100001
  -INDIGO-08031719142D

  4  3  0  0  0  0  0  0  0  0999 V2000
    0.0000    0.0000    0.0000 C   0  0  0  0  0  0  0  0  0  0  0  0
    1.3856    0.8000    0.0000 H   0  0  0  0  0  0  0  0  0  0  0  0
   -1.3856    0.8000    0.0000 H   0  0  0  0  0  0  0  0  0  0  0  0
    0.0000   -1.6000    0.0000 O   0  0  0  0  0  0  0  0  0  0  0  0
  1  2  1  0  0  0  0
  1  3  1  0  0  0  0
  1  4  2  0  0  0  0
M  END
> <ChemID>
100001

> <source_casrn>
50-00-0

> <CAS>
50-00-0

> <SMILES>
C=O

> <NAME>
FORMALDEHYDE

> <preferred_name>
Formaldehyde

> <iupac>
formaldehyde

> <MPID>
98572

> <dsstox_substance_id>
DTXSID7020637

> <Canonical_QSARr>
C=O

> <InChI_Code_QSARr>
InChI=1S/CH2O/c1-2/h1H2

> <InChI Key_QSARr>
WSFSSNUMVMOOMR-UHFFFAOYSA-N

> <OH>
9.369999999999999E-12

> <OH Temperature>
25.0

> <OH Data Type>
EXP

> <OH Reference>
KWOK,ESC & ATKINSON,R (1994)

> <LogOH>
-11.028260409112214

$$$$
100002
  -INDIGO-08031719142D

  5  4  0  0  0  0  0  0  0  0999 V2000
   -0.8000   -1.3856    0.0000 Cl  0  0  0  0  0  0  0  0  0  0  0  0
    0.0000    0.0000    0.0000 C   0  0  0  0  0  0  0  0  0  0  0  0
    0.8000    1.3856    0.0000 Cl  0  0  0  0  0  0  0  0  0  0  0  0
   -1.3856    0.8000    0.0000 Cl  0  0  0  0  0  0  0  0  0  0  0  0
    1.3856   -0.8000    0.0000 Cl  0  0  0  0  0  0  0  0  0  0  0  0
  1  2  1  0  0  0  0
  2  3  1  0  0  0  0
  2  4  1  0  0  0  0
  2  5  1  0  0  0  0
M  END
> <ChemID>
100002

> <source_casrn>
56-23-5

> <CAS>
56-23-5

> <SMILES>
ClC(Cl)(Cl)Cl

> <NAME>
CARBON TETRACHLORIDE

> <preferred_name>
Carbon tetrachloride

> <iupac>
tetrachloromethane

> <MPID>
98573

> <dsstox_substance_id>
DTXSID8020250

> <Canonical_QSARr>
ClC(Cl)(Cl)Cl

> <InChI_Code_QSARr>
InChI=1S/CCl4/c2-1(3,4)5

> <InChI Key_QSARr>
VZGDMQKNWNREIO-UHFFFAOYSA-N

> <OH>
1.2E-16

> <OH Temperature>
25.0

> <OH Data Type>
EXP

> <OH Reference>
ATKINSON,R (1989);<1.2E-016

> <LogOH>
-15.920818753952382

$$$$
100005
  -INDIGO-08031719142D

 18 18  0  0  0  0  0  0  0  0999 V2000
    0.0000    0.0000    0.0000 C   0  0  0  0  0  0  0  0  0  0  0  0
    1.5757   -0.2778    0.0000 H   0  0  0  0  0  0  0  0  0  0  0  0
   -1.3856    0.8000    0.0000 C   0  0  0  0  0  0  0  0  0  0  0  0
   -0.3571    2.0257    0.0000 H   0  0  0  0  0  0  0  0  0  0  0  0
   -2.4141    2.0257    0.0000 Cl  0  0  0  0  0  0  0  0  0  0  0  0
   -2.7713    0.0000    0.0000 C   0  0  0  0  0  0  0  0  0  0  0  0
   -3.3185    1.5035    0.0000 H   0  0  0  0  0  0  0  0  0  0  0  0
   -4.3470   -0.2778    0.0000 Cl  0  0  0  0  0  0  0  0  0  0  0  0
   -2.7713   -1.6000    0.0000 C   0  0  0  0  0  0  0  0  0  0  0  0
   -4.3470   -1.3222    0.0000 H   0  0  0  0  0  0  0  0  0  0  0  0
   -3.3185   -3.1035    0.0000 Cl  0  0  0  0  0  0  0  0  0  0  0  0
   -1.3856   -2.4000    0.0000 C   0  0  0  0  0  0  0  0  0  0  0  0
   -2.4141   -3.6257    0.0000 H   0  0  0  0  0  0  0  0  0  0  0  0
   -0.3571   -3.6257    0.0000 Cl  0  0  0  0  0  0  0  0  0  0  0  0
    0.0000   -1.6000    0.0000 C   0  0  0  0  0  0  0  0  0  0  0  0
    0.5472   -3.1035    0.0000 H   0  0  0  0  0  0  0  0  0  0  0  0
    1.5757   -1.3222    0.0000 Cl  0  0  0  0  0  0  0  0  0  0  0  0
    0.5472    1.5035    0.0000 Cl  0  0  0  0  0  0  0  0  0  0  0  0
  1  2  1  0  0  0  0
  1  3  1  0  0  0  0
  3  4  1  0  0  0  0
  3  5  1  0  0  0  0
  3  6  1  0  0  0  0
  6  7  1  0  0  0  0
  6  8  1  0  0  0  0
  6  9  1  0  0  0  0
  9 10  1  0  0  0  0
  9 11  1  0  0  0  0
  9 12  1  0  0  0  0
 12 13  1  0  0  0  0
 12 14  1  0  0  0  0
 12 15  1  0  0  0  0
 15  1  1  0  0  0  0
 15 16  1  0  0  0  0
 15 17  1  0  0  0  0
  1 18  1  0  0  0  0
M  END
> <ChemID>
100005

> <source_casrn>
58-89-9|319-84-6

> <CAS>
58-89-9|319-84-6

> <SMILES>
Cl[C@@H]1[C@@H](Cl)[C@H](Cl)[C@H](Cl)[C@@H](Cl)[C@@H]1Cl |&1:1,2,4,6,8,10|

> <NAME>
GAMMA-HEXACHLOROCYCLOHEXANE, ALPHA-HEXACHLOROCYCLOHEXANE

> <preferred_name>
Lindane

> <iupac>


> <MPID>
98575|98932

> <dsstox_substance_id>
DTXSID2020686|DTXSID2020684

> <Canonical_QSARr>
ClC1C(Cl)C(Cl)C(Cl)C(Cl)C1Cl

> <InChI_Code_QSARr>
InChI=1S/C6H6Cl6/c7-1-2(8)4(10)6(12)5(11)3(1)9/h1-6H

> <InChI Key_QSARr>
JLYXXMFPNIAWKQ-UHFFFAOYSA-N

> <OH>
1.6500000000000005E-13

> <OH Temperature>
25.0

> <OH Data Type>
EXP

> <OH Reference>
BRUBAKER,WWJR & HITES,RA (1998A)

> <LogOH>
-12.782516055786092

$$$$
100006
  -INDIGO-08031719142D

 15 14  0  0  0  0  0  0  0  0999 V2000
    1.3857    0.8000    0.0000 O   0  0  0  0  0  0  0  0  0  0  0  0
    2.7713    0.0000    0.0000 C   0  0  0  0  0  0  0  0  0  0  0  0
    2.1590   -1.4782    0.0000 H   0  0  0  0  0  0  0  0  0  0  0  0
    3.3835   -1.4782    0.0000 H   0  0  0  0  0  0  0  0  0  0  0  0
    4.1569    0.8000    0.0000 C   0  0  0  0  0  0  0  0  0  0  0  0
    5.5426    1.6000    0.0000 H   0  0  0  0  0  0  0  0  0  0  0  0
    5.5426    0.0000    0.0000 H   0  0  0  0  0  0  0  0  0  0  0  0
    4.1569    2.4000    0.0000 H   0  0  0  0  0  0  0  0  0  0  0  0
    0.0000    0.0000    0.0000 C   0  0  0  0  0  0  0  0  0  0  0  0
   -0.6122   -1.4782    0.0000 H   0  0  0  0  0  0  0  0  0  0  0  0
    0.6122   -1.4782    0.0000 H   0  0  0  0  0  0  0  0  0  0  0  0
   -1.3856    0.8000    0.0000 C   0  0  0  0  0  0  0  0  0  0  0  0
   -2.7713    1.6000    0.0000 H   0  0  0  0  0  0  0  0  0  0  0  0
   -2.7713    0.0000    0.0000 H   0  0  0  0  0  0  0  0  0  0  0  0
   -1.3856    2.4000    0.0000 H   0  0  0  0  0  0  0  0  0  0  0  0
  1  2  1  0  0  0  0
  2  3  1  0  0  0  0
  2  4  1  0  0  0  0
  2  5  1  0  0  0  0
  5  6  1  0  0  0  0
  5  7  1  0  0  0  0
  5  8  1  0  0  0  0
  1  9  1  0  0  0  0
  9 10  1  0  0  0  0
  9 11  1  0  0  0  0
  9 12  1  0  0  0  0
 12 13  1  0  0  0  0
 12 14  1  0  0  0  0
 12 15  1  0  0  0  0
M  END
> <ChemID>
100006

> <source_casrn>
60-29-7

> <CAS>
60-29-7

> <SMILES>
CCOCC

> <NAME>
DIETHYL ETHER

> <preferred_name>
Diethyl ether

> <iupac>
diethyl ether

> <MPID>
98576

> <dsstox_substance_id>
DTXSID3021720

> <Canonical_QSARr>
CCOCC

> <InChI_Code_QSARr>
InChI=1S/C4H10O/c1-3-5-4-2/h3-4H2,1-2H3

> <InChI Key_QSARr>
RTZKZFJDLAIYFH-UHFFFAOYSA-N

> <OH>
1.31E-11

> <OH Temperature>
25.0

> <OH Data Type>
EXP

> <OH Reference>
ATKINSON,R (1994)

> <LogOH>
-10.882728704344215

$$$$
100007
  -INDIGO-08031719142D

  9  8  0  0  0  0  0  0  0  0999 V2000
   -0.0000    0.0000    0.0000 C   0  0  0  0  0  0  0  0  0  0  0  0
    1.3856    0.8000    0.0000 H   0  0  0  0  0  0  0  0  0  0  0  0
   -0.0000    1.6000    0.0000 H   0  0  0  0  0  0  0  0  0  0  0  0
    1.3856   -0.8000    0.0000 H   0  0  0  0  0  0  0  0  0  0  0  0
   -1.3856   -0.8000    0.0000 N   0  0  0  0  0  0  0  0  0  0  0  0
   -1.3856   -2.4000    0.0000 H   0  0  0  0  0  0  0  0  0  0  0  0
   -2.7713    0.0000    0.0000 N   0  0  0  0  0  0  0  0  0  0  0  0
   -4.1569   -0.8000    0.0000 H   0  0  0  0  0  0  0  0  0  0  0  0
   -2.7713    1.6000    0.0000 H   0  0  0  0  0  0  0  0  0  0  0  0
  1  2  1  0  0  0  0
  1  3  1  0  0  0  0
  1  4  1  0  0  0  0
  1  5  1  0  0  0  0
  5  6  1  0  0  0  0
  5  7  1  0  0  0  0
  7  8  1  0  0  0  0
  7  9  1  0  0  0  0
M  END
> <ChemID>
100007

> <source_casrn>
60-34-4

> <CAS>
60-34-4

> <SMILES>
CNN

> <NAME>
METHYL HYDRAZINE

> <preferred_name>
Methylhydrazine

> <iupac>
methylhydrazine

> <MPID>
98577

> <dsstox_substance_id>
DTXSID4020874

> <Canonical_QSARr>
CNN

> <InChI_Code_QSARr>
InChI=1S/CH6N2/c1-3-2/h3H,2H2,1H3

> <InChI Key_QSARr>
HDZGCSFEDULWCS-UHFFFAOYSA-N

> <OH>
6.500000000000002E-11

> <OH Temperature>
25.0

> <OH Data Type>
EXP

> <OH Reference>
ATKINSON,R (1989)

> <LogOH>
-10.187086643357139

$$$$
100009
  -INDIGO-08031719142D

 11 10  0  0  0  0  0  0  0  0999 V2000
    1.6000    0.0000    0.0000 C   0  0  0  0  0  0  0  0  0  0  0  0
    3.2000    0.0000    0.0000 H   0  0  0  0  0  0  0  0  0  0  0  0
    2.4000   -1.3856    0.0000 H   0  0  0  0  0  0  0  0  0  0  0  0
    2.4000    1.3856    0.0000 H   0  0  0  0  0  0  0  0  0  0  0  0
   -0.0000    0.0000    0.0000 N   0  0  0  0  0  0  0  0  0  0  0  0
   -0.8000   -1.3856    0.0000 N   0  0  0  0  0  0  0  0  0  0  0  0
   -2.4000   -1.3856    0.0000 O   0  0  0  0  0  0  0  0  0  0  0  0
   -0.8000    1.3856    0.0000 C   0  0  0  0  0  0  0  0  0  0  0  0
   -1.6000    2.7713    0.0000 H   0  0  0  0  0  0  0  0  0  0  0  0
   -2.4000    1.3856    0.0000 H   0  0  0  0  0  0  0  0  0  0  0  0
   -0.0000    2.7713    0.0000 H   0  0  0  0  0  0  0  0  0  0  0  0
  1  2  1  0  0  0  0
  1  3  1  0  0  0  0
  1  4  1  0  0  0  0
  1  5  1  0  0  0  0
  5  6  1  0  0  0  0
  6  7  2  0  0  0  0
  5  8  1  0  0  0  0
  8  9  1  0  0  0  0
  8 10  1  0  0  0  0
  8 11  1  0  0  0  0
M  END
> <ChemID>
100009

> <source_casrn>
62-75-9

> <CAS>
62-75-9

> <SMILES>
CN(C)N=O

> <NAME>
N-NITROSODIMETHYLAMINE

> <preferred_name>
N-Nitrosodimethylamine

> <iupac>
N-methyl-N-nitrosomethanamine

> <MPID>
98579

> <dsstox_substance_id>
DTXSID7021029

> <Canonical_QSARr>
CN(C)N=O

> <InChI_Code_QSARr>
InChI=1S/C2H6N2O/c1-4(2)3-5/h1-2H3

> <InChI Key_QSARr>
UMFJAHHVKNCGLG-UHFFFAOYSA-N

> <OH>
2.530000000000001E-12

> <OH Temperature>
25.0

> <OH Data Type>
EXP

> <OH Reference>
ATKINSON,R (1989)

> <LogOH>
-11.596879478824173

$$$$
100010
  -INDIGO-08031719142D

  9  8  0  0  0  0  0  0  0  0999 V2000
    1.6000    0.0000    0.0000 C   0  0  0  0  0  0  0  0  0  0  0  0
    3.2000    0.0000    0.0000 H   0  0  0  0  0  0  0  0  0  0  0  0
    2.4000   -1.3856    0.0000 H   0  0  0  0  0  0  0  0  0  0  0  0
    2.4000    1.3856    0.0000 H   0  0  0  0  0  0  0  0  0  0  0  0
   -0.0000    0.0000    0.0000 C   0  0  0  0  0  0  0  0  0  0  0  0
   -0.2089   -1.5863    0.0000 H   0  0  0  0  0  0  0  0  0  0  0  0
   -1.2694   -0.9740    0.0000 H   0  0  0  0  0  0  0  0  0  0  0  0
   -0.8000    1.3856    0.0000 O   0  0  0  0  0  0  0  0  0  0  0  0
   -2.4000    1.3856    0.0000 H   0  0  0  0  0  0  0  0  0  0  0  0
  1  2  1  0  0  0  0
  1  3  1  0  0  0  0
  1  4  1  0  0  0  0
  1  5  1  0  0  0  0
  5  6  1  0  0  0  0
  5  7  1  0  0  0  0
  5  8  1  0  0  0  0
  8  9  1  0  0  0  0
M  END
> <ChemID>
100010

> <source_casrn>
64-17-5

> <CAS>
64-17-5

> <SMILES>
CCO

> <NAME>
ETHANOL

> <preferred_name>
Ethanol

> <iupac>
ethanol

> <MPID>
98580

> <dsstox_substance_id>
DTXSID9020584

> <Canonical_QSARr>
CCO

> <InChI_Code_QSARr>
InChI=1S/C2H6O/c1-2-3/h3H,2H2,1H3

> <InChI Key_QSARr>
LFQSCWFLJHTTHZ-UHFFFAOYSA-N

> <OH>
3.27E-12

> <OH Temperature>
25.0

> <OH Data Type>
EXP

> <OH Reference>
ATKINSON,R (1989)

> <LogOH>
-11.485452247339719

$$$$
100011
  -INDIGO-08031719142D

  5  4  0  0  0  0  0  0  0  0999 V2000
    0.0000    0.0000    0.0000 C   0  0  0  0  0  0  0  0  0  0  0  0
    0.0000    1.6000    0.0000 H   0  0  0  0  0  0  0  0  0  0  0  0
   -1.3856   -0.8000    0.0000 O   0  0  0  0  0  0  0  0  0  0  0  0
    1.3856   -0.8000    0.0000 O   0  0  0  0  0  0  0  0  0  0  0  0
    2.7713    0.0000    0.0000 H   0  0  0  0  0  0  0  0  0  0  0  0
  1  2  1  0  0  0  0
  1  3  2  0  0  0  0
  1  4  1  0  0  0  0
  4  5  1  0  0  0  0
M  END
> <ChemID>
100011

> <source_casrn>
64-18-6

> <CAS>
64-18-6

> <SMILES>
OC=O

> <NAME>
FORMIC ACID

> <preferred_name>
Formic acid

> <iupac>
formic acid

> <MPID>
98581

> <dsstox_substance_id>
DTXSID2024115

> <Canonical_QSARr>
OC=O

> <InChI_Code_QSARr>
InChI=1S/CH2O2/c2-1-3/h1H,(H,2,3)

> <InChI Key_QSARr>
BDAGIHXWWSANSR-UHFFFAOYSA-N

> <OH>
4.499999999999999E-13

> <OH Temperature>
25.0

> <OH Data Type>
EXP

> <OH Reference>
ATKINSON,R (1989)

> <LogOH>
-12.346787486224647

$$$$
100013
  -INDIGO-08031719142D

 19 18  0  0  0  0  0  0  0  0999 V2000
    1.3856    0.8000    0.0000 C   0  0  0  0  0  0  0  0  0  0  0  0
    2.7713    1.6000    0.0000 H   0  0  0  0  0  0  0  0  0  0  0  0
    2.7713    0.0000    0.0000 H   0  0  0  0  0  0  0  0  0  0  0  0
    1.3856    2.4000    0.0000 H   0  0  0  0  0  0  0  0  0  0  0  0
   -0.0000    0.0000    0.0000 C   0  0  0  0  0  0  0  0  0  0  0  0
    0.6123   -1.4782    0.0000 H   0  0  0  0  0  0  0  0  0  0  0  0
   -0.6124   -1.4782    0.0000 H   0  0  0  0  0  0  0  0  0  0  0  0
   -1.3857    0.8000    0.0000 O   0  0  0  0  0  0  0  0  0  0  0  0
   -2.7712   -0.0000    0.0000 S   0  0  0  0  0  0  0  0  0  0  0  0
   -4.1569   -0.8000    0.0000 O   0  0  0  0  0  0  0  0  0  0  0  0
   -5.5425   -0.0000    0.0000 C   0  0  0  0  0  0  0  0  0  0  0  0
   -6.1548    1.4782    0.0000 H   0  0  0  0  0  0  0  0  0  0  0  0
   -4.9302    1.4782    0.0000 H   0  0  0  0  0  0  0  0  0  0  0  0
   -6.9282   -0.8000    0.0000 C   0  0  0  0  0  0  0  0  0  0  0  0
   -8.3138   -1.6000    0.0000 H   0  0  0  0  0  0  0  0  0  0  0  0
   -8.3138   -0.0000    0.0000 H   0  0  0  0  0  0  0  0  0  0  0  0
   -6.9282   -2.4000    0.0000 H   0  0  0  0  0  0  0  0  0  0  0  0
   -3.5713    1.3857    0.0000 O   0  0  0  0  0  0  0  0  0  0  0  0
   -1.9713   -1.3857    0.0000 O   0  0  0  0  0  0  0  0  0  0  0  0
  1  2  1  0  0  0  0
  1  3  1  0  0  0  0
  1  4  1  0  0  0  0
  1  5  1  0  0  0  0
  5  6  1  0  0  0  0
  5  7  1  0  0  0  0
  5  8  1  0  0  0  0
  8  9  1  0  0  0  0
  9 10  1  0  0  0  0
 10 11  1  0  0  0  0
 11 12  1  0  0  0  0
 11 13  1  0  0  0  0
 11 14  1  0  0  0  0
 14 15  1  0  0  0  0
 14 16  1  0  0  0  0
 14 17  1  0  0  0  0
  9 18  2  0  0  0  0
  9 19  2  0  0  0  0
M  END
> <ChemID>
100013

> <source_casrn>
64-67-5

> <CAS>
64-67-5

> <SMILES>
CCOS(=O)(=O)OCC

> <NAME>
DIETHYL SULFATE

> <preferred_name>
Diethyl sulfate

> <iupac>
diethyl sulfate

> <MPID>
98583

> <dsstox_substance_id>
DTXSID1024045

> <Canonical_QSARr>
CCOS(=O)(=O)OCC

> <InChI_Code_QSARr>
InChI=1S/C4H10O4S/c1-3-7-9(5,6)8-4-2/h3-4H2,1-2H3

> <InChI Key_QSARr>
DENRZWYUOJLTMF-UHFFFAOYSA-N

> <OH>
1.8E-12

> <OH Temperature>
25.0

> <OH Data Type>
EXP

> <OH Reference>
JAPAR,SM ET AL. (1990A)

> <LogOH>
-11.744727494896681

$$$$
100014
  -INDIGO-08031719142D

 19 18  0  0  0  0  0  0  0  0999 V2000
    2.7713    0.0000    0.0000 C   0  0  0  0  0  0  0  0  0  0  0  0
    4.1569   -0.8000    0.0000 H   0  0  0  0  0  0  0  0  0  0  0  0
    4.1569    0.8000    0.0000 H   0  0  0  0  0  0  0  0  0  0  0  0
    2.7713   -1.6000    0.0000 H   0  0  0  0  0  0  0  0  0  0  0  0
    1.3857    0.8000    0.0000 C   0  0  0  0  0  0  0  0  0  0  0  0
    1.9980    2.2782    0.0000 H   0  0  0  0  0  0  0  0  0  0  0  0
    0.7734    2.2782    0.0000 H   0  0  0  0  0  0  0  0  0  0  0  0
    0.0001    0.0000    0.0000 C   0  0  0  0  0  0  0  0  0  0  0  0
   -0.6122   -1.4782    0.0000 H   0  0  0  0  0  0  0  0  0  0  0  0
    0.6124   -1.4782    0.0000 H   0  0  0  0  0  0  0  0  0  0  0  0
   -1.3857    0.8000    0.0000 C   0  0  0  0  0  0  0  0  0  0  0  0
   -0.7734    2.2782    0.0000 H   0  0  0  0  0  0  0  0  0  0  0  0
   -1.9980    2.2782    0.0000 H   0  0  0  0  0  0  0  0  0  0  0  0
   -2.7713    0.0000    0.0000 C   0  0  0  0  0  0  0  0  0  0  0  0
   -3.3836   -1.4782    0.0000 H   0  0  0  0  0  0  0  0  0  0  0  0
   -2.1590   -1.4782    0.0000 H   0  0  0  0  0  0  0  0  0  0  0  0
   -4.1569    0.8000    0.0000 C   0  0  0  0  0  0  0  0  0  0  0  0
   -5.5426    0.0000    0.0000 H   0  0  0  0  0  0  0  0  0  0  0  0
   -4.1569    2.4000    0.0000 O   0  0  0  0  0  0  0  0  0  0  0  0
  1  2  1  0  0  0  0
  1  3  1  0  0  0  0
  1  4  1  0  0  0  0
  1  5  1  0  0  0  0
  5  6  1  0  0  0  0
  5  7  1  0  0  0  0
  5  8  1  0  0  0  0
  8  9  1  0  0  0  0
  8 10  1  0  0  0  0
  8 11  1  0  0  0  0
 11 12  1  0  0  0  0
 11 13  1  0  0  0  0
 11 14  1  0  0  0  0
 14 15  1  0  0  0  0
 14 16  1  0  0  0  0
 14 17  1  0  0  0  0
 17 18  1  0  0  0  0
 17 19  2  0  0  0  0
M  END
> <ChemID>
100014

> <source_casrn>
66-25-1

> <CAS>
66-25-1

> <SMILES>
CCCCCC=O

> <NAME>
HEXANAL

> <preferred_name>
Hexanal

> <iupac>
hexanal

> <MPID>
98584

> <dsstox_substance_id>
DTXSID2021604

> <Canonical_QSARr>
CCCCCC=O

> <InChI_Code_QSARr>
InChI=1S/C6H12O/c1-2-3-4-5-6-7/h6H,2-5H2,1H3

> <InChI Key_QSARr>
JARKCYVAAOWBJS-UHFFFAOYSA-N

> <OH>
3.17E-11

> <OH Temperature>
23.0

> <OH Data Type>
EXP

> <OH Reference>
PAPAGNI,C ET AL. (2000)

> <LogOH>
-10.498940737782242

$$$$
100015
  -INDIGO-08031719142D

  6  5  0  0  0  0  0  0  0  0999 V2000
    0.0000    0.0000    0.0000 C   0  0  0  0  0  0  0  0  0  0  0  0
    1.3856    0.8000    0.0000 H   0  0  0  0  0  0  0  0  0  0  0  0
    0.0000    1.6000    0.0000 H   0  0  0  0  0  0  0  0  0  0  0  0
    1.3856   -0.8000    0.0000 H   0  0  0  0  0  0  0  0  0  0  0  0
   -1.3856   -0.8000    0.0000 O   0  0  0  0  0  0  0  0  0  0  0  0
   -2.7713    0.0000    0.0000 H   0  0  0  0  0  0  0  0  0  0  0  0
  1  2  1  0  0  0  0
  1  3  1  0  0  0  0
  1  4  1  0  0  0  0
  1  5  1  0  0  0  0
  5  6  1  0  0  0  0
M  END
> <ChemID>
100015

> <source_casrn>
67-56-1

> <CAS>
67-56-1

> <SMILES>
CO

> <NAME>
METHANOL

> <preferred_name>
Methanol

> <iupac>
methanol

> <MPID>
98585

> <dsstox_substance_id>
DTXSID2021731

> <Canonical_QSARr>
CO

> <InChI_Code_QSARr>
InChI=1S/CH4O/c1-2/h2H,1H3

> <InChI Key_QSARr>
OKKJLVBELUTLKV-UHFFFAOYSA-N

> <OH>
9.44E-13

> <OH Temperature>
25.0

> <OH Data Type>
EXP

> <OH Reference>
KWOK,ESC & ATKINSON,R (1994)

> <LogOH>
-12.025028005701937

$$$$
100017
  -INDIGO-08031719142D

 10  9  0  0  0  0  0  0  0  0999 V2000
    1.3856    0.8000    0.0000 C   0  0  0  0  0  0  0  0  0  0  0  0
    2.7713    1.6000    0.0000 H   0  0  0  0  0  0  0  0  0  0  0  0
    2.7713    0.0000    0.0000 H   0  0  0  0  0  0  0  0  0  0  0  0
    1.3856    2.4000    0.0000 H   0  0  0  0  0  0  0  0  0  0  0  0
    0.0000    0.0000    0.0000 C   0  0  0  0  0  0  0  0  0  0  0  0
   -1.3856    0.8000    0.0000 C   0  0  0  0  0  0  0  0  0  0  0  0
   -2.7713    1.6000    0.0000 H   0  0  0  0  0  0  0  0  0  0  0  0
   -2.7713    0.0000    0.0000 H   0  0  0  0  0  0  0  0  0  0  0  0
   -1.3856    2.4000    0.0000 H   0  0  0  0  0  0  0  0  0  0  0  0
    0.0000   -1.6000    0.0000 O   0  0  0  0  0  0  0  0  0  0  0  0
  1  2  1  0  0  0  0
  1  3  1  0  0  0  0
  1  4  1  0  0  0  0
  1  5  1  0  0  0  0
  5  6  1  0  0  0  0
  6  7  1  0  0  0  0
  6  8  1  0  0  0  0
  6  9  1  0  0  0  0
  5 10  2  0  0  0  0
M  END
> <ChemID>
100017

> <source_casrn>
67-64-1

> <CAS>
67-64-1

> <SMILES>
CC(C)=O

> <NAME>
ACETONE

> <preferred_name>
Acetone

> <iupac>
propan-2-one

> <MPID>
98587

> <dsstox_substance_id>
DTXSID8021482

> <Canonical_QSARr>
CC(C)=O

> <InChI_Code_QSARr>
InChI=1S/C3H6O/c1-3(2)4/h1-2H3

> <InChI Key_QSARr>
CSCPPACGZOOCGX-UHFFFAOYSA-N

> <OH>
2.19E-13

> <OH Temperature>
25.0

> <OH Data Type>
EXP

> <OH Reference>
KWOK,ESC & ATKINSON,R (1994)

> <LogOH>
-12.659555885159888

$$$$
100018
  -INDIGO-08031719142D

  5  4  0  0  0  0  0  0  0  0999 V2000
   -0.8000   -1.3856    0.0000 Cl  0  0  0  0  0  0  0  0  0  0  0  0
    0.0000    0.0000    0.0000 C   0  0  0  0  0  0  0  0  0  0  0  0
    0.8000    1.3856    0.0000 H   0  0  0  0  0  0  0  0  0  0  0  0
   -1.3856    0.8000    0.0000 Cl  0  0  0  0  0  0  0  0  0  0  0  0
    1.3856   -0.8000    0.0000 Cl  0  0  0  0  0  0  0  0  0  0  0  0
  1  2  1  0  0  0  0
  2  3  1  0  0  0  0
  2  4  1  0  0  0  0
  2  5  1  0  0  0  0
M  END
> <ChemID>
100018

> <source_casrn>
67-66-3

> <CAS>
67-66-3

> <SMILES>
ClC(Cl)Cl

> <NAME>
CHLOROFORM

> <preferred_name>
Chloroform

> <iupac>
trichloromethane

> <MPID>
98588

> <dsstox_substance_id>
DTXSID1020306

> <Canonical_QSARr>
ClC(Cl)Cl

> <InChI_Code_QSARr>
InChI=1S/CHCl3/c2-1(3)4/h1H

> <InChI Key_QSARr>
HEDRZPFGACZZDS-UHFFFAOYSA-N

> <OH>
1.03E-13

> <OH Temperature>
25.0

> <OH Data Type>
EXP

> <OH Reference>
ATKINSON,R (1989)

> <LogOH>
-12.987162775294804

$$$$
100019
  -INDIGO-08031719142D

 10  9  0  0  0  0  0  0  0  0999 V2000
    1.3856    0.8000    0.0000 C   0  0  0  0  0  0  0  0  0  0  0  0
    2.7713    1.6000    0.0000 H   0  0  0  0  0  0  0  0  0  0  0  0
    2.7713    0.0000    0.0000 H   0  0  0  0  0  0  0  0  0  0  0  0
    1.3856    2.4000    0.0000 H   0  0  0  0  0  0  0  0  0  0  0  0
    0.0000    0.0000    0.0000 S   0  0  0  0  0  0  0  0  0  0  0  0
    0.0000   -1.6000    0.0000 O   0  0  0  0  0  0  0  0  0  0  0  0
   -1.3856    0.8000    0.0000 C   0  0  0  0  0  0  0  0  0  0  0  0
   -2.7713    1.6000    0.0000 H   0  0  0  0  0  0  0  0  0  0  0  0
   -2.7713    0.0000    0.0000 H   0  0  0  0  0  0  0  0  0  0  0  0
   -1.3856    2.4000    0.0000 H   0  0  0  0  0  0  0  0  0  0  0  0
  1  2  1  0  0  0  0
  1  3  1  0  0  0  0
  1  4  1  0  0  0  0
  1  5  1  0  0  0  0
  5  6  2  0  0  0  0
  5  7  1  0  0  0  0
  7  8  1  0  0  0  0
  7  9  1  0  0  0  0
  7 10  1  0  0  0  0
M  END
> <ChemID>
100019

> <source_casrn>
67-68-5

> <CAS>
67-68-5

> <SMILES>
CS(C)=O

> <NAME>
DIMETHYL SULFOXIDE

> <preferred_name>
Dimethyl sulfoxide

> <iupac>
C2H6OS

> <MPID>
98589

> <dsstox_substance_id>
DTXSID2021735

> <Canonical_QSARr>
CS(C)=O

> <InChI_Code_QSARr>
InChI=1S/C2H6OS/c1-4(2)3/h1-2H3

> <InChI Key_QSARr>
IAZDPXIOMUYVGZ-UHFFFAOYSA-N

> <OH>
6.200000000000002E-11

> <OH Temperature>
25.0

> <OH Data Type>
EXP

> <OH Reference>
ATKINSON,R (1989)

> <LogOH>
-10.207608310501765

$$$$
100021
  -INDIGO-08031719142D

 15 14  0  0  0  0  0  0  0  0999 V2000
    2.7713   -0.0000    0.0000 C   0  0  0  0  0  0  0  0  0  0  0  0
    4.1569   -0.8000    0.0000 H   0  0  0  0  0  0  0  0  0  0  0  0
    4.1569    0.8000    0.0000 H   0  0  0  0  0  0  0  0  0  0  0  0
    2.7713   -1.6000    0.0000 H   0  0  0  0  0  0  0  0  0  0  0  0
    1.3856    0.8000    0.0000 C   0  0  0  0  0  0  0  0  0  0  0  0
    0.7734    2.2782    0.0000 H   0  0  0  0  0  0  0  0  0  0  0  0
    1.9979    2.2782    0.0000 H   0  0  0  0  0  0  0  0  0  0  0  0
    0.0001   -0.0000    0.0000 C   0  0  0  0  0  0  0  0  0  0  0  0
    0.6123   -1.4782    0.0000 H   0  0  0  0  0  0  0  0  0  0  0  0
   -0.6123   -1.4782    0.0000 H   0  0  0  0  0  0  0  0  0  0  0  0
   -1.3856    0.8000    0.0000 C   0  0  0  0  0  0  0  0  0  0  0  0
   -1.9979    2.2782    0.0000 H   0  0  0  0  0  0  0  0  0  0  0  0
   -0.7734    2.2782    0.0000 H   0  0  0  0  0  0  0  0  0  0  0  0
   -2.7713   -0.0000    0.0000 O   0  0  0  0  0  0  0  0  0  0  0  0
   -4.1569    0.8000    0.0000 H   0  0  0  0  0  0  0  0  0  0  0  0
  1  2  1  0  0  0  0
  1  3  1  0  0  0  0
  1  4  1  0  0  0  0
  1  5  1  0  0  0  0
  5  6  1  0  0  0  0
  5  7  1  0  0  0  0
  5  8  1  0  0  0  0
  8  9  1  0  0  0  0
  8 10  1  0  0  0  0
  8 11  1  0  0  0  0
 11 12  1  0  0  0  0
 11 13  1  0  0  0  0
 11 14  1  0  0  0  0
 14 15  1  0  0  0  0
M  END
> <ChemID>
100021

> <source_casrn>
71-36-3

> <CAS>
71-36-3

> <SMILES>
CCCCO

> <NAME>
1-BUTANOL

> <preferred_name>
1-Butanol

> <iupac>
butan-1-ol

> <MPID>
98591

> <dsstox_substance_id>
DTXSID1021740

> <Canonical_QSARr>
CCCCO

> <InChI_Code_QSARr>
InChI=1S/C4H10O/c1-2-3-4-5/h5H,2-4H2,1H3

> <InChI Key_QSARr>
LRHPLDYGYMQRHN-UHFFFAOYSA-N

> <OH>
8.57E-12

> <OH Temperature>
25.0

> <OH Data Type>
EXP

> <OH Reference>
KWOK,ESC & ATKINSON,R (1994)

> <LogOH>
-11.06701917807682

$$$$
100022
  -INDIGO-08031719142D

 18 17  0  0  0  0  0  0  0  0999 V2000
    2.7713   -0.0000    0.0000 C   0  0  0  0  0  0  0  0  0  0  0  0
    4.1569   -0.8000    0.0000 H   0  0  0  0  0  0  0  0  0  0  0  0
    4.1569    0.8000    0.0000 H   0  0  0  0  0  0  0  0  0  0  0  0
    2.7713   -1.6000    0.0000 H   0  0  0  0  0  0  0  0  0  0  0  0
    1.3857    0.8000    0.0000 C   0  0  0  0  0  0  0  0  0  0  0  0
    1.9980    2.2782    0.0000 H   0  0  0  0  0  0  0  0  0  0  0  0
    0.7734    2.2782    0.0000 H   0  0  0  0  0  0  0  0  0  0  0  0
    0.0001   -0.0000    0.0000 C   0  0  0  0  0  0  0  0  0  0  0  0
   -0.6122   -1.4782    0.0000 H   0  0  0  0  0  0  0  0  0  0  0  0
    0.6124   -1.4782    0.0000 H   0  0  0  0  0  0  0  0  0  0  0  0
   -1.3857    0.8000    0.0000 C   0  0  0  0  0  0  0  0  0  0  0  0
   -0.7734    2.2782    0.0000 H   0  0  0  0  0  0  0  0  0  0  0  0
   -1.9980    2.2782    0.0000 H   0  0  0  0  0  0  0  0  0  0  0  0
   -2.7713   -0.0000    0.0000 C   0  0  0  0  0  0  0  0  0  0  0  0
   -3.3836   -1.4782    0.0000 H   0  0  0  0  0  0  0  0  0  0  0  0
   -2.1590   -1.4782    0.0000 H   0  0  0  0  0  0  0  0  0  0  0  0
   -4.1569    0.8000    0.0000 O   0  0  0  0  0  0  0  0  0  0  0  0
   -5.5426   -0.0000    0.0000 H   0  0  0  0  0  0  0  0  0  0  0  0
  1  2  1  0  0  0  0
  1  3  1  0  0  0  0
  1  4  1  0  0  0  0
  1  5  1  0  0  0  0
  5  6  1  0  0  0  0
  5  7  1  0  0  0  0
  5  8  1  0  0  0  0
  8  9  1  0  0  0  0
  8 10  1  0  0  0  0
  8 11  1  0  0  0  0
 11 12  1  0  0  0  0
 11 13  1  0  0  0  0
 11 14  1  0  0  0  0
 14 15  1  0  0  0  0
 14 16  1  0  0  0  0
 14 17  1  0  0  0  0
 17 18  1  0  0  0  0
M  END
> <ChemID>
100022

> <source_casrn>
71-41-0

> <CAS>
71-41-0

> <SMILES>
CCCCCO

> <NAME>
1-PENTANOL

> <preferred_name>
1-Pentanol

> <iupac>
pentan-1-ol

> <MPID>
98592

> <dsstox_substance_id>
DTXSID6021741

> <Canonical_QSARr>
CCCCCO

> <InChI_Code_QSARr>
InChI=1S/C5H12O/c1-2-3-4-5-6/h6H,2-5H2,1H3

> <InChI Key_QSARr>
AMQJEAYHLZJPGS-UHFFFAOYSA-N

> <OH>
1.11E-11

> <OH Temperature>
25.0

> <OH Data Type>
EXP

> <OH Reference>
KWOK,ESC & ATKINSON,R (1994)

> <LogOH>
-10.954677021213358

$$$$
100023
  -INDIGO-08031719142D

 12 12  0  0  0  0  0  0  0  0999 V2000
   -0.0000   -0.0000    0.0000 C   0  0  0  0  0  0  0  0  0  0  0  0
    0.8000    1.3856    0.0000 H   0  0  0  0  0  0  0  0  0  0  0  0
    0.8000   -1.3857    0.0000 C   0  0  0  0  0  0  0  0  0  0  0  0
    2.4000   -1.3857    0.0000 H   0  0  0  0  0  0  0  0  0  0  0  0
   -0.0000   -2.7713    0.0000 C   0  0  0  0  0  0  0  0  0  0  0  0
    0.8000   -4.1569    0.0000 H   0  0  0  0  0  0  0  0  0  0  0  0
   -1.6000   -2.7713    0.0000 C   0  0  0  0  0  0  0  0  0  0  0  0
   -2.4000   -4.1569    0.0000 H   0  0  0  0  0  0  0  0  0  0  0  0
   -2.4000   -1.3856    0.0000 C   0  0  0  0  0  0  0  0  0  0  0  0
   -4.0000   -1.3856    0.0000 H   0  0  0  0  0  0  0  0  0  0  0  0
   -1.6000   -0.0000    0.0000 C   0  0  0  0  0  0  0  0  0  0  0  0
   -2.4000    1.3856    0.0000 H   0  0  0  0  0  0  0  0  0  0  0  0
  1  2  1  0  0  0  0
  1  3  1  0  0  0  0
  3  4  1  0  0  0  0
  3  5  2  0  0  0  0
  5  6  1  0  0  0  0
  5  7  1  0  0  0  0
  7  8  1  0  0  0  0
  7  9  2  0  0  0  0
  9 10  1  0  0  0  0
  9 11  1  0  0  0  0
 11  1  2  0  0  0  0
 11 12  1  0  0  0  0
M  END
> <ChemID>
100023

> <source_casrn>
71-43-2

> <CAS>
71-43-2

> <SMILES>
c1ccccc1

> <NAME>
BENZENE

> <preferred_name>
Benzene

> <iupac>
benzene

> <MPID>
98593

> <dsstox_substance_id>
DTXSID3039242

> <Canonical_QSARr>
c1ccccc1

> <InChI_Code_QSARr>
InChI=1S/C6H6/c1-2-4-6-5-3-1/h1-6H

> <InChI Key_QSARr>
UHOVQNZJYSORNB-UHFFFAOYSA-N

> <OH>
1.23E-12

> <OH Temperature>
25.0

> <OH Data Type>
EXP

> <OH Reference>
ATKINSON,R (1989)

> <LogOH>
-11.910094888560591

$$$$
100025
  -INDIGO-08031719142D

  5  4  0  0  0  0  0  0  0  0999 V2000
    0.0000    0.0000    0.0000 C   0  0  0  0  0  0  0  0  0  0  0  0
    0.8000    1.3856    0.0000 H   0  0  0  0  0  0  0  0  0  0  0  0
   -1.3856    0.8000    0.0000 H   0  0  0  0  0  0  0  0  0  0  0  0
    1.3856   -0.8000    0.0000 H   0  0  0  0  0  0  0  0  0  0  0  0
   -0.8000   -1.3856    0.0000 H   0  0  0  0  0  0  0  0  0  0  0  0
  1  2  1  0  0  0  0
  1  3  1  0  0  0  0
  1  4  1  0  0  0  0
  1  5  1  0  0  0  0
M  END
> <ChemID>
100025

> <source_casrn>
74-82-8

> <CAS>
74-82-8

> <SMILES>
C

> <NAME>
METHANE

> <preferred_name>
Methane

> <iupac>
methane

> <MPID>
98595

> <dsstox_substance_id>
DTXSID8025545

> <Canonical_QSARr>
C

> <InChI_Code_QSARr>
InChI=1S/CH4/h1H4

> <InChI Key_QSARr>
VNWKTOKETHGBQD-UHFFFAOYSA-N

> <OH>
6.86E-15

> <OH Temperature>
25.0

> <OH Data Type>
EXP

> <OH Reference>
ATKINSON,R (1994)

> <LogOH>
-14.16367588429325

$$$$
100026
  -INDIGO-08031719142D

  5  4  0  0  0  0  0  0  0  0999 V2000
    0.0000    0.0000    0.0000 C   0  0  0  0  0  0  0  0  0  0  0  0
    0.8000    1.3856    0.0000 H   0  0  0  0  0  0  0  0  0  0  0  0
   -1.3856    0.8000    0.0000 H   0  0  0  0  0  0  0  0  0  0  0  0
    1.3856   -0.8000    0.0000 H   0  0  0  0  0  0  0  0  0  0  0  0
   -0.8000   -1.3856    0.0000 Br  0  0  0  0  0  0  0  0  0  0  0  0
  1  2  1  0  0  0  0
  1  3  1  0  0  0  0
  1  4  1  0  0  0  0
  1  5  1  0  0  0  0
M  END
> <ChemID>
100026

> <source_casrn>
74-83-9

> <CAS>
74-83-9

> <SMILES>
CBr

> <NAME>
METHYL BROMIDE

> <preferred_name>
Methyl bromide

> <iupac>
bromomethane

> <MPID>
98596

> <dsstox_substance_id>
DTXSID8020832

> <Canonical_QSARr>
CBr

> <InChI_Code_QSARr>
InChI=1S/CH3Br/c1-2/h1H3

> <InChI Key_QSARr>
GZUXJHMPEANEGY-UHFFFAOYSA-N

> <OH>
4.020000000000001E-14

> <OH Temperature>
25.0

> <OH Data Type>
EXP

> <OH Reference>
ATKINSON,R (1989)

> <LogOH>
-13.395773946915524

$$$$
100027
  -INDIGO-08031719142D

  8  7  0  0  0  0  0  0  0  0999 V2000
    0.0000    0.0000    0.0000 C   0  0  0  0  0  0  0  0  0  0  0  0
    1.6000   -0.0000    0.0000 H   0  0  0  0  0  0  0  0  0  0  0  0
    0.8000   -1.3856    0.0000 H   0  0  0  0  0  0  0  0  0  0  0  0
    0.8000    1.3856    0.0000 H   0  0  0  0  0  0  0  0  0  0  0  0
   -1.6000    0.0000    0.0000 C   0  0  0  0  0  0  0  0  0  0  0  0
   -3.2000    0.0000    0.0000 H   0  0  0  0  0  0  0  0  0  0  0  0
   -2.4000   -1.3856    0.0000 H   0  0  0  0  0  0  0  0  0  0  0  0
   -2.4000    1.3856    0.0000 H   0  0  0  0  0  0  0  0  0  0  0  0
  1  2  1  0  0  0  0
  1  3  1  0  0  0  0
  1  4  1  0  0  0  0
  1  5  1  0  0  0  0
  5  6  1  0  0  0  0
  5  7  1  0  0  0  0
  5  8  1  0  0  0  0
M  END
> <ChemID>
100027

> <source_casrn>
74-84-0

> <CAS>
74-84-0

> <SMILES>
CC

> <NAME>
ETHANE

> <preferred_name>
Ethane

> <iupac>
ethane

> <MPID>
98597

> <dsstox_substance_id>
DTXSID6026377

> <Canonical_QSARr>
CC

> <InChI_Code_QSARr>
InChI=1S/C2H6/c1-2/h1-2H3

> <InChI Key_QSARr>
OTMSDBZUPAUEDD-UHFFFAOYSA-N

> <OH>
2.68E-13

> <OH Temperature>
25.0

> <OH Data Type>
EXP

> <OH Reference>
ATKINSON,R (1989)

> <LogOH>
-12.571865205971198

$$$$
100029
  -INDIGO-08031719142D

  4  3  0  0  0  0  0  0  0  0999 V2000
    0.0000    0.0000    0.0000 C   0  0  0  0  0  0  0  0  0  0  0  0
    1.6000    0.0000    0.0000 H   0  0  0  0  0  0  0  0  0  0  0  0
   -1.6000    0.0000    0.0000 C   0  0  0  0  0  0  0  0  0  0  0  0
   -3.2000    0.0000    0.0000 H   0  0  0  0  0  0  0  0  0  0  0  0
  1  2  1  0  0  0  0
  1  3  3  0  0  0  0
  3  4  1  0  0  0  0
M  END
> <ChemID>
100029

> <source_casrn>
74-86-2

> <CAS>
74-86-2

> <SMILES>
C#C

> <NAME>
ACETYLENE

> <preferred_name>
Ethyne

> <iupac>
ethyne

> <MPID>
98599

> <dsstox_substance_id>
DTXSID6026379

> <Canonical_QSARr>
C#C

> <InChI_Code_QSARr>
InChI=1S/C2H2/c1-2/h1-2H

> <InChI Key_QSARr>
HSFWRNGVRCDJHI-UHFFFAOYSA-N

> <OH>
8.150000000000001E-13

> <OH Temperature>
25.0

> <OH Data Type>
EXP

> <OH Reference>
ATKINSON,R (1989)

> <LogOH>
-12.088842391260012

$$$$
100030
  -INDIGO-08031719142D

  5  4  0  0  0  0  0  0  0  0999 V2000
   -0.8000   -1.3856    0.0000 Cl  0  0  0  0  0  0  0  0  0  0  0  0
    0.0000    0.0000    0.0000 C   0  0  0  0  0  0  0  0  0  0  0  0
    0.8000    1.3856    0.0000 H   0  0  0  0  0  0  0  0  0  0  0  0
   -1.3856    0.8000    0.0000 H   0  0  0  0  0  0  0  0  0  0  0  0
    1.3856   -0.8000    0.0000 H   0  0  0  0  0  0  0  0  0  0  0  0
  1  2  1  0  0  0  0
  2  3  1  0  0  0  0
  2  4  1  0  0  0  0
  2  5  1  0  0  0  0
M  END
> <ChemID>
100030

> <source_casrn>
74-87-3

> <CAS>
74-87-3

> <SMILES>
CCl

> <NAME>
METHYL CHLORIDE

> <preferred_name>
Chloromethane

> <iupac>
chloromethane

> <MPID>
98600

> <dsstox_substance_id>
DTXSID0021541

> <Canonical_QSARr>
CCl

> <InChI_Code_QSARr>
InChI=1S/CH3Cl/c1-2/h1H3

> <InChI Key_QSARr>
NEHMKBQYUWJMIP-UHFFFAOYSA-N

> <OH>
4.359999999999999E-14

> <OH Temperature>
25.0

> <OH Data Type>
EXP

> <OH Reference>
ATKINSON,R (1989)

> <LogOH>
-13.360513510731414

$$$$
100031
  -INDIGO-08031719142D

  5  4  0  0  0  0  0  0  0  0999 V2000
    0.0000    0.0000    0.0000 C   0  0  0  0  0  0  0  0  0  0  0  0
    0.8000    1.3856    0.0000 H   0  0  0  0  0  0  0  0  0  0  0  0
   -1.3856    0.8000    0.0000 H   0  0  0  0  0  0  0  0  0  0  0  0
    1.3856   -0.8000    0.0000 H   0  0  0  0  0  0  0  0  0  0  0  0
   -0.8000   -1.3856    0.0000 I   0  0  0  0  0  0  0  0  0  0  0  0
  1  2  1  0  0  0  0
  1  3  1  0  0  0  0
  1  4  1  0  0  0  0
  1  5  1  0  0  0  0
M  END
> <ChemID>
100031

> <source_casrn>
74-88-4

> <CAS>
74-88-4

> <SMILES>
CI

> <NAME>
METHYL IODIDE

> <preferred_name>
Methyl iodide

> <iupac>
iodomethane

> <MPID>
98601

> <dsstox_substance_id>
DTXSID0024187

> <Canonical_QSARr>
CI

> <InChI_Code_QSARr>
InChI=1S/CH3I/c1-2/h1H3

> <InChI Key_QSARr>
INQOMBQAUSQDDS-UHFFFAOYSA-N

> <OH>
7.199999999999998E-14

> <OH Temperature>
25.0

> <OH Data Type>
EXP

> <OH Reference>
BROWN,AC ET AL. (1990B)

> <LogOH>
-13.142667503568717

$$$$
100033
  -INDIGO-08031719142D

  3  2  0  0  0  0  0  0  0  0999 V2000
   -1.6000    0.0000    0.0000 N   0  0  0  0  0  0  0  0  0  0  0  0
    0.0000    0.0000    0.0000 C   0  0  0  0  0  0  0  0  0  0  0  0
    1.6000    0.0000    0.0000 H   0  0  0  0  0  0  0  0  0  0  0  0
  1  2  3  0  0  0  0
  2  3  1  0  0  0  0
M  END
> <ChemID>
100033

> <source_casrn>
74-90-8

> <CAS>
74-90-8

> <SMILES>
C#N

> <NAME>
HYDROCYANIC ACID

> <preferred_name>
Hydrogen cyanide

> <iupac>
hydrocyanic acid

> <MPID>
98603

> <dsstox_substance_id>
DTXSID9024148

> <Canonical_QSARr>
C#N

> <InChI_Code_QSARr>
InChI=1S/CHN/c1-2/h1H

> <InChI Key_QSARr>
LELOWRISYMNNSU-UHFFFAOYSA-N

> <OH>
3.000000000000001E-14

> <OH Temperature>
25.0

> <OH Data Type>
EXP

> <OH Reference>
ATKINSON,R (1989)

> <LogOH>
-13.522878745280323

$$$$
100034
  -INDIGO-08031719142D

  6  5  0  0  0  0  0  0  0  0999 V2000
    0.0000    0.0000    0.0000 C   0  0  0  0  0  0  0  0  0  0  0  0
    1.3856    0.8000    0.0000 H   0  0  0  0  0  0  0  0  0  0  0  0
    0.0000    1.6000    0.0000 H   0  0  0  0  0  0  0  0  0  0  0  0
    1.3856   -0.8000    0.0000 H   0  0  0  0  0  0  0  0  0  0  0  0
   -1.3856   -0.8000    0.0000 S   0  0  0  0  0  0  0  0  0  0  0  0
   -2.7713    0.0000    0.0000 H   0  0  0  0  0  0  0  0  0  0  0  0
  1  2  1  0  0  0  0
  1  3  1  0  0  0  0
  1  4  1  0  0  0  0
  1  5  1  0  0  0  0
  5  6  1  0  0  0  0
M  END
> <ChemID>
100034

> <source_casrn>
74-93-1

> <CAS>
74-93-1

> <SMILES>
CS

> <NAME>
METHANETHIOL

> <preferred_name>
Methanethiol

> <iupac>
methanethiol

> <MPID>
98604

> <dsstox_substance_id>
DTXSID5026382

> <Canonical_QSARr>
CS

> <InChI_Code_QSARr>
InChI=1S/CH4S/c1-2/h2H,1H3

> <InChI Key_QSARr>
LSDPWZHWYPCBBB-UHFFFAOYSA-N

> <OH>
3.29E-11

> <OH Temperature>
25.0

> <OH Data Type>
EXP

> <OH Reference>
ATKINSON,R (1989)

> <LogOH>
-10.482804102050016

$$$$
100035
  -INDIGO-08031719142D

  5  4  0  0  0  0  0  0  0  0999 V2000
   -0.8000   -1.3856    0.0000 Br  0  0  0  0  0  0  0  0  0  0  0  0
    0.0000    0.0000    0.0000 C   0  0  0  0  0  0  0  0  0  0  0  0
    0.8000    1.3856    0.0000 H   0  0  0  0  0  0  0  0  0  0  0  0
   -1.3856    0.8000    0.0000 H   0  0  0  0  0  0  0  0  0  0  0  0
    1.3856   -0.8000    0.0000 Br  0  0  0  0  0  0  0  0  0  0  0  0
  1  2  1  0  0  0  0
  2  3  1  0  0  0  0
  2  4  1  0  0  0  0
  2  5  1  0  0  0  0
M  END
> <ChemID>
100035

> <source_casrn>
74-95-3

> <CAS>
74-95-3

> <SMILES>
BrCBr

> <NAME>
DIBROMOMETHANE

> <preferred_name>
Dibromomethane

> <iupac>
dibromomethane

> <MPID>
98605

> <dsstox_substance_id>
DTXSID4021557

> <Canonical_QSARr>
BrCBr

> <InChI_Code_QSARr>
InChI=1S/CH2Br2/c2-1-3/h1H2

> <InChI Key_QSARr>
FJBFPHVGVWTDIP-UHFFFAOYSA-N

> <OH>
1.13E-13

> <OH Temperature>
25.0

> <OH Data Type>
EXP

> <OH Reference>
MELLOUKI,A ET AL. (1992)

> <LogOH>
-12.94692155651656

$$$$
100037
  -INDIGO-08031719142D

  5  4  0  0  0  0  0  0  0  0999 V2000
   -0.8000   -1.3856    0.0000 Cl  0  0  0  0  0  0  0  0  0  0  0  0
    0.0000    0.0000    0.0000 C   0  0  0  0  0  0  0  0  0  0  0  0
    0.8000    1.3856    0.0000 H   0  0  0  0  0  0  0  0  0  0  0  0
   -1.3856    0.8000    0.0000 H   0  0  0  0  0  0  0  0  0  0  0  0
    1.3856   -0.8000    0.0000 Br  0  0  0  0  0  0  0  0  0  0  0  0
  1  2  1  0  0  0  0
  2  3  1  0  0  0  0
  2  4  1  0  0  0  0
  2  5  1  0  0  0  0
M  END
> <ChemID>
100037

> <source_casrn>
74-97-5

> <CAS>
74-97-5

> <SMILES>
ClCBr

> <NAME>
CHLOROBROMOMETHANE

> <preferred_name>
Bromochloromethane

> <iupac>
bromo(chloro)methane

> <MPID>
98607

> <dsstox_substance_id>
DTXSID4021503

> <Canonical_QSARr>
ClCBr

> <InChI_Code_QSARr>
InChI=1S/CH2BrCl/c2-1-3/h1H2

> <InChI Key_QSARr>
JPOXNPPZZKNXOV-UHFFFAOYSA-N

> <OH>
8.8E-14

> <OH Temperature>
25.0

> <OH Data Type>
EXP

> <OH Reference>
DEMORE,WB (1996)

> <LogOH>
-13.055517327849838

$$$$
100038
  -INDIGO-08031719142D

 11 10  0  0  0  0  0  0  0  0999 V2000
    0.0000    0.0000    0.0000 C   0  0  0  0  0  0  0  0  0  0  0  0
    0.6123   -1.4782    0.0000 H   0  0  0  0  0  0  0  0  0  0  0  0
   -0.6123   -1.4782    0.0000 H   0  0  0  0  0  0  0  0  0  0  0  0
   -1.3856    0.8000    0.0000 C   0  0  0  0  0  0  0  0  0  0  0  0
   -2.7713    1.6000    0.0000 H   0  0  0  0  0  0  0  0  0  0  0  0
   -2.7713    0.0000    0.0000 H   0  0  0  0  0  0  0  0  0  0  0  0
   -1.3856    2.4000    0.0000 H   0  0  0  0  0  0  0  0  0  0  0  0
    1.3856    0.8000    0.0000 C   0  0  0  0  0  0  0  0  0  0  0  0
    2.7713    1.6000    0.0000 H   0  0  0  0  0  0  0  0  0  0  0  0
    2.7713    0.0000    0.0000 H   0  0  0  0  0  0  0  0  0  0  0  0
    1.3856    2.4000    0.0000 H   0  0  0  0  0  0  0  0  0  0  0  0
  1  2  1  0  0  0  0
  1  3  1  0  0  0  0
  1  4  1  0  0  0  0
  4  5  1  0  0  0  0
  4  6  1  0  0  0  0
  4  7  1  0  0  0  0
  1  8  1  0  0  0  0
  8  9  1  0  0  0  0
  8 10  1  0  0  0  0
  8 11  1  0  0  0  0
M  END
> <ChemID>
100038

> <source_casrn>
74-98-6

> <CAS>
74-98-6

> <SMILES>
CCC

> <NAME>
PROPANE

> <preferred_name>
Propane

> <iupac>
propane

> <MPID>
98608

> <dsstox_substance_id>
DTXSID5026386

> <Canonical_QSARr>
CCC

> <InChI_Code_QSARr>
InChI=1S/C3H8/c1-3-2/h3H2,1-2H3

> <InChI Key_QSARr>
ATUOYWHBWRKTHZ-UHFFFAOYSA-N

> <OH>
1.15E-12

> <OH Temperature>
25.0

> <OH Data Type>
EXP

> <OH Reference>
ATKINSON,R (1989)

> <LogOH>
-11.939302159646392

$$$$
100039
  -INDIGO-08031719142D

  7  6  0  0  0  0  0  0  0  0999 V2000
    3.2000    0.0000    0.0000 C   0  0  0  0  0  0  0  0  0  0  0  0
    4.8000    0.0000    0.0000 H   0  0  0  0  0  0  0  0  0  0  0  0
    1.6000    0.0000    0.0000 C   0  0  0  0  0  0  0  0  0  0  0  0
    0.0000    0.0000    0.0000 C   0  0  0  0  0  0  0  0  0  0  0  0
   -1.6000   -0.0000    0.0000 H   0  0  0  0  0  0  0  0  0  0  0  0
   -0.8000    1.3856    0.0000 H   0  0  0  0  0  0  0  0  0  0  0  0
   -0.8000   -1.3856    0.0000 H   0  0  0  0  0  0  0  0  0  0  0  0
  1  2  1  0  0  0  0
  1  3  3  0  0  0  0
  3  4  1  0  0  0  0
  4  5  1  0  0  0  0
  4  6  1  0  0  0  0
  4  7  1  0  0  0  0
M  END
> <ChemID>
100039

> <source_casrn>
74-99-7

> <CAS>
74-99-7

> <SMILES>
CC#C

> <NAME>
PROPYNE

> <preferred_name>
1-Propyne

> <iupac>
prop-1-yne

> <MPID>
98609

> <dsstox_substance_id>
DTXSID0026387

> <Canonical_QSARr>
CC#C

> <InChI_Code_QSARr>
InChI=1S/C3H4/c1-3-2/h1H,2H3

> <InChI Key_QSARr>
MWWATHDPGQKSAR-UHFFFAOYSA-N

> <OH>
5.9E-12

> <OH Temperature>
25.0

> <OH Data Type>
EXP

> <OH Reference>
ATKINSON,R (1989)

> <LogOH>
-11.229147988357866

$$$$
100041
  -INDIGO-08031719142D

  6  5  0  0  0  0  0  0  0  0999 V2000
   -0.0000    0.0000    0.0000 C   0  0  0  0  0  0  0  0  0  0  0  0
    0.8000    1.3856    0.0000 H   0  0  0  0  0  0  0  0  0  0  0  0
    0.8000   -1.3856    0.0000 H   0  0  0  0  0  0  0  0  0  0  0  0
   -1.6000    0.0000    0.0000 C   0  0  0  0  0  0  0  0  0  0  0  0
   -2.4000    1.3856    0.0000 H   0  0  0  0  0  0  0  0  0  0  0  0
   -2.4000   -1.3856    0.0000 Cl  0  0  0  0  0  0  0  0  0  0  0  0
  1  2  1  0  0  0  0
  1  3  1  0  0  0  0
  1  4  2  0  0  0  0
  4  5  1  0  0  0  0
  4  6  1  0  0  0  0
M  END
> <ChemID>
100041

> <source_casrn>
75-01-4

> <CAS>
75-01-4

> <SMILES>
C=CCl

> <NAME>
VINYLCHLORIDE

> <preferred_name>
Vinyl chloride

> <iupac>
chloroethene

> <MPID>
98611

> <dsstox_substance_id>
DTXSID8021434

> <Canonical_QSARr>
C=CCl

> <InChI_Code_QSARr>
InChI=1S/C2H3Cl/c1-2-3/h2H,1H2

> <InChI Key_QSARr>
BZHJMEDXRYGGRV-UHFFFAOYSA-N

> <OH>
6.959999999999999E-12

> <OH Temperature>
25.0

> <OH Data Type>
EXP

> <OH Reference>
KWOK,ESC & ATKINSON,R (1994)

> <LogOH>
-11.157390760389427

$$$$
100042
  -INDIGO-08031719142D

  6  5  0  0  0  0  0  0  0  0999 V2000
   -0.0000    0.0000    0.0000 C   0  0  0  0  0  0  0  0  0  0  0  0
    0.8000    1.3856    0.0000 H   0  0  0  0  0  0  0  0  0  0  0  0
    0.8000   -1.3856    0.0000 H   0  0  0  0  0  0  0  0  0  0  0  0
   -1.6000    0.0000    0.0000 C   0  0  0  0  0  0  0  0  0  0  0  0
   -2.4000    1.3856    0.0000 H   0  0  0  0  0  0  0  0  0  0  0  0
   -2.4000   -1.3856    0.0000 F   0  0  0  0  0  0  0  0  0  0  0  0
  1  2  1  0  0  0  0
  1  3  1  0  0  0  0
  1  4  2  0  0  0  0
  4  5  1  0  0  0  0
  4  6  1  0  0  0  0
M  END
> <ChemID>
100042

> <source_casrn>
75-02-5

> <CAS>
75-02-5

> <SMILES>
C=CF

> <NAME>
VINYLFLUORIDE

> <preferred_name>
Vinyl fluoride

> <iupac>
fluoroethene

> <MPID>
98612

> <dsstox_substance_id>
DTXSID3021435

> <Canonical_QSARr>
C=CF

> <InChI_Code_QSARr>
InChI=1S/C2H3F/c1-2-3/h2H,1H2

> <InChI Key_QSARr>
XUCNUKMRBVNAPB-UHFFFAOYSA-N

> <OH>
5.56E-12

> <OH Temperature>
25.0

> <OH Data Type>
EXP

> <OH Reference>
ATKINSON,R (1989)

> <LogOH>
-11.25492520841796

$$$$
100043
  -INDIGO-08031719142D

 10  9  0  0  0  0  0  0  0  0999 V2000
    1.3856    0.8000    0.0000 N   0  0  0  0  0  0  0  0  0  0  0  0
    2.7713    0.0000    0.0000 H   0  0  0  0  0  0  0  0  0  0  0  0
    1.3856    2.4000    0.0000 H   0  0  0  0  0  0  0  0  0  0  0  0
    0.0000    0.0000    0.0000 C   0  0  0  0  0  0  0  0  0  0  0  0
   -0.6123   -1.4782    0.0000 H   0  0  0  0  0  0  0  0  0  0  0  0
    0.6123   -1.4782    0.0000 H   0  0  0  0  0  0  0  0  0  0  0  0
   -1.3856    0.8000    0.0000 C   0  0  0  0  0  0  0  0  0  0  0  0
   -2.7713    1.6000    0.0000 H   0  0  0  0  0  0  0  0  0  0  0  0
   -2.7713    0.0000    0.0000 H   0  0  0  0  0  0  0  0  0  0  0  0
   -1.3856    2.4000    0.0000 H   0  0  0  0  0  0  0  0  0  0  0  0
  1  2  1  0  0  0  0
  1  3  1  0  0  0  0
  1  4  1  0  0  0  0
  4  5  1  0  0  0  0
  4  6  1  0  0  0  0
  4  7  1  0  0  0  0
  7  8  1  0  0  0  0
  7  9  1  0  0  0  0
  7 10  1  0  0  0  0
M  END
> <ChemID>
100043

> <source_casrn>
75-04-7

> <CAS>
75-04-7

> <SMILES>
CCN

> <NAME>
ETHYLAMINE

> <preferred_name>
Ethanamine

> <iupac>
ethanamine

> <MPID>
98613

> <dsstox_substance_id>
DTXSID8025678

> <Canonical_QSARr>
CCN

> <InChI_Code_QSARr>
InChI=1S/C2H7N/c1-2-3/h2-3H2,1H3

> <InChI Key_QSARr>
QUSNBJAOOMFDIB-UHFFFAOYSA-N

> <OH>
2.77E-11

> <OH Temperature>
27.0

> <OH Data Type>
EXP

> <OH Reference>
ATKINSON,R (1989)

> <LogOH>
-10.55752023093557

$$$$
100045
  -INDIGO-08031719142D

  7  6  0  0  0  0  0  0  0  0999 V2000
    0.0000    0.0000    0.0000 C   0  0  0  0  0  0  0  0  0  0  0  0
    1.6000    0.0000    0.0000 H   0  0  0  0  0  0  0  0  0  0  0  0
    0.8000    1.3856    0.0000 H   0  0  0  0  0  0  0  0  0  0  0  0
    0.8000   -1.3856    0.0000 H   0  0  0  0  0  0  0  0  0  0  0  0
   -1.6000    0.0000    0.0000 C   0  0  0  0  0  0  0  0  0  0  0  0
   -2.4000    1.3856    0.0000 H   0  0  0  0  0  0  0  0  0  0  0  0
   -2.4000   -1.3856    0.0000 O   0  0  0  0  0  0  0  0  0  0  0  0
  1  2  1  0  0  0  0
  1  3  1  0  0  0  0
  1  4  1  0  0  0  0
  1  5  1  0  0  0  0
  5  6  1  0  0  0  0
  5  7  2  0  0  0  0
M  END
> <ChemID>
100045

> <source_casrn>
75-07-0

> <CAS>
75-07-0

> <SMILES>
CC=O

> <NAME>
ACETALDEHYDE

> <preferred_name>
Acetaldehyde

> <iupac>
acetaldehyde

> <MPID>
98615

> <dsstox_substance_id>
DTXSID5039224

> <Canonical_QSARr>
CC=O

> <InChI_Code_QSARr>
InChI=1S/C2H4O/c1-2-3/h2H,1H3

> <InChI Key_QSARr>
IKHGUXGNUITLKF-UHFFFAOYSA-N

> <OH>
1.58E-11

> <OH Temperature>
25.0

> <OH Data Type>
EXP

> <OH Reference>
ATKINSON,R (1989)

> <LogOH>
-10.801342913045564

$$$$
100046
  -INDIGO-08031719142D

  9  8  0  0  0  0  0  0  0  0999 V2000
    0.0000    0.0000    0.0000 C   0  0  0  0  0  0  0  0  0  0  0  0
    0.2089   -1.5863    0.0000 H   0  0  0  0  0  0  0  0  0  0  0  0
    1.2694   -0.9740    0.0000 H   0  0  0  0  0  0  0  0  0  0  0  0
   -1.6000    0.0000    0.0000 C   0  0  0  0  0  0  0  0  0  0  0  0
   -3.2000    0.0000    0.0000 H   0  0  0  0  0  0  0  0  0  0  0  0
   -2.4000   -1.3856    0.0000 H   0  0  0  0  0  0  0  0  0  0  0  0
   -2.4000    1.3856    0.0000 H   0  0  0  0  0  0  0  0  0  0  0  0
    0.8000    1.3856    0.0000 S   0  0  0  0  0  0  0  0  0  0  0  0
    2.4000    1.3856    0.0000 H   0  0  0  0  0  0  0  0  0  0  0  0
  1  2  1  0  0  0  0
  1  3  1  0  0  0  0
  1  4  1  0  0  0  0
  4  5  1  0  0  0  0
  4  6  1  0  0  0  0
  4  7  1  0  0  0  0
  1  8  1  0  0  0  0
  8  9  1  0  0  0  0
M  END
> <ChemID>
100046

> <source_casrn>
75-08-1

> <CAS>
75-08-1

> <SMILES>
CCS

> <NAME>
ETHYL MERCAPTAN

> <preferred_name>
Ethanethiol

> <iupac>
ethanethiol

> <MPID>
98616

> <dsstox_substance_id>
DTXSID9026394

> <Canonical_QSARr>
CCS

> <InChI_Code_QSARr>
InChI=1S/C2H6S/c1-2-3/h3H,2H2,1H3

> <InChI Key_QSARr>
DNJIEGIFACGWOD-UHFFFAOYSA-N

> <OH>
4.679999999999998E-11

> <OH Temperature>
25.0

> <OH Data Type>
EXP

> <OH Reference>
ATKINSON,R (1989)

> <LogOH>
-10.329754146925897

$$$$
100047
  -INDIGO-08031719142D

  5  4  0  0  0  0  0  0  0  0999 V2000
   -0.8000   -1.3856    0.0000 Cl  0  0  0  0  0  0  0  0  0  0  0  0
    0.0000    0.0000    0.0000 C   0  0  0  0  0  0  0  0  0  0  0  0
    0.8000    1.3856    0.0000 H   0  0  0  0  0  0  0  0  0  0  0  0
   -1.3856    0.8000    0.0000 H   0  0  0  0  0  0  0  0  0  0  0  0
    1.3856   -0.8000    0.0000 Cl  0  0  0  0  0  0  0  0  0  0  0  0
  1  2  1  0  0  0  0
  2  3  1  0  0  0  0
  2  4  1  0  0  0  0
  2  5  1  0  0  0  0
M  END
> <ChemID>
100047

> <source_casrn>
75-09-2

> <CAS>
75-09-2

> <SMILES>
ClCCl

> <NAME>
DICHLOROMETHANE

> <preferred_name>
Dichloromethane

> <iupac>
dichloromethane

> <MPID>
98617

> <dsstox_substance_id>
DTXSID0020868

> <Canonical_QSARr>
ClCCl

> <InChI_Code_QSARr>
InChI=1S/CH2Cl2/c2-1-3/h1H2

> <InChI Key_QSARr>
YMWUJEATGCHHMB-UHFFFAOYSA-N

> <OH>
1.42E-13

> <OH Temperature>
25.0

> <OH Data Type>
EXP

> <OH Reference>
ATKINSON,R (1989)

> <LogOH>
-12.847711655616932

$$$$
100051
  -INDIGO-08031719142D

  9  8  0  0  0  0  0  0  0  0999 V2000
   -0.0000    0.0000    0.0000 C   0  0  0  0  0  0  0  0  0  0  0  0
    1.3856    0.8000    0.0000 H   0  0  0  0  0  0  0  0  0  0  0  0
   -0.0000    1.6000    0.0000 H   0  0  0  0  0  0  0  0  0  0  0  0
    1.3856   -0.8000    0.0000 H   0  0  0  0  0  0  0  0  0  0  0  0
   -1.3856   -0.8000    0.0000 S   0  0  0  0  0  0  0  0  0  0  0  0
   -2.7713    0.0000    0.0000 C   0  0  0  0  0  0  0  0  0  0  0  0
   -4.1569    0.8000    0.0000 H   0  0  0  0  0  0  0  0  0  0  0  0
   -4.1569   -0.8000    0.0000 H   0  0  0  0  0  0  0  0  0  0  0  0
   -2.7713    1.6000    0.0000 H   0  0  0  0  0  0  0  0  0  0  0  0
  1  2  1  0  0  0  0
  1  3  1  0  0  0  0
  1  4  1  0  0  0  0
  1  5  1  0  0  0  0
  5  6  1  0  0  0  0
  6  7  1  0  0  0  0
  6  8  1  0  0  0  0
  6  9  1  0  0  0  0
M  END
> <ChemID>
100051

> <source_casrn>
75-18-3

> <CAS>
75-18-3

> <SMILES>
CSC

> <NAME>
DIMETHYLSULFIDE

> <preferred_name>
Dimethyl sulfide

> <iupac>
dimethyl sulfide

> <MPID>
98619

> <dsstox_substance_id>
DTXSID9026398

> <Canonical_QSARr>
CSC

> <InChI_Code_QSARr>
InChI=1S/C2H6S/c1-3-2/h1-2H3

> <InChI Key_QSARr>
QMMFVYPAHWMCMS-UHFFFAOYSA-N

> <OH>
4.82E-12

> <OH Temperature>
25.0

> <OH Data Type>
EXP

> <OH Reference>
ATKINSON,R (1994)

> <LogOH>
-11.316952961761134

$$$$
100052
  -INDIGO-08031719142D

  9  9  0  0  0  0  0  0  0  0999 V2000
    0.0000   -0.0000    0.0000 C   0  0  0  0  0  0  0  0  0  0  0  0
    1.5035   -0.5472    0.0000 H   0  0  0  0  0  0  0  0  0  0  0  0
    0.2779    1.5757    0.0000 H   0  0  0  0  0  0  0  0  0  0  0  0
   -0.8000   -1.3856    0.0000 C   0  0  0  0  0  0  0  0  0  0  0  0
    0.4257   -2.4141    0.0000 H   0  0  0  0  0  0  0  0  0  0  0  0
   -2.0257   -2.4141    0.0000 H   0  0  0  0  0  0  0  0  0  0  0  0
   -1.6000   -0.0000    0.0000 C   0  0  0  0  0  0  0  0  0  0  0  0
   -3.1035   -0.5472    0.0000 H   0  0  0  0  0  0  0  0  0  0  0  0
   -1.8779    1.5757    0.0000 H   0  0  0  0  0  0  0  0  0  0  0  0
  1  2  1  0  0  0  0
  1  3  1  0  0  0  0
  1  4  1  0  0  0  0
  4  5  1  0  0  0  0
  4  6  1  0  0  0  0
  4  7  1  0  0  0  0
  7  1  1  0  0  0  0
  7  8  1  0  0  0  0
  7  9  1  0  0  0  0
M  END
> <ChemID>
100052

> <source_casrn>
75-19-4

> <CAS>
75-19-4

> <SMILES>
C1CC1

> <NAME>
CYCLOPROPANE

> <preferred_name>
Cyclopropane

> <iupac>
CYCLOPROPANE

> <MPID>
98620

> <dsstox_substance_id>
DTXSID4058786

> <Canonical_QSARr>
C1CC1

> <InChI_Code_QSARr>
InChI=1S/C3H6/c1-2-3-1/h1-3H2

> <InChI Key_QSARr>
LVZWSLJZHVFIQJ-UHFFFAOYSA-N

> <OH>
8.400000000000002E-14

> <OH Temperature>
25.0

> <OH Data Type>
EXP

> <OH Reference>
KWOK,ESC & ATKINSON,R (1994)

> <LogOH>
-13.075720713938129

$$$$
100055
  -INDIGO-08031719142D

 11 10  0  0  0  0  0  0  0  0999 V2000
    1.3856    0.8000    0.0000 C   0  0  0  0  0  0  0  0  0  0  0  0
    2.7713    1.6000    0.0000 H   0  0  0  0  0  0  0  0  0  0  0  0
    2.7713    0.0000    0.0000 H   0  0  0  0  0  0  0  0  0  0  0  0
    1.3856    2.4000    0.0000 H   0  0  0  0  0  0  0  0  0  0  0  0
    0.0000    0.0000    0.0000 C   0  0  0  0  0  0  0  0  0  0  0  0
    0.6123   -1.4782    0.0000 H   0  0  0  0  0  0  0  0  0  0  0  0
   -1.3856    0.8000    0.0000 C   0  0  0  0  0  0  0  0  0  0  0  0
   -2.7713    1.6000    0.0000 H   0  0  0  0  0  0  0  0  0  0  0  0
   -2.7713    0.0000    0.0000 H   0  0  0  0  0  0  0  0  0  0  0  0
   -1.3856    2.4000    0.0000 H   0  0  0  0  0  0  0  0  0  0  0  0
   -0.6123   -1.4782    0.0000 Br  0  0  0  0  0  0  0  0  0  0  0  0
  1  2  1  0  0  0  0
  1  3  1  0  0  0  0
  1  4  1  0  0  0  0
  1  5  1  0  0  0  0
  5  6  1  0  0  0  0
  5  7  1  0  0  0  0
  7  8  1  0  0  0  0
  7  9  1  0  0  0  0
  7 10  1  0  0  0  0
  5 11  1  0  0  0  0
M  END
> <ChemID>
100055

> <source_casrn>
75-26-3

> <CAS>
75-26-3

> <SMILES>
CC(C)Br

> <NAME>
2-BROMOPROPANE

> <preferred_name>
2-Bromopropane

> <iupac>
2-bromopropane

> <MPID>
98622

> <dsstox_substance_id>
DTXSID7030197

> <Canonical_QSARr>
CC(C)Br

> <InChI_Code_QSARr>
InChI=1S/C3H7Br/c1-3(2)4/h3H,1-2H3

> <InChI Key_QSARr>
NAMYKGVDVNBCFQ-UHFFFAOYSA-N

> <OH>
8.800000000000001E-13

> <OH Temperature>
25.0

> <OH Data Type>
EXP

> <OH Reference>
DONAGHY,T ET AL. (1993)

> <LogOH>
-12.055517327849815

$$$$
100056
  -INDIGO-08031719142D

 14 13  0  0  0  0  0  0  0  0999 V2000
    1.6000    0.0000    0.0000 C   0  0  0  0  0  0  0  0  0  0  0  0
    3.2000    0.0000    0.0000 H   0  0  0  0  0  0  0  0  0  0  0  0
    2.4000   -1.3856    0.0000 H   0  0  0  0  0  0  0  0  0  0  0  0
    2.4000    1.3856    0.0000 H   0  0  0  0  0  0  0  0  0  0  0  0
    0.0000    0.0000    0.0000 C   0  0  0  0  0  0  0  0  0  0  0  0
    0.0000   -1.6000    0.0000 H   0  0  0  0  0  0  0  0  0  0  0  0
   -1.6000    0.0000    0.0000 C   0  0  0  0  0  0  0  0  0  0  0  0
   -3.2000    0.0000    0.0000 H   0  0  0  0  0  0  0  0  0  0  0  0
   -2.4000   -1.3856    0.0000 H   0  0  0  0  0  0  0  0  0  0  0  0
   -2.4000    1.3856    0.0000 H   0  0  0  0  0  0  0  0  0  0  0  0
    0.0000    1.6000    0.0000 C   0  0  0  0  0  0  0  0  0  0  0  0
   -0.0000    3.2000    0.0000 H   0  0  0  0  0  0  0  0  0  0  0  0
    1.3856    2.4000    0.0000 H   0  0  0  0  0  0  0  0  0  0  0  0
   -1.3856    2.4000    0.0000 H   0  0  0  0  0  0  0  0  0  0  0  0
  1  2  1  0  0  0  0
  1  3  1  0  0  0  0
  1  4  1  0  0  0  0
  1  5  1  0  0  0  0
  5  6  1  0  0  0  0
  5  7  1  0  0  0  0
  7  8  1  0  0  0  0
  7  9  1  0  0  0  0
  7 10  1  0  0  0  0
  5 11  1  0  0  0  0
 11 12  1  0  0  0  0
 11 13  1  0  0  0  0
 11 14  1  0  0  0  0
M  END
> <ChemID>
100056

> <source_casrn>
75-28-5

> <CAS>
75-28-5

> <SMILES>
CC(C)C

> <NAME>
2-METHYLPROPANE

> <preferred_name>
Isobutane

> <iupac>
2-methylpropane

> <MPID>
98623

> <dsstox_substance_id>
DTXSID1026401

> <Canonical_QSARr>
CC(C)C

> <InChI_Code_QSARr>
InChI=1S/C4H10/c1-4(2)3/h4H,1-3H3

> <InChI Key_QSARr>
NNPPMTNAJDCUHE-UHFFFAOYSA-N

> <OH>
2.339999999999999E-12

> <OH Temperature>
25.0

> <OH Data Type>
EXP

> <OH Reference>
ATKINSON,R (1989)

> <LogOH>
-11.630784142589839

$$$$
100058
  -INDIGO-08031719142D

 12 11  0  0  0  0  0  0  0  0999 V2000
    1.6000    0.0000    0.0000 C   0  0  0  0  0  0  0  0  0  0  0  0
    3.2000    0.0000    0.0000 H   0  0  0  0  0  0  0  0  0  0  0  0
    2.4000   -1.3856    0.0000 H   0  0  0  0  0  0  0  0  0  0  0  0
    2.4000    1.3856    0.0000 H   0  0  0  0  0  0  0  0  0  0  0  0
    0.0000    0.0000    0.0000 C   0  0  0  0  0  0  0  0  0  0  0  0
    0.0000   -1.6000    0.0000 H   0  0  0  0  0  0  0  0  0  0  0  0
   -1.6000    0.0000    0.0000 C   0  0  0  0  0  0  0  0  0  0  0  0
   -3.2000    0.0000    0.0000 H   0  0  0  0  0  0  0  0  0  0  0  0
   -2.4000   -1.3856    0.0000 H   0  0  0  0  0  0  0  0  0  0  0  0
   -2.4000    1.3856    0.0000 H   0  0  0  0  0  0  0  0  0  0  0  0
    0.0000    1.6000    0.0000 S   0  0  0  0  0  0  0  0  0  0  0  0
    1.3856    2.4000    0.0000 H   0  0  0  0  0  0  0  0  0  0  0  0
  1  2  1  0  0  0  0
  1  3  1  0  0  0  0
  1  4  1  0  0  0  0
  1  5  1  0  0  0  0
  5  6  1  0  0  0  0
  5  7  1  0  0  0  0
  7  8  1  0  0  0  0
  7  9  1  0  0  0  0
  7 10  1  0  0  0  0
  5 11  1  0  0  0  0
 11 12  1  0  0  0  0
M  END
> <ChemID>
100058

> <source_casrn>
75-33-2

> <CAS>
75-33-2

> <SMILES>
CC(C)S

> <NAME>
2-PROPANETHIOL

> <preferred_name>
Isopropyl mercaptan

> <iupac>
propane-2-thiol

> <MPID>
98625

> <dsstox_substance_id>
DTXSID1025481

> <Canonical_QSARr>
CC(C)S

> <InChI_Code_QSARr>
InChI=1S/C3H8S/c1-3(2)4/h3-4H,1-2H3

> <InChI Key_QSARr>
KJRCEJOSASVSRA-UHFFFAOYSA-N

> <OH>
4.2E-11

> <OH Temperature>
25.0

> <OH Data Type>
EXP

> <OH Reference>
ATKINSON,R (1989)

> <LogOH>
-10.376750709602106

$$$$
100059
  -INDIGO-08031719142D

  8  7  0  0  0  0  0  0  0  0999 V2000
    0.0000    0.0000    0.0000 C   0  0  0  0  0  0  0  0  0  0  0  0
    1.6000   -0.0000    0.0000 H   0  0  0  0  0  0  0  0  0  0  0  0
    0.8000   -1.3856    0.0000 H   0  0  0  0  0  0  0  0  0  0  0  0
    0.8000    1.3856    0.0000 H   0  0  0  0  0  0  0  0  0  0  0  0
   -1.6000    0.0000    0.0000 C   0  0  0  0  0  0  0  0  0  0  0  0
   -3.2000    0.0000    0.0000 H   0  0  0  0  0  0  0  0  0  0  0  0
   -2.4000   -1.3856    0.0000 Cl  0  0  0  0  0  0  0  0  0  0  0  0
   -2.4000    1.3856    0.0000 Cl  0  0  0  0  0  0  0  0  0  0  0  0
  1  2  1  0  0  0  0
  1  3  1  0  0  0  0
  1  4  1  0  0  0  0
  1  5  1  0  0  0  0
  5  6  1  0  0  0  0
  5  7  1  0  0  0  0
  5  8  1  0  0  0  0
M  END
> <ChemID>
100059

> <source_casrn>
75-34-3

> <CAS>
75-34-3

> <SMILES>
CC(Cl)Cl

> <NAME>
1,1-DICHLOROETHANE

> <preferred_name>
1,1-Dichloroethane

> <iupac>
1,1-dichloroethane

> <MPID>
98626

> <dsstox_substance_id>
DTXSID1020437

> <Canonical_QSARr>
CC(Cl)Cl

> <InChI_Code_QSARr>
InChI=1S/C2H4Cl2/c1-2(3)4/h2H,1H3

> <InChI Key_QSARr>
SCYULBFZEHDVBN-UHFFFAOYSA-N

> <OH>
2.74E-13

> <OH Temperature>
25.0

> <OH Data Type>
EXP

> <OH Reference>
KWOK,ESC & ATKINSON,R (1994)

> <LogOH>
-12.562249437179604

$$$$
100060
  -INDIGO-08031719142D

  6  5  0  0  0  0  0  0  0  0999 V2000
   -0.0000    0.0000    0.0000 C   0  0  0  0  0  0  0  0  0  0  0  0
    0.8000    1.3856    0.0000 H   0  0  0  0  0  0  0  0  0  0  0  0
    0.8000   -1.3856    0.0000 H   0  0  0  0  0  0  0  0  0  0  0  0
   -1.6000    0.0000    0.0000 C   0  0  0  0  0  0  0  0  0  0  0  0
   -2.4000    1.3856    0.0000 Cl  0  0  0  0  0  0  0  0  0  0  0  0
   -2.4000   -1.3856    0.0000 Cl  0  0  0  0  0  0  0  0  0  0  0  0
  1  2  1  0  0  0  0
  1  3  1  0  0  0  0
  1  4  2  0  0  0  0
  4  5  1  0  0  0  0
  4  6  1  0  0  0  0
M  END
> <ChemID>
100060

> <source_casrn>
75-35-4

> <CAS>
75-35-4

> <SMILES>
C=C(Cl)Cl

> <NAME>
1,1-DICHLOROETHENE

> <preferred_name>
1,1-Dichloroethylene

> <iupac>
1,1-dichloroethene

> <MPID>
98627

> <dsstox_substance_id>
DTXSID8021438

> <Canonical_QSARr>
C=C(Cl)Cl

> <InChI_Code_QSARr>
InChI=1S/C2H2Cl2/c1-2(3)4/h1H2

> <InChI Key_QSARr>
LGXVIGDEPROXKC-UHFFFAOYSA-N

> <OH>
1.09E-11

> <OH Temperature>
25.0

> <OH Data Type>
EXP

> <OH Reference>
KWOK,ESC & ATKINSON,R (1994)

> <LogOH>
-10.962573502059396

$$$$
100062
  -INDIGO-08031719142D

  8  7  0  0  0  0  0  0  0  0999 V2000
    0.0000    0.0000    0.0000 C   0  0  0  0  0  0  0  0  0  0  0  0
    1.6000   -0.0000    0.0000 H   0  0  0  0  0  0  0  0  0  0  0  0
   -1.6000    0.0000    0.0000 C   0  0  0  0  0  0  0  0  0  0  0  0
   -3.2000    0.0000    0.0000 H   0  0  0  0  0  0  0  0  0  0  0  0
   -2.4000   -1.3856    0.0000 H   0  0  0  0  0  0  0  0  0  0  0  0
   -2.4000    1.3856    0.0000 H   0  0  0  0  0  0  0  0  0  0  0  0
    0.8000   -1.3856    0.0000 F   0  0  0  0  0  0  0  0  0  0  0  0
    0.8000    1.3856    0.0000 F   0  0  0  0  0  0  0  0  0  0  0  0
  1  2  1  0  0  0  0
  1  3  1  0  0  0  0
  3  4  1  0  0  0  0
  3  5  1  0  0  0  0
  3  6  1  0  0  0  0
  1  7  1  0  0  0  0
  1  8  1  0  0  0  0
M  END
> <ChemID>
100062

> <source_casrn>
75-37-6

> <CAS>
75-37-6

> <SMILES>
CC(F)F

> <NAME>
1,1-DIFLUOROETHANE

> <preferred_name>
1,1-Difluoroethane

> <iupac>
1,1-difluoroethane

> <MPID>
98629

> <dsstox_substance_id>
DTXSID0024050

> <Canonical_QSARr>
CC(F)F

> <InChI_Code_QSARr>
InChI=1S/C2H4F2/c1-2(3)4/h2H,1H3

> <InChI Key_QSARr>
NPNPZTNLOVBDOC-UHFFFAOYSA-N

> <OH>
3.4E-14

> <OH Temperature>
25.0

> <OH Data Type>
EXP

> <OH Reference>
ATKINSON,R (1989)

> <LogOH>
-13.468521082957734

$$$$
100063
  -INDIGO-08031719142D

  6  5  0  0  0  0  0  0  0  0999 V2000
   -0.0000    0.0000    0.0000 C   0  0  0  0  0  0  0  0  0  0  0  0
    0.8000    1.3856    0.0000 H   0  0  0  0  0  0  0  0  0  0  0  0
    0.8000   -1.3856    0.0000 H   0  0  0  0  0  0  0  0  0  0  0  0
   -1.6000    0.0000    0.0000 C   0  0  0  0  0  0  0  0  0  0  0  0
   -2.4000    1.3856    0.0000 F   0  0  0  0  0  0  0  0  0  0  0  0
   -2.4000   -1.3856    0.0000 F   0  0  0  0  0  0  0  0  0  0  0  0
  1  2  1  0  0  0  0
  1  3  1  0  0  0  0
  1  4  2  0  0  0  0
  4  5  1  0  0  0  0
  4  6  1  0  0  0  0
M  END
> <ChemID>
100063

> <source_casrn>
75-38-7

> <CAS>
75-38-7

> <SMILES>
C=C(F)F

> <NAME>
1,1-DIFLUOROETHENE

> <preferred_name>
Vinylidene fluoride

> <iupac>
1,1-difluoroethene

> <MPID>
98630

> <dsstox_substance_id>
DTXSID3021439

> <Canonical_QSARr>
C=C(F)F

> <InChI_Code_QSARr>
InChI=1S/C2H2F2/c1-2(3)4/h1H2

> <InChI Key_QSARr>
BQCIDUSAKPWEOX-UHFFFAOYSA-N

> <OH>
2.1E-12

> <OH Temperature>
23.0

> <OH Data Type>
EXP

> <OH Reference>
HOWARD,CJ (1976)

> <LogOH>
-11.677780705266093

$$$$
100064
  -INDIGO-08031719142D

  5  4  0  0  0  0  0  0  0  0999 V2000
    0.0000    0.0000    0.0000 C   0  0  0  0  0  0  0  0  0  0  0  0
    0.8000    1.3856    0.0000 H   0  0  0  0  0  0  0  0  0  0  0  0
   -1.3856    0.8000    0.0000 Cl  0  0  0  0  0  0  0  0  0  0  0  0
    1.3856   -0.8000    0.0000 F   0  0  0  0  0  0  0  0  0  0  0  0
   -0.8000   -1.3856    0.0000 Cl  0  0  0  0  0  0  0  0  0  0  0  0
  1  2  1  0  0  0  0
  1  3  1  0  0  0  0
  1  4  1  0  0  0  0
  1  5  1  0  0  0  0
M  END
> <ChemID>
100064

> <source_casrn>
75-43-4

> <CAS>
75-43-4

> <SMILES>
FC(Cl)Cl

> <NAME>
DICHLOROFLUOROMETHANE

> <preferred_name>
Dichlorofluoromethane

> <iupac>
dichloro(fluoro)methane

> <MPID>
98631

> <dsstox_substance_id>
DTXSID7052498

> <Canonical_QSARr>
FC(Cl)Cl

> <InChI_Code_QSARr>
InChI=1S/CHCl2F/c2-1(3)4/h1H

> <InChI Key_QSARr>
UMNKXPULIDJLSU-UHFFFAOYSA-N

> <OH>
3.03E-14

> <OH Temperature>
25.0

> <OH Data Type>
EXP

> <OH Reference>
ATKINSON,R (1989)

> <LogOH>
-13.51855737149771

$$$$
100066
  -INDIGO-08031719142D

  5  4  0  0  0  0  0  0  0  0999 V2000
   -0.8000   -1.3856    0.0000 F   0  0  0  0  0  0  0  0  0  0  0  0
    0.0000    0.0000    0.0000 C   0  0  0  0  0  0  0  0  0  0  0  0
    0.8000    1.3856    0.0000 H   0  0  0  0  0  0  0  0  0  0  0  0
   -1.3856    0.8000    0.0000 F   0  0  0  0  0  0  0  0  0  0  0  0
    1.3856   -0.8000    0.0000 Cl  0  0  0  0  0  0  0  0  0  0  0  0
  1  2  1  0  0  0  0
  2  3  1  0  0  0  0
  2  4  1  0  0  0  0
  2  5  1  0  0  0  0
M  END
> <ChemID>
100066

> <source_casrn>
75-45-6

> <CAS>
75-45-6

> <SMILES>
FC(F)Cl

> <NAME>
CHLORODIFLUOROMETHANE

> <preferred_name>
Chlorodifluoromethane

> <iupac>
chloro(difluoro)methane

> <MPID>
98633

> <dsstox_substance_id>
DTXSID6020301

> <Canonical_QSARr>
FC(F)Cl

> <InChI_Code_QSARr>
InChI=1S/CHClF2/c2-1(3)4/h1H

> <InChI Key_QSARr>
VOPWNXZWBYDODV-UHFFFAOYSA-N

> <OH>
4.679999999999998E-15

> <OH Temperature>
25.0

> <OH Data Type>
EXP

> <OH Reference>
ATKINSON,R (1989)

> <LogOH>
-14.32975414692586

$$$$
100067
  -INDIGO-08031719142D

  5  4  0  0  0  0  0  0  0  0999 V2000
    0.0000    0.0000    0.0000 C   0  0  0  0  0  0  0  0  0  0  0  0
    0.8000    1.3856    0.0000 H   0  0  0  0  0  0  0  0  0  0  0  0
   -1.3856    0.8000    0.0000 F   0  0  0  0  0  0  0  0  0  0  0  0
    1.3856   -0.8000    0.0000 F   0  0  0  0  0  0  0  0  0  0  0  0
   -0.8000   -1.3856    0.0000 F   0  0  0  0  0  0  0  0  0  0  0  0
  1  2  1  0  0  0  0
  1  3  1  0  0  0  0
  1  4  1  0  0  0  0
  1  5  1  0  0  0  0
M  END
> <ChemID>
100067

> <source_casrn>
75-46-7

> <CAS>
75-46-7

> <SMILES>
FC(F)F

> <NAME>
TRIFLUOROMETHANE

> <preferred_name>
Trifluoromethane

> <iupac>
trifluoromethane

> <MPID>
98634

> <dsstox_substance_id>
DTXSID0026410

> <Canonical_QSARr>
FC(F)F

> <InChI_Code_QSARr>
InChI=1S/CHF3/c2-1(3)4/h1H

> <InChI Key_QSARr>
XPDWGBQVDMORPB-UHFFFAOYSA-N

> <OH>
3.1E-16

> <OH Temperature>
25.0

> <OH Data Type>
EXP

> <OH Reference>
KWOK,ESC & ATKINSON,R (1994)

> <LogOH>
-15.508638306165713

$$$$
100070
  -INDIGO-08031719142D

  7  6  0  0  0  0  0  0  0  0999 V2000
    0.0000    0.0000    0.0000 C   0  0  0  0  0  0  0  0  0  0  0  0
    1.6000    0.0000    0.0000 H   0  0  0  0  0  0  0  0  0  0  0  0
    0.8000    1.3856    0.0000 H   0  0  0  0  0  0  0  0  0  0  0  0
    0.8000   -1.3856    0.0000 H   0  0  0  0  0  0  0  0  0  0  0  0
   -1.6000    0.0000    0.0000 N   0  0  0  0  0  0  0  0  0  0  0  0
   -2.4000    1.3856    0.0000 O   0  0  0  0  0  0  0  0  0  0  0  0
   -2.4000   -1.3856    0.0000 O   0  0  0  0  0  0  0  0  0  0  0  0
  1  2  1  0  0  0  0
  1  3  1  0  0  0  0
  1  4  1  0  0  0  0
  1  5  1  0  0  0  0
  5  6  2  0  0  0  0
  5  7  1  0  0  0  0
M  CHG  2   5   1   7  -1
M  END
> <ChemID>
100070

> <source_casrn>
75-52-5

> <CAS>
75-52-5

> <SMILES>
C[N+]([O-])=O

> <NAME>
NITROMETHANE

> <preferred_name>
Nitromethane

> <iupac>
nitromethane

> <MPID>
98636

> <dsstox_substance_id>
DTXSID2020977

> <Canonical_QSARr>
C[N+]([O-])=O

> <InChI_Code_QSARr>
InChI=1S/CH3NO2/c1-2(3)4/h1H3

> <InChI Key_QSARr>
LYGJENNIWJXYER-UHFFFAOYSA-N

> <OH>
1.3E-13

> <OH Temperature>
25.0

> <OH Data Type>
EXP

> <OH Reference>
KWOK,ESC & ATKINSON,R (1994)

> <LogOH>
-12.886056647693161

$$$$
100071
  -INDIGO-08031719142D

 10 10  0  0  0  0  0  0  0  0999 V2000
    1.5035   -0.5473    0.0000 C   0  0  0  0  0  0  0  0  0  0  0  0
    3.0070   -1.0945    0.0000 H   0  0  0  0  0  0  0  0  0  0  0  0
    2.7292    0.4812    0.0000 H   0  0  0  0  0  0  0  0  0  0  0  0
    1.7814   -2.1229    0.0000 H   0  0  0  0  0  0  0  0  0  0  0  0
    0.0000    0.0000    0.0000 C   0  0  0  0  0  0  0  0  0  0  0  0
    0.2779    1.5757    0.0000 H   0  0  0  0  0  0  0  0  0  0  0  0
   -1.6000    0.0000    0.0000 C   0  0  0  0  0  0  0  0  0  0  0  0
   -1.8779    1.5757    0.0000 H   0  0  0  0  0  0  0  0  0  0  0  0
   -3.1035   -0.5473    0.0000 H   0  0  0  0  0  0  0  0  0  0  0  0
   -0.8000   -1.3856    0.0000 O   0  0  0  0  0  0  0  0  0  0  0  0
  1  2  1  0  0  0  0
  1  3  1  0  0  0  0
  1  4  1  0  0  0  0
  1  5  1  0  0  0  0
  5  6  1  0  0  0  0
  5  7  1  0  0  0  0
  7  8  1  0  0  0  0
  7  9  1  0  0  0  0
  7 10  1  0  0  0  0
 10  5  1  0  0  0  0
M  END
> <ChemID>
100071

> <source_casrn>
75-56-9

> <CAS>
75-56-9

> <SMILES>
CC1CO1

> <NAME>
PROPYLENE OXIDE

> <preferred_name>
1,2-Propylene oxide

> <iupac>
2-methyloxirane

> <MPID>
98637

> <dsstox_substance_id>
DTXSID5021207

> <Canonical_QSARr>
CC1CO1

> <InChI_Code_QSARr>
InChI=1S/C3H6O/c1-3-2-4-3/h3H,2H2,1H3

> <InChI Key_QSARr>
GOOHAUXETOMSMM-UHFFFAOYSA-N

> <OH>
5.2E-13

> <OH Temperature>
25.0

> <OH Data Type>
EXP

> <OH Reference>
ATKINSON,R (1989)

> <LogOH>
-12.283996656365193

$$$$
100072
  -INDIGO-08031719142D

  5  4  0  0  0  0  0  0  0  0999 V2000
    0.0000    0.0000    0.0000 C   0  0  0  0  0  0  0  0  0  0  0  0
    0.8000    1.3856    0.0000 F   0  0  0  0  0  0  0  0  0  0  0  0
   -1.3856    0.8000    0.0000 F   0  0  0  0  0  0  0  0  0  0  0  0
    1.3856   -0.8000    0.0000 Br  0  0  0  0  0  0  0  0  0  0  0  0
   -0.8000   -1.3856    0.0000 Br  0  0  0  0  0  0  0  0  0  0  0  0
  1  2  1  0  0  0  0
  1  3  1  0  0  0  0
  1  4  1  0  0  0  0
  1  5  1  0  0  0  0
M  END
> <ChemID>
100072

> <source_casrn>
75-61-6

> <CAS>
75-61-6

> <SMILES>
FC(F)(Br)Br

> <NAME>
DIBROMODIFLUOROMETHANE

> <preferred_name>
Dibromodifluoromethane

> <iupac>
dibromo-difluoromethane

> <MPID>
98638

> <dsstox_substance_id>
DTXSID9058789

> <Canonical_QSARr>
FC(F)(Br)Br

> <InChI_Code_QSARr>
InChI=1S/CBr2F2/c2-1(3,4)5

> <InChI Key_QSARr>
AZSZCFSOHXEJQE-UHFFFAOYSA-N

> <OH>
5.9E-16

> <OH Temperature>
24.0

> <OH Data Type>
EXP

> <OH Reference>
ATKINSON,R (1994);<5.9E-16

> <LogOH>
-15.229147988357873

$$$$
100074
  -INDIGO-08031719142D

 16 15  0  0  0  0  0  0  0  0999 V2000
    0.0000    0.0000    0.0000 C   0  0  0  0  0  0  0  0  0  0  0  0
    0.8000    1.3856    0.0000 C   0  0  0  0  0  0  0  0  0  0  0  0
    1.6000    2.7713    0.0000 H   0  0  0  0  0  0  0  0  0  0  0  0
    2.4000    1.3856    0.0000 H   0  0  0  0  0  0  0  0  0  0  0  0
    0.0000    2.7713    0.0000 H   0  0  0  0  0  0  0  0  0  0  0  0
   -1.3856    0.8000    0.0000 C   0  0  0  0  0  0  0  0  0  0  0  0
   -2.7713    1.6000    0.0000 H   0  0  0  0  0  0  0  0  0  0  0  0
   -2.7713    0.0000    0.0000 H   0  0  0  0  0  0  0  0  0  0  0  0
   -1.3856    2.4000    0.0000 H   0  0  0  0  0  0  0  0  0  0  0  0
   -0.8000   -1.3856    0.0000 C   0  0  0  0  0  0  0  0  0  0  0  0
   -1.6000   -2.7713    0.0000 H   0  0  0  0  0  0  0  0  0  0  0  0
    0.0000   -2.7713    0.0000 H   0  0  0  0  0  0  0  0  0  0  0  0
   -2.4000   -1.3856    0.0000 H   0  0  0  0  0  0  0  0  0  0  0  0
    1.3856   -0.8000    0.0000 N   0  0  0  0  0  0  0  0  0  0  0  0
    1.3856   -2.4000    0.0000 H   0  0  0  0  0  0  0  0  0  0  0  0
    2.7713    0.0000    0.0000 H   0  0  0  0  0  0  0  0  0  0  0  0
  1  2  1  0  0  0  0
  2  3  1  0  0  0  0
  2  4  1  0  0  0  0
  2  5  1  0  0  0  0
  1  6  1  0  0  0  0
  6  7  1  0  0  0  0
  6  8  1  0  0  0  0
  6  9  1  0  0  0  0
  1 10  1  0  0  0  0
 10 11  1  0  0  0  0
 10 12  1  0  0  0  0
 10 13  1  0  0  0  0
  1 14  1  0  0  0  0
 14 15  1  0  0  0  0
 14 16  1  0  0  0  0
M  END
> <ChemID>
100074

> <source_casrn>
75-64-9

> <CAS>
75-64-9

> <SMILES>
CC(C)(C)N

> <NAME>
T-BUTYLAMINE

> <preferred_name>
tert-Butylamine

> <iupac>
2-methylpropan-2-amine

> <MPID>
98640

> <dsstox_substance_id>
DTXSID5024681

> <Canonical_QSARr>
CC(C)(C)N

> <InChI_Code_QSARr>
InChI=1S/C4H11N/c1-4(2,3)5/h5H2,1-3H3

> <InChI Key_QSARr>
YBRBMKDOPFTVDT-UHFFFAOYSA-N

> <OH>
1.18E-11

> <OH Temperature>
25.0

> <OH Data Type>
EXP

> <OH Reference>
KOCH,R ET AL. (1996)

> <LogOH>
-10.928117992693862

$$$$
100075
  -INDIGO-08031719142D

 15 14  0  0  0  0  0  0  0  0999 V2000
    0.0000    0.0000    0.0000 C   0  0  0  0  0  0  0  0  0  0  0  0
    0.8000    1.3856    0.0000 C   0  0  0  0  0  0  0  0  0  0  0  0
    1.6000    2.7713    0.0000 H   0  0  0  0  0  0  0  0  0  0  0  0
    2.4000    1.3856    0.0000 H   0  0  0  0  0  0  0  0  0  0  0  0
    0.0000    2.7713    0.0000 H   0  0  0  0  0  0  0  0  0  0  0  0
   -1.3856    0.8000    0.0000 C   0  0  0  0  0  0  0  0  0  0  0  0
   -2.7713    1.6000    0.0000 H   0  0  0  0  0  0  0  0  0  0  0  0
   -2.7713    0.0000    0.0000 H   0  0  0  0  0  0  0  0  0  0  0  0
   -1.3856    2.4000    0.0000 H   0  0  0  0  0  0  0  0  0  0  0  0
   -0.8000   -1.3856    0.0000 C   0  0  0  0  0  0  0  0  0  0  0  0
   -1.6000   -2.7713    0.0000 H   0  0  0  0  0  0  0  0  0  0  0  0
    0.0000   -2.7713    0.0000 H   0  0  0  0  0  0  0  0  0  0  0  0
   -2.4000   -1.3856    0.0000 H   0  0  0  0  0  0  0  0  0  0  0  0
    1.3856   -0.8000    0.0000 O   0  0  0  0  0  0  0  0  0  0  0  0
    1.3856   -2.4000    0.0000 H   0  0  0  0  0  0  0  0  0  0  0  0
  1  2  1  0  0  0  0
  2  3  1  0  0  0  0
  2  4  1  0  0  0  0
  2  5  1  0  0  0  0
  1  6  1  0  0  0  0
  6  7  1  0  0  0  0
  6  8  1  0  0  0  0
  6  9  1  0  0  0  0
  1 10  1  0  0  0  0
 10 11  1  0  0  0  0
 10 12  1  0  0  0  0
 10 13  1  0  0  0  0
  1 14  1  0  0  0  0
 14 15  1  0  0  0  0
M  END
> <ChemID>
100075

> <source_casrn>
75-65-0

> <CAS>
75-65-0

> <SMILES>
CC(C)(C)O

> <NAME>
T-BUTANOL

> <preferred_name>
tert-Butyl alcohol

> <iupac>
2-methylpropan-2-ol

> <MPID>
98641

> <dsstox_substance_id>
DTXSID8020204

> <Canonical_QSARr>
CC(C)(C)O

> <InChI_Code_QSARr>
InChI=1S/C4H10O/c1-4(2,3)5/h5H,1-3H3

> <InChI Key_QSARr>
DKGAVHZHDRPRBM-UHFFFAOYSA-N

> <OH>
1.12E-12

> <OH Temperature>
25.0

> <OH Data Type>
EXP

> <OH Reference>
ATKINSON,R (1989)

> <LogOH>
-11.950781977329799

$$$$
100076
  -INDIGO-08031719142D

 15 14  0  0  0  0  0  0  0  0999 V2000
    0.8000   -1.3856    0.0000 C   0  0  0  0  0  0  0  0  0  0  0  0
    1.6000   -2.7713    0.0000 H   0  0  0  0  0  0  0  0  0  0  0  0
    0.0000   -2.7713    0.0000 H   0  0  0  0  0  0  0  0  0  0  0  0
    2.4000   -1.3856    0.0000 H   0  0  0  0  0  0  0  0  0  0  0  0
    0.0000    0.0000    0.0000 C   0  0  0  0  0  0  0  0  0  0  0  0
   -0.8000    1.3856    0.0000 C   0  0  0  0  0  0  0  0  0  0  0  0
   -1.6000    2.7713    0.0000 H   0  0  0  0  0  0  0  0  0  0  0  0
   -2.4000    1.3856    0.0000 H   0  0  0  0  0  0  0  0  0  0  0  0
    0.0000    2.7713    0.0000 H   0  0  0  0  0  0  0  0  0  0  0  0
   -1.3856   -0.8000    0.0000 S   0  0  0  0  0  0  0  0  0  0  0  0
   -1.3856   -2.4000    0.0000 H   0  0  0  0  0  0  0  0  0  0  0  0
    1.3856    0.8000    0.0000 C   0  0  0  0  0  0  0  0  0  0  0  0
    2.7713    1.6000    0.0000 H   0  0  0  0  0  0  0  0  0  0  0  0
    2.7713    0.0000    0.0000 H   0  0  0  0  0  0  0  0  0  0  0  0
    1.3856    2.4000    0.0000 H   0  0  0  0  0  0  0  0  0  0  0  0
  1  2  1  0  0  0  0
  1  3  1  0  0  0  0
  1  4  1  0  0  0  0
  1  5  1  0  0  0  0
  5  6  1  0  0  0  0
  6  7  1  0  0  0  0
  6  8  1  0  0  0  0
  6  9  1  0  0  0  0
  5 10  1  0  0  0  0
 10 11  1  0  0  0  0
  5 12  1  0  0  0  0
 12 13  1  0  0  0  0
 12 14  1  0  0  0  0
 12 15  1  0  0  0  0
M  END
> <ChemID>
100076

> <source_casrn>
75-66-1

> <CAS>
75-66-1

> <SMILES>
CC(C)(C)S

> <NAME>
2-METHYL-2-PROPANETHIOL

> <preferred_name>
2-Methyl-2-propanethiol

> <iupac>
2-methylpropane-2-thiol

> <MPID>
98642

> <dsstox_substance_id>
DTXSID0026418

> <Canonical_QSARr>
CC(C)(C)S

> <InChI_Code_QSARr>
InChI=1S/C4H10S/c1-4(2,3)5/h5H,1-3H3

> <InChI Key_QSARr>
WMXCDAVJEZZYLT-UHFFFAOYSA-N

> <OH>
3.31E-11

> <OH Temperature>
25.0

> <OH Data Type>
EXP

> <OH Reference>
ATKINSON,R (1989)

> <LogOH>
-10.480172006224267

$$$$
100078
  -INDIGO-08031719142D

  5  4  0  0  0  0  0  0  0  0999 V2000
   -0.8000   -1.3856    0.0000 F   0  0  0  0  0  0  0  0  0  0  0  0
    0.0000    0.0000    0.0000 C   0  0  0  0  0  0  0  0  0  0  0  0
    0.8000    1.3856    0.0000 Cl  0  0  0  0  0  0  0  0  0  0  0  0
   -1.3856    0.8000    0.0000 Cl  0  0  0  0  0  0  0  0  0  0  0  0
    1.3856   -0.8000    0.0000 Cl  0  0  0  0  0  0  0  0  0  0  0  0
  1  2  1  0  0  0  0
  2  3  1  0  0  0  0
  2  4  1  0  0  0  0
  2  5  1  0  0  0  0
M  END
> <ChemID>
100078

> <source_casrn>
75-69-4

> <CAS>
75-69-4

> <SMILES>
FC(Cl)(Cl)Cl

> <NAME>
TRICHLOROFLUOROMETHANE

> <preferred_name>
Trichlorofluoromethane

> <iupac>
trichloro(fluoro)methane

> <MPID>
98644

> <dsstox_substance_id>
DTXSID5021384

> <Canonical_QSARr>
FC(Cl)(Cl)Cl

> <InChI_Code_QSARr>
InChI=1S/CCl3F/c2-1(3,4)5

> <InChI Key_QSARr>
CYRMSUTZVYGINF-UHFFFAOYSA-N

> <OH>
5.0E-16

> <OH Temperature>
25.0

> <OH Data Type>
EXP

> <OH Reference>
ATKINSON,R (1994);<5E-16

> <LogOH>
-15.301029995663967

$$$$
100079
  -INDIGO-08031719142D

  5  4  0  0  0  0  0  0  0  0999 V2000
   -0.8000   -1.3856    0.0000 F   0  0  0  0  0  0  0  0  0  0  0  0
    0.0000    0.0000    0.0000 C   0  0  0  0  0  0  0  0  0  0  0  0
    0.8000    1.3856    0.0000 F   0  0  0  0  0  0  0  0  0  0  0  0
   -1.3856    0.8000    0.0000 Cl  0  0  0  0  0  0  0  0  0  0  0  0
    1.3856   -0.8000    0.0000 Cl  0  0  0  0  0  0  0  0  0  0  0  0
  1  2  1  0  0  0  0
  2  3  1  0  0  0  0
  2  4  1  0  0  0  0
  2  5  1  0  0  0  0
M  END
> <ChemID>
100079

> <source_casrn>
75-71-8

> <CAS>
75-71-8

> <SMILES>
FC(F)(Cl)Cl

> <NAME>
DICHLORODIFLUOROMETHANE

> <preferred_name>
Dichlorodifluoromethane

> <iupac>
dichloro(difluoro)methane

> <MPID>
98645

> <dsstox_substance_id>
DTXSID6020436

> <Canonical_QSARr>
FC(F)(Cl)Cl

> <InChI_Code_QSARr>
InChI=1S/CCl2F2/c2-1(3,4)5

> <InChI Key_QSARr>
PXBRQCKWGAHEHS-UHFFFAOYSA-N

> <OH>
4.0E-16

> <OH Temperature>
25.0

> <OH Data Type>
EXP

> <OH Reference>
ATKINSON,R (1989);<4E-16

> <LogOH>
-15.397940008672018

$$$$
100080
  -INDIGO-08031719142D

  5  4  0  0  0  0  0  0  0  0999 V2000
    0.0000    0.0000    0.0000 C   0  0  0  0  0  0  0  0  0  0  0  0
    0.8000    1.3856    0.0000 F   0  0  0  0  0  0  0  0  0  0  0  0
   -1.3856    0.8000    0.0000 F   0  0  0  0  0  0  0  0  0  0  0  0
    1.3856   -0.8000    0.0000 F   0  0  0  0  0  0  0  0  0  0  0  0
   -0.8000   -1.3856    0.0000 Cl  0  0  0  0  0  0  0  0  0  0  0  0
  1  2  1  0  0  0  0
  1  3  1  0  0  0  0
  1  4  1  0  0  0  0
  1  5  1  0  0  0  0
M  END
> <ChemID>
100080

> <source_casrn>
75-72-9

> <CAS>
75-72-9

> <SMILES>
FC(F)(F)Cl

> <NAME>
CHLOROTRIFLUOROMETHANE

> <preferred_name>
Chlorotrifluoromethane

> <iupac>
chloro(trifluoro)methane

> <MPID>
98646

> <dsstox_substance_id>
DTXSID4052500

> <Canonical_QSARr>
FC(F)(F)Cl

> <InChI_Code_QSARr>
InChI=1S/CClF3/c2-1(3,4)5

> <InChI Key_QSARr>
AFYPFACVUDMOHA-UHFFFAOYSA-N

> <OH>
6.999999999999999E-16

> <OH Temperature>
25.0

> <OH Data Type>
EXP

> <OH Reference>
ATKINSON,R (1989);<7E-16

> <LogOH>
-15.154901959985732

$$$$
100083
  -INDIGO-08031719142D

 17 16  0  0  0  0  0  0  0  0999 V2000
    0.0000    0.0000    0.0000 Si  0  0  0  0  0  0  0  0  0  0  0  0
    0.8000    1.3856    0.0000 C   0  0  0  0  0  0  0  0  0  0  0  0
    1.6000    2.7713    0.0000 H   0  0  0  0  0  0  0  0  0  0  0  0
    2.4000    1.3856    0.0000 H   0  0  0  0  0  0  0  0  0  0  0  0
    0.0000    2.7713    0.0000 H   0  0  0  0  0  0  0  0  0  0  0  0
   -1.3856    0.8000    0.0000 C   0  0  0  0  0  0  0  0  0  0  0  0
   -2.7713    1.6000    0.0000 H   0  0  0  0  0  0  0  0  0  0  0  0
   -2.7713    0.0000    0.0000 H   0  0  0  0  0  0  0  0  0  0  0  0
   -1.3856    2.4000    0.0000 H   0  0  0  0  0  0  0  0  0  0  0  0
    1.3856   -0.8000    0.0000 C   0  0  0  0  0  0  0  0  0  0  0  0
    2.7713   -1.6000    0.0000 H   0  0  0  0  0  0  0  0  0  0  0  0
    1.3856   -2.4000    0.0000 H   0  0  0  0  0  0  0  0  0  0  0  0
    2.7713    0.0000    0.0000 H   0  0  0  0  0  0  0  0  0  0  0  0
   -0.8000   -1.3856    0.0000 C   0  0  0  0  0  0  0  0  0  0  0  0
   -1.6000   -2.7713    0.0000 H   0  0  0  0  0  0  0  0  0  0  0  0
    0.0000   -2.7713    0.0000 H   0  0  0  0  0  0  0  0  0  0  0  0
   -2.4000   -1.3856    0.0000 H   0  0  0  0  0  0  0  0  0  0  0  0
  1  2  1  0  0  0  0
  2  3  1  0  0  0  0
  2  4  1  0  0  0  0
  2  5  1  0  0  0  0
  1  6  1  0  0  0  0
  6  7  1  0  0  0  0
  6  8  1  0  0  0  0
  6  9  1  0  0  0  0
  1 10  1  0  0  0  0
 10 11  1  0  0  0  0
 10 12  1  0  0  0  0
 10 13  1  0  0  0  0
  1 14  1  0  0  0  0
 14 15  1  0  0  0  0
 14 16  1  0  0  0  0
 14 17  1  0  0  0  0
M  END
> <ChemID>
100083

> <source_casrn>
75-76-3

> <CAS>
75-76-3

> <SMILES>
C[Si](C)(C)C

> <NAME>
TETRAMETHYLSILANE

> <preferred_name>
Tetramethylsilane

> <iupac>
tetramethylsilane

> <MPID>
98648

> <dsstox_substance_id>
DTXSID9026423

> <Canonical_QSARr>
C[Si](C)(C)C

> <InChI_Code_QSARr>
InChI=1S/C4H12Si/c1-5(2,3)4/h1-4H3

> <InChI Key_QSARr>
CZDYPVPMEAXLPK-UHFFFAOYSA-N

> <OH>
1.0E-12

> <OH Temperature>
24.0

> <OH Data Type>
EXP

> <OH Reference>
ATKINSON,R (1991)

> <LogOH>
-11.999999999999979

$$$$
100084
  -INDIGO-08031719142D

 20 19  0  0  0  0  0  0  0  0999 V2000
    2.7713    0.0000    0.0000 C   0  0  0  0  0  0  0  0  0  0  0  0
    4.1569   -0.8000    0.0000 H   0  0  0  0  0  0  0  0  0  0  0  0
    4.1569    0.8000    0.0000 H   0  0  0  0  0  0  0  0  0  0  0  0
    2.7713   -1.6000    0.0000 H   0  0  0  0  0  0  0  0  0  0  0  0
    1.3856   -0.8000    0.0000 C   0  0  0  0  0  0  0  0  0  0  0  0
    1.9980   -2.2782    0.0000 H   0  0  0  0  0  0  0  0  0  0  0  0
    0.7733   -2.2782    0.0000 H   0  0  0  0  0  0  0  0  0  0  0  0
    0.0000    0.0000    0.0000 C   0  0  0  0  0  0  0  0  0  0  0  0
   -1.3856    0.8000    0.0000 C   0  0  0  0  0  0  0  0  0  0  0  0
   -2.7713    1.6000    0.0000 H   0  0  0  0  0  0  0  0  0  0  0  0
   -2.7713    0.0000    0.0000 H   0  0  0  0  0  0  0  0  0  0  0  0
   -1.3856    2.4000    0.0000 H   0  0  0  0  0  0  0  0  0  0  0  0
    0.8000    1.3856    0.0000 C   0  0  0  0  0  0  0  0  0  0  0  0
    1.6000    2.7713    0.0000 H   0  0  0  0  0  0  0  0  0  0  0  0
    0.0000    2.7713    0.0000 H   0  0  0  0  0  0  0  0  0  0  0  0
    2.4000    1.3856    0.0000 H   0  0  0  0  0  0  0  0  0  0  0  0
   -0.8000   -1.3857    0.0000 C   0  0  0  0  0  0  0  0  0  0  0  0
   -1.6000   -2.7713    0.0000 H   0  0  0  0  0  0  0  0  0  0  0  0
   -0.2528   -2.8891    0.0000 H   0  0  0  0  0  0  0  0  0  0  0  0
   -2.4000   -1.3857    0.0000 H   0  0  0  0  0  0  0  0  0  0  0  0
  1  2  1  0  0  0  0
  1  3  1  0  0  0  0
  1  4  1  0  0  0  0
  1  5  1  0  0  0  0
  5  6  1  0  0  0  0
  5  7  1  0  0  0  0
  5  8  1  0  0  0  0
  8  9  1  0  0  0  0
  9 10  1  0  0  0  0
  9 11  1  0  0  0  0
  9 12  1  0  0  0  0
  8 13  1  0  0  0  0
 13 14  1  0  0  0  0
 13 15  1  0  0  0  0
 13 16  1  0  0  0  0
  8 17  1  0  0  0  0
 17 18  1  0  0  0  0
 17 19  1  0  0  0  0
 17 20  1  0  0  0  0
M  END
> <ChemID>
100084

> <source_casrn>
75-83-2

> <CAS>
75-83-2

> <SMILES>
CCC(C)(C)C

> <NAME>
2,2-DIMETHYLBUTANE

> <preferred_name>
2,2-Dimethylbutane

> <iupac>
2,2-dimethylbutane

> <MPID>
98649

> <dsstox_substance_id>
DTXSID4025111

> <Canonical_QSARr>
CCC(C)(C)C

> <InChI_Code_QSARr>
InChI=1S/C6H14/c1-5-6(2,3)4/h5H2,1-4H3

> <InChI Key_QSARr>
HNRMPXKDFBEGFZ-UHFFFAOYSA-N

> <OH>
2.32E-12

> <OH Temperature>
25.0

> <OH Data Type>
EXP

> <OH Reference>
ATKINSON,R (1989)

> <LogOH>
-11.634512015109086

$$$$
100085
  -INDIGO-08031719142D

 18 17  0  0  0  0  0  0  0  0999 V2000
    0.0000    0.0000    0.0000 C   0  0  0  0  0  0  0  0  0  0  0  0
    1.3856   -0.8000    0.0000 C   0  0  0  0  0  0  0  0  0  0  0  0
    1.9980   -2.2782    0.0000 H   0  0  0  0  0  0  0  0  0  0  0  0
    0.7733   -2.2782    0.0000 H   0  0  0  0  0  0  0  0  0  0  0  0
    2.7713    0.0000    0.0000 O   0  0  0  0  0  0  0  0  0  0  0  0
    4.1569   -0.8000    0.0000 H   0  0  0  0  0  0  0  0  0  0  0  0
   -1.3856    0.8000    0.0000 C   0  0  0  0  0  0  0  0  0  0  0  0
   -2.7713    1.6000    0.0000 H   0  0  0  0  0  0  0  0  0  0  0  0
   -2.7713    0.0000    0.0000 H   0  0  0  0  0  0  0  0  0  0  0  0
   -1.3856    2.4000    0.0000 H   0  0  0  0  0  0  0  0  0  0  0  0
    0.8000    1.3856    0.0000 C   0  0  0  0  0  0  0  0  0  0  0  0
    1.6000    2.7713    0.0000 H   0  0  0  0  0  0  0  0  0  0  0  0
    2.4000    1.3856    0.0000 H   0  0  0  0  0  0  0  0  0  0  0  0
    0.0000    2.7713    0.0000 H   0  0  0  0  0  0  0  0  0  0  0  0
   -0.8000   -1.3857    0.0000 C   0  0  0  0  0  0  0  0  0  0  0  0
   -1.6000   -2.7713    0.0000 H   0  0  0  0  0  0  0  0  0  0  0  0
   -0.2528   -2.8891    0.0000 H   0  0  0  0  0  0  0  0  0  0  0  0
   -2.4000   -1.3857    0.0000 H   0  0  0  0  0  0  0  0  0  0  0  0
  1  2  1  0  0  0  0
  2  3  1  0  0  0  0
  2  4  1  0  0  0  0
  2  5  1  0  0  0  0
  5  6  1  0  0  0  0
  1  7  1  0  0  0  0
  7  8  1  0  0  0  0
  7  9  1  0  0  0  0
  7 10  1  0  0  0  0
  1 11  1  0  0  0  0
 11 12  1  0  0  0  0
 11 13  1  0  0  0  0
 11 14  1  0  0  0  0
  1 15  1  0  0  0  0
 15 16  1  0  0  0  0
 15 17  1  0  0  0  0
 15 18  1  0  0  0  0
M  END
> <ChemID>
100085

> <source_casrn>
75-84-3

> <CAS>
75-84-3

> <SMILES>
CC(C)(C)CO

> <NAME>
2,2-DIMETHYL-1-PROPANOL

> <preferred_name>
2,2-Dimethylpropanol

> <iupac>
2,2-dimethylpropan-1-ol

> <MPID>
98650

> <dsstox_substance_id>
DTXSID9052501

> <Canonical_QSARr>
CC(C)(C)CO

> <InChI_Code_QSARr>
InChI=1S/C5H12O/c1-5(2,3)4-6/h6H,4H2,1-3H3

> <InChI Key_QSARr>
KPSSIOMAKSHJJG-UHFFFAOYSA-N

> <OH>
5.530000000000001E-12

> <OH Temperature>
25.0

> <OH Data Type>
EXP

> <OH Reference>
KWOK,ESC & ATKINSON,R (1994)

> <LogOH>
-11.257274868695298

$$$$
100087
  -INDIGO-08031719142D

  8  7  0  0  0  0  0  0  0  0999 V2000
    0.0000    0.0000    0.0000 C   0  0  0  0  0  0  0  0  0  0  0  0
    1.6000    0.0000    0.0000 C   0  0  0  0  0  0  0  0  0  0  0  0
    3.2000    0.0000    0.0000 H   0  0  0  0  0  0  0  0  0  0  0  0
    2.4000   -1.3856    0.0000 H   0  0  0  0  0  0  0  0  0  0  0  0
    2.4000    1.3856    0.0000 Cl  0  0  0  0  0  0  0  0  0  0  0  0
   -1.6000   -0.0000    0.0000 F   0  0  0  0  0  0  0  0  0  0  0  0
   -0.8000   -1.3856    0.0000 F   0  0  0  0  0  0  0  0  0  0  0  0
   -0.8000    1.3856    0.0000 F   0  0  0  0  0  0  0  0  0  0  0  0
  1  2  1  0  0  0  0
  2  3  1  0  0  0  0
  2  4  1  0  0  0  0
  2  5  1  0  0  0  0
  1  6  1  0  0  0  0
  1  7  1  0  0  0  0
  1  8  1  0  0  0  0
M  END
> <ChemID>
100087

> <source_casrn>
75-88-7

> <CAS>
75-88-7

> <SMILES>
FC(F)(F)CCl

> <NAME>
1,1,1-TRIFLUORO-2-CHLOROETHANE

> <preferred_name>
2-Chloro-1,1,1-trifluoroethane

> <iupac>
2-chloro-1,1,1-trifluoroethane

> <MPID>
98652

> <dsstox_substance_id>
DTXSID5020289

> <Canonical_QSARr>
FC(F)(F)CCl

> <InChI_Code_QSARr>
InChI=1S/C2H2ClF3/c3-1-2(4,5)6/h1H2

> <InChI Key_QSARr>
CYXIKYKBLDZZNW-UHFFFAOYSA-N

> <OH>
1.62E-14

> <OH Temperature>
25.0

> <OH Data Type>
EXP

> <OH Reference>
ATKINSON,R (1989)

> <LogOH>
-13.790484985457347

$$$$
100088
  -INDIGO-08031719142D

  9  8  0  0  0  0  0  0  0  0999 V2000
    1.6000    0.0000    0.0000 C   0  0  0  0  0  0  0  0  0  0  0  0
    3.2000    0.0000    0.0000 F   0  0  0  0  0  0  0  0  0  0  0  0
    2.4000   -1.3856    0.0000 F   0  0  0  0  0  0  0  0  0  0  0  0
    2.4000    1.3856    0.0000 F   0  0  0  0  0  0  0  0  0  0  0  0
   -0.0000    0.0000    0.0000 C   0  0  0  0  0  0  0  0  0  0  0  0
   -0.2089   -1.5863    0.0000 H   0  0  0  0  0  0  0  0  0  0  0  0
   -1.2694   -0.9740    0.0000 H   0  0  0  0  0  0  0  0  0  0  0  0
   -0.8000    1.3856    0.0000 O   0  0  0  0  0  0  0  0  0  0  0  0
   -2.4000    1.3856    0.0000 H   0  0  0  0  0  0  0  0  0  0  0  0
  1  2  1  0  0  0  0
  1  3  1  0  0  0  0
  1  4  1  0  0  0  0
  1  5  1  0  0  0  0
  5  6  1  0  0  0  0
  5  7  1  0  0  0  0
  5  8  1  0  0  0  0
  8  9  1  0  0  0  0
M  END
> <ChemID>
100088

> <source_casrn>
75-89-8

> <CAS>
75-89-8

> <SMILES>
OCC(F)(F)F

> <NAME>
2,2,2-TRIFLUOROETHANOL

> <preferred_name>
2,2,2-Trifluoroethanol

> <iupac>
2,2,2-trifluoroethanol

> <MPID>
98653

> <dsstox_substance_id>
DTXSID0021751

> <Canonical_QSARr>
OCC(F)(F)F

> <InChI_Code_QSARr>
InChI=1S/C2H3F3O/c3-2(4,5)1-6/h6H,1H2

> <InChI Key_QSARr>
RHQDFWAXVIIEBN-UHFFFAOYSA-N

> <OH>
9.549999999999997E-14

> <OH Temperature>
25.0

> <OH Data Type>
EXP

> <OH Reference>
ATKINSON,R (1989)

> <LogOH>
-13.019996628416251

$$$$
100089
  -INDIGO-08031719142D

  7  6  0  0  0  0  0  0  0  0999 V2000
    1.6000    0.0000    0.0000 C   0  0  0  0  0  0  0  0  0  0  0  0
    2.4000    1.3856    0.0000 H   0  0  0  0  0  0  0  0  0  0  0  0
    0.0000    0.0000    0.0000 C   0  0  0  0  0  0  0  0  0  0  0  0
   -1.6000    0.0000    0.0000 F   0  0  0  0  0  0  0  0  0  0  0  0
   -0.8000    1.3856    0.0000 F   0  0  0  0  0  0  0  0  0  0  0  0
   -0.8000   -1.3856    0.0000 F   0  0  0  0  0  0  0  0  0  0  0  0
    2.4000   -1.3856    0.0000 O   0  0  0  0  0  0  0  0  0  0  0  0
  1  2  1  0  0  0  0
  1  3  1  0  0  0  0
  3  4  1  0  0  0  0
  3  5  1  0  0  0  0
  3  6  1  0  0  0  0
  1  7  2  0  0  0  0
M  END
> <ChemID>
100089

> <source_casrn>
75-90-1

> <CAS>
75-90-1

> <SMILES>
O=CC(F)(F)F

> <NAME>
Trifluoroacetaldehyde

> <preferred_name>
Acetaldehyde, trifluoro-

> <iupac>
2,2,2-trifluoroacetaldehyde

> <MPID>
98654

> <dsstox_substance_id>
DTXSID3058791

> <Canonical_QSARr>
O=CC(F)(F)F

> <InChI_Code_QSARr>
InChI=1S/C2HF3O/c3-2(4,5)1-6/h1H

> <InChI Key_QSARr>
JVTSHOJDBRTPHD-UHFFFAOYSA-N

> <OH>
6.0E-13

> <OH Temperature>
25.0

> <OH Data Type>
EXP

> <OH Reference>
SCOLLARD,DJ ET AL. (1993)

> <LogOH>
-12.221848749616338

$$$$
100091
  -INDIGO-08031719142D

 19 18  0  0  0  0  0  0  0  0999 V2000
    2.4000   -1.3856    0.0000 C   0  0  0  0  0  0  0  0  0  0  0  0
    3.2000   -2.7713    0.0000 H   0  0  0  0  0  0  0  0  0  0  0  0
    4.0000   -1.3856    0.0000 H   0  0  0  0  0  0  0  0  0  0  0  0
    1.6000   -2.7713    0.0000 H   0  0  0  0  0  0  0  0  0  0  0  0
    0.8000   -1.3856    0.0000 C   0  0  0  0  0  0  0  0  0  0  0  0
   -0.0001   -2.7713    0.0000 O   0  0  0  0  0  0  0  0  0  0  0  0
    0.0001    0.0000    0.0000 C   0  0  0  0  0  0  0  0  0  0  0  0
   -0.8000    1.3856    0.0000 C   0  0  0  0  0  0  0  0  0  0  0  0
   -1.6000    2.7713    0.0000 H   0  0  0  0  0  0  0  0  0  0  0  0
   -2.4000    1.3856    0.0000 H   0  0  0  0  0  0  0  0  0  0  0  0
    0.0001    2.7713    0.0000 H   0  0  0  0  0  0  0  0  0  0  0  0
    1.3856    0.8000    0.0000 C   0  0  0  0  0  0  0  0  0  0  0  0
    2.7713    1.6000    0.0000 H   0  0  0  0  0  0  0  0  0  0  0  0
    1.3856    2.4000    0.0000 H   0  0  0  0  0  0  0  0  0  0  0  0
    2.7713    0.0000    0.0000 H   0  0  0  0  0  0  0  0  0  0  0  0
   -1.3856   -0.8000    0.0000 C   0  0  0  0  0  0  0  0  0  0  0  0
   -2.7713   -1.6000    0.0000 H   0  0  0  0  0  0  0  0  0  0  0  0
   -1.3856   -2.4000    0.0000 H   0  0  0  0  0  0  0  0  0  0  0  0
   -2.7713    0.0000    0.0000 H   0  0  0  0  0  0  0  0  0  0  0  0
  1  2  1  0  0  0  0
  1  3  1  0  0  0  0
  1  4  1  0  0  0  0
  1  5  1  0  0  0  0
  5  6  2  0  0  0  0
  5  7  1  0  0  0  0
  7  8  1  0  0  0  0
  8  9  1  0  0  0  0
  8 10  1  0  0  0  0
  8 11  1  0  0  0  0
  7 12  1  0  0  0  0
 12 13  1  0  0  0  0
 12 14  1  0  0  0  0
 12 15  1  0  0  0  0
  7 16  1  0  0  0  0
 16 17  1  0  0  0  0
 16 18  1  0  0  0  0
 16 19  1  0  0  0  0
M  END
> <ChemID>
100091

> <source_casrn>
75-97-8

> <CAS>
75-97-8

> <SMILES>
CC(=O)C(C)(C)C

> <NAME>
3,3-DIMETHYL-2-BUTANONE

> <preferred_name>
3,3-Dimethyl-2-butanone

> <iupac>
3,3-dimethylbutan-2-one

> <MPID>
98656

> <dsstox_substance_id>
DTXSID5021752

> <Canonical_QSARr>
CC(=O)C(C)(C)C

> <InChI_Code_QSARr>
InChI=1S/C6H12O/c1-5(7)6(2,3)4/h1-4H3

> <InChI Key_QSARr>
PJGSXYOJTGTZAV-UHFFFAOYSA-N

> <OH>
1.21E-12

> <OH Temperature>
25.0

> <OH Data Type>
EXP

> <OH Reference>
ATKINSON,R (1989)

> <LogOH>
-11.91721462968355

$$$$
100092
  -INDIGO-08031719142D

 34 35  0  0  0  0  0  0  0  0999 V2000
   -0.0000    0.0000    0.0000 C   0  0  0  0  0  0  0  0  0  0  0  0
    1.5767    0.2722    0.0000 C   0  0  0  0  0  0  0  0  0  0  0  0
    2.4380   -0.2558    0.0000 H   0  0  0  0  0  0  0  0  0  0  0  0
    2.8085    1.2933    0.0000 O   0  0  0  0  0  0  0  0  0  0  0  0
    4.3088    0.7372    0.0000 C   0  0  0  0  0  0  0  0  0  0  0  0
    4.5772   -0.8401    0.0000 O   0  0  0  0  0  0  0  0  0  0  0  0
    5.5404    1.7583    0.0000 C   0  0  0  0  0  0  0  0  0  0  0  0
    6.7722    2.7795    0.0000 H   0  0  0  0  0  0  0  0  0  0  0  0
    7.0407    1.2022    0.0000 H   0  0  0  0  0  0  0  0  0  0  0  0
    5.2719    3.3356    0.0000 H   0  0  0  0  0  0  0  0  0  0  0  0
    0.3465    1.1467    0.0000 C   0  0  0  0  0  0  0  0  0  0  0  0
   -0.1911    2.6536    0.0000 H   0  0  0  0  0  0  0  0  0  0  0  0
    1.6224    2.1121    0.0000 H   0  0  0  0  0  0  0  0  0  0  0  0
   -1.3606    1.0822    0.0000 C   0  0  0  0  0  0  0  0  0  0  0  0
   -2.9503    1.2640    0.0000 H   0  0  0  0  0  0  0  0  0  0  0  0
   -1.7739    2.5465    0.0000 C   0  0  0  0  0  0  0  0  0  0  0  0
   -3.3588    2.7657    0.0000 C   0  0  0  0  0  0  0  0  0  0  0  0
   -3.9616    4.2479    0.0000 H   0  0  0  0  0  0  0  0  0  0  0  0
   -4.9438    2.9848    0.0000 H   0  0  0  0  0  0  0  0  0  0  0  0
   -2.3766    4.0287    0.0000 H   0  0  0  0  0  0  0  0  0  0  0  0
   -0.9378    3.9107    0.0000 C   0  0  0  0  0  0  0  0  0  0  0  0
   -0.1017    5.2748    0.0000 H   0  0  0  0  0  0  0  0  0  0  0  0
   -1.7011    5.3169    0.0000 H   0  0  0  0  0  0  0  0  0  0  0  0
    0.6616    3.8686    0.0000 H   0  0  0  0  0  0  0  0  0  0  0  0
   -2.1363   -0.3280    0.0000 C   0  0  0  0  0  0  0  0  0  0  0  0
   -2.9818   -1.6864    0.0000 H   0  0  0  0  0  0  0  0  0  0  0  0
   -3.5170    0.4806    0.0000 H   0  0  0  0  0  0  0  0  0  0  0  0
   -0.7643   -1.2339    0.0000 C   0  0  0  0  0  0  0  0  0  0  0  0
    0.2135   -2.5004    0.0000 H   0  0  0  0  0  0  0  0  0  0  0  0
   -1.6329   -2.5776    0.0000 H   0  0  0  0  0  0  0  0  0  0  0  0
    1.1116   -1.1507    0.0000 C   0  0  0  0  0  0  0  0  0  0  0  0
    2.2233   -2.3015    0.0000 H   0  0  0  0  0  0  0  0  0  0  0  0
    1.2235   -2.7468    0.0000 H   0  0  0  0  0  0  0  0  0  0  0  0
    2.1214   -1.1778    0.0000 H   0  0  0  0  0  0  0  0  0  0  0  0
  1  2  1  0  0  0  0
  2  3  1  0  0  0  0
  2  4  1  0  0  0  0
  4  5  1  0  0  0  0
  5  6  2  0  0  0  0
  5  7  1  0  0  0  0
  7  8  1  0  0  0  0
  7  9  1  0  0  0  0
  7 10  1  0  0  0  0
  2 11  1  0  0  0  0
 11 12  1  0  0  0  0
 11 13  1  0  0  0  0
 11 14  1  0  0  0  0
 14 15  1  0  0  0  0
 14 16  1  0  0  0  0
 16  1  1  0  0  0  0
 16 17  1  0  0  0  0
 17 18  1  0  0  0  0
 17 19  1  0  0  0  0
 17 20  1  0  0  0  0
 16 21  1  0  0  0  0
 21 22  1  0  0  0  0
 21 23  1  0  0  0  0
 21 24  1  0  0  0  0
 14 25  1  0  0  0  0
 25 26  1  0  0  0  0
 25 27  1  0  0  0  0
 25 28  1  0  0  0  0
 28  1  1  0  0  0  0
 28 29  1  0  0  0  0
 28 30  1  0  0  0  0
  1 31  1  0  0  0  0
 31 32  1  0  0  0  0
 31 33  1  0  0  0  0
 31 34  1  0  0  0  0
M  END
> <ChemID>
100092

> <source_casrn>
76-49-3

> <CAS>
76-49-3

> <SMILES>
CC1(C)C2C[C@@H](OC(C)=O)C1(C)CC2

> <NAME>
BORNYL ACETATE

> <preferred_name>
Bornyl acetate

> <iupac>
(2R)-1,7,7-trimethylbicyclo[2.2.1]hept-2-yl acetate

> <MPID>
98657

> <dsstox_substance_id>
DTXSID7041675

> <Canonical_QSARr>
CC1(C)C2CC(OC(C)=O)C1(C)CC2

> <InChI_Code_QSARr>
InChI=1S/C12H20O2/c1-8(13)14-10-7-9-5-6-12(10,4)11(9,2)3/h9-10H,5-7H2,1-4H3

> <InChI Key_QSARr>
KGEKLUUHTZCSIP-UHFFFAOYSA-N

> <OH>
1.39E-11

> <OH Temperature>
25.0

> <OH Data Type>
EXP

> <OH Reference>
COEUR,C ET AL. (1998)

> <LogOH>
-10.856985199745903

$$$$
100093
  -INDIGO-08031719142D

 19 18  0  0  0  0  0  0  0  0999 V2000
    0.8001   -1.3856    0.0000 C   0  0  0  0  0  0  0  0  0  0  0  0
    1.6000   -2.7713    0.0000 H   0  0  0  0  0  0  0  0  0  0  0  0
   -0.0001   -2.7713    0.0000 H   0  0  0  0  0  0  0  0  0  0  0  0
    2.4000   -1.3856    0.0000 H   0  0  0  0  0  0  0  0  0  0  0  0
   -0.0001    0.0000    0.0000 C   0  0  0  0  0  0  0  0  0  0  0  0
   -0.8000    1.3856    0.0000 C   0  0  0  0  0  0  0  0  0  0  0  0
   -1.6000    2.7713    0.0000 H   0  0  0  0  0  0  0  0  0  0  0  0
   -2.4000    1.3856    0.0000 H   0  0  0  0  0  0  0  0  0  0  0  0
   -0.0001    2.7713    0.0000 H   0  0  0  0  0  0  0  0  0  0  0  0
    1.3856    0.8000    0.0000 O   0  0  0  0  0  0  0  0  0  0  0  0
    2.7713    0.0000    0.0000 C   0  0  0  0  0  0  0  0  0  0  0  0
    4.1569    0.8000    0.0000 H   0  0  0  0  0  0  0  0  0  0  0  0
    4.1569   -0.8000    0.0000 H   0  0  0  0  0  0  0  0  0  0  0  0
    2.7713    1.6000    0.0000 H   0  0  0  0  0  0  0  0  0  0  0  0
   -1.3856   -0.8000    0.0000 O   0  0  0  0  0  0  0  0  0  0  0  0
   -2.7713    0.0000    0.0000 C   0  0  0  0  0  0  0  0  0  0  0  0
   -4.1569   -0.8000    0.0000 H   0  0  0  0  0  0  0  0  0  0  0  0
   -4.1569    0.8000    0.0000 H   0  0  0  0  0  0  0  0  0  0  0  0
   -2.7712   -1.6000    0.0000 H   0  0  0  0  0  0  0  0  0  0  0  0
  1  2  1  0  0  0  0
  1  3  1  0  0  0  0
  1  4  1  0  0  0  0
  1  5  1  0  0  0  0
  5  6  1  0  0  0  0
  6  7  1  0  0  0  0
  6  8  1  0  0  0  0
  6  9  1  0  0  0  0
  5 10  1  0  0  0  0
 10 11  1  0  0  0  0
 11 12  1  0  0  0  0
 11 13  1  0  0  0  0
 11 14  1  0  0  0  0
  5 15  1  0  0  0  0
 15 16  1  0  0  0  0
 16 17  1  0  0  0  0
 16 18  1  0  0  0  0
 16 19  1  0  0  0  0
M  END
> <ChemID>
100093

> <source_casrn>
77-76-9

> <CAS>
77-76-9

> <SMILES>
CC(C)(OC)OC

> <NAME>
2,2-DIMETHOXYPROPANE

> <preferred_name>
2,2-Dimethoxypropane

> <iupac>
2,2-dimethoxypropane

> <MPID>
98658

> <dsstox_substance_id>
DTXSID7026441

> <Canonical_QSARr>
CC(C)(OC)OC

> <InChI_Code_QSARr>
InChI=1S/C5H12O2/c1-5(2,6-3)7-4/h1-4H3

> <InChI Key_QSARr>
HEWZVZIVELJPQZ-UHFFFAOYSA-N

> <OH>
3.919999999999998E-12

> <OH Temperature>
25.0

> <OH Data Type>
EXP

> <OH Reference>
ATKINSON,R (1989)

> <LogOH>
-11.406713932979551

$$$$
100096
  -INDIGO-08031719142D

 26 25  0  0  0  0  0  0  0  0999 V2000
    0.8001   -1.3856    0.0000 O   0  0  0  0  0  0  0  0  0  0  0  0
    0.0001    0.0000    0.0000 P   0  0  0  0  0  0  0  0  0  0  0  0
    1.6001    0.0000    0.0000 O   0  0  0  0  0  0  0  0  0  0  0  0
    2.4000   -1.3856    0.0000 C   0  0  0  0  0  0  0  0  0  0  0  0
    1.1306   -2.3596    0.0000 H   0  0  0  0  0  0  0  0  0  0  0  0
    2.1912   -2.9720    0.0000 H   0  0  0  0  0  0  0  0  0  0  0  0
    4.0000   -1.3856    0.0000 C   0  0  0  0  0  0  0  0  0  0  0  0
    5.6000   -1.3856    0.0000 H   0  0  0  0  0  0  0  0  0  0  0  0
    4.8000   -2.7712    0.0000 H   0  0  0  0  0  0  0  0  0  0  0  0
    4.8000    0.0000    0.0000 H   0  0  0  0  0  0  0  0  0  0  0  0
    0.8001    1.3857    0.0000 O   0  0  0  0  0  0  0  0  0  0  0  0
    0.0001    2.7713    0.0000 C   0  0  0  0  0  0  0  0  0  0  0  0
   -1.4782    3.3836    0.0000 H   0  0  0  0  0  0  0  0  0  0  0  0
   -1.4782    2.1590    0.0000 H   0  0  0  0  0  0  0  0  0  0  0  0
    0.8001    4.1569    0.0000 C   0  0  0  0  0  0  0  0  0  0  0  0
    1.6001    5.5426    0.0000 H   0  0  0  0  0  0  0  0  0  0  0  0
    0.0001    5.5426    0.0000 H   0  0  0  0  0  0  0  0  0  0  0  0
    2.4000    4.1569    0.0000 H   0  0  0  0  0  0  0  0  0  0  0  0
   -1.6001    0.0000    0.0000 O   0  0  0  0  0  0  0  0  0  0  0  0
   -2.4000   -1.3856    0.0000 C   0  0  0  0  0  0  0  0  0  0  0  0
   -2.1912   -2.9720    0.0000 H   0  0  0  0  0  0  0  0  0  0  0  0
   -1.1306   -2.3596    0.0000 H   0  0  0  0  0  0  0  0  0  0  0  0
   -4.0000   -1.3856    0.0000 C   0  0  0  0  0  0  0  0  0  0  0  0
   -5.6000   -1.3856    0.0000 H   0  0  0  0  0  0  0  0  0  0  0  0
   -4.8000   -2.7712    0.0000 H   0  0  0  0  0  0  0  0  0  0  0  0
   -4.8000    0.0000    0.0000 H   0  0  0  0  0  0  0  0  0  0  0  0
  1  2  2  0  0  0  0
  2  3  1  0  0  0  0
  3  4  1  0  0  0  0
  4  5  1  0  0  0  0
  4  6  1  0  0  0  0
  4  7  1  0  0  0  0
  7  8  1  0  0  0  0
  7  9  1  0  0  0  0
  7 10  1  0  0  0  0
  2 11  1  0  0  0  0
 11 12  1  0  0  0  0
 12 13  1  0  0  0  0
 12 14  1  0  0  0  0
 12 15  1  0  0  0  0
 15 16  1  0  0  0  0
 15 17  1  0  0  0  0
 15 18  1  0  0  0  0
  2 19  1  0  0  0  0
 19 20  1  0  0  0  0
 20 21  1  0  0  0  0
 20 22  1  0  0  0  0
 20 23  1  0  0  0  0
 23 24  1  0  0  0  0
 23 25  1  0  0  0  0
 23 26  1  0  0  0  0
M  END
> <ChemID>
100096

> <source_casrn>
78-40-0

> <CAS>
78-40-0

> <SMILES>
CCOP(=O)(OCC)OCC

> <NAME>
TRIETHYL PHOSPHATE

> <preferred_name>
Triethyl phosphate

> <iupac>
triethyl phosphate

> <MPID>
98660

> <dsstox_substance_id>
DTXSID8026228

> <Canonical_QSARr>
CCOP(=O)(OCC)OCC

> <InChI_Code_QSARr>
InChI=1S/C6H15O4P/c1-4-8-11(7,9-5-2)10-6-3/h4-6H2,1-3H3

> <InChI Key_QSARr>
DQWPFSLDHJDLRL-UHFFFAOYSA-N

> <OH>
5.530000000000001E-11

> <OH Temperature>
25.0

> <OH Data Type>
EXP

> <OH Reference>
KWOK,ESC & ATKINSON,R (1994)

> <LogOH>
-10.257274868695319

$$$$
100097
  -INDIGO-08031719142D

 29 28  0  0  0  0  0  0  0  0999 V2000
   -0.7999   -1.3857    0.0000 O   0  0  0  0  0  0  0  0  0  0  0  0
   -0.0000   -2.7713    0.0000 H   0  0  0  0  0  0  0  0  0  0  0  0
   -0.0000   -0.0001    0.0000 C   0  0  0  0  0  0  0  0  0  0  0  0
    0.8000    1.3857    0.0000 C   0  0  0  0  0  0  0  0  0  0  0  0
    2.4000    1.3857    0.0000 H   0  0  0  0  0  0  0  0  0  0  0  0
    0.2528    2.8892    0.0000 C   0  0  0  0  0  0  0  0  0  0  0  0
    1.2813    4.1148    0.0000 H   0  0  0  0  0  0  0  0  0  0  0  0
   -1.3230    3.1670    0.0000 H   0  0  0  0  0  0  0  0  0  0  0  0
   -1.3857    0.8000    0.0000 C   0  0  0  0  0  0  0  0  0  0  0  0
   -0.7734    2.2782    0.0000 H   0  0  0  0  0  0  0  0  0  0  0  0
   -1.9979    2.2782    0.0000 H   0  0  0  0  0  0  0  0  0  0  0  0
   -2.7712   -0.0001    0.0000 C   0  0  0  0  0  0  0  0  0  0  0  0
   -3.3835   -1.4782    0.0000 H   0  0  0  0  0  0  0  0  0  0  0  0
   -2.1590   -1.4782    0.0000 H   0  0  0  0  0  0  0  0  0  0  0  0
   -4.1569    0.8000    0.0000 C   0  0  0  0  0  0  0  0  0  0  0  0
   -4.1569    2.4000    0.0000 H   0  0  0  0  0  0  0  0  0  0  0  0
   -5.5425   -0.0001    0.0000 C   0  0  0  0  0  0  0  0  0  0  0  0
   -6.9282    0.8000    0.0000 C   0  0  0  0  0  0  0  0  0  0  0  0
   -8.3138    1.6000    0.0000 H   0  0  0  0  0  0  0  0  0  0  0  0
   -8.3138   -0.0001    0.0000 H   0  0  0  0  0  0  0  0  0  0  0  0
   -6.9282    2.4000    0.0000 H   0  0  0  0  0  0  0  0  0  0  0  0
   -5.5425   -1.6000    0.0000 C   0  0  0  0  0  0  0  0  0  0  0  0
   -5.5425   -3.2000    0.0000 H   0  0  0  0  0  0  0  0  0  0  0  0
   -6.9282   -2.4000    0.0000 H   0  0  0  0  0  0  0  0  0  0  0  0
   -4.1569   -2.4000    0.0000 H   0  0  0  0  0  0  0  0  0  0  0  0
    1.3856   -0.8000    0.0000 C   0  0  0  0  0  0  0  0  0  0  0  0
    2.7713   -1.6000    0.0000 H   0  0  0  0  0  0  0  0  0  0  0  0
    2.7713   -0.0001    0.0000 H   0  0  0  0  0  0  0  0  0  0  0  0
    1.3856   -2.4000    0.0000 H   0  0  0  0  0  0  0  0  0  0  0  0
  1  2  1  0  0  0  0
  1  3  1  0  0  0  0
  3  4  1  0  0  0  0
  4  5  1  0  0  0  0
  4  6  2  0  0  0  0
  6  7  1  0  0  0  0
  6  8  1  0  0  0  0
  3  9  1  0  0  0  0
  9 10  1  0  0  0  0
  9 11  1  0  0  0  0
  9 12  1  0  0  0  0
 12 13  1  0  0  0  0
 12 14  1  0  0  0  0
 12 15  1  0  0  0  0
 15 16  1  0  0  0  0
 15 17  2  0  0  0  0
 17 18  1  0  0  0  0
 18 19  1  0  0  0  0
 18 20  1  0  0  0  0
 18 21  1  0  0  0  0
 17 22  1  0  0  0  0
 22 23  1  0  0  0  0
 22 24  1  0  0  0  0
 22 25  1  0  0  0  0
  3 26  1  0  0  0  0
 26 27  1  0  0  0  0
 26 28  1  0  0  0  0
 26 29  1  0  0  0  0
M  END
> <ChemID>
100097

> <source_casrn>
78-70-6

> <CAS>
78-70-6

> <SMILES>
CC(C)=CCCC(C)(O)C=C

> <NAME>
LINALOOL

> <preferred_name>
Linalool

> <iupac>
3,7-dimethylocta-1,6-dien-3-ol

> <MPID>
98661

> <dsstox_substance_id>
DTXSID7025502

> <Canonical_QSARr>
CC(C)=CCCC(C)(O)C=C

> <InChI_Code_QSARr>
InChI=1S/C10H18O/c1-5-10(4,11)8-6-7-9(2)3/h5,7,11H,1,6,8H2,2-4H3

> <InChI Key_QSARr>
CDOSHBSSFJOMGT-UHFFFAOYSA-N

> <OH>
1.6E-10

> <OH Temperature>
23.0

> <OH Data Type>
EXP

> <OH Reference>
ATKINSON,R ET AL. (1995)

> <LogOH>
-9.795880017344066

$$$$
100098
  -INDIGO-08031719142D

 17 16  0  0  0  0  0  0  0  0999 V2000
   -0.0000    0.0000    0.0000 C   0  0  0  0  0  0  0  0  0  0  0  0
    0.8000   -1.3856    0.0000 H   0  0  0  0  0  0  0  0  0  0  0  0
   -1.3857   -0.8000    0.0000 C   0  0  0  0  0  0  0  0  0  0  0  0
   -2.7713   -1.6000    0.0000 H   0  0  0  0  0  0  0  0  0  0  0  0
   -1.3857   -2.4000    0.0000 H   0  0  0  0  0  0  0  0  0  0  0  0
   -2.7713    0.0000    0.0000 H   0  0  0  0  0  0  0  0  0  0  0  0
   -0.8000    1.3856    0.0000 C   0  0  0  0  0  0  0  0  0  0  0  0
   -1.6001    2.7713    0.0000 H   0  0  0  0  0  0  0  0  0  0  0  0
   -0.0000    2.7713    0.0000 H   0  0  0  0  0  0  0  0  0  0  0  0
   -2.4000    1.3856    0.0000 H   0  0  0  0  0  0  0  0  0  0  0  0
    1.5036    0.5472    0.0000 C   0  0  0  0  0  0  0  0  0  0  0  0
    1.1572    2.1093    0.0000 H   0  0  0  0  0  0  0  0  0  0  0  0
    2.3631    1.8967    0.0000 H   0  0  0  0  0  0  0  0  0  0  0  0
    2.7292   -0.4813    0.0000 C   0  0  0  0  0  0  0  0  0  0  0  0
    3.9548   -1.5097    0.0000 H   0  0  0  0  0  0  0  0  0  0  0  0
    4.2327    0.0660    0.0000 H   0  0  0  0  0  0  0  0  0  0  0  0
    2.4513   -2.0569    0.0000 H   0  0  0  0  0  0  0  0  0  0  0  0
  1  2  1  0  0  0  0
  1  3  1  0  0  0  0
  3  4  1  0  0  0  0
  3  5  1  0  0  0  0
  3  6  1  0  0  0  0
  1  7  1  0  0  0  0
  7  8  1  0  0  0  0
  7  9  1  0  0  0  0
  7 10  1  0  0  0  0
  1 11  1  0  0  0  0
 11 12  1  0  0  0  0
 11 13  1  0  0  0  0
 11 14  1  0  0  0  0
 14 15  1  0  0  0  0
 14 16  1  0  0  0  0
 14 17  1  0  0  0  0
M  END
> <ChemID>
100098

> <source_casrn>
78-78-4

> <CAS>
78-78-4

> <SMILES>
CCC(C)C

> <NAME>
ISOPENTANE

> <preferred_name>
2-Methylbutane

> <iupac>
2-methylbutane

> <MPID>
98662

> <dsstox_substance_id>
DTXSID8025468

> <Canonical_QSARr>
CCC(C)C

> <InChI_Code_QSARr>
InChI=1S/C5H12/c1-4-5(2)3/h5H,4H2,1-3H3

> <InChI Key_QSARr>
QWTDNUCVQCZILF-UHFFFAOYSA-N

> <OH>
3.9E-12

> <OH Temperature>
25.0

> <OH Data Type>
EXP

> <OH Reference>
ATKINSON,R (1989)

> <LogOH>
-11.40893539297348

$$$$
100100
  -INDIGO-08031719142D

 13 12  0  0  0  0  0  0  0  0999 V2000
    1.6000    0.0000    0.0000 C   0  0  0  0  0  0  0  0  0  0  0  0
    3.2000    0.0000    0.0000 H   0  0  0  0  0  0  0  0  0  0  0  0
    2.4000   -1.3856    0.0000 H   0  0  0  0  0  0  0  0  0  0  0  0
    2.4000    1.3856    0.0000 H   0  0  0  0  0  0  0  0  0  0  0  0
    0.0000    0.0000    0.0000 C   0  0  0  0  0  0  0  0  0  0  0  0
    0.0000   -1.6000    0.0000 H   0  0  0  0  0  0  0  0  0  0  0  0
   -1.6000    0.0000    0.0000 C   0  0  0  0  0  0  0  0  0  0  0  0
   -3.2000    0.0000    0.0000 H   0  0  0  0  0  0  0  0  0  0  0  0
   -2.4000   -1.3856    0.0000 H   0  0  0  0  0  0  0  0  0  0  0  0
   -2.4000    1.3856    0.0000 H   0  0  0  0  0  0  0  0  0  0  0  0
    0.0000    1.6000    0.0000 C   0  0  0  0  0  0  0  0  0  0  0  0
    1.3856    2.4000    0.0000 H   0  0  0  0  0  0  0  0  0  0  0  0
   -1.3856    2.4000    0.0000 O   0  0  0  0  0  0  0  0  0  0  0  0
  1  2  1  0  0  0  0
  1  3  1  0  0  0  0
  1  4  1  0  0  0  0
  1  5  1  0  0  0  0
  5  6  1  0  0  0  0
  5  7  1  0  0  0  0
  7  8  1  0  0  0  0
  7  9  1  0  0  0  0
  7 10  1  0  0  0  0
  5 11  1  0  0  0  0
 11 12  1  0  0  0  0
 11 13  2  0  0  0  0
M  END
> <ChemID>
100100

> <source_casrn>
78-84-2

> <CAS>
78-84-2

> <SMILES>
CC(C)C=O

> <NAME>
ISOBUTYRALDEHYDE

> <preferred_name>
2-Methylpropanal

> <iupac>
2-methylpropanal

> <MPID>
98664

> <dsstox_substance_id>
DTXSID9021635

> <Canonical_QSARr>
CC(C)C=O

> <InChI_Code_QSARr>
InChI=1S/C4H8O/c1-4(2)3-5/h3-4H,1-2H3

> <InChI Key_QSARr>
AMIMRNSIRUDHCM-UHFFFAOYSA-N

> <OH>
2.63E-11

> <OH Temperature>
25.0

> <OH Data Type>
EXP

> <OH Reference>
ATKINSON,R (1989)

> <LogOH>
-10.580044251510227

$$$$
100101
  -INDIGO-08031719142D

 11 10  0  0  0  0  0  0  0  0999 V2000
    1.3856   -0.8000    0.0000 C   0  0  0  0  0  0  0  0  0  0  0  0
    2.7713   -1.6000    0.0000 H   0  0  0  0  0  0  0  0  0  0  0  0
    1.3856   -2.4000    0.0000 H   0  0  0  0  0  0  0  0  0  0  0  0
    2.7713    0.0000    0.0000 H   0  0  0  0  0  0  0  0  0  0  0  0
    0.0000    0.0000    0.0000 C   0  0  0  0  0  0  0  0  0  0  0  0
    0.0000    1.6000    0.0000 C   0  0  0  0  0  0  0  0  0  0  0  0
   -1.3856    2.4000    0.0000 H   0  0  0  0  0  0  0  0  0  0  0  0
    1.3856    2.4000    0.0000 O   0  0  0  0  0  0  0  0  0  0  0  0
   -1.3856   -0.8000    0.0000 C   0  0  0  0  0  0  0  0  0  0  0  0
   -2.7713   -0.0000    0.0000 H   0  0  0  0  0  0  0  0  0  0  0  0
   -1.3856   -2.4000    0.0000 H   0  0  0  0  0  0  0  0  0  0  0  0
  1  2  1  0  0  0  0
  1  3  1  0  0  0  0
  1  4  1  0  0  0  0
  1  5  1  0  0  0  0
  5  6  1  0  0  0  0
  6  7  1  0  0  0  0
  6  8  2  0  0  0  0
  5  9  2  0  0  0  0
  9 10  1  0  0  0  0
  9 11  1  0  0  0  0
M  END
> <ChemID>
100101

> <source_casrn>
78-85-3

> <CAS>
78-85-3

> <SMILES>
CC(=C)C=O

> <NAME>
METHACROLEIN

> <preferred_name>
Methacrylaldehyde

> <iupac>
methacrylaldehyde

> <MPID>
98665

> <dsstox_substance_id>
DTXSID0052540

> <Canonical_QSARr>
CC(=C)C=O

> <InChI_Code_QSARr>
InChI=1S/C4H6O/c1-4(2)3-5/h3H,1H2,2H3

> <InChI Key_QSARr>
STNJBCKSHOAVAJ-UHFFFAOYSA-N

> <OH>
3.349999999999999E-11

> <OH Temperature>
25.0

> <OH Data Type>
EXP

> <OH Reference>
ATKINSON,R (1989)

> <LogOH>
-10.474955192963142

$$$$
100102
  -INDIGO-08031719142D

 14 13  0  0  0  0  0  0  0  0999 V2000
   -0.6123    1.4782    0.0000 Cl  0  0  0  0  0  0  0  0  0  0  0  0
    0.0000    0.0000    0.0000 C   0  0  0  0  0  0  0  0  0  0  0  0
    0.6123    1.4782    0.0000 H   0  0  0  0  0  0  0  0  0  0  0  0
    1.3856   -0.8000    0.0000 C   0  0  0  0  0  0  0  0  0  0  0  0
    2.7713   -1.6000    0.0000 H   0  0  0  0  0  0  0  0  0  0  0  0
    2.7713    0.0000    0.0000 H   0  0  0  0  0  0  0  0  0  0  0  0
    1.3856   -2.4000    0.0000 H   0  0  0  0  0  0  0  0  0  0  0  0
   -1.3856   -0.8000    0.0000 C   0  0  0  0  0  0  0  0  0  0  0  0
   -1.9980   -2.2782    0.0000 H   0  0  0  0  0  0  0  0  0  0  0  0
   -0.7733   -2.2782    0.0000 H   0  0  0  0  0  0  0  0  0  0  0  0
   -2.7713    0.0000    0.0000 C   0  0  0  0  0  0  0  0  0  0  0  0
   -4.1569    0.8000    0.0000 H   0  0  0  0  0  0  0  0  0  0  0  0
   -4.1569   -0.8000    0.0000 H   0  0  0  0  0  0  0  0  0  0  0  0
   -2.7713    1.6000    0.0000 H   0  0  0  0  0  0  0  0  0  0  0  0
  1  2  1  0  0  0  0
  2  3  1  0  0  0  0
  2  4  1  0  0  0  0
  4  5  1  0  0  0  0
  4  6  1  0  0  0  0
  4  7  1  0  0  0  0
  2  8  1  0  0  0  0
  8  9  1  0  0  0  0
  8 10  1  0  0  0  0
  8 11  1  0  0  0  0
 11 12  1  0  0  0  0
 11 13  1  0  0  0  0
 11 14  1  0  0  0  0
M  END
> <ChemID>
100102

> <source_casrn>
78-86-4

> <CAS>
78-86-4

> <SMILES>
CCC(C)Cl

> <NAME>
2-CHLOROBUTANE

> <preferred_name>
2-Chlorobutane

> <iupac>
2-chlorobutane

> <MPID>
98666

> <dsstox_substance_id>
DTXSID9023966

> <Canonical_QSARr>
CCC(C)Cl

> <InChI_Code_QSARr>
InChI=1S/C4H9Cl/c1-3-4(2)5/h4H,3H2,1-2H3

> <InChI Key_QSARr>
BSPCSKHALVHRSR-UHFFFAOYSA-N

> <OH>
2.3E-12

> <OH Temperature>
25.0

> <OH Data Type>
EXP

> <OH Reference>
MILL,T ET AL. (1982)

> <LogOH>
-11.638272163982387

$$$$
100104
  -INDIGO-08031719142D

 13 12  0  0  0  0  0  0  0  0999 V2000
    2.7713    0.0000    0.0000 C   0  0  0  0  0  0  0  0  0  0  0  0
    4.1569   -0.8000    0.0000 H   0  0  0  0  0  0  0  0  0  0  0  0
    4.1569    0.8000    0.0000 H   0  0  0  0  0  0  0  0  0  0  0  0
    2.7713   -1.6000    0.0000 H   0  0  0  0  0  0  0  0  0  0  0  0
    1.3856    0.8000    0.0000 C   0  0  0  0  0  0  0  0  0  0  0  0
    0.0000    0.0000    0.0000 C   0  0  0  0  0  0  0  0  0  0  0  0
    0.6123   -1.4782    0.0000 H   0  0  0  0  0  0  0  0  0  0  0  0
   -0.6123   -1.4782    0.0000 H   0  0  0  0  0  0  0  0  0  0  0  0
   -1.3856    0.8000    0.0000 C   0  0  0  0  0  0  0  0  0  0  0  0
   -2.7713    1.6000    0.0000 H   0  0  0  0  0  0  0  0  0  0  0  0
   -2.7713    0.0000    0.0000 H   0  0  0  0  0  0  0  0  0  0  0  0
   -1.3856    2.4000    0.0000 H   0  0  0  0  0  0  0  0  0  0  0  0
    1.3856    2.4000    0.0000 O   0  0  0  0  0  0  0  0  0  0  0  0
  1  2  1  0  0  0  0
  1  3  1  0  0  0  0
  1  4  1  0  0  0  0
  1  5  1  0  0  0  0
  5  6  1  0  0  0  0
  6  7  1  0  0  0  0
  6  8  1  0  0  0  0
  6  9  1  0  0  0  0
  9 10  1  0  0  0  0
  9 11  1  0  0  0  0
  9 12  1  0  0  0  0
  5 13  2  0  0  0  0
M  END
> <ChemID>
100104

> <source_casrn>
78-93-3

> <CAS>
78-93-3

> <SMILES>
CCC(C)=O

> <NAME>
2-BUTANONE

> <preferred_name>
Methyl ethyl ketone

> <iupac>
butan-2-one

> <MPID>
98668

> <dsstox_substance_id>
DTXSID3021516

> <Canonical_QSARr>
CCC(C)=O

> <InChI_Code_QSARr>
InChI=1S/C4H8O/c1-3-4(2)5/h3H2,1-2H3

> <InChI Key_QSARr>
ZWEHNKRNPOVVGH-UHFFFAOYSA-N

> <OH>
1.15E-12

> <OH Temperature>
25.0

> <OH Data Type>
EXP

> <OH Reference>
ATKINSON,R (1989)

> <LogOH>
-11.939302159646392

$$$$
100105
  -INDIGO-08031719142D

 11 10  0  0  0  0  0  0  0  0999 V2000
    0.0000   -1.6000    0.0000 O   0  0  0  0  0  0  0  0  0  0  0  0
    0.0000    0.0000    0.0000 C   0  0  0  0  0  0  0  0  0  0  0  0
    1.3856    0.8000    0.0000 C   0  0  0  0  0  0  0  0  0  0  0  0
    1.3856    2.4000    0.0000 H   0  0  0  0  0  0  0  0  0  0  0  0
    2.7713    0.0000    0.0000 C   0  0  0  0  0  0  0  0  0  0  0  0
    4.1569    0.8000    0.0000 H   0  0  0  0  0  0  0  0  0  0  0  0
    2.7713   -1.6000    0.0000 H   0  0  0  0  0  0  0  0  0  0  0  0
   -1.3856    0.8000    0.0000 C   0  0  0  0  0  0  0  0  0  0  0  0
   -2.7713    1.6000    0.0000 H   0  0  0  0  0  0  0  0  0  0  0  0
   -2.7713    0.0000    0.0000 H   0  0  0  0  0  0  0  0  0  0  0  0
   -1.3856    2.4000    0.0000 H   0  0  0  0  0  0  0  0  0  0  0  0
  1  2  2  0  0  0  0
  2  3  1  0  0  0  0
  3  4  1  0  0  0  0
  3  5  2  0  0  0  0
  5  6  1  0  0  0  0
  5  7  1  0  0  0  0
  2  8  1  0  0  0  0
  8  9  1  0  0  0  0
  8 10  1  0  0  0  0
  8 11  1  0  0  0  0
M  END
> <ChemID>
100105

> <source_casrn>
78-94-4

> <CAS>
78-94-4

> <SMILES>
CC(=O)C=C

> <NAME>
METHYLVINYLKETONE

> <preferred_name>
Methyl vinyl ketone

> <iupac>
but-3-en-2-one

> <MPID>
98669

> <dsstox_substance_id>
DTXSID3025671

> <Canonical_QSARr>
CC(=O)C=C

> <InChI_Code_QSARr>
InChI=1S/C4H6O/c1-3-4(2)5/h3H,1H2,2H3

> <InChI Key_QSARr>
FUSUHKVFWTUUBE-UHFFFAOYSA-N

> <OH>
1.88E-11

> <OH Temperature>
25.0

> <OH Data Type>
EXP

> <OH Reference>
ATKINSON,R (1989)

> <LogOH>
-10.7258421507363

$$$$
100106
  -INDIGO-08031719142D

  9  8  0  0  0  0  0  0  0  0999 V2000
   -0.0000    0.0000    0.0000 C   0  0  0  0  0  0  0  0  0  0  0  0
    1.3856    0.8000    0.0000 H   0  0  0  0  0  0  0  0  0  0  0  0
   -0.0000    1.6000    0.0000 H   0  0  0  0  0  0  0  0  0  0  0  0
    1.3856   -0.8000    0.0000 H   0  0  0  0  0  0  0  0  0  0  0  0
   -1.3856   -0.8000    0.0000 C   0  0  0  0  0  0  0  0  0  0  0  0
   -2.7713    0.0000    0.0000 C   0  0  0  0  0  0  0  0  0  0  0  0
   -4.1569   -0.8000    0.0000 H   0  0  0  0  0  0  0  0  0  0  0  0
   -2.7713    1.6000    0.0000 O   0  0  0  0  0  0  0  0  0  0  0  0
   -1.3856   -2.4000    0.0000 O   0  0  0  0  0  0  0  0  0  0  0  0
  1  2  1  0  0  0  0
  1  3  1  0  0  0  0
  1  4  1  0  0  0  0
  1  5  1  0  0  0  0
  5  6  1  0  0  0  0
  6  7  1  0  0  0  0
  6  8  2  0  0  0  0
  5  9  2  0  0  0  0
M  END
> <ChemID>
100106

> <source_casrn>
78-98-8

> <CAS>
78-98-8

> <SMILES>
CC(=O)C=O

> <NAME>
METHYL GLYOXAL

> <preferred_name>
Methyl glyoxal

> <iupac>
2-oxopropanal

> <MPID>
98670

> <dsstox_substance_id>
DTXSID0021628

> <Canonical_QSARr>
CC(=O)C=O

> <InChI_Code_QSARr>
InChI=1S/C3H4O2/c1-3(5)2-4/h2H,1H3

> <InChI Key_QSARr>
AIJULSRZWUXGPQ-UHFFFAOYSA-N

> <OH>
1.72E-11

> <OH Temperature>
25.0

> <OH Data Type>
EXP

> <OH Reference>
ATKINSON,R (1989)

> <LogOH>
-10.764471553092433

$$$$
100108
  -INDIGO-08031719142D

  6  5  0  0  0  0  0  0  0  0999 V2000
   -0.8000   -1.3856    0.0000 Cl  0  0  0  0  0  0  0  0  0  0  0  0
    0.0000    0.0000    0.0000 C   0  0  0  0  0  0  0  0  0  0  0  0
    1.6000    0.0000    0.0000 C   0  0  0  0  0  0  0  0  0  0  0  0
    2.4000    1.3856    0.0000 H   0  0  0  0  0  0  0  0  0  0  0  0
    2.4000   -1.3856    0.0000 Cl  0  0  0  0  0  0  0  0  0  0  0  0
   -0.8000    1.3856    0.0000 Cl  0  0  0  0  0  0  0  0  0  0  0  0
  1  2  1  0  0  0  0
  2  3  2  0  0  0  0
  3  4  1  0  0  0  0
  3  5  1  0  0  0  0
  2  6  1  0  0  0  0
M  END
> <ChemID>
100108

> <source_casrn>
79-01-6

> <CAS>
79-01-6

> <SMILES>
ClC=C(Cl)Cl

> <NAME>
TRICHLOROETHENE

> <preferred_name>
Trichloroethylene

> <iupac>
1,1,2-trichloroethene

> <MPID>
98672

> <dsstox_substance_id>
DTXSID0021383

> <Canonical_QSARr>
ClC=C(Cl)Cl

> <InChI_Code_QSARr>
InChI=1S/C2HCl3/c3-1-2(4)5/h1H

> <InChI Key_QSARr>
XSTXAVWGXDQKEL-UHFFFAOYSA-N

> <OH>
2.36E-12

> <OH Temperature>
25.0

> <OH Data Type>
EXP

> <OH Reference>
ATKINSON,R (1989)

> <LogOH>
-11.627087997029879

$$$$
100109
  -INDIGO-08031719142D

  7  6  0  0  0  0  0  0  0  0999 V2000
    0.8000   -1.3856    0.0000 Cl  0  0  0  0  0  0  0  0  0  0  0  0
    0.0000    0.0000    0.0000 C   0  0  0  0  0  0  0  0  0  0  0  0
    1.6000    0.0000    0.0000 H   0  0  0  0  0  0  0  0  0  0  0  0
    0.8000    1.3856    0.0000 Cl  0  0  0  0  0  0  0  0  0  0  0  0
   -1.6000    0.0000    0.0000 C   0  0  0  0  0  0  0  0  0  0  0  0
   -2.4000    1.3856    0.0000 H   0  0  0  0  0  0  0  0  0  0  0  0
   -2.4000   -1.3856    0.0000 O   0  0  0  0  0  0  0  0  0  0  0  0
  1  2  1  0  0  0  0
  2  3  1  0  0  0  0
  2  4  1  0  0  0  0
  2  5  1  0  0  0  0
  5  6  1  0  0  0  0
  5  7  2  0  0  0  0
M  END
> <ChemID>
100109

> <source_casrn>
79-02-7

> <CAS>
79-02-7

> <SMILES>
O=CC(Cl)Cl

> <NAME>
DICHLOROACETALDEHYDE

> <preferred_name>
Dichloroacetaldehyde

> <iupac>
dichloroacetaldehyde

> <MPID>
98673

> <dsstox_substance_id>
DTXSID3021560

> <Canonical_QSARr>
O=CC(Cl)Cl

> <InChI_Code_QSARr>
InChI=1S/C2H2Cl2O/c3-2(4)1-5/h1-2H

> <InChI Key_QSARr>
NWQWQKUXRJYXFH-UHFFFAOYSA-N

> <OH>
2.3E-12

> <OH Temperature>
25.0

> <OH Data Type>
EXP

> <OH Reference>
SCOLLARD,DJ ET AL. (1993)

> <LogOH>
-11.638272163982387

$$$$
100110
  -INDIGO-08031719142D

 11 10  0  0  0  0  0  0  0  0999 V2000
    1.3856    2.4000    0.0000 O   0  0  0  0  0  0  0  0  0  0  0  0
    1.3856    0.8000    0.0000 C   0  0  0  0  0  0  0  0  0  0  0  0
    2.7713    0.0000    0.0000 O   0  0  0  0  0  0  0  0  0  0  0  0
    4.1569    0.8000    0.0000 H   0  0  0  0  0  0  0  0  0  0  0  0
    0.0000    0.0000    0.0000 C   0  0  0  0  0  0  0  0  0  0  0  0
   -0.6123   -1.4782    0.0000 H   0  0  0  0  0  0  0  0  0  0  0  0
    0.6123   -1.4782    0.0000 H   0  0  0  0  0  0  0  0  0  0  0  0
   -1.3856    0.8000    0.0000 C   0  0  0  0  0  0  0  0  0  0  0  0
   -2.7713    1.6000    0.0000 H   0  0  0  0  0  0  0  0  0  0  0  0
   -2.7713    0.0000    0.0000 H   0  0  0  0  0  0  0  0  0  0  0  0
   -1.3856    2.4000    0.0000 H   0  0  0  0  0  0  0  0  0  0  0  0
  1  2  2  0  0  0  0
  2  3  1  0  0  0  0
  3  4  1  0  0  0  0
  2  5  1  0  0  0  0
  5  6  1  0  0  0  0
  5  7  1  0  0  0  0
  5  8  1  0  0  0  0
  8  9  1  0  0  0  0
  8 10  1  0  0  0  0
  8 11  1  0  0  0  0
M  END
> <ChemID>
100110

> <source_casrn>
79-09-4

> <CAS>
79-09-4

> <SMILES>
CCC(O)=O

> <NAME>
PROPIONIC ACID

> <preferred_name>
Propionic acid

> <iupac>
propanoic acid

> <MPID>
98674

> <dsstox_substance_id>
DTXSID8025961

> <Canonical_QSARr>
CCC(O)=O

> <InChI_Code_QSARr>
InChI=1S/C3H6O2/c1-2-3(4)5/h2H2,1H3,(H,4,5)

> <InChI Key_QSARr>
XBDQKXXYIPTUBI-UHFFFAOYSA-N

> <OH>
1.22E-12

> <OH Temperature>
25.0

> <OH Data Type>
EXP

> <OH Reference>
ATKINSON,R (1989)

> <LogOH>
-11.913640169325259

$$$$
100112
  -INDIGO-08031719142D

 11 10  0  0  0  0  0  0  0  0999 V2000
    0.0000    0.0000    0.0000 C   0  0  0  0  0  0  0  0  0  0  0  0
    1.3856    0.8000    0.0000 H   0  0  0  0  0  0  0  0  0  0  0  0
    0.0000    1.6000    0.0000 H   0  0  0  0  0  0  0  0  0  0  0  0
    1.3856   -0.8000    0.0000 H   0  0  0  0  0  0  0  0  0  0  0  0
   -1.3856   -0.8000    0.0000 C   0  0  0  0  0  0  0  0  0  0  0  0
   -1.3856   -2.4000    0.0000 O   0  0  0  0  0  0  0  0  0  0  0  0
   -2.7713    0.0000    0.0000 O   0  0  0  0  0  0  0  0  0  0  0  0
   -4.1569   -0.8000    0.0000 C   0  0  0  0  0  0  0  0  0  0  0  0
   -5.5426   -1.6000    0.0000 H   0  0  0  0  0  0  0  0  0  0  0  0
   -5.5426    0.0000    0.0000 H   0  0  0  0  0  0  0  0  0  0  0  0
   -4.1569   -2.4000    0.0000 H   0  0  0  0  0  0  0  0  0  0  0  0
  1  2  1  0  0  0  0
  1  3  1  0  0  0  0
  1  4  1  0  0  0  0
  1  5  1  0  0  0  0
  5  6  2  0  0  0  0
  5  7  1  0  0  0  0
  7  8  1  0  0  0  0
  8  9  1  0  0  0  0
  8 10  1  0  0  0  0
  8 11  1  0  0  0  0
M  END
> <ChemID>
100112

> <source_casrn>
79-20-9

> <CAS>
79-20-9

> <SMILES>
COC(C)=O

> <NAME>
METHYL ACETATE

> <preferred_name>
Methyl acetate

> <iupac>
methyl acetate

> <MPID>
98676

> <dsstox_substance_id>
DTXSID4021767

> <Canonical_QSARr>
COC(C)=O

> <InChI_Code_QSARr>
InChI=1S/C3H6O2/c1-3(4)5-2/h1-2H3

> <InChI Key_QSARr>
KXKVLQRXCPHEJC-UHFFFAOYSA-N

> <OH>
3.41E-13

> <OH Temperature>
23.0

> <OH Data Type>
EXP

> <OH Reference>
ATKINSON,R (1989)

> <LogOH>
-12.467245621007516

$$$$
100113
  -INDIGO-08031719142D

 10  9  0  0  0  0  0  0  0  0999 V2000
   -1.3856    2.4000    0.0000 O   0  0  0  0  0  0  0  0  0  0  0  0
   -1.3856    0.8000    0.0000 N   0  0  0  0  0  0  0  0  0  0  0  0
   -0.0000    0.0000    0.0000 C   0  0  0  0  0  0  0  0  0  0  0  0
    0.6123   -1.4782    0.0000 H   0  0  0  0  0  0  0  0  0  0  0  0
   -0.6123   -1.4782    0.0000 H   0  0  0  0  0  0  0  0  0  0  0  0
    1.3856    0.8000    0.0000 C   0  0  0  0  0  0  0  0  0  0  0  0
    2.7713    1.6000    0.0000 H   0  0  0  0  0  0  0  0  0  0  0  0
    2.7713    0.0000    0.0000 H   0  0  0  0  0  0  0  0  0  0  0  0
    1.3856    2.4000    0.0000 H   0  0  0  0  0  0  0  0  0  0  0  0
   -2.7713    0.0000    0.0000 O   0  0  0  0  0  0  0  0  0  0  0  0
  1  2  2  0  0  0  0
  2  3  1  0  0  0  0
  3  4  1  0  0  0  0
  3  5  1  0  0  0  0
  3  6  1  0  0  0  0
  6  7  1  0  0  0  0
  6  8  1  0  0  0  0
  6  9  1  0  0  0  0
  2 10  1  0  0  0  0
M  CHG  2   2   1  10  -1
M  END
> <ChemID>
100113

> <source_casrn>
79-24-3

> <CAS>
79-24-3

> <SMILES>
CC[N+]([O-])=O

> <NAME>
NITROETHANE

> <preferred_name>
Nitroethane

> <iupac>
nitroethane

> <MPID>
98677

> <dsstox_substance_id>
DTXSID8020969

> <Canonical_QSARr>
CC[N+]([O-])=O

> <InChI_Code_QSARr>
InChI=1S/C2H5NO2/c1-2-3(4)5/h2H2,1H3

> <InChI Key_QSARr>
MCSAJNNLRCFZED-UHFFFAOYSA-N

> <OH>
1.5E-13

> <OH Temperature>
25.0

> <OH Data Type>
EXP

> <OH Reference>
ATKINSON,R (1994)

> <LogOH>
-12.823908740944304

$$$$
100114
  -INDIGO-08031719142D

 20 19  0  0  0  0  0  0  0  0999 V2000
   -0.0001    0.0000    0.0000 C   0  0  0  0  0  0  0  0  0  0  0  0
    0.8000   -1.3856    0.0000 H   0  0  0  0  0  0  0  0  0  0  0  0
    1.5036    0.5472    0.0000 C   0  0  0  0  0  0  0  0  0  0  0  0
    0.7035    1.9329    0.0000 H   0  0  0  0  0  0  0  0  0  0  0  0
    2.8891    1.3473    0.0000 C   0  0  0  0  0  0  0  0  0  0  0  0
    4.2748    2.1472    0.0000 H   0  0  0  0  0  0  0  0  0  0  0  0
    2.8891    2.9472    0.0000 H   0  0  0  0  0  0  0  0  0  0  0  0
    4.2748    0.5472    0.0000 H   0  0  0  0  0  0  0  0  0  0  0  0
    2.3035   -0.8384    0.0000 C   0  0  0  0  0  0  0  0  0  0  0  0
    3.1035   -2.2241    0.0000 H   0  0  0  0  0  0  0  0  0  0  0  0
    3.9035   -0.8384    0.0000 H   0  0  0  0  0  0  0  0  0  0  0  0
    1.5036   -2.2241    0.0000 H   0  0  0  0  0  0  0  0  0  0  0  0
   -1.3856   -0.8000    0.0000 C   0  0  0  0  0  0  0  0  0  0  0  0
   -2.7713   -1.6000    0.0000 H   0  0  0  0  0  0  0  0  0  0  0  0
   -2.7713    0.0000    0.0000 H   0  0  0  0  0  0  0  0  0  0  0  0
   -1.3856   -2.4000    0.0000 H   0  0  0  0  0  0  0  0  0  0  0  0
   -0.8000    1.3856    0.0000 C   0  0  0  0  0  0  0  0  0  0  0  0
   -1.6000    2.7713    0.0000 H   0  0  0  0  0  0  0  0  0  0  0  0
   -2.4000    1.3856    0.0000 H   0  0  0  0  0  0  0  0  0  0  0  0
   -0.0001    2.7713    0.0000 H   0  0  0  0  0  0  0  0  0  0  0  0
  1  2  1  0  0  0  0
  1  3  1  0  0  0  0
  3  4  1  0  0  0  0
  3  5  1  0  0  0  0
  5  6  1  0  0  0  0
  5  7  1  0  0  0  0
  5  8  1  0  0  0  0
  3  9  1  0  0  0  0
  9 10  1  0  0  0  0
  9 11  1  0  0  0  0
  9 12  1  0  0  0  0
  1 13  1  0  0  0  0
 13 14  1  0  0  0  0
 13 15  1  0  0  0  0
 13 16  1  0  0  0  0
  1 17  1  0  0  0  0
 17 18  1  0  0  0  0
 17 19  1  0  0  0  0
 17 20  1  0  0  0  0
M  END
> <ChemID>
100114

> <source_casrn>
79-29-8

> <CAS>
79-29-8

> <SMILES>
CC(C)C(C)C

> <NAME>
2,3-DIMETHYLBUTANE

> <preferred_name>
2,3-Dimethylbutane

> <iupac>
2,3-dimethylbutane

> <MPID>
98678

> <dsstox_substance_id>
DTXSID9025112

> <Canonical_QSARr>
CC(C)C(C)C

> <InChI_Code_QSARr>
InChI=1S/C6H14/c1-5(2)6(3)4/h5-6H,1-4H3

> <InChI Key_QSARr>
ZFFMLCVRJBZUDZ-UHFFFAOYSA-N

> <OH>
6.2E-12

> <OH Temperature>
25.0

> <OH Data Type>
EXP

> <OH Reference>
ATKINSON,R (1989)

> <LogOH>
-11.207608310501744

$$$$
100116
  -INDIGO-08031719142D

  8  7  0  0  0  0  0  0  0  0999 V2000
    0.8000    1.3856    0.0000 Cl  0  0  0  0  0  0  0  0  0  0  0  0
    0.0000    0.0000    0.0000 C   0  0  0  0  0  0  0  0  0  0  0  0
    1.6000   -0.0000    0.0000 H   0  0  0  0  0  0  0  0  0  0  0  0
   -1.6000    0.0000    0.0000 C   0  0  0  0  0  0  0  0  0  0  0  0
   -3.2000    0.0000    0.0000 H   0  0  0  0  0  0  0  0  0  0  0  0
   -2.4000   -1.3856    0.0000 Cl  0  0  0  0  0  0  0  0  0  0  0  0
   -2.4000    1.3856    0.0000 Cl  0  0  0  0  0  0  0  0  0  0  0  0
    0.8000   -1.3856    0.0000 Cl  0  0  0  0  0  0  0  0  0  0  0  0
  1  2  1  0  0  0  0
  2  3  1  0  0  0  0
  2  4  1  0  0  0  0
  4  5  1  0  0  0  0
  4  6  1  0  0  0  0
  4  7  1  0  0  0  0
  2  8  1  0  0  0  0
M  END
> <ChemID>
100116

> <source_casrn>
79-34-5

> <CAS>
79-34-5

> <SMILES>
ClC(Cl)C(Cl)Cl

> <NAME>
1,1,2,2-TETRACHLOROETHANE

> <preferred_name>
1,1,2,2-Tetrachloroethane

> <iupac>
1,1,2,2-tetrachloroethane

> <MPID>
98680

> <dsstox_substance_id>
DTXSID7021318

> <Canonical_QSARr>
ClC(Cl)C(Cl)Cl

> <InChI_Code_QSARr>
InChI=1S/C2H2Cl4/c3-1(4)2(5)6/h1-2H

> <InChI Key_QSARr>
QPFMBZIOSGYJDE-UHFFFAOYSA-N

> <OH>
2.500000000000001E-13

> <OH Temperature>
25.0

> <OH Data Type>
EXP

> <OH Reference>
TOSATO,ML ET AL. (1991)

> <LogOH>
-12.602059991327945

$$$$
100117
  -INDIGO-08031719142D

  6  5  0  0  0  0  0  0  0  0999 V2000
    0.0000    0.0000    0.0000 C   0  0  0  0  0  0  0  0  0  0  0  0
    1.6000    0.0000    0.0000 C   0  0  0  0  0  0  0  0  0  0  0  0
    2.4000    1.3856    0.0000 Cl  0  0  0  0  0  0  0  0  0  0  0  0
    2.4000   -1.3856    0.0000 Cl  0  0  0  0  0  0  0  0  0  0  0  0
   -0.8000    1.3856    0.0000 F   0  0  0  0  0  0  0  0  0  0  0  0
   -0.8000   -1.3856    0.0000 F   0  0  0  0  0  0  0  0  0  0  0  0
  1  2  2  0  0  0  0
  2  3  1  0  0  0  0
  2  4  1  0  0  0  0
  1  5  1  0  0  0  0
  1  6  1  0  0  0  0
M  END
> <ChemID>
100117

> <source_casrn>
79-35-6

> <CAS>
79-35-6

> <SMILES>
FC(F)=C(Cl)Cl

> <NAME>
1,1-DICHLORO-2,2-DIFLUOROETHYLENE

> <preferred_name>
Ethene, 1,1-dichloro-2,2-difluoro-

> <iupac>
1,1-dichloro-2,2-difluoroethene

> <MPID>
98681

> <dsstox_substance_id>
DTXSID6073150

> <Canonical_QSARr>
FC(F)=C(Cl)Cl

> <InChI_Code_QSARr>
InChI=1S/C2Cl2F2/c3-1(4)2(5)6

> <InChI Key_QSARr>
QDGONURINHVBEW-UHFFFAOYSA-N

> <OH>
7.349999999999998E-12

> <OH Temperature>
25.0

> <OH Data Type>
EXP

> <OH Reference>
ATKINSON,R (1989)

> <LogOH>
-11.133712660915803

$$$$
100118
  -INDIGO-08031719142D

  6  5  0  0  0  0  0  0  0  0999 V2000
    0.0000    0.0000    0.0000 C   0  0  0  0  0  0  0  0  0  0  0  0
    1.6000    0.0000    0.0000 C   0  0  0  0  0  0  0  0  0  0  0  0
    2.4000    1.3856    0.0000 F   0  0  0  0  0  0  0  0  0  0  0  0
    2.4000   -1.3856    0.0000 F   0  0  0  0  0  0  0  0  0  0  0  0
   -0.8000    1.3856    0.0000 Cl  0  0  0  0  0  0  0  0  0  0  0  0
   -0.8000   -1.3856    0.0000 F   0  0  0  0  0  0  0  0  0  0  0  0
  1  2  2  0  0  0  0
  2  3  1  0  0  0  0
  2  4  1  0  0  0  0
  1  5  1  0  0  0  0
  1  6  1  0  0  0  0
M  END
> <ChemID>
100118

> <source_casrn>
79-38-9

> <CAS>
79-38-9

> <SMILES>
FC(F)=C(F)Cl

> <NAME>
CHLOROTRIFLUOROETHYLENE

> <preferred_name>
Chlorotrifluoroethylene

> <iupac>
1-chloro-1,2,2-trifluoroethene

> <MPID>
98682

> <dsstox_substance_id>
DTXSID3026485

> <Canonical_QSARr>
FC(F)=C(F)Cl

> <InChI_Code_QSARr>
InChI=1S/C2ClF3/c3-1(4)2(5)6

> <InChI Key_QSARr>
UUAGAQFQZIEFAH-UHFFFAOYSA-N

> <OH>
6.999999999999999E-12

> <OH Temperature>
25.0

> <OH Data Type>
EXP

> <OH Reference>
DILLING,WL (1982)

> <LogOH>
-11.154901959985727

$$$$
100120
  -INDIGO-08031719142D

 26 27  0  0  0  0  0  0  0  0999 V2000
    1.1108   -2.3805    0.0000 C   0  0  0  0  0  0  0  0  0  0  0  0
    1.9794   -3.7242    0.0000 H   0  0  0  0  0  0  0  0  0  0  0  0
   -0.2412   -3.2361    0.0000 H   0  0  0  0  0  0  0  0  0  0  0  0
    2.4829   -1.4746    0.0000 C   0  0  0  0  0  0  0  0  0  0  0  0
    3.3282   -2.8330    0.0000 H   0  0  0  0  0  0  0  0  0  0  0  0
    3.8635   -0.6660    0.0000 H   0  0  0  0  0  0  0  0  0  0  0  0
    1.7072   -0.0645    0.0000 C   0  0  0  0  0  0  0  0  0  0  0  0
    3.2968    0.1174    0.0000 H   0  0  0  0  0  0  0  0  0  0  0  0
    2.1205    1.3999    0.0000 C   0  0  0  0  0  0  0  0  0  0  0  0
    3.7053    1.6190    0.0000 H   0  0  0  0  0  0  0  0  0  0  0  0
    1.9184    2.3156    0.0000 H   0  0  0  0  0  0  0  0  0  0  0  0
    0.3466   -1.1466    0.0000 C   0  0  0  0  0  0  0  0  0  0  0  0
   -0.5484   -2.4729    0.0000 H   0  0  0  0  0  0  0  0  0  0  0  0
   -1.2301   -0.8745    0.0000 C   0  0  0  0  0  0  0  0  0  0  0  0
   -0.0000    0.0000    0.0000 C   0  0  0  0  0  0  0  0  0  0  0  0
    0.5378    1.5069    0.0000 C   0  0  0  0  0  0  0  0  0  0  0  0
   -0.4984    2.7261    0.0000 H   0  0  0  0  0  0  0  0  0  0  0  0
    0.8057    3.0843    0.0000 H   0  0  0  0  0  0  0  0  0  0  0  0
    1.0862    2.2675    0.0000 H   0  0  0  0  0  0  0  0  0  0  0  0
   -1.2758    0.9655    0.0000 C   0  0  0  0  0  0  0  0  0  0  0  0
   -2.5517    1.9310    0.0000 H   0  0  0  0  0  0  0  0  0  0  0  0
   -2.7499    0.3434    0.0000 H   0  0  0  0  0  0  0  0  0  0  0  0
   -1.3564    2.5635    0.0000 H   0  0  0  0  0  0  0  0  0  0  0  0
   -2.7904   -1.2291    0.0000 C   0  0  0  0  0  0  0  0  0  0  0  0
   -3.2634   -2.7576    0.0000 H   0  0  0  0  0  0  0  0  0  0  0  0
   -3.8776   -0.0553    0.0000 H   0  0  0  0  0  0  0  0  0  0  0  0
  1  2  1  0  0  0  0
  1  3  1  0  0  0  0
  1  4  1  0  0  0  0
  4  5  1  0  0  0  0
  4  6  1  0  0  0  0
  4  7  1  0  0  0  0
  7  8  1  0  0  0  0
  7  9  1  0  0  0  0
  9 10  1  0  0  0  0
  9 11  1  0  0  0  0
  9 12  1  0  0  0  0
 12  1  1  0  0  0  0
 12 13  1  0  0  0  0
 12 14  1  0  0  0  0
 14 15  1  0  0  0  0
 15  7  1  0  0  0  0
 15 16  1  0  0  0  0
 16 17  1  0  0  0  0
 16 18  1  0  0  0  0
 16 19  1  0  0  0  0
 15 20  1  0  0  0  0
 20 21  1  0  0  0  0
 20 22  1  0  0  0  0
 20 23  1  0  0  0  0
 14 24  2  0  0  0  0
 24 25  1  0  0  0  0
 24 26  1  0  0  0  0
M  END
> <ChemID>
100120

> <source_casrn>
79-92-5

> <CAS>
79-92-5

> <SMILES>
CC1(C)C2CC(CC2)C1=C

> <NAME>
CAMPHENE

> <preferred_name>
Camphene

> <iupac>
C10H16

> <MPID>
98684

> <dsstox_substance_id>
DTXSID8026488

> <Canonical_QSARr>
CC1(C)C2CC(CC2)C1=C

> <InChI_Code_QSARr>
InChI=1S/C10H16/c1-7-8-4-5-9(6-8)10(7,2)3/h8-9H,1,4-6H2,2-3H3

> <InChI Key_QSARr>
CRPUJAZIXJMDBK-UHFFFAOYSA-N

> <OH>
5.33E-11

> <OH Temperature>
23.0

> <OH Data Type>
EXP

> <OH Reference>
ATKINSON,R ET AL. (1990A)

> <LogOH>
-10.273272790973449

$$$$
100121
  -INDIGO-08031719142D

 26 27  0  0  0  0  0  0  0  0999 V2000
   -1.3891   -0.8450    0.0000 C   0  0  0  0  0  0  0  0  0  0  0  0
   -0.3476   -2.0596    0.0000 H   0  0  0  0  0  0  0  0  0  0  0  0
    0.0000   -0.0000    0.0000 C   0  0  0  0  0  0  0  0  0  0  0  0
    0.6524    1.4610    0.0000 C   0  0  0  0  0  0  0  0  0  0  0  0
    1.3049    2.9218    0.0000 H   0  0  0  0  0  0  0  0  0  0  0  0
    2.2439    1.6263    0.0000 H   0  0  0  0  0  0  0  0  0  0  0  0
   -0.2865    2.7565    0.0000 H   0  0  0  0  0  0  0  0  0  0  0  0
    1.2006   -1.0576    0.0000 C   0  0  0  0  0  0  0  0  0  0  0  0
    2.4012   -2.1153    0.0000 H   0  0  0  0  0  0  0  0  0  0  0  0
    2.7168   -0.5466    0.0000 H   0  0  0  0  0  0  0  0  0  0  0  0
    0.8850   -2.6262    0.0000 H   0  0  0  0  0  0  0  0  0  0  0  0
   -2.7825    0.3296    0.0000 C   0  0  0  0  0  0  0  0  0  0  0  0
   -4.2901    0.8654    0.0000 H   0  0  0  0  0  0  0  0  0  0  0  0
   -3.9266   -0.8742    0.0000 C   0  0  0  0  0  0  0  0  0  0  0  0
   -5.4548   -1.3480    0.0000 H   0  0  0  0  0  0  0  0  0  0  0  0
   -5.1846    0.1143    0.0000 H   0  0  0  0  0  0  0  0  0  0  0  0
   -3.8602   -2.3308    0.0000 C   0  0  0  0  0  0  0  0  0  0  0  0
   -4.8573   -3.5821    0.0000 H   0  0  0  0  0  0  0  0  0  0  0  0
   -2.4195   -2.0691    0.0000 C   0  0  0  0  0  0  0  0  0  0  0  0
   -1.6170   -3.4534    0.0000 C   0  0  0  0  0  0  0  0  0  0  0  0
   -0.8146   -4.8376    0.0000 H   0  0  0  0  0  0  0  0  0  0  0  0
   -2.4145   -4.8404    0.0000 H   0  0  0  0  0  0  0  0  0  0  0  0
   -0.0170   -3.4504    0.0000 H   0  0  0  0  0  0  0  0  0  0  0  0
   -2.9050    1.9203    0.0000 C   0  0  0  0  0  0  0  0  0  0  0  0
   -4.4311    2.4011    0.0000 H   0  0  0  0  0  0  0  0  0  0  0  0
   -1.8899    3.1571    0.0000 H   0  0  0  0  0  0  0  0  0  0  0  0
  1  2  1  0  0  0  0
  1  3  1  0  0  0  0
  3  4  1  0  0  0  0
  4  5  1  0  0  0  0
  4  6  1  0  0  0  0
  4  7  1  0  0  0  0
  3  8  1  0  0  0  0
  8  9  1  0  0  0  0
  8 10  1  0  0  0  0
  8 11  1  0  0  0  0
  3 12  1  0  0  0  0
 12 13  1  0  0  0  0
 12 14  1  0  0  0  0
 14 15  1  0  0  0  0
 14 16  1  0  0  0  0
 14 17  1  0  0  0  0
 17 18  1  0  0  0  0
 17 19  2  0  0  0  0
 19  1  1  0  0  0  0
 19 20  1  0  0  0  0
 20 21  1  0  0  0  0
 20 22  1  0  0  0  0
 20 23  1  0  0  0  0
 12 24  1  0  0  0  0
 24  1  1  0  0  0  0
 24 25  1  0  0  0  0
 24 26  1  0  0  0  0
M  END
> <ChemID>
100121

> <source_casrn>
80-56-8

> <CAS>
80-56-8

> <SMILES>
CC1=CCC2CC1C2(C)C

> <NAME>
ALPHA-PINENE

> <preferred_name>
alpha-Pinene

> <iupac>
2,6,6-trimethylbicyclo[3.1.1]hept-2-ene

> <MPID>
98685

> <dsstox_substance_id>
DTXSID4026501

> <Canonical_QSARr>
CC1=CCC2CC1C2(C)C

> <InChI_Code_QSARr>
InChI=1S/C10H16/c1-7-4-5-8-6-9(7)10(8,2)3/h4,8-9H,5-6H2,1-3H3

> <InChI Key_QSARr>
GRWFGVWFFZKLTI-UHFFFAOYSA-N

> <OH>
5.369999999999999E-11

> <OH Temperature>
25.0

> <OH Data Type>
EXP

> <OH Reference>
KWOK,ESC & ATKINSON,R (1994)

> <LogOH>
-10.27002571430043

$$$$
100122
  -INDIGO-08031719142D

 15 14  0  0  0  0  0  0  0  0999 V2000
   -1.3857    2.4000    0.0000 O   0  0  0  0  0  0  0  0  0  0  0  0
   -1.3857    0.8000    0.0000 C   0  0  0  0  0  0  0  0  0  0  0  0
    0.0000    0.0000    0.0000 C   0  0  0  0  0  0  0  0  0  0  0  0
    0.0000   -1.6000    0.0000 C   0  0  0  0  0  0  0  0  0  0  0  0
   -1.3856   -2.4000    0.0000 H   0  0  0  0  0  0  0  0  0  0  0  0
    1.3856   -2.4000    0.0000 H   0  0  0  0  0  0  0  0  0  0  0  0
    1.3856    0.8000    0.0000 C   0  0  0  0  0  0  0  0  0  0  0  0
    2.7713    1.6000    0.0000 H   0  0  0  0  0  0  0  0  0  0  0  0
    2.7713    0.0000    0.0000 H   0  0  0  0  0  0  0  0  0  0  0  0
    1.3856    2.4000    0.0000 H   0  0  0  0  0  0  0  0  0  0  0  0
   -2.7713   -0.0000    0.0000 O   0  0  0  0  0  0  0  0  0  0  0  0
   -4.1569    0.8000    0.0000 C   0  0  0  0  0  0  0  0  0  0  0  0
   -5.5426    1.6000    0.0000 H   0  0  0  0  0  0  0  0  0  0  0  0
   -5.5426   -0.0000    0.0000 H   0  0  0  0  0  0  0  0  0  0  0  0
   -4.1569    2.4000    0.0000 H   0  0  0  0  0  0  0  0  0  0  0  0
  1  2  2  0  0  0  0
  2  3  1  0  0  0  0
  3  4  2  0  0  0  0
  4  5  1  0  0  0  0
  4  6  1  0  0  0  0
  3  7  1  0  0  0  0
  7  8  1  0  0  0  0
  7  9  1  0  0  0  0
  7 10  1  0  0  0  0
  2 11  1  0  0  0  0
 11 12  1  0  0  0  0
 12 13  1  0  0  0  0
 12 14  1  0  0  0  0
 12 15  1  0  0  0  0
M  END
> <ChemID>
100122

> <source_casrn>
80-62-6

> <CAS>
80-62-6

> <SMILES>
CC(=C)C(=O)OC

> <NAME>
METHYL METHACRYLATE

> <preferred_name>
Methyl methacrylate

> <iupac>
methyl 2-methylprop-2-enoate

> <MPID>
98686

> <dsstox_substance_id>
DTXSID2020844

> <Canonical_QSARr>
CC(=C)C(=O)OC

> <InChI_Code_QSARr>
InChI=1S/C5H8O2/c1-4(2)5(6)7-3/h1H2,2-3H3

> <InChI Key_QSARr>
VVQNEPGJFQJSBK-UHFFFAOYSA-N

> <OH>
2.6E-11

> <OH Temperature>
25.0

> <OH Data Type>
EXP

> <OH Reference>
SAUNDERS,SM ET AL. (1993)

> <LogOH>
-10.585026652029196

$$$$
100124
  -INDIGO-08031719142D

 24 26  0  0  0  0  0  0  0  0999 V2000
   -0.0001    0.0000    0.0000 C   0  0  0  0  0  0  0  0  0  0  0  0
    1.6001    0.0000    0.0000 C   0  0  0  0  0  0  0  0  0  0  0  0
    2.4001   -1.3856    0.0000 C   0  0  0  0  0  0  0  0  0  0  0  0
    4.0000   -1.3856    0.0000 C   0  0  0  0  0  0  0  0  0  0  0  0
    4.8000   -2.7713    0.0000 H   0  0  0  0  0  0  0  0  0  0  0  0
    4.8000    0.0000    0.0000 C   0  0  0  0  0  0  0  0  0  0  0  0
    6.4000    0.0000    0.0000 H   0  0  0  0  0  0  0  0  0  0  0  0
    4.0000    1.3856    0.0000 C   0  0  0  0  0  0  0  0  0  0  0  0
    4.8000    2.7713    0.0000 H   0  0  0  0  0  0  0  0  0  0  0  0
    2.4001    1.3856    0.0000 C   0  0  0  0  0  0  0  0  0  0  0  0
    1.6001    2.7713    0.0000 H   0  0  0  0  0  0  0  0  0  0  0  0
    1.6001   -2.7713    0.0000 C   0  0  0  0  0  0  0  0  0  0  0  0
    2.4001   -4.1569    0.0000 H   0  0  0  0  0  0  0  0  0  0  0  0
   -0.0001   -2.7713    0.0000 C   0  0  0  0  0  0  0  0  0  0  0  0
   -0.8001   -4.1569    0.0000 H   0  0  0  0  0  0  0  0  0  0  0  0
   -0.8001   -1.3856    0.0000 C   0  0  0  0  0  0  0  0  0  0  0  0
   -2.4000   -1.3856    0.0000 C   0  0  0  0  0  0  0  0  0  0  0  0
   -3.2000   -2.7713    0.0000 H   0  0  0  0  0  0  0  0  0  0  0  0
   -3.2000    0.0000    0.0000 C   0  0  0  0  0  0  0  0  0  0  0  0
   -4.8000    0.0000    0.0000 H   0  0  0  0  0  0  0  0  0  0  0  0
   -2.4000    1.3856    0.0000 C   0  0  0  0  0  0  0  0  0  0  0  0
   -3.2000    2.7713    0.0000 H   0  0  0  0  0  0  0  0  0  0  0  0
   -0.8001    1.3856    0.0000 C   0  0  0  0  0  0  0  0  0  0  0  0
   -0.0001    2.7713    0.0000 H   0  0  0  0  0  0  0  0  0  0  0  0
  1  2  1  0  0  0  0
  2  3  1  0  0  0  0
  3  4  2  0  0  0  0
  4  5  1  0  0  0  0
  4  6  1  0  0  0  0
  6  7  1  0  0  0  0
  6  8  2  0  0  0  0
  8  9  1  0  0  0  0
  8 10  1  0  0  0  0
 10  2  2  0  0  0  0
 10 11  1  0  0  0  0
  3 12  1  0  0  0  0
 12 13  1  0  0  0  0
 12 14  2  0  0  0  0
 14 15  1  0  0  0  0
 14 16  1  0  0  0  0
 16  1  1  0  0  0  0
 16 17  2  0  0  0  0
 17 18  1  0  0  0  0
 17 19  1  0  0  0  0
 19 20  1  0  0  0  0
 19 21  2  0  0  0  0
 21 22  1  0  0  0  0
 21 23  1  0  0  0  0
 23  1  2  0  0  0  0
 23 24  1  0  0  0  0
M  END
> <ChemID>
100124

> <source_casrn>
85-01-8

> <CAS>
85-01-8

> <SMILES>
c1cc2ccccc2c2ccccc21

> <NAME>
PHENANTHRENE

> <preferred_name>
Phenanthrene

> <iupac>
phenanthrenato

> <MPID>
98688

> <dsstox_substance_id>
DTXSID6024254

> <Canonical_QSARr>
c1cc2ccccc2c2ccccc21

> <InChI_Code_QSARr>
InChI=1S/C14H10/c1-3-7-13-11(5-1)9-10-12-6-2-4-8-14(12)13/h1-10H

> <InChI Key_QSARr>
YNPNZTXNASCQKK-UHFFFAOYSA-N

> <OH>
1.3E-11

> <OH Temperature>
23.0

> <OH Data Type>
EXP

> <OH Reference>
KWOK,ESC ET AL. (1994)

> <LogOH>
-10.886056647693158

$$$$
100125
  -INDIGO-08031719142D

 20 21  0  0  0  0  0  0  0  0999 V2000
   -1.6000    2.7713    0.0000 O   0  0  0  0  0  0  0  0  0  0  0  0
   -2.4001    1.3856    0.0000 N   0  0  0  0  0  0  0  0  0  0  0  0
   -1.6000    0.0000    0.0000 C   0  0  0  0  0  0  0  0  0  0  0  0
    0.0000    0.0000    0.0000 C   0  0  0  0  0  0  0  0  0  0  0  0
    0.8000   -1.3856    0.0000 C   0  0  0  0  0  0  0  0  0  0  0  0
    2.4000   -1.3856    0.0000 C   0  0  0  0  0  0  0  0  0  0  0  0
    3.2001   -2.7713    0.0000 H   0  0  0  0  0  0  0  0  0  0  0  0
    3.2001    0.0000    0.0000 C   0  0  0  0  0  0  0  0  0  0  0  0
    4.8000    0.0000    0.0000 H   0  0  0  0  0  0  0  0  0  0  0  0
    2.4000    1.3856    0.0000 C   0  0  0  0  0  0  0  0  0  0  0  0
    3.2001    2.7713    0.0000 H   0  0  0  0  0  0  0  0  0  0  0  0
    0.8000    1.3856    0.0000 C   0  0  0  0  0  0  0  0  0  0  0  0
    0.0000    2.7713    0.0000 H   0  0  0  0  0  0  0  0  0  0  0  0
    0.0000   -2.7713    0.0000 C   0  0  0  0  0  0  0  0  0  0  0  0
    0.8000   -4.1569    0.0000 H   0  0  0  0  0  0  0  0  0  0  0  0
   -1.6000   -2.7713    0.0000 C   0  0  0  0  0  0  0  0  0  0  0  0
   -2.4001   -4.1569    0.0000 H   0  0  0  0  0  0  0  0  0  0  0  0
   -2.4001   -1.3856    0.0000 C   0  0  0  0  0  0  0  0  0  0  0  0
   -4.0000   -1.3856    0.0000 H   0  0  0  0  0  0  0  0  0  0  0  0
   -4.0000    1.3856    0.0000 O   0  0  0  0  0  0  0  0  0  0  0  0
  1  2  2  0  0  0  0
  2  3  1  0  0  0  0
  3  4  1  0  0  0  0
  4  5  1  0  0  0  0
  5  6  2  0  0  0  0
  6  7  1  0  0  0  0
  6  8  1  0  0  0  0
  8  9  1  0  0  0  0
  8 10  2  0  0  0  0
 10 11  1  0  0  0  0
 10 12  1  0  0  0  0
 12  4  2  0  0  0  0
 12 13  1  0  0  0  0
  5 14  1  0  0  0  0
 14 15  1  0  0  0  0
 14 16  2  0  0  0  0
 16 17  1  0  0  0  0
 16 18  1  0  0  0  0
 18  3  2  0  0  0  0
 18 19  1  0  0  0  0
  2 20  1  0  0  0  0
M  CHG  2   2   1  20  -1
M  END
> <ChemID>
100125

> <source_casrn>
86-57-7

> <CAS>
86-57-7

> <SMILES>
[O-][N+](=O)c1cccc2ccccc21

> <NAME>
1-NITRONAPHTHALENE

> <preferred_name>
1-Nitronaphthalene

> <iupac>
1-nitronaphthalene

> <MPID>
98689

> <dsstox_substance_id>
DTXSID7020978

> <Canonical_QSARr>
[O-][N+](=O)c1cccc2ccccc21

> <InChI_Code_QSARr>
InChI=1S/C10H7NO2/c12-11(13)10-7-3-5-8-4-1-2-6-9(8)10/h1-7H

> <InChI Key_QSARr>
RJKGJBPXVHTNJL-UHFFFAOYSA-N

> <OH>
5.4E-12

> <OH Temperature>
25.0

> <OH Data Type>
EXP

> <OH Reference>
ATKINSON,R (1989)

> <LogOH>
-11.267606240177022

$$$$
100126
  -INDIGO-08031719142D

 23 25  0  0  0  0  0  0  0  0999 V2000
   -0.2706   -2.5747    0.0000 C   0  0  0  0  0  0  0  0  0  0  0  0
    1.2945   -2.2420    0.0000 C   0  0  0  0  0  0  0  0  0  0  0  0
    1.4616   -0.6508    0.0000 C   0  0  0  0  0  0  0  0  0  0  0  0
    2.9233    0.0000    0.0000 C   0  0  0  0  0  0  0  0  0  0  0  0
    3.0906    1.5912    0.0000 H   0  0  0  0  0  0  0  0  0  0  0  0
    4.2177   -0.9405    0.0000 C   0  0  0  0  0  0  0  0  0  0  0  0
    5.6794   -0.2897    0.0000 H   0  0  0  0  0  0  0  0  0  0  0  0
    4.0506   -2.5317    0.0000 C   0  0  0  0  0  0  0  0  0  0  0  0
    5.3450   -3.4721    0.0000 H   0  0  0  0  0  0  0  0  0  0  0  0
    2.5889   -3.1825    0.0000 C   0  0  0  0  0  0  0  0  0  0  0  0
    2.4215   -4.7737    0.0000 H   0  0  0  0  0  0  0  0  0  0  0  0
    0.0001    0.0000    0.0000 C   0  0  0  0  0  0  0  0  0  0  0  0
    0.8001    1.3857    0.0000 H   0  0  0  0  0  0  0  0  0  0  0  0
   -1.2944    0.9404    0.0000 H   0  0  0  0  0  0  0  0  0  0  0  0
   -1.0706   -1.1890    0.0000 C   0  0  0  0  0  0  0  0  0  0  0  0
   -2.6706   -1.1890    0.0000 C   0  0  0  0  0  0  0  0  0  0  0  0
   -3.4706    0.1966    0.0000 H   0  0  0  0  0  0  0  0  0  0  0  0
   -3.4706   -2.5747    0.0000 C   0  0  0  0  0  0  0  0  0  0  0  0
   -5.0706   -2.5747    0.0000 H   0  0  0  0  0  0  0  0  0  0  0  0
   -2.6706   -3.9603    0.0000 C   0  0  0  0  0  0  0  0  0  0  0  0
   -3.4706   -5.3460    0.0000 H   0  0  0  0  0  0  0  0  0  0  0  0
   -1.0706   -3.9603    0.0000 C   0  0  0  0  0  0  0  0  0  0  0  0
   -0.2706   -5.3460    0.0000 H   0  0  0  0  0  0  0  0  0  0  0  0
  1  2  1  0  0  0  0
  2  3  1  0  0  0  0
  3  4  2  0  0  0  0
  4  5  1  0  0  0  0
  4  6  1  0  0  0  0
  6  7  1  0  0  0  0
  6  8  2  0  0  0  0
  8  9  1  0  0  0  0
  8 10  1  0  0  0  0
 10  2  2  0  0  0  0
 10 11  1  0  0  0  0
  3 12  1  0  0  0  0
 12 13  1  0  0  0  0
 12 14  1  0  0  0  0
 12 15  1  0  0  0  0
 15  1  1  0  0  0  0
 15 16  2  0  0  0  0
 16 17  1  0  0  0  0
 16 18  1  0  0  0  0
 18 19  1  0  0  0  0
 18 20  2  0  0  0  0
 20 21  1  0  0  0  0
 20 22  1  0  0  0  0
 22  1  2  0  0  0  0
 22 23  1  0  0  0  0
M  END
> <ChemID>
100126

> <source_casrn>
86-73-7

> <CAS>
86-73-7

> <SMILES>
C1c2ccccc2-c2ccccc21

> <NAME>
9H-FLUORENE

> <preferred_name>
Fluorene

> <iupac>
9H-fluorene

> <MPID>
98690

> <dsstox_substance_id>
DTXSID8024105

> <Canonical_QSARr>
C1c2ccccc2-c2ccccc21

> <InChI_Code_QSARr>
InChI=1S/C13H10/c1-3-7-12-10(5-1)9-11-6-2-4-8-13(11)12/h1-8H,9H2

> <InChI Key_QSARr>
NIHNNTQXNPWCJQ-UHFFFAOYSA-N

> <OH>
1.3E-11

> <OH Temperature>
25.0

> <OH Data Type>
EXP

> <OH Reference>
ATKINSON,R (1989)

> <LogOH>
-10.886056647693158

$$$$
100128
  -INDIGO-08031719142D

 17 17  0  0  0  0  0  0  0  0999 V2000
    1.3856    2.4000    0.0000 N   0  0  0  0  0  0  0  0  0  0  0  0
    1.3856    4.0000    0.0000 O   0  0  0  0  0  0  0  0  0  0  0  0
    2.7713    1.6000    0.0000 O   0  0  0  0  0  0  0  0  0  0  0  0
    0.0000    1.6000    0.0000 C   0  0  0  0  0  0  0  0  0  0  0  0
   -1.3856    2.4000    0.0000 C   0  0  0  0  0  0  0  0  0  0  0  0
   -1.3856    4.0000    0.0000 H   0  0  0  0  0  0  0  0  0  0  0  0
   -2.7713    1.6000    0.0000 C   0  0  0  0  0  0  0  0  0  0  0  0
   -4.1569    2.4000    0.0000 H   0  0  0  0  0  0  0  0  0  0  0  0
   -2.7713    0.0000    0.0000 C   0  0  0  0  0  0  0  0  0  0  0  0
   -4.1569   -0.8000    0.0000 H   0  0  0  0  0  0  0  0  0  0  0  0
   -1.3856   -0.8000    0.0000 C   0  0  0  0  0  0  0  0  0  0  0  0
   -1.3856   -2.4000    0.0000 H   0  0  0  0  0  0  0  0  0  0  0  0
    0.0000    0.0000    0.0000 C   0  0  0  0  0  0  0  0  0  0  0  0
    1.3856   -0.8000    0.0000 C   0  0  0  0  0  0  0  0  0  0  0  0
    2.7713   -1.6000    0.0000 H   0  0  0  0  0  0  0  0  0  0  0  0
    1.3856   -2.4000    0.0000 H   0  0  0  0  0  0  0  0  0  0  0  0
    2.7713    0.0000    0.0000 H   0  0  0  0  0  0  0  0  0  0  0  0
  1  2  2  0  0  0  0
  1  3  1  0  0  0  0
  1  4  1  0  0  0  0
  4  5  1  0  0  0  0
  5  6  1  0  0  0  0
  5  7  2  0  0  0  0
  7  8  1  0  0  0  0
  7  9  1  0  0  0  0
  9 10  1  0  0  0  0
  9 11  2  0  0  0  0
 11 12  1  0  0  0  0
 11 13  1  0  0  0  0
 13  4  2  0  0  0  0
 13 14  1  0  0  0  0
 14 15  1  0  0  0  0
 14 16  1  0  0  0  0
 14 17  1  0  0  0  0
M  CHG  2   1   1   3  -1
M  END
> <ChemID>
100128

> <source_casrn>
88-72-2

> <CAS>
88-72-2

> <SMILES>
Cc1ccccc1[N+]([O-])=O

> <NAME>
2-NITROTOLUENE

> <preferred_name>
2-Nitrotoluene

> <iupac>
1-methyl-2-nitrobenzene

> <MPID>
98692

> <dsstox_substance_id>
DTXSID4025791

> <Canonical_QSARr>
Cc1ccccc1[N+]([O-])=O

> <InChI_Code_QSARr>
InChI=1S/C7H7NO2/c1-6-4-2-3-5-7(6)8(9)10/h2-5H,1H3

> <InChI Key_QSARr>
PLAZTCDQAHEYBI-UHFFFAOYSA-N

> <OH>
7.0E-13

> <OH Temperature>
25.0

> <OH Data Type>
EXP

> <OH Reference>
ATKINSON,R (1989)

> <LogOH>
-12.15490195998575

$$$$
100129
  -INDIGO-08031719142D

 15 15  0  0  0  0  0  0  0  0999 V2000
   -1.3856    2.4000    0.0000 O   0  0  0  0  0  0  0  0  0  0  0  0
   -1.3856    4.0000    0.0000 H   0  0  0  0  0  0  0  0  0  0  0  0
    0.0000    1.6000    0.0000 C   0  0  0  0  0  0  0  0  0  0  0  0
    0.0000    0.0000    0.0000 C   0  0  0  0  0  0  0  0  0  0  0  0
   -1.3856   -0.8000    0.0000 N   0  0  0  0  0  0  0  0  0  0  0  0
   -1.3856   -2.4000    0.0000 O   0  0  0  0  0  0  0  0  0  0  0  0
   -2.7713    0.0000    0.0000 O   0  0  0  0  0  0  0  0  0  0  0  0
    1.3856   -0.8000    0.0000 C   0  0  0  0  0  0  0  0  0  0  0  0
    1.3856   -2.4000    0.0000 H   0  0  0  0  0  0  0  0  0  0  0  0
    2.7713    0.0000    0.0000 C   0  0  0  0  0  0  0  0  0  0  0  0
    4.1569   -0.8000    0.0000 H   0  0  0  0  0  0  0  0  0  0  0  0
    2.7713    1.6000    0.0000 C   0  0  0  0  0  0  0  0  0  0  0  0
    4.1569    2.4000    0.0000 H   0  0  0  0  0  0  0  0  0  0  0  0
    1.3856    2.4000    0.0000 C   0  0  0  0  0  0  0  0  0  0  0  0
    1.3856    4.0000    0.0000 H   0  0  0  0  0  0  0  0  0  0  0  0
  1  2  1  0  0  0  0
  1  3  1  0  0  0  0
  3  4  1  0  0  0  0
  4  5  1  0  0  0  0
  5  6  1  0  0  0  0
  5  7  2  0  0  0  0
  4  8  2  0  0  0  0
  8  9  1  0  0  0  0
  8 10  1  0  0  0  0
 10 11  1  0  0  0  0
 10 12  2  0  0  0  0
 12 13  1  0  0  0  0
 12 14  1  0  0  0  0
 14  3  2  0  0  0  0
 14 15  1  0  0  0  0
M  CHG  2   5   1   6  -1
M  END
> <ChemID>
100129

> <source_casrn>
88-75-5

> <CAS>
88-75-5

> <SMILES>
[O-][N+](=O)c1ccccc1O

> <NAME>
2-NITROPHENOL

> <preferred_name>
2-Nitrophenol

> <iupac>
2-nitrophenol

> <MPID>
98693

> <dsstox_substance_id>
DTXSID1021790

> <Canonical_QSARr>
[O-][N+](=O)c1ccccc1O

> <InChI_Code_QSARr>
InChI=1S/C6H5NO3/c8-6-4-2-1-3-5(6)7(9)10/h1-4,8H

> <InChI Key_QSARr>
IQUPABOKLQSFBK-UHFFFAOYSA-N

> <OH>
9.000000000000001E-13

> <OH Temperature>
25.0

> <OH Data Type>
EXP

> <OH Reference>
ATKINSON,R (1989)

> <LogOH>
-12.045757490560685

$$$$
100130
  -INDIGO-08031719142D

 21 22  0  0  0  0  0  0  0  0999 V2000
    2.4001    1.3856    0.0000 C   0  0  0  0  0  0  0  0  0  0  0  0
    3.2000    2.7713    0.0000 H   0  0  0  0  0  0  0  0  0  0  0  0
    4.0000    1.3856    0.0000 H   0  0  0  0  0  0  0  0  0  0  0  0
    1.6000    2.7713    0.0000 H   0  0  0  0  0  0  0  0  0  0  0  0
    1.6000    0.0000    0.0000 C   0  0  0  0  0  0  0  0  0  0  0  0
   -0.0000    0.0000    0.0000 C   0  0  0  0  0  0  0  0  0  0  0  0
   -0.8000   -1.3856    0.0000 C   0  0  0  0  0  0  0  0  0  0  0  0
   -2.4000   -1.3856    0.0000 C   0  0  0  0  0  0  0  0  0  0  0  0
   -3.2001   -2.7713    0.0000 H   0  0  0  0  0  0  0  0  0  0  0  0
   -3.2001    0.0000    0.0000 C   0  0  0  0  0  0  0  0  0  0  0  0
   -4.8000    0.0000    0.0000 H   0  0  0  0  0  0  0  0  0  0  0  0
   -2.4000    1.3856    0.0000 C   0  0  0  0  0  0  0  0  0  0  0  0
   -3.2001    2.7713    0.0000 H   0  0  0  0  0  0  0  0  0  0  0  0
   -0.8000    1.3856    0.0000 C   0  0  0  0  0  0  0  0  0  0  0  0
   -0.0000    2.7713    0.0000 H   0  0  0  0  0  0  0  0  0  0  0  0
   -0.0000   -2.7713    0.0000 C   0  0  0  0  0  0  0  0  0  0  0  0
   -0.8000   -4.1569    0.0000 H   0  0  0  0  0  0  0  0  0  0  0  0
    1.6000   -2.7713    0.0000 C   0  0  0  0  0  0  0  0  0  0  0  0
    2.4001   -4.1569    0.0000 H   0  0  0  0  0  0  0  0  0  0  0  0
    2.4001   -1.3856    0.0000 C   0  0  0  0  0  0  0  0  0  0  0  0
    4.0000   -1.3856    0.0000 H   0  0  0  0  0  0  0  0  0  0  0  0
  1  2  1  0  0  0  0
  1  3  1  0  0  0  0
  1  4  1  0  0  0  0
  1  5  1  0  0  0  0
  5  6  1  0  0  0  0
  6  7  1  0  0  0  0
  7  8  2  0  0  0  0
  8  9  1  0  0  0  0
  8 10  1  0  0  0  0
 10 11  1  0  0  0  0
 10 12  2  0  0  0  0
 12 13  1  0  0  0  0
 12 14  1  0  0  0  0
 14  6  2  0  0  0  0
 14 15  1  0  0  0  0
  7 16  1  0  0  0  0
 16 17  1  0  0  0  0
 16 18  2  0  0  0  0
 18 19  1  0  0  0  0
 18 20  1  0  0  0  0
 20  5  2  0  0  0  0
 20 21  1  0  0  0  0
M  END
> <ChemID>
100130

> <source_casrn>
90-12-0

> <CAS>
90-12-0

> <SMILES>
Cc1cccc2ccccc21

> <NAME>
1-METHYLNAPHTHALENE

> <preferred_name>
1-Methylnaphthalene

> <iupac>
1-methylnaphthalene

> <MPID>
98694

> <dsstox_substance_id>
DTXSID9020877

> <Canonical_QSARr>
Cc1cccc2ccccc21

> <InChI_Code_QSARr>
InChI=1S/C11H10/c1-9-5-4-7-10-6-2-3-8-11(9)10/h2-8H,1H3

> <InChI Key_QSARr>
QPUYECUOLPXSFR-UHFFFAOYSA-N

> <OH>
5.300000000000001E-11

> <OH Temperature>
25.0

> <OH Data Type>
EXP

> <OH Reference>
ATKINSON,R (1989)

> <LogOH>
-10.2757241303992

$$$$
100132
  -INDIGO-08031719142D

 20 20  0  0  0  0  0  0  0  0999 V2000
    0.0000    0.0000    0.0000 C   0  0  0  0  0  0  0  0  0  0  0  0
    0.8000    1.3856    0.0000 O   0  0  0  0  0  0  0  0  0  0  0  0
    2.4001    1.3856    0.0000 C   0  0  0  0  0  0  0  0  0  0  0  0
    3.2000    2.7713    0.0000 H   0  0  0  0  0  0  0  0  0  0  0  0
    4.0000    1.3856    0.0000 H   0  0  0  0  0  0  0  0  0  0  0  0
    1.6000    2.7713    0.0000 H   0  0  0  0  0  0  0  0  0  0  0  0
   -1.6000    0.0000    0.0000 C   0  0  0  0  0  0  0  0  0  0  0  0
   -2.4000    1.3856    0.0000 O   0  0  0  0  0  0  0  0  0  0  0  0
   -4.0001    1.3856    0.0000 C   0  0  0  0  0  0  0  0  0  0  0  0
   -4.8000    2.7713    0.0000 H   0  0  0  0  0  0  0  0  0  0  0  0
   -5.6000    1.3856    0.0000 H   0  0  0  0  0  0  0  0  0  0  0  0
   -3.2000    2.7713    0.0000 H   0  0  0  0  0  0  0  0  0  0  0  0
   -2.4000   -1.3856    0.0000 C   0  0  0  0  0  0  0  0  0  0  0  0
   -3.9999   -1.3856    0.0000 H   0  0  0  0  0  0  0  0  0  0  0  0
   -1.6000   -2.7713    0.0000 C   0  0  0  0  0  0  0  0  0  0  0  0
   -2.4000   -4.1569    0.0000 H   0  0  0  0  0  0  0  0  0  0  0  0
    0.0000   -2.7713    0.0000 C   0  0  0  0  0  0  0  0  0  0  0  0
    0.8000   -4.1569    0.0000 H   0  0  0  0  0  0  0  0  0  0  0  0
    0.8000   -1.3856    0.0000 C   0  0  0  0  0  0  0  0  0  0  0  0
    2.4001   -1.3856    0.0000 H   0  0  0  0  0  0  0  0  0  0  0  0
  1  2  1  0  0  0  0
  2  3  1  0  0  0  0
  3  4  1  0  0  0  0
  3  5  1  0  0  0  0
  3  6  1  0  0  0  0
  1  7  1  0  0  0  0
  7  8  1  0  0  0  0
  8  9  1  0  0  0  0
  9 10  1  0  0  0  0
  9 11  1  0  0  0  0
  9 12  1  0  0  0  0
  7 13  2  0  0  0  0
 13 14  1  0  0  0  0
 13 15  1  0  0  0  0
 15 16  1  0  0  0  0
 15 17  2  0  0  0  0
 17 18  1  0  0  0  0
 17 19  1  0  0  0  0
 19  1  2  0  0  0  0
 19 20  1  0  0  0  0
M  END
> <ChemID>
100132

> <source_casrn>
91-16-7

> <CAS>
91-16-7

> <SMILES>
COc1ccccc1OC

> <NAME>
1,2-DIMETHOXYBENZENE

> <preferred_name>
1,2-Dimethoxybenzene

> <iupac>
1,2-dimethoxybenzene

> <MPID>
98696

> <dsstox_substance_id>
DTXSID7047065

> <Canonical_QSARr>
COc1ccccc1OC

> <InChI_Code_QSARr>
InChI=1S/C8H10O2/c1-9-7-5-3-4-6-8(7)10-2/h3-6H,1-2H3

> <InChI Key_QSARr>
ABDKAPXRBAPSQN-UHFFFAOYSA-N

> <OH>
3.5E-11

> <OH Temperature>
24.0

> <OH Data Type>
EXP

> <OH Reference>
KWOK,ESC ET AL. (1995)

> <LogOH>
-10.455931955649708

$$$$
100133
  -INDIGO-08031719142D

 18 19  0  0  0  0  0  0  0  0999 V2000
    1.3856    2.4000    0.0000 C   0  0  0  0  0  0  0  0  0  0  0  0
    1.3856    4.0000    0.0000 H   0  0  0  0  0  0  0  0  0  0  0  0
    0.0001    1.6000    0.0000 C   0  0  0  0  0  0  0  0  0  0  0  0
    0.0001    0.0000    0.0000 C   0  0  0  0  0  0  0  0  0  0  0  0
   -1.3856   -0.8000    0.0000 C   0  0  0  0  0  0  0  0  0  0  0  0
   -1.3856   -2.4000    0.0000 H   0  0  0  0  0  0  0  0  0  0  0  0
   -2.7712    0.0000    0.0000 C   0  0  0  0  0  0  0  0  0  0  0  0
   -4.1569   -0.8000    0.0000 H   0  0  0  0  0  0  0  0  0  0  0  0
   -2.7712    1.6000    0.0000 C   0  0  0  0  0  0  0  0  0  0  0  0
   -4.1569    2.4000    0.0000 H   0  0  0  0  0  0  0  0  0  0  0  0
   -1.3856    2.4000    0.0000 C   0  0  0  0  0  0  0  0  0  0  0  0
   -1.3856    4.0000    0.0000 H   0  0  0  0  0  0  0  0  0  0  0  0
    1.3856   -0.8000    0.0000 C   0  0  0  0  0  0  0  0  0  0  0  0
    1.3856   -2.4000    0.0000 H   0  0  0  0  0  0  0  0  0  0  0  0
    2.7713    0.0000    0.0000 C   0  0  0  0  0  0  0  0  0  0  0  0
    4.1569   -0.8000    0.0000 H   0  0  0  0  0  0  0  0  0  0  0  0
    2.7713    1.6000    0.0000 C   0  0  0  0  0  0  0  0  0  0  0  0
    4.1569    2.4000    0.0000 H   0  0  0  0  0  0  0  0  0  0  0  0
  1  2  1  0  0  0  0
  1  3  1  0  0  0  0
  3  4  1  0  0  0  0
  4  5  2  0  0  0  0
  5  6  1  0  0  0  0
  5  7  1  0  0  0  0
  7  8  1  0  0  0  0
  7  9  2  0  0  0  0
  9 10  1  0  0  0  0
  9 11  1  0  0  0  0
 11  3  2  0  0  0  0
 11 12  1  0  0  0  0
  4 13  1  0  0  0  0
 13 14  1  0  0  0  0
 13 15  2  0  0  0  0
 15 16  1  0  0  0  0
 15 17  1  0  0  0  0
 17  1  2  0  0  0  0
 17 18  1  0  0  0  0
M  END
> <ChemID>
100133

> <source_casrn>
91-20-3

> <CAS>
91-20-3

> <SMILES>
c1cccc2ccccc21

> <NAME>
NAPHTHALENE

> <preferred_name>
Naphthalene

> <iupac>
naphthalene

> <MPID>
98697

> <dsstox_substance_id>
DTXSID8020913

> <Canonical_QSARr>
c1cccc2ccccc21

> <InChI_Code_QSARr>
InChI=1S/C10H8/c1-2-6-10-8-4-3-7-9(10)5-1/h1-8H

> <InChI Key_QSARr>
UFWIBTONFRDIAS-UHFFFAOYSA-N

> <OH>
2.16E-11

> <OH Temperature>
25.0

> <OH Data Type>
EXP

> <OH Reference>
ATKINSON,R (1989)

> <LogOH>
-10.665546248849054

$$$$
100134
  -INDIGO-08031719142D

 17 18  0  0  0  0  0  0  0  0999 V2000
   -1.3856    2.4000    0.0000 N   0  0  0  0  0  0  0  0  0  0  0  0
   -2.7712    1.6000    0.0000 C   0  0  0  0  0  0  0  0  0  0  0  0
   -4.1569    2.4000    0.0000 H   0  0  0  0  0  0  0  0  0  0  0  0
   -2.7712    0.0000    0.0000 C   0  0  0  0  0  0  0  0  0  0  0  0
   -4.1569   -0.8000    0.0000 H   0  0  0  0  0  0  0  0  0  0  0  0
   -1.3856   -0.8000    0.0000 C   0  0  0  0  0  0  0  0  0  0  0  0
   -1.3856   -2.4000    0.0000 H   0  0  0  0  0  0  0  0  0  0  0  0
    0.0001    0.0000    0.0000 C   0  0  0  0  0  0  0  0  0  0  0  0
    0.0001    1.6000    0.0000 C   0  0  0  0  0  0  0  0  0  0  0  0
    1.3856    2.4000    0.0000 C   0  0  0  0  0  0  0  0  0  0  0  0
    1.3856    4.0000    0.0000 H   0  0  0  0  0  0  0  0  0  0  0  0
    2.7713    1.6000    0.0000 C   0  0  0  0  0  0  0  0  0  0  0  0
    4.1569    2.4000    0.0000 H   0  0  0  0  0  0  0  0  0  0  0  0
    2.7713    0.0000    0.0000 C   0  0  0  0  0  0  0  0  0  0  0  0
    4.1569   -0.8000    0.0000 H   0  0  0  0  0  0  0  0  0  0  0  0
    1.3856   -0.8000    0.0000 C   0  0  0  0  0  0  0  0  0  0  0  0
    1.3856   -2.4000    0.0000 H   0  0  0  0  0  0  0  0  0  0  0  0
  1  2  1  0  0  0  0
  2  3  1  0  0  0  0
  2  4  2  0  0  0  0
  4  5  1  0  0  0  0
  4  6  1  0  0  0  0
  6  7  1  0  0  0  0
  6  8  2  0  0  0  0
  8  9  1  0  0  0  0
  9  1  2  0  0  0  0
  9 10  1  0  0  0  0
 10 11  1  0  0  0  0
 10 12  2  0  0  0  0
 12 13  1  0  0  0  0
 12 14  1  0  0  0  0
 14 15  1  0  0  0  0
 14 16  2  0  0  0  0
 16  8  1  0  0  0  0
 16 17  1  0  0  0  0
M  END
> <ChemID>
100134

> <source_casrn>
91-22-5

> <CAS>
91-22-5

> <SMILES>
c1cccc2[n]cccc21

> <NAME>
QUINOLINE

> <preferred_name>
Quinoline

> <iupac>
C9H7N

> <MPID>
98698

> <dsstox_substance_id>
DTXSID1021798

> <Canonical_QSARr>
c1cccc2[n]cccc21

> <InChI_Code_QSARr>
InChI=1S/C9H7N/c1-2-6-9-8(4-1)5-3-7-10-9/h1-7H

> <InChI Key_QSARr>
SMWDFEZZVXVKRB-UHFFFAOYSA-N

> <OH>
1.16E-11

> <OH Temperature>
24.0

> <OH Data Type>
EXP

> <OH Reference>
ATKINSON,R ET AL. (1995B)

> <LogOH>
-10.935542010773068

$$$$
100136
  -INDIGO-08031719142D

 22 23  0  0  0  0  0  0  0  0999 V2000
   -0.8001    1.3856    0.0000 C   0  0  0  0  0  0  0  0  0  0  0  0
   -0.0001    2.7713    0.0000 H   0  0  0  0  0  0  0  0  0  0  0  0
   -0.0001   -0.0000    0.0000 C   0  0  0  0  0  0  0  0  0  0  0  0
    1.6001    0.0000    0.0000 C   0  0  0  0  0  0  0  0  0  0  0  0
    2.4001    1.3856    0.0000 C   0  0  0  0  0  0  0  0  0  0  0  0
    1.6001    2.7713    0.0000 H   0  0  0  0  0  0  0  0  0  0  0  0
    4.0000    1.3856    0.0000 C   0  0  0  0  0  0  0  0  0  0  0  0
    4.8000    2.7713    0.0000 H   0  0  0  0  0  0  0  0  0  0  0  0
    4.8000    0.0000    0.0000 C   0  0  0  0  0  0  0  0  0  0  0  0
    6.4000    0.0000    0.0000 H   0  0  0  0  0  0  0  0  0  0  0  0
    4.0000   -1.3856    0.0000 C   0  0  0  0  0  0  0  0  0  0  0  0
    4.8000   -2.7713    0.0000 H   0  0  0  0  0  0  0  0  0  0  0  0
    2.4001   -1.3856    0.0000 C   0  0  0  0  0  0  0  0  0  0  0  0
    1.6001   -2.7713    0.0000 H   0  0  0  0  0  0  0  0  0  0  0  0
   -0.8001   -1.3856    0.0000 C   0  0  0  0  0  0  0  0  0  0  0  0
   -0.0001   -2.7713    0.0000 H   0  0  0  0  0  0  0  0  0  0  0  0
   -2.4000   -1.3856    0.0000 C   0  0  0  0  0  0  0  0  0  0  0  0
   -3.2000   -2.7713    0.0000 H   0  0  0  0  0  0  0  0  0  0  0  0
   -3.2000   -0.0000    0.0000 C   0  0  0  0  0  0  0  0  0  0  0  0
   -4.8000   -0.0000    0.0000 H   0  0  0  0  0  0  0  0  0  0  0  0
   -2.4000    1.3856    0.0000 C   0  0  0  0  0  0  0  0  0  0  0  0
   -3.2000    2.7713    0.0000 H   0  0  0  0  0  0  0  0  0  0  0  0
  1  2  1  0  0  0  0
  1  3  1  0  0  0  0
  3  4  1  0  0  0  0
  4  5  1  0  0  0  0
  5  6  1  0  0  0  0
  5  7  2  0  0  0  0
  7  8  1  0  0  0  0
  7  9  1  0  0  0  0
  9 10  1  0  0  0  0
  9 11  2  0  0  0  0
 11 12  1  0  0  0  0
 11 13  1  0  0  0  0
 13  4  2  0  0  0  0
 13 14  1  0  0  0  0
  3 15  2  0  0  0  0
 15 16  1  0  0  0  0
 15 17  1  0  0  0  0
 17 18  1  0  0  0  0
 17 19  2  0  0  0  0
 19 20  1  0  0  0  0
 19 21  1  0  0  0  0
 21  1  2  0  0  0  0
 21 22  1  0  0  0  0
M  END
> <ChemID>
100136

> <source_casrn>
92-52-4

> <CAS>
92-52-4

> <SMILES>
c1ccccc1-c1ccccc1

> <NAME>
BIPHENYL

> <preferred_name>
Biphenyl

> <iupac>
biphenyl

> <MPID>
98700

> <dsstox_substance_id>
DTXSID4020161

> <Canonical_QSARr>
c1ccccc1-c1ccccc1

> <InChI_Code_QSARr>
InChI=1S/C12H10/c1-3-7-11(8-4-1)12-9-5-2-6-10-12/h1-10H

> <InChI Key_QSARr>
ZUOUZKKEUPVFJK-UHFFFAOYSA-N

> <OH>
7.199999999999998E-12

> <OH Temperature>
25.0

> <OH Data Type>
EXP

> <OH Reference>
ATKINSON,R (1989)

> <LogOH>
-11.142667503568713

$$$$
100137
  -INDIGO-08031719142D

 17 18  0  0  0  0  0  0  0  0999 V2000
    2.4621   -0.8000    0.0000 C   0  0  0  0  0  0  0  0  0  0  0  0
    4.0621   -0.8000    0.0000 H   0  0  0  0  0  0  0  0  0  0  0  0
    1.5217   -2.0944    0.0000 C   0  0  0  0  0  0  0  0  0  0  0  0
    2.0161   -3.6161    0.0000 H   0  0  0  0  0  0  0  0  0  0  0  0
   -0.0000   -1.6000    0.0000 C   0  0  0  0  0  0  0  0  0  0  0  0
   -0.0000   -0.0000    0.0000 C   0  0  0  0  0  0  0  0  0  0  0  0
   -1.3856    0.8000    0.0000 C   0  0  0  0  0  0  0  0  0  0  0  0
   -1.3856    2.4000    0.0000 H   0  0  0  0  0  0  0  0  0  0  0  0
   -2.7713   -0.0000    0.0000 C   0  0  0  0  0  0  0  0  0  0  0  0
   -4.1569    0.8000    0.0000 H   0  0  0  0  0  0  0  0  0  0  0  0
   -2.7713   -1.6000    0.0000 C   0  0  0  0  0  0  0  0  0  0  0  0
   -4.1569   -2.4000    0.0000 H   0  0  0  0  0  0  0  0  0  0  0  0
   -1.3856   -2.4000    0.0000 C   0  0  0  0  0  0  0  0  0  0  0  0
   -1.3856   -4.0000    0.0000 H   0  0  0  0  0  0  0  0  0  0  0  0
    1.5217    0.4944    0.0000 C   0  0  0  0  0  0  0  0  0  0  0  0
    0.8710    1.9561    0.0000 H   0  0  0  0  0  0  0  0  0  0  0  0
    2.9073    1.2944    0.0000 H   0  0  0  0  0  0  0  0  0  0  0  0
  1  2  1  0  0  0  0
  1  3  2  0  0  0  0
  3  4  1  0  0  0  0
  3  5  1  0  0  0  0
  5  6  1  0  0  0  0
  6  7  2  0  0  0  0
  7  8  1  0  0  0  0
  7  9  1  0  0  0  0
  9 10  1  0  0  0  0
  9 11  2  0  0  0  0
 11 12  1  0  0  0  0
 11 13  1  0  0  0  0
 13  5  2  0  0  0  0
 13 14  1  0  0  0  0
  6 15  1  0  0  0  0
 15  1  1  0  0  0  0
 15 16  1  0  0  0  0
 15 17  1  0  0  0  0
M  END
> <ChemID>
100137

> <source_casrn>
95-13-6

> <CAS>
95-13-6

> <SMILES>
C1C=Cc2ccccc21

> <NAME>
INDENE

> <preferred_name>
Indene

> <iupac>
1H-indene

> <MPID>
98701

> <dsstox_substance_id>
DTXSID8042052

> <Canonical_QSARr>
C1C=Cc2ccccc21

> <InChI_Code_QSARr>
InChI=1S/C9H8/c1-2-5-9-7-3-6-8(9)4-1/h1-6H,7H2

> <InChI Key_QSARr>
YBYIRNPNPLQARY-UHFFFAOYSA-N

> <OH>
5.1E-11

> <OH Temperature>
22.0

> <OH Data Type>
EXP

> <OH Reference>
ATKINSON,R (1994)

> <LogOH>
-10.292429823902053

$$$$
100138
  -INDIGO-08031719142D

 18 18  0  0  0  0  0  0  0  0999 V2000
    1.3856    2.4000    0.0000 C   0  0  0  0  0  0  0  0  0  0  0  0
    1.3856    4.0000    0.0000 H   0  0  0  0  0  0  0  0  0  0  0  0
    0.0000    1.6000    0.0000 C   0  0  0  0  0  0  0  0  0  0  0  0
   -1.3856    2.4000    0.0000 C   0  0  0  0  0  0  0  0  0  0  0  0
   -2.7713    3.2000    0.0000 H   0  0  0  0  0  0  0  0  0  0  0  0
   -1.3856    4.0000    0.0000 H   0  0  0  0  0  0  0  0  0  0  0  0
   -2.7713    1.6000    0.0000 H   0  0  0  0  0  0  0  0  0  0  0  0
    0.0000    0.0000    0.0000 C   0  0  0  0  0  0  0  0  0  0  0  0
   -1.3856   -0.8000    0.0000 C   0  0  0  0  0  0  0  0  0  0  0  0
   -2.7713   -1.6000    0.0000 H   0  0  0  0  0  0  0  0  0  0  0  0
   -1.3856   -2.4000    0.0000 H   0  0  0  0  0  0  0  0  0  0  0  0
   -2.7713    0.0000    0.0000 H   0  0  0  0  0  0  0  0  0  0  0  0
    1.3856   -0.8000    0.0000 C   0  0  0  0  0  0  0  0  0  0  0  0
    1.3856   -2.4000    0.0000 H   0  0  0  0  0  0  0  0  0  0  0  0
    2.7713    0.0000    0.0000 C   0  0  0  0  0  0  0  0  0  0  0  0
    4.1569   -0.8000    0.0000 H   0  0  0  0  0  0  0  0  0  0  0  0
    2.7713    1.6000    0.0000 C   0  0  0  0  0  0  0  0  0  0  0  0
    4.1569    2.4000    0.0000 H   0  0  0  0  0  0  0  0  0  0  0  0
  1  2  1  0  0  0  0
  1  3  1  0  0  0  0
  3  4  1  0  0  0  0
  4  5  1  0  0  0  0
  4  6  1  0  0  0  0
  4  7  1  0  0  0  0
  3  8  2  0  0  0  0
  8  9  1  0  0  0  0
  9 10  1  0  0  0  0
  9 11  1  0  0  0  0
  9 12  1  0  0  0  0
  8 13  1  0  0  0  0
 13 14  1  0  0  0  0
 13 15  2  0  0  0  0
 15 16  1  0  0  0  0
 15 17  1  0  0  0  0
 17  1  2  0  0  0  0
 17 18  1  0  0  0  0
M  END
> <ChemID>
100138

> <source_casrn>
95-47-6

> <CAS>
95-47-6

> <SMILES>
Cc1ccccc1C

> <NAME>
O-XYLENE

> <preferred_name>
o-Xylene

> <iupac>
C8H10

> <MPID>
98702

> <dsstox_substance_id>
DTXSID3021807

> <Canonical_QSARr>
Cc1ccccc1C

> <InChI_Code_QSARr>
InChI=1S/C8H10/c1-7-5-3-4-6-8(7)2/h3-6H,1-2H3

> <InChI Key_QSARr>
CTQNGGLPUBDAKN-UHFFFAOYSA-N

> <OH>
1.37E-11

> <OH Temperature>
25.0

> <OH Data Type>
EXP

> <OH Reference>
ATKINSON,R (1990)

> <LogOH>
-10.863279432843605

$$$$
100140
  -INDIGO-08031719142D

 12 12  0  0  0  0  0  0  0  0999 V2000
    0.8000    1.3856    0.0000 Cl  0  0  0  0  0  0  0  0  0  0  0  0
   -0.0000   -0.0000    0.0000 C   0  0  0  0  0  0  0  0  0  0  0  0
    0.8000   -1.3857    0.0000 C   0  0  0  0  0  0  0  0  0  0  0  0
    2.4000   -1.3857    0.0000 Cl  0  0  0  0  0  0  0  0  0  0  0  0
   -0.0000   -2.7713    0.0000 C   0  0  0  0  0  0  0  0  0  0  0  0
    0.8000   -4.1569    0.0000 H   0  0  0  0  0  0  0  0  0  0  0  0
   -1.6000   -2.7713    0.0000 C   0  0  0  0  0  0  0  0  0  0  0  0
   -2.4000   -4.1569    0.0000 H   0  0  0  0  0  0  0  0  0  0  0  0
   -2.4000   -1.3856    0.0000 C   0  0  0  0  0  0  0  0  0  0  0  0
   -4.0000   -1.3856    0.0000 H   0  0  0  0  0  0  0  0  0  0  0  0
   -1.6000   -0.0000    0.0000 C   0  0  0  0  0  0  0  0  0  0  0  0
   -2.4000    1.3856    0.0000 H   0  0  0  0  0  0  0  0  0  0  0  0
  1  2  1  0  0  0  0
  2  3  1  0  0  0  0
  3  4  1  0  0  0  0
  3  5  2  0  0  0  0
  5  6  1  0  0  0  0
  5  7  1  0  0  0  0
  7  8  1  0  0  0  0
  7  9  2  0  0  0  0
  9 10  1  0  0  0  0
  9 11  1  0  0  0  0
 11  2  2  0  0  0  0
 11 12  1  0  0  0  0
M  END
> <ChemID>
100140

> <source_casrn>
95-50-1

> <CAS>
95-50-1

> <SMILES>
Clc1ccccc1Cl

> <NAME>
1,2-DICHLOROBENZENE

> <preferred_name>
1,2-Dichlorobenzene

> <iupac>
1,2-dichlorobenzene

> <MPID>
98704

> <dsstox_substance_id>
DTXSID6020430

> <Canonical_QSARr>
Clc1ccccc1Cl

> <InChI_Code_QSARr>
InChI=1S/C6H4Cl2/c7-5-3-1-2-4-6(5)8/h1-4H

> <InChI Key_QSARr>
RFFLAFLAYFXFSW-UHFFFAOYSA-N

> <OH>
4.200000000000001E-13

> <OH Temperature>
25.0

> <OH Data Type>
EXP

> <OH Reference>
ATKINSON,R (1989)

> <LogOH>
-12.37675070960211

$$$$
100141
  -INDIGO-08031719142D

 21 21  0  0  0  0  0  0  0  0999 V2000
    1.3857    0.8000    0.0000 C   0  0  0  0  0  0  0  0  0  0  0  0
    2.7713    1.6000    0.0000 H   0  0  0  0  0  0  0  0  0  0  0  0
    1.3857    2.4000    0.0000 H   0  0  0  0  0  0  0  0  0  0  0  0
    2.7713   -0.0000    0.0000 H   0  0  0  0  0  0  0  0  0  0  0  0
    0.0000   -0.0000    0.0000 C   0  0  0  0  0  0  0  0  0  0  0  0
    0.0000   -1.6000    0.0000 C   0  0  0  0  0  0  0  0  0  0  0  0
    1.3857   -2.4000    0.0000 C   0  0  0  0  0  0  0  0  0  0  0  0
    2.7713   -3.2000    0.0000 H   0  0  0  0  0  0  0  0  0  0  0  0
    1.3857   -4.0000    0.0000 H   0  0  0  0  0  0  0  0  0  0  0  0
    2.7713   -1.6000    0.0000 H   0  0  0  0  0  0  0  0  0  0  0  0
   -1.3856   -2.4000    0.0000 C   0  0  0  0  0  0  0  0  0  0  0  0
   -1.3856   -4.0000    0.0000 H   0  0  0  0  0  0  0  0  0  0  0  0
   -2.7713   -1.6000    0.0000 C   0  0  0  0  0  0  0  0  0  0  0  0
   -4.1570   -2.4000    0.0000 H   0  0  0  0  0  0  0  0  0  0  0  0
   -2.7713   -0.0000    0.0000 C   0  0  0  0  0  0  0  0  0  0  0  0
   -4.1569    0.8000    0.0000 C   0  0  0  0  0  0  0  0  0  0  0  0
   -5.5426    1.6000    0.0000 H   0  0  0  0  0  0  0  0  0  0  0  0
   -5.5426   -0.0000    0.0000 H   0  0  0  0  0  0  0  0  0  0  0  0
   -4.1569    2.4000    0.0000 H   0  0  0  0  0  0  0  0  0  0  0  0
   -1.3856    0.8000    0.0000 C   0  0  0  0  0  0  0  0  0  0  0  0
   -1.3856    2.4000    0.0000 H   0  0  0  0  0  0  0  0  0  0  0  0
  1  2  1  0  0  0  0
  1  3  1  0  0  0  0
  1  4  1  0  0  0  0
  1  5  1  0  0  0  0
  5  6  1  0  0  0  0
  6  7  1  0  0  0  0
  7  8  1  0  0  0  0
  7  9  1  0  0  0  0
  7 10  1  0  0  0  0
  6 11  2  0  0  0  0
 11 12  1  0  0  0  0
 11 13  1  0  0  0  0
 13 14  1  0  0  0  0
 13 15  2  0  0  0  0
 15 16  1  0  0  0  0
 16 17  1  0  0  0  0
 16 18  1  0  0  0  0
 16 19  1  0  0  0  0
 15 20  1  0  0  0  0
 20  5  2  0  0  0  0
 20 21  1  0  0  0  0
M  END
> <ChemID>
100141

> <source_casrn>
95-63-6

> <CAS>
95-63-6

> <SMILES>
Cc1cc(C)c(C)cc1

> <NAME>
1,2,4-TRIMETHYLBENZENE

> <preferred_name>
1,2,4-Trimethylbenzene

> <iupac>
1,2,4-trimethylbenzene

> <MPID>
98705

> <dsstox_substance_id>
DTXSID6021402

> <Canonical_QSARr>
Cc1cc(C)c(C)cc1

> <InChI_Code_QSARr>
InChI=1S/C9H12/c1-7-4-5-8(2)9(3)6-7/h4-6H,1-3H3

> <InChI Key_QSARr>
GWHJZXXIDMPWGX-UHFFFAOYSA-N

> <OH>
3.25E-11

> <OH Temperature>
25.0

> <OH Data Type>
EXP

> <OH Reference>
ATKINSON,R (1989)

> <LogOH>
-10.488116639021143

$$$$
100142
  -INDIGO-08031719142D

 19 19  0  0  0  0  0  0  0  0999 V2000
    1.3857    0.8000    0.0000 C   0  0  0  0  0  0  0  0  0  0  0  0
    1.3857    2.4000    0.0000 H   0  0  0  0  0  0  0  0  0  0  0  0
    0.0000   -0.0000    0.0000 C   0  0  0  0  0  0  0  0  0  0  0  0
   -1.3856    0.8000    0.0000 C   0  0  0  0  0  0  0  0  0  0  0  0
   -2.7713    1.6000    0.0000 H   0  0  0  0  0  0  0  0  0  0  0  0
   -1.3857    2.4000    0.0000 H   0  0  0  0  0  0  0  0  0  0  0  0
   -2.7713   -0.0000    0.0000 H   0  0  0  0  0  0  0  0  0  0  0  0
    0.0000   -1.6000    0.0000 C   0  0  0  0  0  0  0  0  0  0  0  0
   -1.3856   -2.4000    0.0000 C   0  0  0  0  0  0  0  0  0  0  0  0
   -2.7713   -3.2000    0.0000 H   0  0  0  0  0  0  0  0  0  0  0  0
   -1.3856   -4.0000    0.0000 H   0  0  0  0  0  0  0  0  0  0  0  0
   -2.7713   -1.6000    0.0000 H   0  0  0  0  0  0  0  0  0  0  0  0
    1.3857   -2.4000    0.0000 C   0  0  0  0  0  0  0  0  0  0  0  0
    1.3857   -4.0000    0.0000 H   0  0  0  0  0  0  0  0  0  0  0  0
    2.7713   -1.6000    0.0000 C   0  0  0  0  0  0  0  0  0  0  0  0
    4.1570   -2.4000    0.0000 H   0  0  0  0  0  0  0  0  0  0  0  0
    2.7713   -0.0000    0.0000 C   0  0  0  0  0  0  0  0  0  0  0  0
    4.1570    0.8000    0.0000 O   0  0  0  0  0  0  0  0  0  0  0  0
    5.5426   -0.0000    0.0000 H   0  0  0  0  0  0  0  0  0  0  0  0
  1  2  1  0  0  0  0
  1  3  1  0  0  0  0
  3  4  1  0  0  0  0
  4  5  1  0  0  0  0
  4  6  1  0  0  0  0
  4  7  1  0  0  0  0
  3  8  2  0  0  0  0
  8  9  1  0  0  0  0
  9 10  1  0  0  0  0
  9 11  1  0  0  0  0
  9 12  1  0  0  0  0
  8 13  1  0  0  0  0
 13 14  1  0  0  0  0
 13 15  2  0  0  0  0
 15 16  1  0  0  0  0
 15 17  1  0  0  0  0
 17  1  2  0  0  0  0
 17 18  1  0  0  0  0
 18 19  1  0  0  0  0
M  END
> <ChemID>
100142

> <source_casrn>
95-65-8

> <CAS>
95-65-8

> <SMILES>
Cc1cc(O)ccc1C

> <NAME>
3,4-DIMETHYLPHENOL

> <preferred_name>
3,4-Dimethylphenol

> <iupac>
3,4-dimethylphenol

> <MPID>
98706

> <dsstox_substance_id>
DTXSID4024062

> <Canonical_QSARr>
Cc1cc(O)ccc1C

> <InChI_Code_QSARr>
InChI=1S/C8H10O/c1-6-3-4-8(9)5-7(6)2/h3-5,9H,1-2H3

> <InChI Key_QSARr>
YCOXTKKNXUZSKD-UHFFFAOYSA-N

> <OH>
8.140000000000001E-11

> <OH Temperature>
25.0

> <OH Data Type>
EXP

> <OH Reference>
KWOK,ESC & ATKINSON,R (1994)

> <LogOH>
-10.089375595110818

$$$$
100144
  -INDIGO-08031719142D

 19 19  0  0  0  0  0  0  0  0999 V2000
   -1.3856    2.4000    0.0000 O   0  0  0  0  0  0  0  0  0  0  0  0
   -1.3856    4.0000    0.0000 H   0  0  0  0  0  0  0  0  0  0  0  0
    0.0000    1.6000    0.0000 C   0  0  0  0  0  0  0  0  0  0  0  0
    0.0000    0.0000    0.0000 C   0  0  0  0  0  0  0  0  0  0  0  0
   -1.3857   -0.8000    0.0000 C   0  0  0  0  0  0  0  0  0  0  0  0
   -2.7713   -1.6000    0.0000 H   0  0  0  0  0  0  0  0  0  0  0  0
   -1.3857   -2.4000    0.0000 H   0  0  0  0  0  0  0  0  0  0  0  0
   -2.7713    0.0000    0.0000 H   0  0  0  0  0  0  0  0  0  0  0  0
    1.3857   -0.8000    0.0000 C   0  0  0  0  0  0  0  0  0  0  0  0
    1.3857   -2.4000    0.0000 H   0  0  0  0  0  0  0  0  0  0  0  0
    2.7713    0.0000    0.0000 C   0  0  0  0  0  0  0  0  0  0  0  0
    4.1570   -0.8000    0.0000 H   0  0  0  0  0  0  0  0  0  0  0  0
    2.7713    1.6000    0.0000 C   0  0  0  0  0  0  0  0  0  0  0  0
    4.1570    2.4000    0.0000 C   0  0  0  0  0  0  0  0  0  0  0  0
    5.5426    3.2000    0.0000 H   0  0  0  0  0  0  0  0  0  0  0  0
    5.5426    1.6000    0.0000 H   0  0  0  0  0  0  0  0  0  0  0  0
    4.1570    4.0000    0.0000 H   0  0  0  0  0  0  0  0  0  0  0  0
    1.3857    2.4000    0.0000 C   0  0  0  0  0  0  0  0  0  0  0  0
    1.3856    4.0000    0.0000 H   0  0  0  0  0  0  0  0  0  0  0  0
  1  2  1  0  0  0  0
  1  3  1  0  0  0  0
  3  4  1  0  0  0  0
  4  5  1  0  0  0  0
  5  6  1  0  0  0  0
  5  7  1  0  0  0  0
  5  8  1  0  0  0  0
  4  9  2  0  0  0  0
  9 10  1  0  0  0  0
  9 11  1  0  0  0  0
 11 12  1  0  0  0  0
 11 13  2  0  0  0  0
 13 14  1  0  0  0  0
 14 15  1  0  0  0  0
 14 16  1  0  0  0  0
 14 17  1  0  0  0  0
 13 18  1  0  0  0  0
 18  3  2  0  0  0  0
 18 19  1  0  0  0  0
M  END
> <ChemID>
100144

> <source_casrn>
95-87-4

> <CAS>
95-87-4

> <SMILES>
Cc1cc(O)c(C)cc1

> <NAME>
2,5-DIMETHYLPHENOL

> <preferred_name>
2,5-Dimethylphenol

> <iupac>
2,5-dimethylphenol

> <MPID>
98708

> <dsstox_substance_id>
DTXSID6025145

> <Canonical_QSARr>
Cc1cc(O)c(C)cc1

> <InChI_Code_QSARr>
InChI=1S/C8H10O/c1-6-3-4-7(2)8(9)5-6/h3-5,9H,1-2H3

> <InChI Key_QSARr>
NKTOLZVEWDHZMU-UHFFFAOYSA-N

> <OH>
8.000000000000002E-11

> <OH Temperature>
25.0

> <OH Data Type>
EXP

> <OH Reference>
KWOK,ESC & ATKINSON,R (1994)

> <LogOH>
-10.09691001300807

$$$$
100145
  -INDIGO-08031719142D

 11 10  0  0  0  0  0  0  0  0999 V2000
   -0.6123   -1.4782    0.0000 Br  0  0  0  0  0  0  0  0  0  0  0  0
    0.0000    0.0000    0.0000 C   0  0  0  0  0  0  0  0  0  0  0  0
    0.6123   -1.4782    0.0000 H   0  0  0  0  0  0  0  0  0  0  0  0
   -1.3856    0.8000    0.0000 C   0  0  0  0  0  0  0  0  0  0  0  0
   -2.7713    1.6000    0.0000 H   0  0  0  0  0  0  0  0  0  0  0  0
   -2.7713    0.0000    0.0000 H   0  0  0  0  0  0  0  0  0  0  0  0
   -1.3856    2.4000    0.0000 Cl  0  0  0  0  0  0  0  0  0  0  0  0
    1.3856    0.8000    0.0000 C   0  0  0  0  0  0  0  0  0  0  0  0
    2.7713    1.6000    0.0000 H   0  0  0  0  0  0  0  0  0  0  0  0
    2.7713    0.0000    0.0000 H   0  0  0  0  0  0  0  0  0  0  0  0
    1.3856    2.4000    0.0000 Br  0  0  0  0  0  0  0  0  0  0  0  0
  1  2  1  0  0  0  0
  2  3  1  0  0  0  0
  2  4  1  0  0  0  0
  4  5  1  0  0  0  0
  4  6  1  0  0  0  0
  4  7  1  0  0  0  0
  2  8  1  0  0  0  0
  8  9  1  0  0  0  0
  8 10  1  0  0  0  0
  8 11  1  0  0  0  0
M  END
> <ChemID>
100145

> <source_casrn>
96-12-8

> <CAS>
96-12-8

> <SMILES>
ClCC(Br)CBr

> <NAME>
1,2-DIBROMO-3-CHLOROPROPANE

> <preferred_name>
1,2-Dibromo-3-chloropropane

> <iupac>
1,2-dibromo-3-chloropropane

> <MPID>
98709

> <dsstox_substance_id>
DTXSID3020413

> <Canonical_QSARr>
ClCC(Br)CBr

> <InChI_Code_QSARr>
InChI=1S/C3H5Br2Cl/c4-1-3(5)2-6/h3H,1-2H2

> <InChI Key_QSARr>
WBEJYOJJBDISQU-UHFFFAOYSA-N

> <OH>
4.349999999999999E-13

> <OH Temperature>
25.0

> <OH Data Type>
EXP

> <OH Reference>
KWOK,ESC & ATKINSON,R (1994)

> <LogOH>
-12.361510743045361

$$$$
100146
  -INDIGO-08031719142D

 20 19  0  0  0  0  0  0  0  0999 V2000
    0.0001   -0.0000    0.0000 C   0  0  0  0  0  0  0  0  0  0  0  0
    0.0001   -1.6000    0.0000 H   0  0  0  0  0  0  0  0  0  0  0  0
   -1.5757   -0.2779    0.0000 C   0  0  0  0  0  0  0  0  0  0  0  0
   -2.9950    0.4610    0.0000 H   0  0  0  0  0  0  0  0  0  0  0  0
   -2.0569    1.2481    0.0000 H   0  0  0  0  0  0  0  0  0  0  0  0
   -2.1229   -1.7814    0.0000 C   0  0  0  0  0  0  0  0  0  0  0  0
   -2.6701   -3.2849    0.0000 H   0  0  0  0  0  0  0  0  0  0  0  0
   -3.6986   -2.0592    0.0000 H   0  0  0  0  0  0  0  0  0  0  0  0
   -1.0945   -3.0070    0.0000 H   0  0  0  0  0  0  0  0  0  0  0  0
    1.5757   -0.2779    0.0000 C   0  0  0  0  0  0  0  0  0  0  0  0
    2.0569    1.2481    0.0000 H   0  0  0  0  0  0  0  0  0  0  0  0
    2.9950    0.4610    0.0000 H   0  0  0  0  0  0  0  0  0  0  0  0
    2.1229   -1.7814    0.0000 C   0  0  0  0  0  0  0  0  0  0  0  0
    2.6701   -3.2849    0.0000 H   0  0  0  0  0  0  0  0  0  0  0  0
    3.6986   -2.0592    0.0000 H   0  0  0  0  0  0  0  0  0  0  0  0
    1.0945   -3.0070    0.0000 H   0  0  0  0  0  0  0  0  0  0  0  0
    0.0001    1.6000    0.0000 C   0  0  0  0  0  0  0  0  0  0  0  0
   -0.0001    3.2000    0.0000 H   0  0  0  0  0  0  0  0  0  0  0  0
    1.3856    2.4000    0.0000 H   0  0  0  0  0  0  0  0  0  0  0  0
   -1.3856    2.4000    0.0000 H   0  0  0  0  0  0  0  0  0  0  0  0
  1  2  1  0  0  0  0
  1  3  1  0  0  0  0
  3  4  1  0  0  0  0
  3  5  1  0  0  0  0
  3  6  1  0  0  0  0
  6  7  1  0  0  0  0
  6  8  1  0  0  0  0
  6  9  1  0  0  0  0
  1 10  1  0  0  0  0
 10 11  1  0  0  0  0
 10 12  1  0  0  0  0
 10 13  1  0  0  0  0
 13 14  1  0  0  0  0
 13 15  1  0  0  0  0
 13 16  1  0  0  0  0
  1 17  1  0  0  0  0
 17 18  1  0  0  0  0
 17 19  1  0  0  0  0
 17 20  1  0  0  0  0
M  END
> <ChemID>
100146

> <source_casrn>
96-14-0

> <CAS>
96-14-0

> <SMILES>
CC(CC)CC

> <NAME>
3-METHYLPENTANE

> <preferred_name>
3-Methylpentane

> <iupac>
3-methylpentane

> <MPID>
98710

> <dsstox_substance_id>
DTXSID8052647

> <Canonical_QSARr>
CC(CC)CC

> <InChI_Code_QSARr>
InChI=1S/C6H14/c1-4-6(3)5-2/h6H,4-5H2,1-3H3

> <InChI Key_QSARr>
PFEOZHBOMNWTJB-UHFFFAOYSA-N

> <OH>
5.700000000000001E-12

> <OH Temperature>
25.0

> <OH Data Type>
EXP

> <OH Reference>
ATKINSON,R (1989)

> <LogOH>
-11.244125144327487

$$$$
100149
  -INDIGO-08031719142D

 16 16  0  0  0  0  0  0  0  0999 V2000
    1.5217   -0.4944    0.0000 O   0  0  0  0  0  0  0  0  0  0  0  0
    2.7107    0.5762    0.0000 H   0  0  0  0  0  0  0  0  0  0  0  0
   -0.0000    0.0000    0.0000 C   0  0  0  0  0  0  0  0  0  0  0  0
    0.6508    1.4617    0.0000 H   0  0  0  0  0  0  0  0  0  0  0  0
   -0.3327   -1.5651    0.0000 C   0  0  0  0  0  0  0  0  0  0  0  0
    1.2585   -1.7322    0.0000 H   0  0  0  0  0  0  0  0  0  0  0  0
   -0.3327   -3.1650    0.0000 H   0  0  0  0  0  0  0  0  0  0  0  0
   -1.9239   -1.7322    0.0000 C   0  0  0  0  0  0  0  0  0  0  0  0
   -1.5913   -3.2973    0.0000 H   0  0  0  0  0  0  0  0  0  0  0  0
   -3.4455   -2.2267    0.0000 H   0  0  0  0  0  0  0  0  0  0  0  0
   -2.5747   -0.2706    0.0000 C   0  0  0  0  0  0  0  0  0  0  0  0
   -3.9603   -1.0706    0.0000 H   0  0  0  0  0  0  0  0  0  0  0  0
   -3.5152    1.0238    0.0000 H   0  0  0  0  0  0  0  0  0  0  0  0
   -1.3857    0.8000    0.0000 C   0  0  0  0  0  0  0  0  0  0  0  0
   -2.5747    1.8706    0.0000 H   0  0  0  0  0  0  0  0  0  0  0  0
   -0.4452    2.0944    0.0000 H   0  0  0  0  0  0  0  0  0  0  0  0
  1  2  1  0  0  0  0
  1  3  1  0  0  0  0
  3  4  1  0  0  0  0
  3  5  1  0  0  0  0
  5  6  1  0  0  0  0
  5  7  1  0  0  0  0
  5  8  1  0  0  0  0
  8  9  1  0  0  0  0
  8 10  1  0  0  0  0
  8 11  1  0  0  0  0
 11 12  1  0  0  0  0
 11 13  1  0  0  0  0
 11 14  1  0  0  0  0
 14  3  1  0  0  0  0
 14 15  1  0  0  0  0
 14 16  1  0  0  0  0
M  END
> <ChemID>
100149

> <source_casrn>
96-41-3

> <CAS>
96-41-3

> <SMILES>
OC1CCCC1

> <NAME>
CYCLOPENTANOL

> <preferred_name>
Cyclopentanol

> <iupac>
cyclopentanol

> <MPID>
98712

> <dsstox_substance_id>
DTXSID1033371

> <Canonical_QSARr>
OC1CCCC1

> <InChI_Code_QSARr>
InChI=1S/C5H10O/c6-5-3-1-2-4-5/h5-6H,1-4H2

> <InChI Key_QSARr>
XCIXKGXIYUWCLL-UHFFFAOYSA-N

> <OH>
1.07E-11

> <OH Temperature>
25.0

> <OH Data Type>
EXP

> <OH Reference>
ATKINSON,R (1989)

> <LogOH>
-10.970616222314796

$$$$
100150
  -INDIGO-08031719142D

 16 16  0  0  0  0  0  0  0  0999 V2000
    0.8000    1.3857    0.0000 O   0  0  0  0  0  0  0  0  0  0  0  0
    2.3650    1.0529    0.0000 C   0  0  0  0  0  0  0  0  0  0  0  0
    2.5323    2.6442    0.0000 H   0  0  0  0  0  0  0  0  0  0  0  0
    3.9650    1.0529    0.0000 H   0  0  0  0  0  0  0  0  0  0  0  0
    2.5323   -0.5382    0.0000 C   0  0  0  0  0  0  0  0  0  0  0  0
    4.0973   -0.2056    0.0000 H   0  0  0  0  0  0  0  0  0  0  0  0
    3.0267   -2.0599    0.0000 H   0  0  0  0  0  0  0  0  0  0  0  0
    1.0706   -1.1890    0.0000 C   0  0  0  0  0  0  0  0  0  0  0  0
    1.8706   -2.5747    0.0000 H   0  0  0  0  0  0  0  0  0  0  0  0
   -0.2238   -2.1295    0.0000 H   0  0  0  0  0  0  0  0  0  0  0  0
    0.0000    0.0000    0.0000 C   0  0  0  0  0  0  0  0  0  0  0  0
   -1.0706   -1.1890    0.0000 H   0  0  0  0  0  0  0  0  0  0  0  0
   -1.2944    0.9404    0.0000 C   0  0  0  0  0  0  0  0  0  0  0  0
   -2.5889    1.8809    0.0000 H   0  0  0  0  0  0  0  0  0  0  0  0
   -2.7561    0.2896    0.0000 H   0  0  0  0  0  0  0  0  0  0  0  0
   -1.1272    2.5317    0.0000 H   0  0  0  0  0  0  0  0  0  0  0  0
  1  2  1  0  0  0  0
  2  3  1  0  0  0  0
  2  4  1  0  0  0  0
  2  5  1  0  0  0  0
  5  6  1  0  0  0  0
  5  7  1  0  0  0  0
  5  8  1  0  0  0  0
  8  9  1  0  0  0  0
  8 10  1  0  0  0  0
  8 11  1  0  0  0  0
 11  1  1  0  0  0  0
 11 12  1  0  0  0  0
 11 13  1  0  0  0  0
 13 14  1  0  0  0  0
 13 15  1  0  0  0  0
 13 16  1  0  0  0  0
M  END
> <ChemID>
100150

> <source_casrn>
96-47-9

> <CAS>
96-47-9

> <SMILES>
CC1CCCO1

> <NAME>
2-METHYLTETRAHYDROFURAN

> <preferred_name>
2-Methyltetrahydrofuran

> <iupac>
2-methyltetrahydrofuran

> <MPID>
98713

> <dsstox_substance_id>
DTXSID9030258

> <Canonical_QSARr>
CC1CCCO1

> <InChI_Code_QSARr>
InChI=1S/C5H10O/c1-5-3-2-4-6-5/h5H,2-4H2,1H3

> <InChI Key_QSARr>
JWUJQDFVADABEY-UHFFFAOYSA-N

> <OH>
2.2E-11

> <OH Temperature>
25.0

> <OH Data Type>
EXP

> <OH Reference>
WALLINGTON,TJ ET AL. (1990)

> <LogOH>
-10.65757731917778

$$$$
100152
  -INDIGO-08031719142D

 11 11  0  0  0  0  0  0  0  0999 V2000
    2.2421    1.6289    0.0000 O   0  0  0  0  0  0  0  0  0  0  0  0
    1.5912    0.1672    0.0000 C   0  0  0  0  0  0  0  0  0  0  0  0
    2.5317   -1.1271    0.0000 H   0  0  0  0  0  0  0  0  0  0  0  0
   -0.0000    0.0000    0.0000 C   0  0  0  0  0  0  0  0  0  0  0  0
   -1.0706    1.1891    0.0000 C   0  0  0  0  0  0  0  0  0  0  0  0
   -0.7379    2.7541    0.0000 H   0  0  0  0  0  0  0  0  0  0  0  0
   -2.5322    0.5383    0.0000 C   0  0  0  0  0  0  0  0  0  0  0  0
   -3.9179    1.3382    0.0000 H   0  0  0  0  0  0  0  0  0  0  0  0
   -2.3650   -1.0530    0.0000 C   0  0  0  0  0  0  0  0  0  0  0  0
   -3.5541   -2.1236    0.0000 H   0  0  0  0  0  0  0  0  0  0  0  0
   -0.8000   -1.3856    0.0000 O   0  0  0  0  0  0  0  0  0  0  0  0
  1  2  2  0  0  0  0
  2  3  1  0  0  0  0
  2  4  1  0  0  0  0
  4  5  2  0  0  0  0
  5  6  1  0  0  0  0
  5  7  1  0  0  0  0
  7  8  1  0  0  0  0
  7  9  2  0  0  0  0
  9 10  1  0  0  0  0
  9 11  1  0  0  0  0
 11  4  1  0  0  0  0
M  END
> <ChemID>
100152

> <source_casrn>
98-01-1

> <CAS>
98-01-1

> <SMILES>
O=Cc1ccco1

> <NAME>
FUFURAL

> <preferred_name>
Furfural

> <iupac>
furan-2-carbaldehyde

> <MPID>
98715

> <dsstox_substance_id>
DTXSID1020647

> <Canonical_QSARr>
O=Cc1ccco1

> <InChI_Code_QSARr>
InChI=1S/C5H4O2/c6-4-5-2-1-3-7-5/h1-4H

> <InChI Key_QSARr>
HYBBIBNJHNGZAN-UHFFFAOYSA-N

> <OH>
3.51E-11

> <OH Temperature>
27.0

> <OH Data Type>
EXP

> <OH Reference>
BIERBACH,A ET AL. (1995)

> <LogOH>
-10.454692883534163

$$$$
100153
  -INDIGO-08031719142D

 24 24  0  0  0  0  0  0  0  0999 V2000
   -1.5999    0.0000    0.0000 C   0  0  0  0  0  0  0  0  0  0  0  0
   -2.4000    1.3857    0.0000 C   0  0  0  0  0  0  0  0  0  0  0  0
   -1.5999    2.7713    0.0000 H   0  0  0  0  0  0  0  0  0  0  0  0
   -4.0000    1.3857    0.0000 C   0  0  0  0  0  0  0  0  0  0  0  0
   -4.7999    2.7713    0.0000 H   0  0  0  0  0  0  0  0  0  0  0  0
   -4.8001    0.0000    0.0000 C   0  0  0  0  0  0  0  0  0  0  0  0
   -6.4000    0.0000    0.0000 H   0  0  0  0  0  0  0  0  0  0  0  0
   -4.0000   -1.3857    0.0000 C   0  0  0  0  0  0  0  0  0  0  0  0
   -4.8001   -2.7713    0.0000 H   0  0  0  0  0  0  0  0  0  0  0  0
   -2.4000   -1.3857    0.0000 C   0  0  0  0  0  0  0  0  0  0  0  0
   -1.5999   -2.7713    0.0000 H   0  0  0  0  0  0  0  0  0  0  0  0
    0.0000    0.0000    0.0000 C   0  0  0  0  0  0  0  0  0  0  0  0
    1.6001   -0.0000    0.0000 C   0  0  0  0  0  0  0  0  0  0  0  0
    3.2000   -0.0000    0.0000 H   0  0  0  0  0  0  0  0  0  0  0  0
    2.6284   -1.2256    0.0000 H   0  0  0  0  0  0  0  0  0  0  0  0
    2.6284    1.2256    0.0000 H   0  0  0  0  0  0  0  0  0  0  0  0
    0.0000    1.6000    0.0000 C   0  0  0  0  0  0  0  0  0  0  0  0
   -0.2779    3.1757    0.0000 H   0  0  0  0  0  0  0  0  0  0  0  0
    1.2257    2.6285    0.0000 H   0  0  0  0  0  0  0  0  0  0  0  0
    1.5035    1.0527    0.0000 H   0  0  0  0  0  0  0  0  0  0  0  0
    0.0000   -1.6000    0.0000 C   0  0  0  0  0  0  0  0  0  0  0  0
   -0.2779   -3.1757    0.0000 H   0  0  0  0  0  0  0  0  0  0  0  0
    1.2257   -2.6285    0.0000 H   0  0  0  0  0  0  0  0  0  0  0  0
    1.5035   -1.0527    0.0000 H   0  0  0  0  0  0  0  0  0  0  0  0
  1  2  1  0  0  0  0
  2  3  1  0  0  0  0
  2  4  2  0  0  0  0
  4  5  1  0  0  0  0
  4  6  1  0  0  0  0
  6  7  1  0  0  0  0
  6  8  2  0  0  0  0
  8  9  1  0  0  0  0
  8 10  1  0  0  0  0
 10  1  2  0  0  0  0
 10 11  1  0  0  0  0
  1 12  1  0  0  0  0
 12 13  1  0  0  0  0
 13 14  1  0  0  0  0
 13 15  1  0  0  0  0
 13 16  1  0  0  0  0
 12 17  1  0  0  0  0
 17 18  1  0  0  0  0
 17 19  1  0  0  0  0
 17 20  1  0  0  0  0
 12 21  1  0  0  0  0
 21 22  1  0  0  0  0
 21 23  1  0  0  0  0
 21 24  1  0  0  0  0
M  END
> <ChemID>
100153

> <source_casrn>
98-06-6

> <CAS>
98-06-6

> <SMILES>
CC(C)(C)c1ccccc1

> <NAME>
T-BUTYLBENZENE

> <preferred_name>
tert-Butylbenzene

> <iupac>
tert-butylbenzene

> <MPID>
98716

> <dsstox_substance_id>
DTXSID3047138

> <Canonical_QSARr>
CC(C)(C)c1ccccc1

> <InChI_Code_QSARr>
InChI=1S/C10H14/c1-10(2,3)9-7-5-4-6-8-9/h4-8H,1-3H3

> <InChI Key_QSARr>
YTZKOQUCBOVLHL-UHFFFAOYSA-N

> <OH>
4.6E-12

> <OH Temperature>
25.0

> <OH Data Type>
EXP

> <OH Reference>
ATKINSON,R (1989)

> <LogOH>
-11.337242168318426

$$$$
100154
  -INDIGO-08031719142D

 15 15  0  0  0  0  0  0  0  0999 V2000
    2.4001    1.3856    0.0000 F   0  0  0  0  0  0  0  0  0  0  0  0
    1.6000   -0.0000    0.0000 C   0  0  0  0  0  0  0  0  0  0  0  0
    3.2000   -0.0000    0.0000 F   0  0  0  0  0  0  0  0  0  0  0  0
    2.4001   -1.3856    0.0000 F   0  0  0  0  0  0  0  0  0  0  0  0
    0.0000   -0.0000    0.0000 C   0  0  0  0  0  0  0  0  0  0  0  0
   -0.7999    1.3856    0.0000 C   0  0  0  0  0  0  0  0  0  0  0  0
    0.0000    2.7713    0.0000 H   0  0  0  0  0  0  0  0  0  0  0  0
   -2.4001    1.3856    0.0000 C   0  0  0  0  0  0  0  0  0  0  0  0
   -3.2000    2.7713    0.0000 H   0  0  0  0  0  0  0  0  0  0  0  0
   -3.2000   -0.0000    0.0000 C   0  0  0  0  0  0  0  0  0  0  0  0
   -4.8000   -0.0000    0.0000 H   0  0  0  0  0  0  0  0  0  0  0  0
   -2.4001   -1.3856    0.0000 C   0  0  0  0  0  0  0  0  0  0  0  0
   -3.2000   -2.7713    0.0000 H   0  0  0  0  0  0  0  0  0  0  0  0
   -0.8001   -1.3856    0.0000 C   0  0  0  0  0  0  0  0  0  0  0  0
    0.0000   -2.7713    0.0000 H   0  0  0  0  0  0  0  0  0  0  0  0
  1  2  1  0  0  0  0
  2  3  1  0  0  0  0
  2  4  1  0  0  0  0
  2  5  1  0  0  0  0
  5  6  1  0  0  0  0
  6  7  1  0  0  0  0
  6  8  2  0  0  0  0
  8  9  1  0  0  0  0
  8 10  1  0  0  0  0
 10 11  1  0  0  0  0
 10 12  2  0  0  0  0
 12 13  1  0  0  0  0
 12 14  1  0  0  0  0
 14  5  2  0  0  0  0
 14 15  1  0  0  0  0
M  END
> <ChemID>
100154

> <source_casrn>
98-08-8

> <CAS>
98-08-8

> <SMILES>
FC(F)(F)c1ccccc1

> <NAME>
BENZOTRIFLUORIDE

> <preferred_name>
Benzotrifluoride

> <iupac>
(trifluoromethyl)benzene

> <MPID>
98717

> <dsstox_substance_id>
DTXSID2024589

> <Canonical_QSARr>
FC(F)(F)c1ccccc1

> <InChI_Code_QSARr>
InChI=1S/C7H5F3/c8-7(9,10)6-4-2-1-3-5-6/h1-5H

> <InChI Key_QSARr>
GETTZEONDQJALK-UHFFFAOYSA-N

> <OH>
4.6E-13

> <OH Temperature>
25.0

> <OH Data Type>
EXP

> <OH Reference>
ATKINSON,R (1989)

> <LogOH>
-12.337242168318406

$$$$
100156
  -INDIGO-08031719142D

 15 15  0  0  0  0  0  0  0  0999 V2000
    1.6000   -0.0000    0.0000 C   0  0  0  0  0  0  0  0  0  0  0  0
    3.2000   -0.0000    0.0000 F   0  0  0  0  0  0  0  0  0  0  0  0
    2.4001   -1.3856    0.0000 F   0  0  0  0  0  0  0  0  0  0  0  0
    2.4001    1.3856    0.0000 F   0  0  0  0  0  0  0  0  0  0  0  0
    0.0000   -0.0000    0.0000 C   0  0  0  0  0  0  0  0  0  0  0  0
   -0.7999    1.3856    0.0000 C   0  0  0  0  0  0  0  0  0  0  0  0
    0.0000    2.7713    0.0000 H   0  0  0  0  0  0  0  0  0  0  0  0
   -2.4001    1.3856    0.0000 C   0  0  0  0  0  0  0  0  0  0  0  0
   -3.2000    2.7713    0.0000 H   0  0  0  0  0  0  0  0  0  0  0  0
   -3.2000   -0.0000    0.0000 C   0  0  0  0  0  0  0  0  0  0  0  0
   -4.8000   -0.0000    0.0000 Cl  0  0  0  0  0  0  0  0  0  0  0  0
   -2.4001   -1.3856    0.0000 C   0  0  0  0  0  0  0  0  0  0  0  0
   -3.2000   -2.7713    0.0000 H   0  0  0  0  0  0  0  0  0  0  0  0
   -0.8001   -1.3856    0.0000 C   0  0  0  0  0  0  0  0  0  0  0  0
    0.0000   -2.7713    0.0000 H   0  0  0  0  0  0  0  0  0  0  0  0
  1  2  1  0  0  0  0
  1  3  1  0  0  0  0
  1  4  1  0  0  0  0
  1  5  1  0  0  0  0
  5  6  1  0  0  0  0
  6  7  1  0  0  0  0
  6  8  2  0  0  0  0
  8  9  1  0  0  0  0
  8 10  1  0  0  0  0
 10 11  1  0  0  0  0
 10 12  2  0  0  0  0
 12 13  1  0  0  0  0
 12 14  1  0  0  0  0
 14  5  2  0  0  0  0
 14 15  1  0  0  0  0
M  END
> <ChemID>
100156

> <source_casrn>
98-56-6

> <CAS>
98-56-6

> <SMILES>
FC(F)(F)c1ccc(Cl)cc1

> <NAME>
4-(TRIFLUOROMETHYL)CHLOROBENZENE

> <preferred_name>
1-Chloro-4-(trifluoromethyl)benzene

> <iupac>
1-chloro-4-(trifluoromethyl)benzene

> <MPID>
98719

> <dsstox_substance_id>
DTXSID7024821

> <Canonical_QSARr>
FC(F)(F)c1ccc(Cl)cc1

> <InChI_Code_QSARr>
InChI=1S/C7H4ClF3/c8-6-3-1-5(2-4-6)7(9,10)11/h1-4H

> <InChI Key_QSARr>
QULYNCCPRWKEMF-UHFFFAOYSA-N

> <OH>
2.4E-13

> <OH Temperature>
25.0

> <OH Data Type>
EXP

> <OH Reference>
ATKINSON,R (1989)

> <LogOH>
-12.619788758288395

$$$$
100157
  -INDIGO-08031719142D

 21 21  0  0  0  0  0  0  0  0999 V2000
   -2.4000    1.3857    0.0000 C   0  0  0  0  0  0  0  0  0  0  0  0
   -1.6000    2.7713    0.0000 H   0  0  0  0  0  0  0  0  0  0  0  0
   -4.0000    1.3857    0.0000 C   0  0  0  0  0  0  0  0  0  0  0  0
   -4.8000    2.7713    0.0000 H   0  0  0  0  0  0  0  0  0  0  0  0
   -4.8000    0.0000    0.0000 C   0  0  0  0  0  0  0  0  0  0  0  0
   -6.4000    0.0000    0.0000 H   0  0  0  0  0  0  0  0  0  0  0  0
   -4.0000   -1.3856    0.0000 C   0  0  0  0  0  0  0  0  0  0  0  0
   -4.8000   -2.7713    0.0000 H   0  0  0  0  0  0  0  0  0  0  0  0
   -2.4000   -1.3856    0.0000 C   0  0  0  0  0  0  0  0  0  0  0  0
   -1.6000   -2.7713    0.0000 H   0  0  0  0  0  0  0  0  0  0  0  0
   -1.6000    0.0000    0.0000 C   0  0  0  0  0  0  0  0  0  0  0  0
   -0.0001    0.0000    0.0000 C   0  0  0  0  0  0  0  0  0  0  0  0
   -0.0001    1.6000    0.0000 H   0  0  0  0  0  0  0  0  0  0  0  0
    1.5757    0.2778    0.0000 C   0  0  0  0  0  0  0  0  0  0  0  0
    3.1514    0.5557    0.0000 H   0  0  0  0  0  0  0  0  0  0  0  0
    2.1229    1.7813    0.0000 H   0  0  0  0  0  0  0  0  0  0  0  0
    2.6041   -0.9478    0.0000 H   0  0  0  0  0  0  0  0  0  0  0  0
   -0.0001   -1.6000    0.0000 C   0  0  0  0  0  0  0  0  0  0  0  0
   -0.0001   -3.2000    0.0000 H   0  0  0  0  0  0  0  0  0  0  0  0
    1.3857   -2.4000    0.0000 H   0  0  0  0  0  0  0  0  0  0  0  0
    1.3857   -0.8000    0.0000 H   0  0  0  0  0  0  0  0  0  0  0  0
  1  2  1  0  0  0  0
  1  3  1  0  0  0  0
  3  4  1  0  0  0  0
  3  5  2  0  0  0  0
  5  6  1  0  0  0  0
  5  7  1  0  0  0  0
  7  8  1  0  0  0  0
  7  9  2  0  0  0  0
  9 10  1  0  0  0  0
  9 11  1  0  0  0  0
 11  1  2  0  0  0  0
 11 12  1  0  0  0  0
 12 13  1  0  0  0  0
 12 14  1  0  0  0  0
 14 15  1  0  0  0  0
 14 16  1  0  0  0  0
 14 17  1  0  0  0  0
 12 18  1  0  0  0  0
 18 19  1  0  0  0  0
 18 20  1  0  0  0  0
 18 21  1  0  0  0  0
M  END
> <ChemID>
100157

> <source_casrn>
98-82-8

> <CAS>
98-82-8

> <SMILES>
CC(C)c1ccccc1

> <NAME>
CUMENE

> <preferred_name>
Cumene

> <iupac>
propan-2-ylbenzene

> <MPID>
98720

> <dsstox_substance_id>
DTXSID1021827

> <Canonical_QSARr>
CC(C)c1ccccc1

> <InChI_Code_QSARr>
InChI=1S/C9H12/c1-8(2)9-6-4-3-5-7-9/h3-8H,1-2H3

> <InChI Key_QSARr>
RWGFKTVRMDUZSP-UHFFFAOYSA-N

> <OH>
6.500000000000002E-12

> <OH Temperature>
25.0

> <OH Data Type>
EXP

> <OH Reference>
ATKINSON,R (1989)

> <LogOH>
-11.187086643357162

$$$$
100158
  -INDIGO-08031719142D

 19 19  0  0  0  0  0  0  0  0999 V2000
    1.6000   -0.0000    0.0000 C   0  0  0  0  0  0  0  0  0  0  0  0
    2.4001   -1.3856    0.0000 C   0  0  0  0  0  0  0  0  0  0  0  0
    3.2000   -2.7713    0.0000 H   0  0  0  0  0  0  0  0  0  0  0  0
    4.0000   -1.3856    0.0000 H   0  0  0  0  0  0  0  0  0  0  0  0
    1.6000   -2.7713    0.0000 H   0  0  0  0  0  0  0  0  0  0  0  0
    2.4001    1.3856    0.0000 C   0  0  0  0  0  0  0  0  0  0  0  0
    4.0000    1.3856    0.0000 H   0  0  0  0  0  0  0  0  0  0  0  0
    1.6000    2.7713    0.0000 H   0  0  0  0  0  0  0  0  0  0  0  0
   -0.0000    0.0000    0.0000 C   0  0  0  0  0  0  0  0  0  0  0  0
   -0.8000    1.3856    0.0000 C   0  0  0  0  0  0  0  0  0  0  0  0
   -0.0000    2.7713    0.0000 H   0  0  0  0  0  0  0  0  0  0  0  0
   -2.4000    1.3856    0.0000 C   0  0  0  0  0  0  0  0  0  0  0  0
   -3.2001    2.7713    0.0000 H   0  0  0  0  0  0  0  0  0  0  0  0
   -3.2001    0.0000    0.0000 C   0  0  0  0  0  0  0  0  0  0  0  0
   -4.8000   -0.0000    0.0000 H   0  0  0  0  0  0  0  0  0  0  0  0
   -2.4000   -1.3856    0.0000 C   0  0  0  0  0  0  0  0  0  0  0  0
   -3.2001   -2.7713    0.0000 H   0  0  0  0  0  0  0  0  0  0  0  0
   -0.8000   -1.3856    0.0000 C   0  0  0  0  0  0  0  0  0  0  0  0
   -0.0000   -2.7713    0.0000 H   0  0  0  0  0  0  0  0  0  0  0  0
  1  2  1  0  0  0  0
  2  3  1  0  0  0  0
  2  4  1  0  0  0  0
  2  5  1  0  0  0  0
  1  6  2  0  0  0  0
  6  7  1  0  0  0  0
  6  8  1  0  0  0  0
  1  9  1  0  0  0  0
  9 10  1  0  0  0  0
 10 11  1  0  0  0  0
 10 12  2  0  0  0  0
 12 13  1  0  0  0  0
 12 14  1  0  0  0  0
 14 15  1  0  0  0  0
 14 16  2  0  0  0  0
 16 17  1  0  0  0  0
 16 18  1  0  0  0  0
 18  9  2  0  0  0  0
 18 19  1  0  0  0  0
M  END
> <ChemID>
100158

> <source_casrn>
98-83-9

> <CAS>
98-83-9

> <SMILES>
CC(=C)c1ccccc1

> <NAME>
ALPHA-METHYLSTYRENE

> <preferred_name>
alpha-Methylstyrene

> <iupac>
prop-1-en-2-ylbenzene

> <MPID>
98721

> <dsstox_substance_id>
DTXSID9025661

> <Canonical_QSARr>
CC(=C)c1ccccc1

> <InChI_Code_QSARr>
InChI=1S/C9H10/c1-8(2)9-6-4-3-5-7-9/h3-7H,1H2,2H3

> <InChI Key_QSARr>
XYLMUPLGERFSHI-UHFFFAOYSA-N

> <OH>
5.200000000000001E-11

> <OH Temperature>
25.0

> <OH Data Type>
EXP

> <OH Reference>
ATKINSON,R (1989)

> <LogOH>
-10.28399665636519

$$$$
100160
  -INDIGO-08031719142D

 14 14  0  0  0  0  0  0  0  0999 V2000
   -2.4000   -1.3856    0.0000 O   0  0  0  0  0  0  0  0  0  0  0  0
   -1.6000   -0.0000    0.0000 N   0  0  0  0  0  0  0  0  0  0  0  0
    0.0000   -0.0000    0.0000 C   0  0  0  0  0  0  0  0  0  0  0  0
    0.8000    1.3856    0.0000 C   0  0  0  0  0  0  0  0  0  0  0  0
    0.0000    2.7713    0.0000 H   0  0  0  0  0  0  0  0  0  0  0  0
    2.4000    1.3856    0.0000 C   0  0  0  0  0  0  0  0  0  0  0  0
    3.2000    2.7713    0.0000 H   0  0  0  0  0  0  0  0  0  0  0  0
    3.2000   -0.0000    0.0000 C   0  0  0  0  0  0  0  0  0  0  0  0
    4.8000   -0.0000    0.0000 H   0  0  0  0  0  0  0  0  0  0  0  0
    2.4000   -1.3856    0.0000 C   0  0  0  0  0  0  0  0  0  0  0  0
    3.2000   -2.7713    0.0000 H   0  0  0  0  0  0  0  0  0  0  0  0
    0.8000   -1.3856    0.0000 C   0  0  0  0  0  0  0  0  0  0  0  0
    0.0000   -2.7713    0.0000 H   0  0  0  0  0  0  0  0  0  0  0  0
   -2.4000    1.3856    0.0000 O   0  0  0  0  0  0  0  0  0  0  0  0
  1  2  2  0  0  0  0
  2  3  1  0  0  0  0
  3  4  1  0  0  0  0
  4  5  1  0  0  0  0
  4  6  2  0  0  0  0
  6  7  1  0  0  0  0
  6  8  1  0  0  0  0
  8  9  1  0  0  0  0
  8 10  2  0  0  0  0
 10 11  1  0  0  0  0
 10 12  1  0  0  0  0
 12  3  2  0  0  0  0
 12 13  1  0  0  0  0
  2 14  1  0  0  0  0
M  CHG  2   2   1  14  -1
M  END
> <ChemID>
100160

> <source_casrn>
98-95-3

> <CAS>
98-95-3

> <SMILES>
[O-][N+](=O)c1ccccc1

> <NAME>
NITROBENZENE

> <preferred_name>
Nitrobenzene

> <iupac>
nitrobenzene

> <MPID>
98723

> <dsstox_substance_id>
DTXSID3020964

> <Canonical_QSARr>
[O-][N+](=O)c1ccccc1

> <InChI_Code_QSARr>
InChI=1S/C6H5NO2/c8-7(9)6-4-2-1-3-5-6/h1-5H

> <InChI Key_QSARr>
LQNUZADURLCDLV-UHFFFAOYSA-N

> <OH>
1.4E-13

> <OH Temperature>
25.0

> <OH Data Type>
EXP

> <OH Reference>
ATKINSON,R (1989)

> <LogOH>
-12.853871964321769

$$$$
100161
  -INDIGO-08031719142D

 17 17  0  0  0  0  0  0  0  0999 V2000
    1.3857    0.8000    0.0000 C   0  0  0  0  0  0  0  0  0  0  0  0
    2.7713    1.6000    0.0000 H   0  0  0  0  0  0  0  0  0  0  0  0
    2.7713   -0.0000    0.0000 H   0  0  0  0  0  0  0  0  0  0  0  0
    1.3857    2.4000    0.0000 H   0  0  0  0  0  0  0  0  0  0  0  0
    0.0000   -0.0000    0.0000 C   0  0  0  0  0  0  0  0  0  0  0  0
   -1.3857    0.8000    0.0000 C   0  0  0  0  0  0  0  0  0  0  0  0
   -1.3857    2.4000    0.0000 H   0  0  0  0  0  0  0  0  0  0  0  0
   -2.7713   -0.0000    0.0000 C   0  0  0  0  0  0  0  0  0  0  0  0
   -4.1570    0.8000    0.0000 N   0  0  0  0  0  0  0  0  0  0  0  0
   -5.5426   -0.0000    0.0000 O   0  0  0  0  0  0  0  0  0  0  0  0
   -4.1569    2.4000    0.0000 O   0  0  0  0  0  0  0  0  0  0  0  0
   -2.7713   -1.6000    0.0000 C   0  0  0  0  0  0  0  0  0  0  0  0
   -4.1569   -2.4000    0.0000 H   0  0  0  0  0  0  0  0  0  0  0  0
   -1.3856   -2.4000    0.0000 C   0  0  0  0  0  0  0  0  0  0  0  0
   -1.3856   -4.0000    0.0000 H   0  0  0  0  0  0  0  0  0  0  0  0
    0.0000   -1.6000    0.0000 C   0  0  0  0  0  0  0  0  0  0  0  0
    1.3857   -2.4000    0.0000 H   0  0  0  0  0  0  0  0  0  0  0  0
  1  2  1  0  0  0  0
  1  3  1  0  0  0  0
  1  4  1  0  0  0  0
  1  5  1  0  0  0  0
  5  6  1  0  0  0  0
  6  7  1  0  0  0  0
  6  8  2  0  0  0  0
  8  9  1  0  0  0  0
  9 10  2  0  0  0  0
  9 11  1  0  0  0  0
  8 12  1  0  0  0  0
 12 13  1  0  0  0  0
 12 14  2  0  0  0  0
 14 15  1  0  0  0  0
 14 16  1  0  0  0  0
 16  5  2  0  0  0  0
 16 17  1  0  0  0  0
M  CHG  2   9   1  11  -1
M  END
> <ChemID>
100161

> <source_casrn>
99-08-1

> <CAS>
99-08-1

> <SMILES>
Cc1cc(ccc1)[N+]([O-])=O

> <NAME>
3-NITROTOLUENE

> <preferred_name>
3-Nitrotoluene

> <iupac>
1-methyl-3-nitrobenzene

> <MPID>
98724

> <dsstox_substance_id>
DTXSID5021831

> <Canonical_QSARr>
Cc1cc(ccc1)[N+]([O-])=O

> <InChI_Code_QSARr>
InChI=1S/C7H7NO2/c1-6-3-2-4-7(5-6)8(9)10/h2-5H,1H3

> <InChI Key_QSARr>
QZYHIOPPLUPUJF-UHFFFAOYSA-N

> <OH>
9.500000000000002E-13

> <OH Temperature>
25.0

> <OH Data Type>
EXP

> <OH Reference>
ATKINSON,R (1989)

> <LogOH>
-12.02227639471115

$$$$
100162
  -INDIGO-08031719142D

 26 26  0  0  0  0  0  0  0  0999 V2000
   -0.8000    1.3856    0.0000 C   0  0  0  0  0  0  0  0  0  0  0  0
   -0.5222    2.9613    0.0000 H   0  0  0  0  0  0  0  0  0  0  0  0
   -2.3999    1.3856    0.0000 C   0  0  0  0  0  0  0  0  0  0  0  0
   -3.1999    2.7712    0.0000 H   0  0  0  0  0  0  0  0  0  0  0  0
   -3.1999    0.0000    0.0000 C   0  0  0  0  0  0  0  0  0  0  0  0
   -4.8000    0.0000    0.0000 C   0  0  0  0  0  0  0  0  0  0  0  0
   -6.4000    0.0000    0.0000 H   0  0  0  0  0  0  0  0  0  0  0  0
   -5.6000    1.3856    0.0000 H   0  0  0  0  0  0  0  0  0  0  0  0
   -5.6000   -1.3856    0.0000 H   0  0  0  0  0  0  0  0  0  0  0  0
   -2.3999   -1.3856    0.0000 C   0  0  0  0  0  0  0  0  0  0  0  0
   -3.1999   -2.7713    0.0000 H   0  0  0  0  0  0  0  0  0  0  0  0
   -0.8000   -1.3856    0.0000 C   0  0  0  0  0  0  0  0  0  0  0  0
   -1.0778   -2.9613    0.0000 H   0  0  0  0  0  0  0  0  0  0  0  0
    0.7036   -1.9329    0.0000 H   0  0  0  0  0  0  0  0  0  0  0  0
   -0.0000    0.0000    0.0000 C   0  0  0  0  0  0  0  0  0  0  0  0
    1.2256   -1.0284    0.0000 H   0  0  0  0  0  0  0  0  0  0  0  0
    1.2256    1.0284    0.0000 C   0  0  0  0  0  0  0  0  0  0  0  0
   -0.0000    2.0570    0.0000 H   0  0  0  0  0  0  0  0  0  0  0  0
    2.2541    2.2541    0.0000 C   0  0  0  0  0  0  0  0  0  0  0  0
    3.2825    3.4798    0.0000 H   0  0  0  0  0  0  0  0  0  0  0  0
    3.8299    1.9763    0.0000 H   0  0  0  0  0  0  0  0  0  0  0  0
    1.7069    3.7576    0.0000 H   0  0  0  0  0  0  0  0  0  0  0  0
    2.4513    0.0000    0.0000 C   0  0  0  0  0  0  0  0  0  0  0  0
    3.6771   -1.0284    0.0000 H   0  0  0  0  0  0  0  0  0  0  0  0
    3.9549    0.5473    0.0000 H   0  0  0  0  0  0  0  0  0  0  0  0
    2.1735   -1.5757    0.0000 H   0  0  0  0  0  0  0  0  0  0  0  0
  1  2  1  0  0  0  0
  1  3  2  0  0  0  0
  3  4  1  0  0  0  0
  3  5  1  0  0  0  0
  5  6  1  0  0  0  0
  6  7  1  0  0  0  0
  6  8  1  0  0  0  0
  6  9  1  0  0  0  0
  5 10  2  0  0  0  0
 10 11  1  0  0  0  0
 10 12  1  0  0  0  0
 12 13  1  0  0  0  0
 12 14  1  0  0  0  0
 12 15  1  0  0  0  0
 15  1  1  0  0  0  0
 15 16  1  0  0  0  0
 15 17  1  0  0  0  0
 17 18  1  0  0  0  0
 17 19  1  0  0  0  0
 19 20  1  0  0  0  0
 19 21  1  0  0  0  0
 19 22  1  0  0  0  0
 17 23  1  0  0  0  0
 23 24  1  0  0  0  0
 23 25  1  0  0  0  0
 23 26  1  0  0  0  0
M  END
> <ChemID>
100162

> <source_casrn>
99-83-2

> <CAS>
99-83-2

> <SMILES>
CC(C)C1CC=C(C)C=C1

> <NAME>
alpha-PHELLANDRENE

> <preferred_name>
alpha-Phellandrene

> <iupac>
2-methyl-5-(propan-2-yl)cyclohexa-1,3-diene

> <MPID>
98725

> <dsstox_substance_id>
DTXSID4047593

> <Canonical_QSARr>
CC(C)C1CC=C(C)C=C1

> <InChI_Code_QSARr>
InChI=1S/C10H16/c1-8(2)10-6-4-9(3)5-7-10/h4-6,8,10H,7H2,1-3H3

> <InChI Key_QSARr>
OGLDWXZKYODSOB-UHFFFAOYSA-N

> <OH>
3.13E-10

> <OH Temperature>
25.0

> <OH Data Type>
EXP

> <OH Reference>
ATKINSON,R (1989)

> <LogOH>
-9.504455662453553

$$$$
100164
  -INDIGO-08031719142D

 26 26  0  0  0  0  0  0  0  0999 V2000
   -1.6000   -0.0000    0.0000 C   0  0  0  0  0  0  0  0  0  0  0  0
   -2.4001    1.3857    0.0000 C   0  0  0  0  0  0  0  0  0  0  0  0
   -1.6000    2.7713    0.0000 H   0  0  0  0  0  0  0  0  0  0  0  0
   -4.0001    1.3857    0.0000 C   0  0  0  0  0  0  0  0  0  0  0  0
   -4.8000    2.7713    0.0000 H   0  0  0  0  0  0  0  0  0  0  0  0
   -4.8000   -0.0000    0.0000 C   0  0  0  0  0  0  0  0  0  0  0  0
   -6.4000   -0.0000    0.0000 C   0  0  0  0  0  0  0  0  0  0  0  0
   -8.0000   -0.0000    0.0000 H   0  0  0  0  0  0  0  0  0  0  0  0
   -7.2001    1.3857    0.0000 H   0  0  0  0  0  0  0  0  0  0  0  0
   -7.2001   -1.3856    0.0000 H   0  0  0  0  0  0  0  0  0  0  0  0
   -4.0001   -1.3856    0.0000 C   0  0  0  0  0  0  0  0  0  0  0  0
   -5.5034   -1.9329    0.0000 H   0  0  0  0  0  0  0  0  0  0  0  0
   -3.7222   -2.9613    0.0000 H   0  0  0  0  0  0  0  0  0  0  0  0
   -2.4001   -1.3856    0.0000 C   0  0  0  0  0  0  0  0  0  0  0  0
   -2.6778   -2.9613    0.0000 H   0  0  0  0  0  0  0  0  0  0  0  0
   -1.0143   -2.1856    0.0000 H   0  0  0  0  0  0  0  0  0  0  0  0
    0.0000   -0.0000    0.0000 C   0  0  0  0  0  0  0  0  0  0  0  0
    0.0000   -1.6000    0.0000 H   0  0  0  0  0  0  0  0  0  0  0  0
    1.5757   -0.2778    0.0000 C   0  0  0  0  0  0  0  0  0  0  0  0
    3.1514   -0.5557    0.0000 H   0  0  0  0  0  0  0  0  0  0  0  0
    2.6042    0.9478    0.0000 H   0  0  0  0  0  0  0  0  0  0  0  0
    2.1229   -1.7813    0.0000 H   0  0  0  0  0  0  0  0  0  0  0  0
    0.0000    1.6000    0.0000 C   0  0  0  0  0  0  0  0  0  0  0  0
    0.0000    3.2000    0.0000 H   0  0  0  0  0  0  0  0  0  0  0  0
    1.3856    2.4000    0.0000 H   0  0  0  0  0  0  0  0  0  0  0  0
    1.3856    0.8000    0.0000 H   0  0  0  0  0  0  0  0  0  0  0  0
  1  2  2  0  0  0  0
  2  3  1  0  0  0  0
  2  4  1  0  0  0  0
  4  5  1  0  0  0  0
  4  6  2  0  0  0  0
  6  7  1  0  0  0  0
  7  8  1  0  0  0  0
  7  9  1  0  0  0  0
  7 10  1  0  0  0  0
  6 11  1  0  0  0  0
 11 12  1  0  0  0  0
 11 13  1  0  0  0  0
 11 14  1  0  0  0  0
 14  1  1  0  0  0  0
 14 15  1  0  0  0  0
 14 16  1  0  0  0  0
  1 17  1  0  0  0  0
 17 18  1  0  0  0  0
 17 19  1  0  0  0  0
 19 20  1  0  0  0  0
 19 21  1  0  0  0  0
 19 22  1  0  0  0  0
 17 23  1  0  0  0  0
 23 24  1  0  0  0  0
 23 25  1  0  0  0  0
 23 26  1  0  0  0  0
M  END
> <ChemID>
100164

> <source_casrn>
99-86-5

> <CAS>
99-86-5

> <SMILES>
CC1CCC(=CC=1)C(C)C

> <NAME>
alpha-Terpinene

> <preferred_name>
alpha-Terpinene

> <iupac>
1-methyl-4-(propan-2-yl)cyclohexa-1,3-diene

> <MPID>
98727

> <dsstox_substance_id>
DTXSID9041237

> <Canonical_QSARr>
CC1CCC(=CC=1)C(C)C

> <InChI_Code_QSARr>
InChI=1S/C10H16/c1-8(2)10-6-4-9(3)5-7-10/h4,6,8H,5,7H2,1-3H3

> <InChI Key_QSARr>
YHQGMYUVUMAZJR-UHFFFAOYSA-N

> <OH>
3.63E-10

> <OH Temperature>
21.0

> <OH Data Type>
EXP

> <OH Reference>
ATKINSON,R (1989)

> <LogOH>
-9.440093374963887

$$$$
100165
  -INDIGO-08031719142D

 24 24  0  0  0  0  0  0  0  0999 V2000
    4.8000    0.0000    0.0000 C   0  0  0  0  0  0  0  0  0  0  0  0
    4.0001    1.3856    0.0000 C   0  0  0  0  0  0  0  0  0  0  0  0
    4.8000    2.7713    0.0000 H   0  0  0  0  0  0  0  0  0  0  0  0
    2.4001    1.3856    0.0000 C   0  0  0  0  0  0  0  0  0  0  0  0
    1.6000    2.7713    0.0000 H   0  0  0  0  0  0  0  0  0  0  0  0
    1.6000    0.0000    0.0000 C   0  0  0  0  0  0  0  0  0  0  0  0
   -0.0000    0.0000    0.0000 C   0  0  0  0  0  0  0  0  0  0  0  0
   -0.0000   -1.6000    0.0000 H   0  0  0  0  0  0  0  0  0  0  0  0
   -1.5757   -0.2778    0.0000 C   0  0  0  0  0  0  0  0  0  0  0  0
   -3.1514   -0.5557    0.0000 H   0  0  0  0  0  0  0  0  0  0  0  0
   -2.1229   -1.7813    0.0000 H   0  0  0  0  0  0  0  0  0  0  0  0
   -2.6042    0.9478    0.0000 H   0  0  0  0  0  0  0  0  0  0  0  0
   -0.0000    1.6000    0.0000 C   0  0  0  0  0  0  0  0  0  0  0  0
   -0.0000    3.2000    0.0000 H   0  0  0  0  0  0  0  0  0  0  0  0
   -1.3856    2.4000    0.0000 H   0  0  0  0  0  0  0  0  0  0  0  0
   -1.3856    0.8000    0.0000 H   0  0  0  0  0  0  0  0  0  0  0  0
    2.4001   -1.3857    0.0000 C   0  0  0  0  0  0  0  0  0  0  0  0
    1.6000   -2.7713    0.0000 H   0  0  0  0  0  0  0  0  0  0  0  0
    4.0001   -1.3857    0.0000 C   0  0  0  0  0  0  0  0  0  0  0  0
    4.8000   -2.7713    0.0000 H   0  0  0  0  0  0  0  0  0  0  0  0
    6.4000    0.0000    0.0000 C   0  0  0  0  0  0  0  0  0  0  0  0
    8.0000    0.0000    0.0000 H   0  0  0  0  0  0  0  0  0  0  0  0
    7.2001   -1.3857    0.0000 H   0  0  0  0  0  0  0  0  0  0  0  0
    7.2001    1.3856    0.0000 H   0  0  0  0  0  0  0  0  0  0  0  0
  1  2  1  0  0  0  0
  2  3  1  0  0  0  0
  2  4  2  0  0  0  0
  4  5  1  0  0  0  0
  4  6  1  0  0  0  0
  6  7  1  0  0  0  0
  7  8  1  0  0  0  0
  7  9  1  0  0  0  0
  9 10  1  0  0  0  0
  9 11  1  0  0  0  0
  9 12  1  0  0  0  0
  7 13  1  0  0  0  0
 13 14  1  0  0  0  0
 13 15  1  0  0  0  0
 13 16  1  0  0  0  0
  6 17  2  0  0  0  0
 17 18  1  0  0  0  0
 17 19  1  0  0  0  0
 19  1  2  0  0  0  0
 19 20  1  0  0  0  0
  1 21  1  0  0  0  0
 21 22  1  0  0  0  0
 21 23  1  0  0  0  0
 21 24  1  0  0  0  0
M  END
> <ChemID>
100165

> <source_casrn>
99-87-6

> <CAS>
99-87-6

> <SMILES>
Cc1ccc(cc1)C(C)C

> <NAME>
P-CYMENE

> <preferred_name>
p-Cymene

> <iupac>
1-methyl-4-(propan-2-yl)benzene

> <MPID>
98728

> <dsstox_substance_id>
DTXSID3026645

> <Canonical_QSARr>
Cc1ccc(cc1)C(C)C

> <InChI_Code_QSARr>
InChI=1S/C10H14/c1-8(2)10-6-4-9(3)5-7-10/h4-8H,1-3H3

> <InChI Key_QSARr>
HFPZCAJZSCWRBC-UHFFFAOYSA-N

> <OH>
1.51E-11

> <OH Temperature>
22.0

> <OH Data Type>
EXP

> <OH Reference>
CORCHNOY,SB & ATKINSON,R (1990)

> <LogOH>
-10.821023052706844

$$$$
100166
  -INDIGO-08031719142D

 18 18  0  0  0  0  0  0  0  0999 V2000
    3.2000   -0.0000    0.0000 C   0  0  0  0  0  0  0  0  0  0  0  0
    2.4000    1.3856    0.0000 C   0  0  0  0  0  0  0  0  0  0  0  0
    3.2000    2.7713    0.0000 H   0  0  0  0  0  0  0  0  0  0  0  0
    0.8001    1.3856    0.0000 C   0  0  0  0  0  0  0  0  0  0  0  0
   -0.0000    2.7713    0.0000 H   0  0  0  0  0  0  0  0  0  0  0  0
   -0.0000   -0.0000    0.0000 C   0  0  0  0  0  0  0  0  0  0  0  0
   -1.6000   -0.0000    0.0000 O   0  0  0  0  0  0  0  0  0  0  0  0
   -2.4001    1.3856    0.0000 C   0  0  0  0  0  0  0  0  0  0  0  0
   -4.0000    1.3856    0.0000 H   0  0  0  0  0  0  0  0  0  0  0  0
   -3.2000    2.7713    0.0000 H   0  0  0  0  0  0  0  0  0  0  0  0
   -3.2000   -0.0000    0.0000 H   0  0  0  0  0  0  0  0  0  0  0  0
    0.8001   -1.3856    0.0000 C   0  0  0  0  0  0  0  0  0  0  0  0
   -0.0000   -2.7713    0.0000 H   0  0  0  0  0  0  0  0  0  0  0  0
    2.4000   -1.3856    0.0000 C   0  0  0  0  0  0  0  0  0  0  0  0
    3.2000   -2.7713    0.0000 H   0  0  0  0  0  0  0  0  0  0  0  0
    4.8000   -0.0000    0.0000 N   0  0  0  0  0  0  0  0  0  0  0  0
    5.6000   -1.3856    0.0000 O   0  0  0  0  0  0  0  0  0  0  0  0
    5.6000    1.3856    0.0000 O   0  0  0  0  0  0  0  0  0  0  0  0
  1  2  1  0  0  0  0
  2  3  1  0  0  0  0
  2  4  2  0  0  0  0
  4  5  1  0  0  0  0
  4  6  1  0  0  0  0
  6  7  1  0  0  0  0
  7  8  1  0  0  0  0
  8  9  1  0  0  0  0
  8 10  1  0  0  0  0
  8 11  1  0  0  0  0
  6 12  2  0  0  0  0
 12 13  1  0  0  0  0
 12 14  1  0  0  0  0
 14  1  2  0  0  0  0
 14 15  1  0  0  0  0
  1 16  1  0  0  0  0
 16 17  2  0  0  0  0
 16 18  1  0  0  0  0
M  CHG  2  16   1  18  -1
M  END
> <ChemID>
100166

> <source_casrn>
100-17-4

> <CAS>
100-17-4

> <SMILES>
COc1ccc(cc1)[N+]([O-])=O

> <NAME>
P-NITROANISOLE

> <preferred_name>
p-Nitroanisole

> <iupac>
1-Methoxy-4-nitrobenzene

> <MPID>
98729

> <dsstox_substance_id>
DTXSID9059208

> <Canonical_QSARr>
COc1ccc(cc1)[N+]([O-])=O

> <InChI_Code_QSARr>
InChI=1S/C7H7NO3/c1-11-7-4-2-6(3-5-7)8(9)10/h2-5H,1H3

> <InChI Key_QSARr>
BNUHAJGCKIQFGE-UHFFFAOYSA-N

> <OH>
2.46E-12

> <OH Temperature>
25.0

> <OH Data Type>
EXP

> <OH Reference>
priv. communication; KOCH,R ET AL. (1994)

> <LogOH>
-11.60906489289663

$$$$
100168
  -INDIGO-08031719142D

 16 16  0  0  0  0  0  0  0  0999 V2000
    2.7713   -0.0000    0.0000 C   0  0  0  0  0  0  0  0  0  0  0  0
    4.1569    0.8000    0.0000 H   0  0  0  0  0  0  0  0  0  0  0  0
    2.7713   -1.6000    0.0000 H   0  0  0  0  0  0  0  0  0  0  0  0
    1.3856    0.8000    0.0000 C   0  0  0  0  0  0  0  0  0  0  0  0
    1.3856    2.4000    0.0000 H   0  0  0  0  0  0  0  0  0  0  0  0
    0.0001   -0.0000    0.0000 C   0  0  0  0  0  0  0  0  0  0  0  0
    0.0001   -1.6000    0.0000 C   0  0  0  0  0  0  0  0  0  0  0  0
    1.3856   -2.4000    0.0000 H   0  0  0  0  0  0  0  0  0  0  0  0
   -1.3856   -2.4000    0.0000 C   0  0  0  0  0  0  0  0  0  0  0  0
   -1.3856   -4.0000    0.0000 H   0  0  0  0  0  0  0  0  0  0  0  0
   -2.7712   -1.6000    0.0000 C   0  0  0  0  0  0  0  0  0  0  0  0
   -4.1569   -2.4000    0.0000 H   0  0  0  0  0  0  0  0  0  0  0  0
   -2.7712   -0.0000    0.0000 C   0  0  0  0  0  0  0  0  0  0  0  0
   -4.1569    0.8000    0.0000 H   0  0  0  0  0  0  0  0  0  0  0  0
   -1.3856    0.8000    0.0000 C   0  0  0  0  0  0  0  0  0  0  0  0
   -1.3856    2.4000    0.0000 H   0  0  0  0  0  0  0  0  0  0  0  0
  1  2  1  0  0  0  0
  1  3  1  0  0  0  0
  1  4  2  0  0  0  0
  4  5  1  0  0  0  0
  4  6  1  0  0  0  0
  6  7  1  0  0  0  0
  7  8  1  0  0  0  0
  7  9  2  0  0  0  0
  9 10  1  0  0  0  0
  9 11  1  0  0  0  0
 11 12  1  0  0  0  0
 11 13  2  0  0  0  0
 13 14  1  0  0  0  0
 13 15  1  0  0  0  0
 15  6  2  0  0  0  0
 15 16  1  0  0  0  0
M  END
> <ChemID>
100168

> <source_casrn>
100-42-5

> <CAS>
100-42-5

> <SMILES>
C=Cc1ccccc1

> <NAME>
STYRENE

> <preferred_name>
Styrene

> <iupac>
ethenylbenzene

> <MPID>
98731

> <dsstox_substance_id>
DTXSID2021284

> <Canonical_QSARr>
C=Cc1ccccc1

> <InChI_Code_QSARr>
InChI=1S/C8H8/c1-2-8-6-4-3-5-7-8/h2-7H,1H2

> <InChI Key_QSARr>
PPBRXRYQALVLMV-UHFFFAOYSA-N

> <OH>
5.800000000000002E-11

> <OH Temperature>
25.0

> <OH Data Type>
EXP

> <OH Reference>
ATKINSON,R (1989)

> <LogOH>
-10.236572006437049

$$$$
100169
  -INDIGO-08031719142D

 15 15  0  0  0  0  0  0  0  0999 V2000
    2.4001    1.3856    0.0000 Cl  0  0  0  0  0  0  0  0  0  0  0  0
    1.6000   -0.0000    0.0000 C   0  0  0  0  0  0  0  0  0  0  0  0
    3.2000   -0.0000    0.0000 H   0  0  0  0  0  0  0  0  0  0  0  0
    2.4001   -1.3856    0.0000 H   0  0  0  0  0  0  0  0  0  0  0  0
    0.0000   -0.0000    0.0000 C   0  0  0  0  0  0  0  0  0  0  0  0
   -0.7999    1.3856    0.0000 C   0  0  0  0  0  0  0  0  0  0  0  0
    0.0000    2.7713    0.0000 H   0  0  0  0  0  0  0  0  0  0  0  0
   -2.4001    1.3856    0.0000 C   0  0  0  0  0  0  0  0  0  0  0  0
   -3.2000    2.7713    0.0000 H   0  0  0  0  0  0  0  0  0  0  0  0
   -3.2000   -0.0000    0.0000 C   0  0  0  0  0  0  0  0  0  0  0  0
   -4.8000   -0.0000    0.0000 H   0  0  0  0  0  0  0  0  0  0  0  0
   -2.4001   -1.3856    0.0000 C   0  0  0  0  0  0  0  0  0  0  0  0
   -3.2000   -2.7713    0.0000 H   0  0  0  0  0  0  0  0  0  0  0  0
   -0.8001   -1.3856    0.0000 C   0  0  0  0  0  0  0  0  0  0  0  0
    0.0000   -2.7713    0.0000 H   0  0  0  0  0  0  0  0  0  0  0  0
  1  2  1  0  0  0  0
  2  3  1  0  0  0  0
  2  4  1  0  0  0  0
  2  5  1  0  0  0  0
  5  6  1  0  0  0  0
  6  7  1  0  0  0  0
  6  8  2  0  0  0  0
  8  9  1  0  0  0  0
  8 10  1  0  0  0  0
 10 11  1  0  0  0  0
 10 12  2  0  0  0  0
 12 13  1  0  0  0  0
 12 14  1  0  0  0  0
 14  5  2  0  0  0  0
 14 15  1  0  0  0  0
M  END
> <ChemID>
100169

> <source_casrn>
100-44-7

> <CAS>
100-44-7

> <SMILES>
ClCc1ccccc1

> <NAME>
ALPHA-CHLOROTOLUENE

> <preferred_name>
Benzyl chloride

> <iupac>
(chloromethyl)benzene

> <MPID>
98732

> <dsstox_substance_id>
DTXSID0020153

> <Canonical_QSARr>
ClCc1ccccc1

> <InChI_Code_QSARr>
InChI=1S/C7H7Cl/c8-6-7-4-2-1-3-5-7/h1-5H,6H2

> <InChI Key_QSARr>
KCXMKQUNVWSEMD-UHFFFAOYSA-N

> <OH>
2.9E-12

> <OH Temperature>
25.0

> <OH Data Type>
EXP

> <OH Reference>
ATKINSON,R (1989)

> <LogOH>
-11.537602002101035

$$$$
100170
  -INDIGO-08031719142D

 13 13  0  0  0  0  0  0  0  0999 V2000
   -3.2000   -0.0000    0.0000 N   0  0  0  0  0  0  0  0  0  0  0  0
   -1.6000   -0.0000    0.0000 C   0  0  0  0  0  0  0  0  0  0  0  0
    0.0000   -0.0000    0.0000 C   0  0  0  0  0  0  0  0  0  0  0  0
    0.8001    1.3856    0.0000 C   0  0  0  0  0  0  0  0  0  0  0  0
    0.0000    2.7713    0.0000 H   0  0  0  0  0  0  0  0  0  0  0  0
    2.4001    1.3856    0.0000 C   0  0  0  0  0  0  0  0  0  0  0  0
    3.2000    2.7713    0.0000 H   0  0  0  0  0  0  0  0  0  0  0  0
    3.2000   -0.0000    0.0000 C   0  0  0  0  0  0  0  0  0  0  0  0
    4.8000   -0.0000    0.0000 H   0  0  0  0  0  0  0  0  0  0  0  0
    2.4001   -1.3856    0.0000 C   0  0  0  0  0  0  0  0  0  0  0  0
    3.2000   -2.7713    0.0000 H   0  0  0  0  0  0  0  0  0  0  0  0
    0.8001   -1.3856    0.0000 C   0  0  0  0  0  0  0  0  0  0  0  0
    0.0000   -2.7713    0.0000 H   0  0  0  0  0  0  0  0  0  0  0  0
  1  2  3  0  0  0  0
  2  3  1  0  0  0  0
  3  4  1  0  0  0  0
  4  5  1  0  0  0  0
  4  6  2  0  0  0  0
  6  7  1  0  0  0  0
  6  8  1  0  0  0  0
  8  9  1  0  0  0  0
  8 10  2  0  0  0  0
 10 11  1  0  0  0  0
 10 12  1  0  0  0  0
 12  3  2  0  0  0  0
 12 13  1  0  0  0  0
M  END
> <ChemID>
100170

> <source_casrn>
100-47-0

> <CAS>
100-47-0

> <SMILES>
N#Cc1ccccc1

> <NAME>
BENZONITRILE

> <preferred_name>
Benzonitrile

> <iupac>
benzonitrile

> <MPID>
98733

> <dsstox_substance_id>
DTXSID7021491

> <Canonical_QSARr>
N#Cc1ccccc1

> <InChI_Code_QSARr>
InChI=1S/C7H5N/c8-6-7-4-2-1-3-5-7/h1-5H

> <InChI Key_QSARr>
JFDZBHWFFUWGJE-UHFFFAOYSA-N

> <OH>
3.3E-13

> <OH Temperature>
25.0

> <OH Data Type>
EXP

> <OH Reference>
ATKINSON,R (1989)

> <LogOH>
-12.48148606012213

$$$$
100172
  -INDIGO-08031719142D

 14 14  0  0  0  0  0  0  0  0999 V2000
    2.4000   -1.3856    0.0000 O   0  0  0  0  0  0  0  0  0  0  0  0
    1.6000   -0.0000    0.0000 C   0  0  0  0  0  0  0  0  0  0  0  0
    2.4000    1.3856    0.0000 H   0  0  0  0  0  0  0  0  0  0  0  0
    0.0000   -0.0000    0.0000 C   0  0  0  0  0  0  0  0  0  0  0  0
   -0.8000    1.3856    0.0000 C   0  0  0  0  0  0  0  0  0  0  0  0
    0.0000    2.7713    0.0000 H   0  0  0  0  0  0  0  0  0  0  0  0
   -2.4000    1.3856    0.0000 C   0  0  0  0  0  0  0  0  0  0  0  0
   -3.2000    2.7713    0.0000 H   0  0  0  0  0  0  0  0  0  0  0  0
   -3.2000   -0.0000    0.0000 C   0  0  0  0  0  0  0  0  0  0  0  0
   -4.8000   -0.0000    0.0000 H   0  0  0  0  0  0  0  0  0  0  0  0
   -2.4000   -1.3856    0.0000 C   0  0  0  0  0  0  0  0  0  0  0  0
   -3.2000   -2.7713    0.0000 H   0  0  0  0  0  0  0  0  0  0  0  0
   -0.8000   -1.3856    0.0000 C   0  0  0  0  0  0  0  0  0  0  0  0
    0.0000   -2.7713    0.0000 H   0  0  0  0  0  0  0  0  0  0  0  0
  1  2  2  0  0  0  0
  2  3  1  0  0  0  0
  2  4  1  0  0  0  0
  4  5  1  0  0  0  0
  5  6  1  0  0  0  0
  5  7  2  0  0  0  0
  7  8  1  0  0  0  0
  7  9  1  0  0  0  0
  9 10  1  0  0  0  0
  9 11  2  0  0  0  0
 11 12  1  0  0  0  0
 11 13  1  0  0  0  0
 13  4  2  0  0  0  0
 13 14  1  0  0  0  0
M  END
> <ChemID>
100172

> <source_casrn>
100-52-7

> <CAS>
100-52-7

> <SMILES>
O=Cc1ccccc1

> <NAME>
BENZALDEHYDE

> <preferred_name>
Benzaldehyde

> <iupac>
benzaldehyde

> <MPID>
98735

> <dsstox_substance_id>
DTXSID8039241

> <Canonical_QSARr>
O=Cc1ccccc1

> <InChI_Code_QSARr>
InChI=1S/C7H6O/c8-6-7-4-2-1-3-5-7/h1-6H

> <InChI Key_QSARr>
HUMNYLRZRPPJDN-UHFFFAOYSA-N

> <OH>
1.29E-11

> <OH Temperature>
25.0

> <OH Data Type>
EXP

> <OH Reference>
ATKINSON,R (1989)

> <LogOH>
-10.88941028970074

$$$$
100173
  -INDIGO-08031719142D

 16 16  0  0  0  0  0  0  0  0999 V2000
    0.0001   -0.0000    0.0000 C   0  0  0  0  0  0  0  0  0  0  0  0
    1.3856    0.8000    0.0000 O   0  0  0  0  0  0  0  0  0  0  0  0
    2.7713   -0.0000    0.0000 C   0  0  0  0  0  0  0  0  0  0  0  0
    4.1569    0.8000    0.0000 H   0  0  0  0  0  0  0  0  0  0  0  0
    4.1569   -0.8000    0.0000 H   0  0  0  0  0  0  0  0  0  0  0  0
    2.7713    1.6000    0.0000 H   0  0  0  0  0  0  0  0  0  0  0  0
    0.0001   -1.6000    0.0000 C   0  0  0  0  0  0  0  0  0  0  0  0
    1.3856   -2.4000    0.0000 H   0  0  0  0  0  0  0  0  0  0  0  0
   -1.3856   -2.4000    0.0000 C   0  0  0  0  0  0  0  0  0  0  0  0
   -1.3856   -4.0000    0.0000 H   0  0  0  0  0  0  0  0  0  0  0  0
   -2.7712   -1.6000    0.0000 C   0  0  0  0  0  0  0  0  0  0  0  0
   -4.1569   -2.4000    0.0000 H   0  0  0  0  0  0  0  0  0  0  0  0
   -2.7712   -0.0000    0.0000 C   0  0  0  0  0  0  0  0  0  0  0  0
   -4.1569    0.8000    0.0000 H   0  0  0  0  0  0  0  0  0  0  0  0
   -1.3856    0.8000    0.0000 C   0  0  0  0  0  0  0  0  0  0  0  0
   -1.3856    2.4000    0.0000 H   0  0  0  0  0  0  0  0  0  0  0  0
  1  2  1  0  0  0  0
  2  3  1  0  0  0  0
  3  4  1  0  0  0  0
  3  5  1  0  0  0  0
  3  6  1  0  0  0  0
  1  7  1  0  0  0  0
  7  8  1  0  0  0  0
  7  9  2  0  0  0  0
  9 10  1  0  0  0  0
  9 11  1  0  0  0  0
 11 12  1  0  0  0  0
 11 13  2  0  0  0  0
 13 14  1  0  0  0  0
 13 15  1  0  0  0  0
 15  1  2  0  0  0  0
 15 16  1  0  0  0  0
M  END
> <ChemID>
100173

> <source_casrn>
100-66-3

> <CAS>
100-66-3

> <SMILES>
COc1ccccc1

> <NAME>
ANISOLE

> <preferred_name>
Anisole

> <iupac>
methoxybenzene

> <MPID>
98736

> <dsstox_substance_id>
DTXSID4041608

> <Canonical_QSARr>
COc1ccccc1

> <InChI_Code_QSARr>
InChI=1S/C7H8O/c1-8-7-5-3-2-4-6-7/h2-6H,1H3

> <InChI Key_QSARr>
RDOXTESZEPMUJZ-UHFFFAOYSA-N

> <OH>
1.73E-11

> <OH Temperature>
25.0

> <OH Data Type>
EXP

> <OH Reference>
ATKINSON,R (1989)

> <LogOH>
-10.761953896871196

$$$$
100174
  -INDIGO-08031719142D

 15 15  0  0  0  0  0  0  0  0999 V2000
    0.8000    1.3856    0.0000 N   0  0  0  0  0  0  0  0  0  0  0  0
    2.4000    1.3856    0.0000 C   0  0  0  0  0  0  0  0  0  0  0  0
    3.2001    2.7713    0.0000 H   0  0  0  0  0  0  0  0  0  0  0  0
    3.2001   -0.0000    0.0000 C   0  0  0  0  0  0  0  0  0  0  0  0
    4.8000    0.0000    0.0000 H   0  0  0  0  0  0  0  0  0  0  0  0
    2.4000   -1.3856    0.0000 C   0  0  0  0  0  0  0  0  0  0  0  0
    3.2001   -2.7713    0.0000 H   0  0  0  0  0  0  0  0  0  0  0  0
    0.8000   -1.3856    0.0000 C   0  0  0  0  0  0  0  0  0  0  0  0
    0.0000   -2.7713    0.0000 H   0  0  0  0  0  0  0  0  0  0  0  0
    0.0000   -0.0000    0.0000 C   0  0  0  0  0  0  0  0  0  0  0  0
   -1.6000    0.0000    0.0000 C   0  0  0  0  0  0  0  0  0  0  0  0
   -2.4001   -1.3856    0.0000 H   0  0  0  0  0  0  0  0  0  0  0  0
   -2.4001    1.3856    0.0000 C   0  0  0  0  0  0  0  0  0  0  0  0
   -4.0000    1.3856    0.0000 H   0  0  0  0  0  0  0  0  0  0  0  0
   -1.6000    2.7713    0.0000 H   0  0  0  0  0  0  0  0  0  0  0  0
  1  2  1  0  0  0  0
  2  3  1  0  0  0  0
  2  4  2  0  0  0  0
  4  5  1  0  0  0  0
  4  6  1  0  0  0  0
  6  7  1  0  0  0  0
  6  8  2  0  0  0  0
  8  9  1  0  0  0  0
  8 10  1  0  0  0  0
 10  1  2  0  0  0  0
 10 11  1  0  0  0  0
 11 12  1  0  0  0  0
 11 13  2  0  0  0  0
 13 14  1  0  0  0  0
 13 15  1  0  0  0  0
M  END
> <ChemID>
100174

> <source_casrn>
100-69-6

> <CAS>
100-69-6

> <SMILES>
C=Cc1cccc[n]1

> <NAME>
2-VINYLPYRIDINE

> <preferred_name>
2-Vinylpyridine

> <iupac>
2-ethenylpyridine

> <MPID>
98737

> <dsstox_substance_id>
DTXSID1026667

> <Canonical_QSARr>
C=Cc1cccc[n]1

> <InChI_Code_QSARr>
InChI=1S/C7H7N/c1-2-7-5-3-4-6-8-7/h2-6H,1H2

> <InChI Key_QSARr>
KGIGUEBEKRSTEW-UHFFFAOYSA-N

> <OH>
5.67E-11

> <OH Temperature>
25.0

> <OH Data Type>
EXP

> <OH Reference>
TUAZON,EC ET AL. (1993)

> <LogOH>
-10.246416941107075

$$$$
100176
  -INDIGO-08031719142D

 29 30  0  0  0  0  0  0  0  0999 V2000
    4.7272   -0.8335    0.0000 C   0  0  0  0  0  0  0  0  0  0  0  0
    6.3027   -1.1113    0.0000 N   0  0  0  0  0  0  0  0  0  0  0  0
    7.3312    0.1143    0.0000 H   0  0  0  0  0  0  0  0  0  0  0  0
    6.8499   -2.6148    0.0000 H   0  0  0  0  0  0  0  0  0  0  0  0
    4.1799    0.6700    0.0000 C   0  0  0  0  0  0  0  0  0  0  0  0
    5.2083    1.8957    0.0000 H   0  0  0  0  0  0  0  0  0  0  0  0
    2.6042    0.9479    0.0000 C   0  0  0  0  0  0  0  0  0  0  0  0
    2.0570    2.4513    0.0000 H   0  0  0  0  0  0  0  0  0  0  0  0
    1.5757   -0.2778    0.0000 C   0  0  0  0  0  0  0  0  0  0  0  0
   -0.0001    0.0000    0.0000 C   0  0  0  0  0  0  0  0  0  0  0  0
   -0.8598    1.3494    0.0000 H   0  0  0  0  0  0  0  0  0  0  0  0
    0.3463    1.5621    0.0000 H   0  0  0  0  0  0  0  0  0  0  0  0
   -1.3857   -0.8000    0.0000 C   0  0  0  0  0  0  0  0  0  0  0  0
   -1.3857   -2.4000    0.0000 C   0  0  0  0  0  0  0  0  0  0  0  0
   -0.0001   -3.2000    0.0000 H   0  0  0  0  0  0  0  0  0  0  0  0
   -2.7712   -3.2000    0.0000 C   0  0  0  0  0  0  0  0  0  0  0  0
   -2.7712   -4.8000    0.0000 H   0  0  0  0  0  0  0  0  0  0  0  0
   -4.1568   -2.4000    0.0000 C   0  0  0  0  0  0  0  0  0  0  0  0
   -5.5426   -3.2000    0.0000 N   0  0  0  0  0  0  0  0  0  0  0  0
   -5.5426   -4.8000    0.0000 H   0  0  0  0  0  0  0  0  0  0  0  0
   -6.9282   -2.4000    0.0000 H   0  0  0  0  0  0  0  0  0  0  0  0
   -4.1568   -0.8000    0.0000 C   0  0  0  0  0  0  0  0  0  0  0  0
   -5.5426    0.0000    0.0000 H   0  0  0  0  0  0  0  0  0  0  0  0
   -2.7712    0.0000    0.0000 C   0  0  0  0  0  0  0  0  0  0  0  0
   -2.7712    1.6000    0.0000 H   0  0  0  0  0  0  0  0  0  0  0  0
    2.1229   -1.7813    0.0000 C   0  0  0  0  0  0  0  0  0  0  0  0
    1.0944   -3.0071    0.0000 H   0  0  0  0  0  0  0  0  0  0  0  0
    3.6986   -2.0591    0.0000 C   0  0  0  0  0  0  0  0  0  0  0  0
    4.2459   -3.5627    0.0000 H   0  0  0  0  0  0  0  0  0  0  0  0
  1  2  1  0  0  0  0
  2  3  1  0  0  0  0
  2  4  1  0  0  0  0
  1  5  1  0  0  0  0
  5  6  1  0  0  0  0
  5  7  2  0  0  0  0
  7  8  1  0  0  0  0
  7  9  1  0  0  0  0
  9 10  1  0  0  0  0
 10 11  1  0  0  0  0
 10 12  1  0  0  0  0
 10 13  1  0  0  0  0
 13 14  1  0  0  0  0
 14 15  1  0  0  0  0
 14 16  2  0  0  0  0
 16 17  1  0  0  0  0
 16 18  1  0  0  0  0
 18 19  1  0  0  0  0
 19 20  1  0  0  0  0
 19 21  1  0  0  0  0
 18 22  2  0  0  0  0
 22 23  1  0  0  0  0
 22 24  1  0  0  0  0
 24 13  2  0  0  0  0
 24 25  1  0  0  0  0
  9 26  2  0  0  0  0
 26 27  1  0  0  0  0
 26 28  1  0  0  0  0
 28  1  2  0  0  0  0
 28 29  1  0  0  0  0
M  END
> <ChemID>
100176

> <source_casrn>
101-77-9

> <CAS>
101-77-9

> <SMILES>
Nc1ccc(Cc2ccc(N)cc2)cc1

> <NAME>
DI-(P-AMINOPHENYL)METHANE

> <preferred_name>
4,4'-Methylenedianiline

> <iupac>
C13H14N2

> <MPID>
98738

> <dsstox_substance_id>
DTXSID6022422

> <Canonical_QSARr>
Nc1ccc(Cc2ccc(N)cc2)cc1

> <InChI_Code_QSARr>
InChI=1S/C13H14N2/c14-12-5-1-10(2-6-12)9-11-3-7-13(15)8-4-11/h1-8H,9,14-15H2

> <InChI Key_QSARr>
YBRVSVVVWCFQMG-UHFFFAOYSA-N

> <OH>
3.000000000000001E-11

> <OH Temperature>
25.0

> <OH Data Type>
EXP

> <OH Reference>
ATKINSON,R (1989)

> <LogOH>
-10.52287874528034

$$$$
100177
  -INDIGO-08031719142D

 23 24  0  0  0  0  0  0  0  0999 V2000
   -0.5473   -1.5035    0.0000 C   0  0  0  0  0  0  0  0  0  0  0  0
    0.4812   -2.7292    0.0000 H   0  0  0  0  0  0  0  0  0  0  0  0
   -2.1229   -1.7813    0.0000 C   0  0  0  0  0  0  0  0  0  0  0  0
   -2.6702   -3.2849    0.0000 H   0  0  0  0  0  0  0  0  0  0  0  0
   -3.1513   -0.5556    0.0000 C   0  0  0  0  0  0  0  0  0  0  0  0
   -4.7271   -0.8335    0.0000 H   0  0  0  0  0  0  0  0  0  0  0  0
   -2.6042    0.9479    0.0000 C   0  0  0  0  0  0  0  0  0  0  0  0
   -3.6326    2.1735    0.0000 H   0  0  0  0  0  0  0  0  0  0  0  0
   -1.0284    1.2257    0.0000 C   0  0  0  0  0  0  0  0  0  0  0  0
   -0.4813    2.7292    0.0000 H   0  0  0  0  0  0  0  0  0  0  0  0
    0.0000    0.0000    0.0000 C   0  0  0  0  0  0  0  0  0  0  0  0
    1.5756    0.2779    0.0000 O   0  0  0  0  0  0  0  0  0  0  0  0
    2.9614   -0.5221    0.0000 C   0  0  0  0  0  0  0  0  0  0  0  0
    2.9614   -2.1222    0.0000 C   0  0  0  0  0  0  0  0  0  0  0  0
    1.5756   -2.9222    0.0000 H   0  0  0  0  0  0  0  0  0  0  0  0
    4.3470   -2.9222    0.0000 C   0  0  0  0  0  0  0  0  0  0  0  0
    4.3470   -4.5222    0.0000 H   0  0  0  0  0  0  0  0  0  0  0  0
    5.7326   -2.1222    0.0000 C   0  0  0  0  0  0  0  0  0  0  0  0
    7.1183   -2.9222    0.0000 H   0  0  0  0  0  0  0  0  0  0  0  0
    5.7326   -0.5221    0.0000 C   0  0  0  0  0  0  0  0  0  0  0  0
    7.1183    0.2779    0.0000 H   0  0  0  0  0  0  0  0  0  0  0  0
    4.3470    0.2779    0.0000 C   0  0  0  0  0  0  0  0  0  0  0  0
    4.3470    1.8779    0.0000 H   0  0  0  0  0  0  0  0  0  0  0  0
  1  2  1  0  0  0  0
  1  3  1  0  0  0  0
  3  4  1  0  0  0  0
  3  5  2  0  0  0  0
  5  6  1  0  0  0  0
  5  7  1  0  0  0  0
  7  8  1  0  0  0  0
  7  9  2  0  0  0  0
  9 10  1  0  0  0  0
  9 11  1  0  0  0  0
 11  1  2  0  0  0  0
 11 12  1  0  0  0  0
 12 13  1  0  0  0  0
 13 14  1  0  0  0  0
 14 15  1  0  0  0  0
 14 16  2  0  0  0  0
 16 17  1  0  0  0  0
 16 18  1  0  0  0  0
 18 19  1  0  0  0  0
 18 20  2  0  0  0  0
 20 21  1  0  0  0  0
 20 22  1  0  0  0  0
 22 13  2  0  0  0  0
 22 23  1  0  0  0  0
M  END
> <ChemID>
100177

> <source_casrn>
101-84-8

> <CAS>
101-84-8

> <SMILES>
c1ccccc1Oc1ccccc1

> <NAME>
DIPHENYL ETHER

> <preferred_name>
Diphenyl oxide

> <iupac>
diphenyl ether

> <MPID>
98739

> <dsstox_substance_id>
DTXSID9021847

> <Canonical_QSARr>
c1ccccc1Oc1ccccc1

> <InChI_Code_QSARr>
InChI=1S/C12H10O/c1-3-7-11(8-4-1)13-12-9-5-2-6-10-12/h1-10H

> <InChI Key_QSARr>
USIUVYZYUHIAEV-UHFFFAOYSA-N

> <OH>
9.600000000000001E-12

> <OH Temperature>
24.0

> <OH Data Type>
EXP

> <OH Reference>
KWOK,ESC ET AL. (1995)

> <LogOH>
-11.017728766960449

$$$$
100178
  -INDIGO-08031719142D

 21 21  0  0  0  0  0  0  0  0999 V2000
   -1.3857   -0.8000    0.0000 C   0  0  0  0  0  0  0  0  0  0  0  0
   -1.3857   -2.4000    0.0000 C   0  0  0  0  0  0  0  0  0  0  0  0
    0.0001   -3.2000    0.0000 H   0  0  0  0  0  0  0  0  0  0  0  0
   -2.7713   -3.2000    0.0000 C   0  0  0  0  0  0  0  0  0  0  0  0
   -2.7713   -4.8000    0.0000 H   0  0  0  0  0  0  0  0  0  0  0  0
   -4.1569   -2.4000    0.0000 C   0  0  0  0  0  0  0  0  0  0  0  0
   -5.5426   -3.2000    0.0000 H   0  0  0  0  0  0  0  0  0  0  0  0
   -4.1569   -0.8000    0.0000 C   0  0  0  0  0  0  0  0  0  0  0  0
   -5.5426   -0.0000    0.0000 H   0  0  0  0  0  0  0  0  0  0  0  0
   -2.7713   -0.0000    0.0000 C   0  0  0  0  0  0  0  0  0  0  0  0
   -2.7713    1.6000    0.0000 H   0  0  0  0  0  0  0  0  0  0  0  0
    0.0001   -0.0000    0.0000 C   0  0  0  0  0  0  0  0  0  0  0  0
    0.6124    1.4782    0.0000 H   0  0  0  0  0  0  0  0  0  0  0  0
   -0.6122    1.4782    0.0000 H   0  0  0  0  0  0  0  0  0  0  0  0
    1.3857   -0.8000    0.0000 C   0  0  0  0  0  0  0  0  0  0  0  0
    0.7734   -2.2782    0.0000 H   0  0  0  0  0  0  0  0  0  0  0  0
    1.9980   -2.2782    0.0000 H   0  0  0  0  0  0  0  0  0  0  0  0
    2.7713   -0.0000    0.0000 C   0  0  0  0  0  0  0  0  0  0  0  0
    4.1569    0.8000    0.0000 H   0  0  0  0  0  0  0  0  0  0  0  0
    4.1569   -0.8000    0.0000 H   0  0  0  0  0  0  0  0  0  0  0  0
    2.7713    1.6000    0.0000 H   0  0  0  0  0  0  0  0  0  0  0  0
  1  2  1  0  0  0  0
  2  3  1  0  0  0  0
  2  4  2  0  0  0  0
  4  5  1  0  0  0  0
  4  6  1  0  0  0  0
  6  7  1  0  0  0  0
  6  8  2  0  0  0  0
  8  9  1  0  0  0  0
  8 10  1  0  0  0  0
 10  1  2  0  0  0  0
 10 11  1  0  0  0  0
  1 12  1  0  0  0  0
 12 13  1  0  0  0  0
 12 14  1  0  0  0  0
 12 15  1  0  0  0  0
 15 16  1  0  0  0  0
 15 17  1  0  0  0  0
 15 18  1  0  0  0  0
 18 19  1  0  0  0  0
 18 20  1  0  0  0  0
 18 21  1  0  0  0  0
M  END
> <ChemID>
100178

> <source_casrn>
103-65-1

> <CAS>
103-65-1

> <SMILES>
CCCc1ccccc1

> <NAME>
N-PROPYLBENZENE

> <preferred_name>
Propylbenzene

> <iupac>
propylbenzene

> <MPID>
98740

> <dsstox_substance_id>
DTXSID3042219

> <Canonical_QSARr>
CCCc1ccccc1

> <InChI_Code_QSARr>
InChI=1S/C9H12/c1-2-6-9-7-4-3-5-8-9/h3-5,7-8H,2,6H2,1H3

> <InChI Key_QSARr>
ODLMAHJVESYWTB-UHFFFAOYSA-N

> <OH>
6.000000000000001E-12

> <OH Temperature>
25.0

> <OH Data Type>
EXP

> <OH Reference>
ATKINSON,R (1989)

> <LogOH>
-11.221848749616358

$$$$
100180
  -INDIGO-08031719142D

 17 16  0  0  0  0  0  0  0  0999 V2000
   -1.3856    0.8000    0.0000 C   0  0  0  0  0  0  0  0  0  0  0  0
   -1.3856    2.4000    0.0000 O   0  0  0  0  0  0  0  0  0  0  0  0
   -2.7713    0.0000    0.0000 O   0  0  0  0  0  0  0  0  0  0  0  0
   -4.1570    0.8000    0.0000 C   0  0  0  0  0  0  0  0  0  0  0  0
   -4.7693    2.2782    0.0000 H   0  0  0  0  0  0  0  0  0  0  0  0
   -3.5447    2.2782    0.0000 H   0  0  0  0  0  0  0  0  0  0  0  0
   -5.5426    0.0000    0.0000 C   0  0  0  0  0  0  0  0  0  0  0  0
   -6.9282   -0.8000    0.0000 H   0  0  0  0  0  0  0  0  0  0  0  0
   -6.9282    0.8000    0.0000 H   0  0  0  0  0  0  0  0  0  0  0  0
   -5.5426   -1.6000    0.0000 H   0  0  0  0  0  0  0  0  0  0  0  0
    0.0000    0.0000    0.0000 C   0  0  0  0  0  0  0  0  0  0  0  0
    0.6123   -1.4782    0.0000 H   0  0  0  0  0  0  0  0  0  0  0  0
   -0.6123   -1.4782    0.0000 H   0  0  0  0  0  0  0  0  0  0  0  0
    1.3857    0.8000    0.0000 C   0  0  0  0  0  0  0  0  0  0  0  0
    2.7713    1.6000    0.0000 H   0  0  0  0  0  0  0  0  0  0  0  0
    2.7713    0.0000    0.0000 H   0  0  0  0  0  0  0  0  0  0  0  0
    1.3857    2.4000    0.0000 H   0  0  0  0  0  0  0  0  0  0  0  0
  1  2  2  0  0  0  0
  1  3  1  0  0  0  0
  3  4  1  0  0  0  0
  4  5  1  0  0  0  0
  4  6  1  0  0  0  0
  4  7  1  0  0  0  0
  7  8  1  0  0  0  0
  7  9  1  0  0  0  0
  7 10  1  0  0  0  0
  1 11  1  0  0  0  0
 11 12  1  0  0  0  0
 11 13  1  0  0  0  0
 11 14  1  0  0  0  0
 14 15  1  0  0  0  0
 14 16  1  0  0  0  0
 14 17  1  0  0  0  0
M  END
> <ChemID>
100180

> <source_casrn>
105-37-3

> <CAS>
105-37-3

> <SMILES>
CCC(=O)OCC

> <NAME>
ETHYL PROPIONATE

> <preferred_name>
Ethyl propionate

> <iupac>
ethyl propanoate

> <MPID>
98741

> <dsstox_substance_id>
DTXSID1040110

> <Canonical_QSARr>
CCC(=O)OCC

> <InChI_Code_QSARr>
InChI=1S/C5H10O2/c1-3-5(6)7-4-2/h3-4H2,1-2H3

> <InChI Key_QSARr>
FKRCODPIKNYEAC-UHFFFAOYSA-N

> <OH>
2.140000000000001E-12

> <OH Temperature>
25.0

> <OH Data Type>
EXP

> <OH Reference>
KWOK,ESC & ATKINSON,R (1994)

> <LogOH>
-11.669586226650814

$$$$
100181
  -INDIGO-08031719142D

 16 15  0  0  0  0  0  0  0  0999 V2000
    2.7713   -1.6000    0.0000 O   0  0  0  0  0  0  0  0  0  0  0  0
    2.7713    0.0000    0.0000 C   0  0  0  0  0  0  0  0  0  0  0  0
    4.1570    0.8000    0.0000 N   0  0  0  0  0  0  0  0  0  0  0  0
    4.1570    2.4000    0.0000 H   0  0  0  0  0  0  0  0  0  0  0  0
    5.5426    0.0000    0.0000 C   0  0  0  0  0  0  0  0  0  0  0  0
    6.9282   -0.8000    0.0000 H   0  0  0  0  0  0  0  0  0  0  0  0
    6.9282    0.8000    0.0000 H   0  0  0  0  0  0  0  0  0  0  0  0
    5.5426   -1.6000    0.0000 H   0  0  0  0  0  0  0  0  0  0  0  0
    1.3856    0.8000    0.0000 O   0  0  0  0  0  0  0  0  0  0  0  0
   -0.0000    0.0000    0.0000 C   0  0  0  0  0  0  0  0  0  0  0  0
   -0.6123   -1.4782    0.0000 H   0  0  0  0  0  0  0  0  0  0  0  0
    0.6123   -1.4782    0.0000 H   0  0  0  0  0  0  0  0  0  0  0  0
   -1.3857    0.8000    0.0000 C   0  0  0  0  0  0  0  0  0  0  0  0
   -2.7713    1.6000    0.0000 H   0  0  0  0  0  0  0  0  0  0  0  0
   -2.7713    0.0000    0.0000 H   0  0  0  0  0  0  0  0  0  0  0  0
   -1.3857    2.4000    0.0000 H   0  0  0  0  0  0  0  0  0  0  0  0
  1  2  2  0  0  0  0
  2  3  1  0  0  0  0
  3  4  1  0  0  0  0
  3  5  1  0  0  0  0
  5  6  1  0  0  0  0
  5  7  1  0  0  0  0
  5  8  1  0  0  0  0
  2  9  1  0  0  0  0
  9 10  1  0  0  0  0
 10 11  1  0  0  0  0
 10 12  1  0  0  0  0
 10 13  1  0  0  0  0
 13 14  1  0  0  0  0
 13 15  1  0  0  0  0
 13 16  1  0  0  0  0
M  END
> <ChemID>
100181

> <source_casrn>
105-40-8

> <CAS>
105-40-8

> <SMILES>
CCOC(=O)NC

> <NAME>
N-METHYLCARBAMIC ACID, ET ESTER

> <preferred_name>
N-Methylcarbamic acid, ethyl ester

> <iupac>
ethyl methylcarbamate

> <MPID>
98742

> <dsstox_substance_id>
DTXSID2031746

> <Canonical_QSARr>
CCOC(=O)NC

> <InChI_Code_QSARr>
InChI=1S/C4H9NO2/c1-3-7-4(6)5-2/h3H2,1-2H3,(H,5,6)

> <InChI Key_QSARr>
SURZCVYFPAXNGN-UHFFFAOYSA-N

> <OH>
8.3E-12

> <OH Temperature>
25.0

> <OH Data Type>
EXP

> <OH Reference>
KWOK,ESC ET AL. (1996)

> <LogOH>
-11.080921907623928

$$$$
100182
  -INDIGO-08031719142D

 20 19  0  0  0  0  0  0  0  0999 V2000
    2.8891    0.2528    0.0000 C   0  0  0  0  0  0  0  0  0  0  0  0
    3.1670   -1.3229    0.0000 O   0  0  0  0  0  0  0  0  0  0  0  0
    1.3857    0.8000    0.0000 O   0  0  0  0  0  0  0  0  0  0  0  0
    0.0001    0.0000    0.0000 C   0  0  0  0  0  0  0  0  0  0  0  0
   -1.3856   -0.8000    0.0000 H   0  0  0  0  0  0  0  0  0  0  0  0
    0.8000   -1.3856    0.0000 C   0  0  0  0  0  0  0  0  0  0  0  0
    2.2782   -0.7733    0.0000 H   0  0  0  0  0  0  0  0  0  0  0  0
    2.2782   -1.9979    0.0000 H   0  0  0  0  0  0  0  0  0  0  0  0
    0.0001   -2.7713    0.0000 C   0  0  0  0  0  0  0  0  0  0  0  0
   -0.8000   -4.1569    0.0000 H   0  0  0  0  0  0  0  0  0  0  0  0
    0.8000   -4.1569    0.0000 H   0  0  0  0  0  0  0  0  0  0  0  0
   -1.5999   -2.7713    0.0000 H   0  0  0  0  0  0  0  0  0  0  0  0
   -0.8000    1.3857    0.0000 C   0  0  0  0  0  0  0  0  0  0  0  0
   -1.5999    2.7713    0.0000 H   0  0  0  0  0  0  0  0  0  0  0  0
   -2.4000    1.3857    0.0000 H   0  0  0  0  0  0  0  0  0  0  0  0
    0.0001    2.7713    0.0000 H   0  0  0  0  0  0  0  0  0  0  0  0
    4.1149    1.2812    0.0000 C   0  0  0  0  0  0  0  0  0  0  0  0
    5.3405    2.3097    0.0000 H   0  0  0  0  0  0  0  0  0  0  0  0
    5.6183    0.7340    0.0000 H   0  0  0  0  0  0  0  0  0  0  0  0
    3.8370    2.8569    0.0000 H   0  0  0  0  0  0  0  0  0  0  0  0
  1  2  2  0  0  0  0
  1  3  1  0  0  0  0
  3  4  1  0  0  0  0
  4  5  1  0  0  0  0
  4  6  1  0  0  0  0
  6  7  1  0  0  0  0
  6  8  1  0  0  0  0
  6  9  1  0  0  0  0
  9 10  1  0  0  0  0
  9 11  1  0  0  0  0
  9 12  1  0  0  0  0
  4 13  1  0  0  0  0
 13 14  1  0  0  0  0
 13 15  1  0  0  0  0
 13 16  1  0  0  0  0
  1 17  1  0  0  0  0
 17 18  1  0  0  0  0
 17 19  1  0  0  0  0
 17 20  1  0  0  0  0
M  END
> <ChemID>
100182

> <source_casrn>
105-46-4

> <CAS>
105-46-4

> <SMILES>
CCC(C)OC(C)=O

> <NAME>
S-BUTYLACETATE

> <preferred_name>
Butan-2-yl acetate

> <iupac>
butan-2-yl acetate

> <MPID>
98743

> <dsstox_substance_id>
DTXSID0047612

> <Canonical_QSARr>
CCC(C)OC(C)=O

> <InChI_Code_QSARr>
InChI=1S/C6H12O2/c1-4-5(2)8-6(3)7/h5H,4H2,1-3H3

> <InChI Key_QSARr>
DCKVNWZUADLDEH-UHFFFAOYSA-N

> <OH>
5.5E-12

> <OH Temperature>
25.0

> <OH Data Type>
EXP

> <OH Reference>
ATKINSON,R (1989)

> <LogOH>
-11.259637310505745

$$$$
100184
  -INDIGO-08031719142D

 23 22  0  0  0  0  0  0  0  0999 V2000
    1.3856    0.8000    0.0000 C   0  0  0  0  0  0  0  0  0  0  0  0
    2.7713    1.6000    0.0000 H   0  0  0  0  0  0  0  0  0  0  0  0
    2.7713    0.0000    0.0000 H   0  0  0  0  0  0  0  0  0  0  0  0
    1.3856    2.4000    0.0000 H   0  0  0  0  0  0  0  0  0  0  0  0
    0.0001    0.0000    0.0000 C   0  0  0  0  0  0  0  0  0  0  0  0
   -0.6123   -1.4782    0.0000 H   0  0  0  0  0  0  0  0  0  0  0  0
    0.6122   -1.4782    0.0000 H   0  0  0  0  0  0  0  0  0  0  0  0
   -1.3856    0.8000    0.0000 C   0  0  0  0  0  0  0  0  0  0  0  0
   -0.7733    2.2782    0.0000 H   0  0  0  0  0  0  0  0  0  0  0  0
   -1.9980    2.2782    0.0000 H   0  0  0  0  0  0  0  0  0  0  0  0
   -2.7713    0.0000    0.0000 C   0  0  0  0  0  0  0  0  0  0  0  0
   -2.7713   -1.6000    0.0000 O   0  0  0  0  0  0  0  0  0  0  0  0
   -4.1569    0.8000    0.0000 O   0  0  0  0  0  0  0  0  0  0  0  0
   -5.5426    0.0000    0.0000 C   0  0  0  0  0  0  0  0  0  0  0  0
   -6.1549   -1.4782    0.0000 H   0  0  0  0  0  0  0  0  0  0  0  0
   -4.9302   -1.4782    0.0000 H   0  0  0  0  0  0  0  0  0  0  0  0
   -6.9283    0.8000    0.0000 C   0  0  0  0  0  0  0  0  0  0  0  0
   -6.3159    2.2782    0.0000 H   0  0  0  0  0  0  0  0  0  0  0  0
   -7.5404    2.2782    0.0000 H   0  0  0  0  0  0  0  0  0  0  0  0
   -8.3138    0.0000    0.0000 C   0  0  0  0  0  0  0  0  0  0  0  0
   -9.6995   -0.8000    0.0000 H   0  0  0  0  0  0  0  0  0  0  0  0
   -9.6995    0.8000    0.0000 H   0  0  0  0  0  0  0  0  0  0  0  0
   -8.3138   -1.6000    0.0000 H   0  0  0  0  0  0  0  0  0  0  0  0
  1  2  1  0  0  0  0
  1  3  1  0  0  0  0
  1  4  1  0  0  0  0
  1  5  1  0  0  0  0
  5  6  1  0  0  0  0
  5  7  1  0  0  0  0
  5  8  1  0  0  0  0
  8  9  1  0  0  0  0
  8 10  1  0  0  0  0
  8 11  1  0  0  0  0
 11 12  2  0  0  0  0
 11 13  1  0  0  0  0
 13 14  1  0  0  0  0
 14 15  1  0  0  0  0
 14 16  1  0  0  0  0
 14 17  1  0  0  0  0
 17 18  1  0  0  0  0
 17 19  1  0  0  0  0
 17 20  1  0  0  0  0
 20 21  1  0  0  0  0
 20 22  1  0  0  0  0
 20 23  1  0  0  0  0
M  END
> <ChemID>
100184

> <source_casrn>
105-66-8

> <CAS>
105-66-8

> <SMILES>
CCCOC(=O)CCC

> <NAME>
N-PROPYLBUTYRATE

> <preferred_name>
Butanoic acid, propyl ester

> <iupac>
Propyl butanoate

> <MPID>
98745

> <dsstox_substance_id>
DTXSID6059318

> <Canonical_QSARr>
CCCOC(=O)CCC

> <InChI_Code_QSARr>
InChI=1S/C7H14O2/c1-3-5-7(8)9-6-4-2/h3-6H2,1-2H3

> <InChI Key_QSARr>
HUAZGNHGCJGYNP-UHFFFAOYSA-N

> <OH>
7.41E-12

> <OH Temperature>
25.0

> <OH Data Type>
EXP

> <OH Reference>
KWOK,ESC & ATKINSON,R (1994)

> <LogOH>
-11.130181792020691

$$$$
100185
  -INDIGO-08031719142D

 19 19  0  0  0  0  0  0  0  0999 V2000
    1.3856   -2.4000    0.0000 O   0  0  0  0  0  0  0  0  0  0  0  0
    1.3856   -4.0000    0.0000 H   0  0  0  0  0  0  0  0  0  0  0  0
    0.0000   -1.6000    0.0000 C   0  0  0  0  0  0  0  0  0  0  0  0
    0.0000   -0.0000    0.0000 C   0  0  0  0  0  0  0  0  0  0  0  0
    1.3857    0.8000    0.0000 C   0  0  0  0  0  0  0  0  0  0  0  0
    2.7713    1.6000    0.0000 H   0  0  0  0  0  0  0  0  0  0  0  0
    2.7713   -0.0000    0.0000 H   0  0  0  0  0  0  0  0  0  0  0  0
    1.3857    2.4000    0.0000 H   0  0  0  0  0  0  0  0  0  0  0  0
   -1.3857    0.8000    0.0000 C   0  0  0  0  0  0  0  0  0  0  0  0
   -1.3856    2.4000    0.0000 H   0  0  0  0  0  0  0  0  0  0  0  0
   -2.7713   -0.0000    0.0000 C   0  0  0  0  0  0  0  0  0  0  0  0
   -4.1570    0.8000    0.0000 C   0  0  0  0  0  0  0  0  0  0  0  0
   -5.5426    1.6000    0.0000 H   0  0  0  0  0  0  0  0  0  0  0  0
   -5.5426   -0.0000    0.0000 H   0  0  0  0  0  0  0  0  0  0  0  0
   -4.1570    2.4000    0.0000 H   0  0  0  0  0  0  0  0  0  0  0  0
   -2.7713   -1.6000    0.0000 C   0  0  0  0  0  0  0  0  0  0  0  0
   -4.1570   -2.4000    0.0000 H   0  0  0  0  0  0  0  0  0  0  0  0
   -1.3857   -2.4000    0.0000 C   0  0  0  0  0  0  0  0  0  0  0  0
   -1.3856   -4.0000    0.0000 H   0  0  0  0  0  0  0  0  0  0  0  0
  1  2  1  0  0  0  0
  1  3  1  0  0  0  0
  3  4  1  0  0  0  0
  4  5  1  0  0  0  0
  5  6  1  0  0  0  0
  5  7  1  0  0  0  0
  5  8  1  0  0  0  0
  4  9  2  0  0  0  0
  9 10  1  0  0  0  0
  9 11  1  0  0  0  0
 11 12  1  0  0  0  0
 12 13  1  0  0  0  0
 12 14  1  0  0  0  0
 12 15  1  0  0  0  0
 11 16  2  0  0  0  0
 16 17  1  0  0  0  0
 16 18  1  0  0  0  0
 18  3  2  0  0  0  0
 18 19  1  0  0  0  0
M  END
> <ChemID>
100185

> <source_casrn>
105-67-9

> <CAS>
105-67-9

> <SMILES>
Cc1cc(C)c(O)cc1

> <NAME>
2,4-DIMETHYLPHENOL

> <preferred_name>
2,4-Dimethylphenol

> <iupac>
2,4-dimethylphenol

> <MPID>
98746

> <dsstox_substance_id>
DTXSID2021864

> <Canonical_QSARr>
Cc1cc(C)c(O)cc1

> <InChI_Code_QSARr>
InChI=1S/C8H10O/c1-6-3-4-8(9)7(2)5-6/h3-5,9H,1-2H3

> <InChI Key_QSARr>
KUFFULVDNCHOFZ-UHFFFAOYSA-N

> <OH>
7.149999999999999E-11

> <OH Temperature>
25.0

> <OH Data Type>
EXP

> <OH Reference>
KWOK,ESC & ATKINSON,R (1994)

> <LogOH>
-10.145693958198924

$$$$
100186
  -INDIGO-08031719142D

 20 19  0  0  0  0  0  0  0  0999 V2000
    4.1569    0.8000    0.0000 C   0  0  0  0  0  0  0  0  0  0  0  0
    5.5425    0.0000    0.0000 C   0  0  0  0  0  0  0  0  0  0  0  0
    6.1548   -1.4782    0.0000 H   0  0  0  0  0  0  0  0  0  0  0  0
    4.9302   -1.4782    0.0000 H   0  0  0  0  0  0  0  0  0  0  0  0
    6.9282    0.8000    0.0000 C   0  0  0  0  0  0  0  0  0  0  0  0
    8.3138    1.6000    0.0000 H   0  0  0  0  0  0  0  0  0  0  0  0
    8.3138    0.0000    0.0000 H   0  0  0  0  0  0  0  0  0  0  0  0
    6.9282    2.4000    0.0000 H   0  0  0  0  0  0  0  0  0  0  0  0
    2.7714    0.0000    0.0000 O   0  0  0  0  0  0  0  0  0  0  0  0
    1.3857    0.8000    0.0000 C   0  0  0  0  0  0  0  0  0  0  0  0
    0.7734    2.2782    0.0000 H   0  0  0  0  0  0  0  0  0  0  0  0
    1.9979    2.2782    0.0000 H   0  0  0  0  0  0  0  0  0  0  0  0
    0.0000    0.0000    0.0000 C   0  0  0  0  0  0  0  0  0  0  0  0
    0.6124   -1.4782    0.0000 H   0  0  0  0  0  0  0  0  0  0  0  0
   -0.6123   -1.4782    0.0000 H   0  0  0  0  0  0  0  0  0  0  0  0
   -1.3856    0.8000    0.0000 C   0  0  0  0  0  0  0  0  0  0  0  0
   -2.7713    1.6000    0.0000 H   0  0  0  0  0  0  0  0  0  0  0  0
   -2.7713    0.0000    0.0000 H   0  0  0  0  0  0  0  0  0  0  0  0
   -1.3856    2.4000    0.0000 H   0  0  0  0  0  0  0  0  0  0  0  0
    4.1569    2.4000    0.0000 O   0  0  0  0  0  0  0  0  0  0  0  0
  1  2  1  0  0  0  0
  2  3  1  0  0  0  0
  2  4  1  0  0  0  0
  2  5  1  0  0  0  0
  5  6  1  0  0  0  0
  5  7  1  0  0  0  0
  5  8  1  0  0  0  0
  1  9  1  0  0  0  0
  9 10  1  0  0  0  0
 10 11  1  0  0  0  0
 10 12  1  0  0  0  0
 10 13  1  0  0  0  0
 13 14  1  0  0  0  0
 13 15  1  0  0  0  0
 13 16  1  0  0  0  0
 16 17  1  0  0  0  0
 16 18  1  0  0  0  0
 16 19  1  0  0  0  0
  1 20  2  0  0  0  0
M  END
> <ChemID>
100186

> <source_casrn>
106-36-5

> <CAS>
106-36-5

> <SMILES>
CCC(=O)OCCC

> <NAME>
N-PROPYLPROPIONATE

> <preferred_name>
Propyl propionate

> <iupac>
propyl propanoate

> <MPID>
98747

> <dsstox_substance_id>
DTXSID4042337

> <Canonical_QSARr>
CCC(=O)OCCC

> <InChI_Code_QSARr>
InChI=1S/C6H12O2/c1-3-5-8-6(7)4-2/h3-5H2,1-2H3

> <InChI Key_QSARr>
MCSINKKTEDDPNK-UHFFFAOYSA-N

> <OH>
4.020000000000001E-12

> <OH Temperature>
25.0

> <OH Data Type>
EXP

> <OH Reference>
KWOK,ESC & ATKINSON,R (1994)

> <LogOH>
-11.39577394691552

$$$$
100189
  -INDIGO-08031719142D

 16 16  0  0  0  0  0  0  0  0999 V2000
    4.8000   -0.0000    0.0000 O   0  0  0  0  0  0  0  0  0  0  0  0
    5.6000    1.3856    0.0000 H   0  0  0  0  0  0  0  0  0  0  0  0
    3.2000   -0.0000    0.0000 C   0  0  0  0  0  0  0  0  0  0  0  0
    2.4000    1.3856    0.0000 C   0  0  0  0  0  0  0  0  0  0  0  0
    3.2000    2.7713    0.0000 H   0  0  0  0  0  0  0  0  0  0  0  0
    0.8000    1.3856    0.0000 C   0  0  0  0  0  0  0  0  0  0  0  0
    0.0000    2.7713    0.0000 H   0  0  0  0  0  0  0  0  0  0  0  0
    0.0000   -0.0000    0.0000 C   0  0  0  0  0  0  0  0  0  0  0  0
   -1.6001   -0.0000    0.0000 C   0  0  0  0  0  0  0  0  0  0  0  0
   -3.2000   -0.0000    0.0000 H   0  0  0  0  0  0  0  0  0  0  0  0
   -2.4000   -1.3856    0.0000 H   0  0  0  0  0  0  0  0  0  0  0  0
   -2.4000    1.3856    0.0000 H   0  0  0  0  0  0  0  0  0  0  0  0
    0.8000   -1.3856    0.0000 C   0  0  0  0  0  0  0  0  0  0  0  0
    0.0000   -2.7713    0.0000 H   0  0  0  0  0  0  0  0  0  0  0  0
    2.4000   -1.3856    0.0000 C   0  0  0  0  0  0  0  0  0  0  0  0
    3.2000   -2.7713    0.0000 H   0  0  0  0  0  0  0  0  0  0  0  0
  1  2  1  0  0  0  0
  1  3  1  0  0  0  0
  3  4  1  0  0  0  0
  4  5  1  0  0  0  0
  4  6  2  0  0  0  0
  6  7  1  0  0  0  0
  6  8  1  0  0  0  0
  8  9  1  0  0  0  0
  9 10  1  0  0  0  0
  9 11  1  0  0  0  0
  9 12  1  0  0  0  0
  8 13  2  0  0  0  0
 13 14  1  0  0  0  0
 13 15  1  0  0  0  0
 15  3  2  0  0  0  0
 15 16  1  0  0  0  0
M  END
> <ChemID>
100189

> <source_casrn>
106-44-5

> <CAS>
106-44-5

> <SMILES>
Cc1ccc(O)cc1

> <NAME>
P-CRESOL

> <preferred_name>
p-Cresol

> <iupac>
4-methylphenol

> <MPID>
98749

> <dsstox_substance_id>
DTXSID7021869

> <Canonical_QSARr>
Cc1ccc(O)cc1

> <InChI_Code_QSARr>
InChI=1S/C7H8O/c1-6-2-4-7(8)5-3-6/h2-5,8H,1H3

> <InChI Key_QSARr>
IWDCLRJOBJJRNH-UHFFFAOYSA-N

> <OH>
4.700000000000001E-11

> <OH Temperature>
25.0

> <OH Data Type>
EXP

> <OH Reference>
ATKINSON,R (1989)

> <LogOH>
-10.327902142064286

$$$$
100190
  -INDIGO-08031719142D

 12 12  0  0  0  0  0  0  0  0999 V2000
    0.8000    1.3856    0.0000 Cl  0  0  0  0  0  0  0  0  0  0  0  0
   -0.0000   -0.0000    0.0000 C   0  0  0  0  0  0  0  0  0  0  0  0
    0.8000   -1.3857    0.0000 C   0  0  0  0  0  0  0  0  0  0  0  0
    2.4000   -1.3857    0.0000 H   0  0  0  0  0  0  0  0  0  0  0  0
   -0.0000   -2.7713    0.0000 C   0  0  0  0  0  0  0  0  0  0  0  0
    0.8000   -4.1569    0.0000 H   0  0  0  0  0  0  0  0  0  0  0  0
   -1.6000   -2.7713    0.0000 C   0  0  0  0  0  0  0  0  0  0  0  0
   -2.4000   -4.1569    0.0000 Cl  0  0  0  0  0  0  0  0  0  0  0  0
   -2.4000   -1.3856    0.0000 C   0  0  0  0  0  0  0  0  0  0  0  0
   -4.0000   -1.3856    0.0000 H   0  0  0  0  0  0  0  0  0  0  0  0
   -1.6000   -0.0000    0.0000 C   0  0  0  0  0  0  0  0  0  0  0  0
   -2.4000    1.3856    0.0000 H   0  0  0  0  0  0  0  0  0  0  0  0
  1  2  1  0  0  0  0
  2  3  1  0  0  0  0
  3  4  1  0  0  0  0
  3  5  2  0  0  0  0
  5  6  1  0  0  0  0
  5  7  1  0  0  0  0
  7  8  1  0  0  0  0
  7  9  2  0  0  0  0
  9 10  1  0  0  0  0
  9 11  1  0  0  0  0
 11  2  2  0  0  0  0
 11 12  1  0  0  0  0
M  END
> <ChemID>
100190

> <source_casrn>
106-46-7

> <CAS>
106-46-7

> <SMILES>
Clc1ccc(Cl)cc1

> <NAME>
1,4-DICHLOROBENZENE

> <preferred_name>
1,4-Dichlorobenzene

> <iupac>
1,4-dichlorobenzene

> <MPID>
98750

> <dsstox_substance_id>
DTXSID1020431

> <Canonical_QSARr>
Clc1ccc(Cl)cc1

> <InChI_Code_QSARr>
InChI=1S/C6H4Cl2/c7-5-1-2-6(8)4-3-5/h1-4H

> <InChI Key_QSARr>
OCJBOOLMMGQPQU-UHFFFAOYSA-N

> <OH>
3.200000000000001E-13

> <OH Temperature>
25.0

> <OH Data Type>
EXP

> <OH Reference>
ATKINSON,R (1989)

> <LogOH>
-12.494850021680088

$$$$
100192
  -INDIGO-08031719142D

 12 12  0  0  0  0  0  0  0  0999 V2000
    0.8000    1.3856    0.0000 O   0  0  0  0  0  0  0  0  0  0  0  0
   -0.0000   -0.0000    0.0000 C   0  0  0  0  0  0  0  0  0  0  0  0
    0.8000   -1.3857    0.0000 C   0  0  0  0  0  0  0  0  0  0  0  0
    2.4000   -1.3857    0.0000 H   0  0  0  0  0  0  0  0  0  0  0  0
   -0.0000   -2.7713    0.0000 C   0  0  0  0  0  0  0  0  0  0  0  0
    0.8000   -4.1569    0.0000 H   0  0  0  0  0  0  0  0  0  0  0  0
   -1.6000   -2.7713    0.0000 C   0  0  0  0  0  0  0  0  0  0  0  0
   -2.4000   -4.1569    0.0000 O   0  0  0  0  0  0  0  0  0  0  0  0
   -2.4000   -1.3856    0.0000 C   0  0  0  0  0  0  0  0  0  0  0  0
   -4.0000   -1.3856    0.0000 H   0  0  0  0  0  0  0  0  0  0  0  0
   -1.6000   -0.0000    0.0000 C   0  0  0  0  0  0  0  0  0  0  0  0
   -2.4000    1.3856    0.0000 H   0  0  0  0  0  0  0  0  0  0  0  0
  1  2  2  0  0  0  0
  2  3  1  0  0  0  0
  3  4  1  0  0  0  0
  3  5  2  0  0  0  0
  5  6  1  0  0  0  0
  5  7  1  0  0  0  0
  7  8  2  0  0  0  0
  7  9  1  0  0  0  0
  9 10  1  0  0  0  0
  9 11  2  0  0  0  0
 11  2  1  0  0  0  0
 11 12  1  0  0  0  0
M  END
> <ChemID>
100192

> <source_casrn>
106-51-4

> <CAS>
106-51-4

> <SMILES>
O=C1C=CC(=O)C=C1

> <NAME>
2,5-CYCLOHEXADIENE-1,4-DIONE

> <preferred_name>
1,4-Benzoquinone

> <iupac>
cyclohexa-2,5-diene-1,4-dione

> <MPID>
98752

> <dsstox_substance_id>
DTXSID6020145

> <Canonical_QSARr>
O=C1C=CC(=O)C=C1

> <InChI_Code_QSARr>
InChI=1S/C6H4O2/c7-5-1-2-6(8)4-3-5/h1-4H

> <InChI Key_QSARr>
AZQWKYJCGOJGHM-UHFFFAOYSA-N

> <OH>
4.6E-12

> <OH Temperature>
27.0

> <OH Data Type>
EXP

> <OH Reference>
OLARIU,RI ET AL. (2000)

> <LogOH>
-11.337242168318426

$$$$
100193
  -INDIGO-08031719142D

 20 19  0  0  0  0  0  0  0  0999 V2000
   -1.3856   -0.8000    0.0000 C   0  0  0  0  0  0  0  0  0  0  0  0
   -1.3856   -2.4000    0.0000 O   0  0  0  0  0  0  0  0  0  0  0  0
   -2.7713    0.0000    0.0000 O   0  0  0  0  0  0  0  0  0  0  0  0
   -4.1569   -0.8000    0.0000 C   0  0  0  0  0  0  0  0  0  0  0  0
   -5.5426   -1.6000    0.0000 H   0  0  0  0  0  0  0  0  0  0  0  0
   -5.5426    0.0000    0.0000 H   0  0  0  0  0  0  0  0  0  0  0  0
   -4.1569   -2.4000    0.0000 H   0  0  0  0  0  0  0  0  0  0  0  0
    0.0001    0.0000    0.0000 C   0  0  0  0  0  0  0  0  0  0  0  0
   -0.6123    1.4782    0.0000 H   0  0  0  0  0  0  0  0  0  0  0  0
    0.6122    1.4782    0.0000 H   0  0  0  0  0  0  0  0  0  0  0  0
    1.3856   -0.8000    0.0000 C   0  0  0  0  0  0  0  0  0  0  0  0
    1.9979   -2.2782    0.0000 H   0  0  0  0  0  0  0  0  0  0  0  0
    0.7734   -2.2782    0.0000 H   0  0  0  0  0  0  0  0  0  0  0  0
    2.7713    0.0000    0.0000 C   0  0  0  0  0  0  0  0  0  0  0  0
    2.7713    1.6000    0.0000 O   0  0  0  0  0  0  0  0  0  0  0  0
    4.1570   -0.8000    0.0000 O   0  0  0  0  0  0  0  0  0  0  0  0
    5.5425    0.0000    0.0000 C   0  0  0  0  0  0  0  0  0  0  0  0
    6.9282    0.8000    0.0000 H   0  0  0  0  0  0  0  0  0  0  0  0
    6.9282   -0.8000    0.0000 H   0  0  0  0  0  0  0  0  0  0  0  0
    5.5425    1.6000    0.0000 H   0  0  0  0  0  0  0  0  0  0  0  0
  1  2  2  0  0  0  0
  1  3  1  0  0  0  0
  3  4  1  0  0  0  0
  4  5  1  0  0  0  0
  4  6  1  0  0  0  0
  4  7  1  0  0  0  0
  1  8  1  0  0  0  0
  8  9  1  0  0  0  0
  8 10  1  0  0  0  0
  8 11  1  0  0  0  0
 11 12  1  0  0  0  0
 11 13  1  0  0  0  0
 11 14  1  0  0  0  0
 14 15  2  0  0  0  0
 14 16  1  0  0  0  0
 16 17  1  0  0  0  0
 17 18  1  0  0  0  0
 17 19  1  0  0  0  0
 17 20  1  0  0  0  0
M  END
> <ChemID>
100193

> <source_casrn>
106-65-0

> <CAS>
106-65-0

> <SMILES>
COC(=O)CCC(=O)OC

> <NAME>
DIMETHYL SUCCINATE

> <preferred_name>
Dimethyl succinate

> <iupac>
dimethyl butanedioate

> <MPID>
98753

> <dsstox_substance_id>
DTXSID5025152

> <Canonical_QSARr>
COC(=O)CCC(=O)OC

> <InChI_Code_QSARr>
InChI=1S/C6H10O4/c1-9-5(7)3-4-6(8)10-2/h3-4H2,1-2H3

> <InChI Key_QSARr>
MUXOBHXGJLMRAB-UHFFFAOYSA-N

> <OH>
1.4E-12

> <OH Temperature>
25.0

> <OH Data Type>
EXP

> <OH Reference>
ASCHMANN,SM & ATKINSON,R (1998)

> <LogOH>
-11.853871964321746

$$$$
100194
  -INDIGO-08031719142D

 13 13  0  0  0  0  0  0  0  0999 V2000
    2.7292    0.4812    0.0000 C   0  0  0  0  0  0  0  0  0  0  0  0
    3.9548    1.5097    0.0000 H   0  0  0  0  0  0  0  0  0  0  0  0
    4.2327   -0.0660    0.0000 H   0  0  0  0  0  0  0  0  0  0  0  0
    2.4513    2.0569    0.0000 H   0  0  0  0  0  0  0  0  0  0  0  0
    1.5035   -0.5472    0.0000 C   0  0  0  0  0  0  0  0  0  0  0  0
    2.3632   -1.8967    0.0000 H   0  0  0  0  0  0  0  0  0  0  0  0
    1.1572   -2.1093    0.0000 H   0  0  0  0  0  0  0  0  0  0  0  0
    0.0000    0.0000    0.0000 C   0  0  0  0  0  0  0  0  0  0  0  0
    0.2778    1.5757    0.0000 H   0  0  0  0  0  0  0  0  0  0  0  0
   -1.6000    0.0000    0.0000 C   0  0  0  0  0  0  0  0  0  0  0  0
   -1.8778    1.5757    0.0000 H   0  0  0  0  0  0  0  0  0  0  0  0
   -3.1035   -0.5472    0.0000 H   0  0  0  0  0  0  0  0  0  0  0  0
   -0.8001   -1.3857    0.0000 O   0  0  0  0  0  0  0  0  0  0  0  0
  1  2  1  0  0  0  0
  1  3  1  0  0  0  0
  1  4  1  0  0  0  0
  1  5  1  0  0  0  0
  5  6  1  0  0  0  0
  5  7  1  0  0  0  0
  5  8  1  0  0  0  0
  8  9  1  0  0  0  0
  8 10  1  0  0  0  0
 10 11  1  0  0  0  0
 10 12  1  0  0  0  0
 10 13  1  0  0  0  0
 13  8  1  0  0  0  0
M  END
> <ChemID>
100194

> <source_casrn>
106-88-7

> <CAS>
106-88-7

> <SMILES>
CCC1CO1

> <NAME>
1,2-BUTYLENEOXIDE

> <preferred_name>
1,2-Epoxybutane

> <iupac>
2-ethyloxirane

> <MPID>
98754

> <dsstox_substance_id>
DTXSID6020569

> <Canonical_QSARr>
CCC1CO1

> <InChI_Code_QSARr>
InChI=1S/C4H8O/c1-2-4-3-5-4/h4H,2-3H2,1H3

> <InChI Key_QSARr>
RBACIKXCRWGCBB-UHFFFAOYSA-N

> <OH>
1.909999999999999E-12

> <OH Temperature>
25.0

> <OH Data Type>
EXP

> <OH Reference>
KWOK,ESC & ATKINSON,R (1994)

> <LogOH>
-11.718966632752267

$$$$
100196
  -INDIGO-08031719142D

  8  7  0  0  0  0  0  0  0  0999 V2000
    0.8000    1.3856    0.0000 Br  0  0  0  0  0  0  0  0  0  0  0  0
    0.0000    0.0000    0.0000 C   0  0  0  0  0  0  0  0  0  0  0  0
    1.6000   -0.0000    0.0000 H   0  0  0  0  0  0  0  0  0  0  0  0
    0.8000   -1.3856    0.0000 H   0  0  0  0  0  0  0  0  0  0  0  0
   -1.6000    0.0000    0.0000 C   0  0  0  0  0  0  0  0  0  0  0  0
   -3.2000    0.0000    0.0000 H   0  0  0  0  0  0  0  0  0  0  0  0
   -2.4000   -1.3856    0.0000 H   0  0  0  0  0  0  0  0  0  0  0  0
   -2.4000    1.3856    0.0000 Br  0  0  0  0  0  0  0  0  0  0  0  0
  1  2  1  0  0  0  0
  2  3  1  0  0  0  0
  2  4  1  0  0  0  0
  2  5  1  0  0  0  0
  5  6  1  0  0  0  0
  5  7  1  0  0  0  0
  5  8  1  0  0  0  0
M  END
> <ChemID>
100196

> <source_casrn>
106-93-4

> <CAS>
106-93-4

> <SMILES>
BrCCBr

> <NAME>
1,2-DIBROMOETHANE

> <preferred_name>
1,2-Dibromoethane

> <iupac>
1,2-dibromoethane

> <MPID>
98756

> <dsstox_substance_id>
DTXSID3020415

> <Canonical_QSARr>
BrCCBr

> <InChI_Code_QSARr>
InChI=1S/C2H4Br2/c3-1-2-4/h1-2H2

> <InChI Key_QSARr>
PAAZPARNPHGIKF-UHFFFAOYSA-N

> <OH>
2.500000000000001E-13

> <OH Temperature>
25.0

> <OH Data Type>
EXP

> <OH Reference>
ATKINSON,R (1989)

> <LogOH>
-12.602059991327945

$$$$
100197
  -INDIGO-08031719142D

 11 10  0  0  0  0  0  0  0  0999 V2000
    1.3856    2.4000    0.0000 Br  0  0  0  0  0  0  0  0  0  0  0  0
    1.3856    0.8000    0.0000 C   0  0  0  0  0  0  0  0  0  0  0  0
    2.7713    1.6000    0.0000 H   0  0  0  0  0  0  0  0  0  0  0  0
    2.7713    0.0000    0.0000 H   0  0  0  0  0  0  0  0  0  0  0  0
    0.0000    0.0000    0.0000 C   0  0  0  0  0  0  0  0  0  0  0  0
    0.6123   -1.4782    0.0000 H   0  0  0  0  0  0  0  0  0  0  0  0
   -0.6123   -1.4782    0.0000 H   0  0  0  0  0  0  0  0  0  0  0  0
   -1.3856    0.8000    0.0000 C   0  0  0  0  0  0  0  0  0  0  0  0
   -2.7713    1.6000    0.0000 H   0  0  0  0  0  0  0  0  0  0  0  0
   -2.7713    0.0000    0.0000 H   0  0  0  0  0  0  0  0  0  0  0  0
   -1.3856    2.4000    0.0000 H   0  0  0  0  0  0  0  0  0  0  0  0
  1  2  1  0  0  0  0
  2  3  1  0  0  0  0
  2  4  1  0  0  0  0
  2  5  1  0  0  0  0
  5  6  1  0  0  0  0
  5  7  1  0  0  0  0
  5  8  1  0  0  0  0
  8  9  1  0  0  0  0
  8 10  1  0  0  0  0
  8 11  1  0  0  0  0
M  END
> <ChemID>
100197

> <source_casrn>
106-94-5

> <CAS>
106-94-5

> <SMILES>
CCCBr

> <NAME>
1-BROMOPROPANE

> <preferred_name>
1-Bromopropane

> <iupac>
1-bromopropane

> <MPID>
98757

> <dsstox_substance_id>
DTXSID6021874

> <Canonical_QSARr>
CCCBr

> <InChI_Code_QSARr>
InChI=1S/C3H7Br/c1-2-3-4/h2-3H2,1H3

> <InChI Key_QSARr>
CYNYIHKIEHGYOZ-UHFFFAOYSA-N

> <OH>
1.18E-12

> <OH Temperature>
25.0

> <OH Data Type>
EXP

> <OH Reference>
DONAGHY,T ET AL. (1993)

> <LogOH>
-11.928117992693885

$$$$
100200
  -INDIGO-08031719142D

 12 11  0  0  0  0  0  0  0  0999 V2000
    2.7713    0.0000    0.0000 C   0  0  0  0  0  0  0  0  0  0  0  0
    4.1569    0.8000    0.0000 H   0  0  0  0  0  0  0  0  0  0  0  0
    2.7713   -1.6000    0.0000 H   0  0  0  0  0  0  0  0  0  0  0  0
    1.3856    0.8000    0.0000 C   0  0  0  0  0  0  0  0  0  0  0  0
    1.3856    2.4000    0.0000 H   0  0  0  0  0  0  0  0  0  0  0  0
    0.0000    0.0000    0.0000 C   0  0  0  0  0  0  0  0  0  0  0  0
   -0.6123   -1.4782    0.0000 H   0  0  0  0  0  0  0  0  0  0  0  0
    0.6123   -1.4782    0.0000 H   0  0  0  0  0  0  0  0  0  0  0  0
   -1.3856    0.8000    0.0000 C   0  0  0  0  0  0  0  0  0  0  0  0
   -2.7713    1.6000    0.0000 H   0  0  0  0  0  0  0  0  0  0  0  0
   -2.7713    0.0000    0.0000 H   0  0  0  0  0  0  0  0  0  0  0  0
   -1.3856    2.4000    0.0000 H   0  0  0  0  0  0  0  0  0  0  0  0
  1  2  1  0  0  0  0
  1  3  1  0  0  0  0
  1  4  2  0  0  0  0
  4  5  1  0  0  0  0
  4  6  1  0  0  0  0
  6  7  1  0  0  0  0
  6  8  1  0  0  0  0
  6  9  1  0  0  0  0
  9 10  1  0  0  0  0
  9 11  1  0  0  0  0
  9 12  1  0  0  0  0
M  END
> <ChemID>
100200

> <source_casrn>
106-98-9

> <CAS>
106-98-9

> <SMILES>
CCC=C

> <NAME>
1-BUTENE

> <preferred_name>
1-Butene

> <iupac>
but-1-ene

> <MPID>
98759

> <dsstox_substance_id>
DTXSID1026746

> <Canonical_QSARr>
CCC=C

> <InChI_Code_QSARr>
InChI=1S/C4H8/c1-3-4-2/h3H,1,4H2,2H3

> <InChI Key_QSARr>
VXNZUUAINFGPBY-UHFFFAOYSA-N

> <OH>
3.139999999999999E-11

> <OH Temperature>
25.0

> <OH Data Type>
EXP

> <OH Reference>
KWOK,ESC & ATKINSON,R (1994)

> <LogOH>
-10.503070351926766

$$$$
100201
  -INDIGO-08031719142D

 10  9  0  0  0  0  0  0  0  0999 V2000
    1.3856   -0.8000    0.0000 C   0  0  0  0  0  0  0  0  0  0  0  0
    2.7713    0.0000    0.0000 H   0  0  0  0  0  0  0  0  0  0  0  0
    1.3856   -2.4000    0.0000 H   0  0  0  0  0  0  0  0  0  0  0  0
    0.0000    0.0000    0.0000 C   0  0  0  0  0  0  0  0  0  0  0  0
    0.0000    1.6000    0.0000 H   0  0  0  0  0  0  0  0  0  0  0  0
   -1.3856   -0.8000    0.0000 C   0  0  0  0  0  0  0  0  0  0  0  0
   -1.3856   -2.4000    0.0000 H   0  0  0  0  0  0  0  0  0  0  0  0
   -2.7713    0.0000    0.0000 C   0  0  0  0  0  0  0  0  0  0  0  0
   -4.1569   -0.8000    0.0000 H   0  0  0  0  0  0  0  0  0  0  0  0
   -2.7713    1.6000    0.0000 H   0  0  0  0  0  0  0  0  0  0  0  0
  1  2  1  0  0  0  0
  1  3  1  0  0  0  0
  1  4  2  0  0  0  0
  4  5  1  0  0  0  0
  4  6  1  0  0  0  0
  6  7  1  0  0  0  0
  6  8  2  0  0  0  0
  8  9  1  0  0  0  0
  8 10  1  0  0  0  0
M  END
> <ChemID>
100201

> <source_casrn>
106-99-0

> <CAS>
106-99-0

> <SMILES>
C=CC=C

> <NAME>
1,3-BUTADIENE

> <preferred_name>
1,3-Butadiene

> <iupac>
buta-1,3-diene

> <MPID>
98760

> <dsstox_substance_id>
DTXSID3020203

> <Canonical_QSARr>
C=CC=C

> <InChI_Code_QSARr>
InChI=1S/C4H6/c1-3-4-2/h3-4H,1-2H2

> <InChI Key_QSARr>
KAKZBPTYRLMSJV-UHFFFAOYSA-N

> <OH>
6.659999999999997E-11

> <OH Temperature>
25.0

> <OH Data Type>
EXP

> <OH Reference>
ATKINSON,R (1989)

> <LogOH>
-10.176525770829695

$$$$
100202
  -INDIGO-08031719142D

 10  9  0  0  0  0  0  0  0  0999 V2000
    2.7713   -1.6000    0.0000 C   0  0  0  0  0  0  0  0  0  0  0  0
    4.1569   -2.4000    0.0000 H   0  0  0  0  0  0  0  0  0  0  0  0
    1.3856   -0.8000    0.0000 C   0  0  0  0  0  0  0  0  0  0  0  0
    0.0000    0.0000    0.0000 C   0  0  0  0  0  0  0  0  0  0  0  0
   -0.6123    1.4782    0.0000 H   0  0  0  0  0  0  0  0  0  0  0  0
    0.6123    1.4782    0.0000 H   0  0  0  0  0  0  0  0  0  0  0  0
   -1.3856   -0.8000    0.0000 C   0  0  0  0  0  0  0  0  0  0  0  0
   -2.7713   -1.6000    0.0000 H   0  0  0  0  0  0  0  0  0  0  0  0
   -2.7713    0.0000    0.0000 H   0  0  0  0  0  0  0  0  0  0  0  0
   -1.3856   -2.4000    0.0000 H   0  0  0  0  0  0  0  0  0  0  0  0
  1  2  1  0  0  0  0
  1  3  3  0  0  0  0
  3  4  1  0  0  0  0
  4  5  1  0  0  0  0
  4  6  1  0  0  0  0
  4  7  1  0  0  0  0
  7  8  1  0  0  0  0
  7  9  1  0  0  0  0
  7 10  1  0  0  0  0
M  END
> <ChemID>
100202

> <source_casrn>
107-00-6

> <CAS>
107-00-6

> <SMILES>
CCC#C

> <NAME>
1-BUTYNE

> <preferred_name>
1-Butyne

> <iupac>
but-1-yne

> <MPID>
98761

> <dsstox_substance_id>
DTXSID4029141

> <Canonical_QSARr>
CCC#C

> <InChI_Code_QSARr>
InChI=1S/C4H6/c1-3-4-2/h1H,4H2,2H3

> <InChI Key_QSARr>
KDKYADYSIPSCCQ-UHFFFAOYSA-N

> <OH>
8.000000000000001E-12

> <OH Temperature>
25.0

> <OH Data Type>
EXP

> <OH Reference>
ATKINSON,R (1989)

> <LogOH>
-11.09691001300805

$$$$
100204
  -INDIGO-08031719142D

 12 11  0  0  0  0  0  0  0  0999 V2000
   -1.3856    0.8000    0.0000 C   0  0  0  0  0  0  0  0  0  0  0  0
   -0.7733    2.2782    0.0000 H   0  0  0  0  0  0  0  0  0  0  0  0
   -1.9980    2.2782    0.0000 H   0  0  0  0  0  0  0  0  0  0  0  0
    0.0000    0.0000    0.0000 C   0  0  0  0  0  0  0  0  0  0  0  0
   -0.6123   -1.4782    0.0000 H   0  0  0  0  0  0  0  0  0  0  0  0
    0.6123   -1.4782    0.0000 H   0  0  0  0  0  0  0  0  0  0  0  0
    1.3856    0.8000    0.0000 C   0  0  0  0  0  0  0  0  0  0  0  0
    2.7713    1.6000    0.0000 H   0  0  0  0  0  0  0  0  0  0  0  0
    2.7713    0.0000    0.0000 H   0  0  0  0  0  0  0  0  0  0  0  0
    1.3856    2.4000    0.0000 H   0  0  0  0  0  0  0  0  0  0  0  0
   -2.7713    0.0000    0.0000 S   0  0  0  0  0  0  0  0  0  0  0  0
   -4.1569    0.8000    0.0000 H   0  0  0  0  0  0  0  0  0  0  0  0
  1  2  1  0  0  0  0
  1  3  1  0  0  0  0
  1  4  1  0  0  0  0
  4  5  1  0  0  0  0
  4  6  1  0  0  0  0
  4  7  1  0  0  0  0
  7  8  1  0  0  0  0
  7  9  1  0  0  0  0
  7 10  1  0  0  0  0
  1 11  1  0  0  0  0
 11 12  1  0  0  0  0
M  END
> <ChemID>
100204

> <source_casrn>
107-03-9

> <CAS>
107-03-9

> <SMILES>
CCCS

> <NAME>
1-PROPANETHIOL

> <preferred_name>
1-Propanethiol

> <iupac>
propane-1-thiol

> <MPID>
98763

> <dsstox_substance_id>
DTXSID5026750

> <Canonical_QSARr>
CCCS

> <InChI_Code_QSARr>
InChI=1S/C3H8S/c1-2-3-4/h4H,2-3H2,1H3

> <InChI Key_QSARr>
SUVIGLJNEAMWEG-UHFFFAOYSA-N

> <OH>
4.829999999999998E-11

> <OH Temperature>
25.0

> <OH Data Type>
EXP

> <OH Reference>
ATKINSON,R (1989)

> <LogOH>
-10.316052869248479

$$$$
100205
  -INDIGO-08031719142D

  9  8  0  0  0  0  0  0  0  0999 V2000
    2.7713    0.0000    0.0000 C   0  0  0  0  0  0  0  0  0  0  0  0
    4.1569   -0.8000    0.0000 H   0  0  0  0  0  0  0  0  0  0  0  0
    2.7713    1.6000    0.0000 H   0  0  0  0  0  0  0  0  0  0  0  0
    1.3857   -0.8000    0.0000 C   0  0  0  0  0  0  0  0  0  0  0  0
    1.3857   -2.4000    0.0000 H   0  0  0  0  0  0  0  0  0  0  0  0
    0.0000    0.0000    0.0000 C   0  0  0  0  0  0  0  0  0  0  0  0
   -1.3856    0.8000    0.0000 H   0  0  0  0  0  0  0  0  0  0  0  0
    0.0000    1.6000    0.0000 H   0  0  0  0  0  0  0  0  0  0  0  0
   -1.3856   -0.8000    0.0000 Cl  0  0  0  0  0  0  0  0  0  0  0  0
  1  2  1  0  0  0  0
  1  3  1  0  0  0  0
  1  4  2  0  0  0  0
  4  5  1  0  0  0  0
  4  6  1  0  0  0  0
  6  7  1  0  0  0  0
  6  8  1  0  0  0  0
  6  9  1  0  0  0  0
M  END
> <ChemID>
100205

> <source_casrn>
107-05-1

> <CAS>
107-05-1

> <SMILES>
C=CCCl

> <NAME>
3-CHLOROPROPYLENE

> <preferred_name>
Allyl chloride

> <iupac>
3-chloroprop-1-ene

> <MPID>
98764

> <dsstox_substance_id>
DTXSID4039231

> <Canonical_QSARr>
C=CCCl

> <InChI_Code_QSARr>
InChI=1S/C3H5Cl/c1-2-3-4/h2H,1,3H2

> <InChI Key_QSARr>
OSDWBNJEKMUWAV-UHFFFAOYSA-N

> <OH>
1.7E-11

> <OH Temperature>
25.0

> <OH Data Type>
EXP

> <OH Reference>
ATKINSON,R (1989)

> <LogOH>
-10.769551078621712

$$$$
100206
  -INDIGO-08031719142D

  8  7  0  0  0  0  0  0  0  0999 V2000
    0.8000    1.3856    0.0000 Cl  0  0  0  0  0  0  0  0  0  0  0  0
    0.0000    0.0000    0.0000 C   0  0  0  0  0  0  0  0  0  0  0  0
    1.6000   -0.0000    0.0000 H   0  0  0  0  0  0  0  0  0  0  0  0
    0.8000   -1.3856    0.0000 H   0  0  0  0  0  0  0  0  0  0  0  0
   -1.6000    0.0000    0.0000 C   0  0  0  0  0  0  0  0  0  0  0  0
   -3.2000    0.0000    0.0000 H   0  0  0  0  0  0  0  0  0  0  0  0
   -2.4000   -1.3856    0.0000 H   0  0  0  0  0  0  0  0  0  0  0  0
   -2.4000    1.3856    0.0000 Cl  0  0  0  0  0  0  0  0  0  0  0  0
  1  2  1  0  0  0  0
  2  3  1  0  0  0  0
  2  4  1  0  0  0  0
  2  5  1  0  0  0  0
  5  6  1  0  0  0  0
  5  7  1  0  0  0  0
  5  8  1  0  0  0  0
M  END
> <ChemID>
100206

> <source_casrn>
107-06-2

> <CAS>
107-06-2

> <SMILES>
ClCCCl

> <NAME>
1,2-DICHLOROETHANE

> <preferred_name>
1,2-Dichloroethane

> <iupac>
C2H4Cl2

> <MPID>
98765

> <dsstox_substance_id>
DTXSID6020438

> <Canonical_QSARr>
ClCCCl

> <InChI_Code_QSARr>
InChI=1S/C2H4Cl2/c3-1-2-4/h1-2H2

> <InChI Key_QSARr>
WSLDOOZREJYCGB-UHFFFAOYSA-N

> <OH>
2.48E-13

> <OH Temperature>
25.0

> <OH Data Type>
EXP

> <OH Reference>
KWOK,ESC & ATKINSON,R (1994)

> <LogOH>
-12.605548319173781

$$$$
100208
  -INDIGO-08031719142D

  9  8  0  0  0  0  0  0  0  0999 V2000
    1.3856    0.8000    0.0000 C   0  0  0  0  0  0  0  0  0  0  0  0
    2.7713    1.6000    0.0000 H   0  0  0  0  0  0  0  0  0  0  0  0
    2.7713    0.0000    0.0000 H   0  0  0  0  0  0  0  0  0  0  0  0
    1.3856    2.4000    0.0000 H   0  0  0  0  0  0  0  0  0  0  0  0
    0.0000    0.0000    0.0000 C   0  0  0  0  0  0  0  0  0  0  0  0
    0.6123   -1.4782    0.0000 H   0  0  0  0  0  0  0  0  0  0  0  0
   -0.6123   -1.4782    0.0000 H   0  0  0  0  0  0  0  0  0  0  0  0
   -1.3856    0.8000    0.0000 C   0  0  0  0  0  0  0  0  0  0  0  0
   -2.7713    1.6000    0.0000 N   0  0  0  0  0  0  0  0  0  0  0  0
  1  2  1  0  0  0  0
  1  3  1  0  0  0  0
  1  4  1  0  0  0  0
  1  5  1  0  0  0  0
  5  6  1  0  0  0  0
  5  7  1  0  0  0  0
  5  8  1  0  0  0  0
  8  9  3  0  0  0  0
M  END
> <ChemID>
100208

> <source_casrn>
107-12-0

> <CAS>
107-12-0

> <SMILES>
CCC#N

> <NAME>
PROPIONITRILE

> <preferred_name>
Propionitrile

> <iupac>
propanenitrile

> <MPID>
98767

> <dsstox_substance_id>
DTXSID1021879

> <Canonical_QSARr>
CCC#N

> <InChI_Code_QSARr>
InChI=1S/C3H5N/c1-2-3-4/h2H2,1H3

> <InChI Key_QSARr>
FVSKHRXBFJPNKK-UHFFFAOYSA-N

> <OH>
1.94E-13

> <OH Temperature>
25.0

> <OH Data Type>
EXP

> <OH Reference>
KWOK,ESC & ATKINSON,R (1994)

> <LogOH>
-12.712198270069791

$$$$
100209
  -INDIGO-08031719142D

  7  6  0  0  0  0  0  0  0  0999 V2000
    0.0000   -1.6000    0.0000 C   0  0  0  0  0  0  0  0  0  0  0  0
    1.3856   -2.4000    0.0000 H   0  0  0  0  0  0  0  0  0  0  0  0
   -1.3856   -2.4000    0.0000 H   0  0  0  0  0  0  0  0  0  0  0  0
    0.0000    0.0000    0.0000 C   0  0  0  0  0  0  0  0  0  0  0  0
    1.3856    0.8000    0.0000 H   0  0  0  0  0  0  0  0  0  0  0  0
   -1.3856    0.8000    0.0000 C   0  0  0  0  0  0  0  0  0  0  0  0
   -2.7713    1.6000    0.0000 N   0  0  0  0  0  0  0  0  0  0  0  0
  1  2  1  0  0  0  0
  1  3  1  0  0  0  0
  1  4  2  0  0  0  0
  4  5  1  0  0  0  0
  4  6  1  0  0  0  0
  6  7  3  0  0  0  0
M  END
> <ChemID>
100209

> <source_casrn>
107-13-1

> <CAS>
107-13-1

> <SMILES>
C=CC#N

> <NAME>
ACRYLONITRILE

> <preferred_name>
Acrylonitrile

> <iupac>
prop-2-enenitrile

> <MPID>
98768

> <dsstox_substance_id>
DTXSID5020029

> <Canonical_QSARr>
C=CC#N

> <InChI_Code_QSARr>
InChI=1S/C3H3N/c1-2-3-4/h2H,1H2

> <InChI Key_QSARr>
NLHHRLWOUZZQLW-UHFFFAOYSA-N

> <OH>
4.099999999999999E-12

> <OH Temperature>
25.0

> <OH Data Type>
EXP

> <OH Reference>
KWOK,ESC & ATKINSON,R (1994)

> <LogOH>
-11.38721614328027

$$$$
100210
  -INDIGO-08031719142D

 10  9  0  0  0  0  0  0  0  0999 V2000
    2.7713    0.0000    0.0000 C   0  0  0  0  0  0  0  0  0  0  0  0
    4.1569    0.8000    0.0000 H   0  0  0  0  0  0  0  0  0  0  0  0
    2.7713   -1.6000    0.0000 H   0  0  0  0  0  0  0  0  0  0  0  0
    1.3856    0.8000    0.0000 C   0  0  0  0  0  0  0  0  0  0  0  0
    1.3856    2.4000    0.0000 H   0  0  0  0  0  0  0  0  0  0  0  0
    0.0000    0.0000    0.0000 C   0  0  0  0  0  0  0  0  0  0  0  0
    0.6123   -1.4782    0.0000 H   0  0  0  0  0  0  0  0  0  0  0  0
   -0.6123   -1.4782    0.0000 H   0  0  0  0  0  0  0  0  0  0  0  0
   -1.3856    0.8000    0.0000 O   0  0  0  0  0  0  0  0  0  0  0  0
   -2.7713    0.0000    0.0000 H   0  0  0  0  0  0  0  0  0  0  0  0
  1  2  1  0  0  0  0
  1  3  1  0  0  0  0
  1  4  2  0  0  0  0
  4  5  1  0  0  0  0
  4  6  1  0  0  0  0
  6  7  1  0  0  0  0
  6  8  1  0  0  0  0
  6  9  1  0  0  0  0
  9 10  1  0  0  0  0
M  END
> <ChemID>
100210

> <source_casrn>
107-18-6

> <CAS>
107-18-6

> <SMILES>
C=CCO

> <NAME>
ALLYL ALCOHOL

> <preferred_name>
Allyl alcohol

> <iupac>
prop-2-en-1-ol

> <MPID>
98769

> <dsstox_substance_id>
DTXSID8020044

> <Canonical_QSARr>
C=CCO

> <InChI_Code_QSARr>
InChI=1S/C3H6O/c1-2-3-4/h2,4H,1,3H2

> <InChI Key_QSARr>
XXROGKLTLUQVRX-UHFFFAOYSA-N

> <OH>
2.589999999999999E-11

> <OH Temperature>
25.0

> <OH Data Type>
EXP

> <OH Reference>
ATKINSON,R (1989)

> <LogOH>
-10.586700235918766

$$$$
100212
  -INDIGO-08031719142D

 10  9  0  0  0  0  0  0  0  0999 V2000
   -0.0000    0.0000    0.0000 C   0  0  0  0  0  0  0  0  0  0  0  0
    1.2693    0.9740    0.0000 H   0  0  0  0  0  0  0  0  0  0  0  0
    0.2089    1.5863    0.0000 H   0  0  0  0  0  0  0  0  0  0  0  0
   -1.6000    0.0000    0.0000 C   0  0  0  0  0  0  0  0  0  0  0  0
   -2.8693   -0.9740    0.0000 H   0  0  0  0  0  0  0  0  0  0  0  0
   -1.8089   -1.5863    0.0000 H   0  0  0  0  0  0  0  0  0  0  0  0
   -2.4000    1.3856    0.0000 O   0  0  0  0  0  0  0  0  0  0  0  0
   -4.0000    1.3856    0.0000 H   0  0  0  0  0  0  0  0  0  0  0  0
    0.8000   -1.3856    0.0000 O   0  0  0  0  0  0  0  0  0  0  0  0
    2.4000   -1.3856    0.0000 H   0  0  0  0  0  0  0  0  0  0  0  0
  1  2  1  0  0  0  0
  1  3  1  0  0  0  0
  1  4  1  0  0  0  0
  4  5  1  0  0  0  0
  4  6  1  0  0  0  0
  4  7  1  0  0  0  0
  7  8  1  0  0  0  0
  1  9  1  0  0  0  0
  9 10  1  0  0  0  0
M  END
> <ChemID>
100212

> <source_casrn>
107-21-1

> <CAS>
107-21-1

> <SMILES>
OCCO

> <NAME>
ETHYLENE GLYCOL

> <preferred_name>
Ethylene glycol

> <iupac>
C2H6O2

> <MPID>
98771

> <dsstox_substance_id>
DTXSID8020597

> <Canonical_QSARr>
OCCO

> <InChI_Code_QSARr>
InChI=1S/C2H6O2/c3-1-2-4/h3-4H,1-2H2

> <InChI Key_QSARr>
LYCAIKOWRPUZTN-UHFFFAOYSA-N

> <OH>
7.7E-12

> <OH Temperature>
25.0

> <OH Data Type>
EXP

> <OH Reference>
ATKINSON,R (1989)

> <LogOH>
-11.113509274827512

$$$$
100213
  -INDIGO-08031719142D

  6  5  0  0  0  0  0  0  0  0999 V2000
   -0.8000   -1.3856    0.0000 O   0  0  0  0  0  0  0  0  0  0  0  0
    0.0000    0.0000    0.0000 C   0  0  0  0  0  0  0  0  0  0  0  0
   -0.8000    1.3856    0.0000 H   0  0  0  0  0  0  0  0  0  0  0  0
    1.6000    0.0000    0.0000 C   0  0  0  0  0  0  0  0  0  0  0  0
    2.4000    1.3856    0.0000 H   0  0  0  0  0  0  0  0  0  0  0  0
    2.4000   -1.3856    0.0000 O   0  0  0  0  0  0  0  0  0  0  0  0
  1  2  2  0  0  0  0
  2  3  1  0  0  0  0
  2  4  1  0  0  0  0
  4  5  1  0  0  0  0
  4  6  2  0  0  0  0
M  END
> <ChemID>
100213

> <source_casrn>
107-22-2

> <CAS>
107-22-2

> <SMILES>
O=CC=O

> <NAME>
GLYOXAL

> <preferred_name>
Glyoxal

> <iupac>
ethanedial

> <MPID>
98772

> <dsstox_substance_id>
DTXSID5025364

> <Canonical_QSARr>
O=CC=O

> <InChI_Code_QSARr>
InChI=1S/C2H2O2/c3-1-2-4/h1-2H

> <InChI Key_QSARr>
LEQAOMBKQFMDFZ-UHFFFAOYSA-N

> <OH>
1.14E-11

> <OH Temperature>
25.0

> <OH Data Type>
EXP

> <OH Reference>
ATKINSON,R (1989)

> <LogOH>
-10.943095148663527

$$$$
100214
  -INDIGO-08031719142D

 10  9  0  0  0  0  0  0  0  0999 V2000
    2.7713    0.0000    0.0000 C   0  0  0  0  0  0  0  0  0  0  0  0
    2.7713    1.6000    0.0000 H   0  0  0  0  0  0  0  0  0  0  0  0
    4.1569   -0.8000    0.0000 C   0  0  0  0  0  0  0  0  0  0  0  0
    5.5426    0.0000    0.0000 H   0  0  0  0  0  0  0  0  0  0  0  0
    4.1569   -2.4000    0.0000 H   0  0  0  0  0  0  0  0  0  0  0  0
    1.3856   -0.8000    0.0000 O   0  0  0  0  0  0  0  0  0  0  0  0
    0.0000    0.0000    0.0000 C   0  0  0  0  0  0  0  0  0  0  0  0
   -1.3856    0.8000    0.0000 H   0  0  0  0  0  0  0  0  0  0  0  0
    0.0000    1.6000    0.0000 H   0  0  0  0  0  0  0  0  0  0  0  0
   -1.3856   -0.8000    0.0000 H   0  0  0  0  0  0  0  0  0  0  0  0
  1  2  1  0  0  0  0
  1  3  2  0  0  0  0
  3  4  1  0  0  0  0
  3  5  1  0  0  0  0
  1  6  1  0  0  0  0
  6  7  1  0  0  0  0
  7  8  1  0  0  0  0
  7  9  1  0  0  0  0
  7 10  1  0  0  0  0
M  END
> <ChemID>
100214

> <source_casrn>
107-25-5

> <CAS>
107-25-5

> <SMILES>
COC=C

> <NAME>
METHYLVINYLETHER

> <preferred_name>
Methoxyethene

> <iupac>
ethenyl methyl ether

> <MPID>
98773

> <dsstox_substance_id>
DTXSID4026761

> <Canonical_QSARr>
COC=C

> <InChI_Code_QSARr>
InChI=1S/C3H6O/c1-3-4-2/h3H,1H2,2H3

> <InChI Key_QSARr>
XJRBAMWJDBPFIM-UHFFFAOYSA-N

> <OH>
3.349999999999999E-11

> <OH Temperature>
26.0

> <OH Data Type>
EXP

> <OH Reference>
ATKINSON,R (1989)

> <LogOH>
-10.474955192963142

$$$$
100216
  -INDIGO-08031719142D

  8  7  0  0  0  0  0  0  0  0999 V2000
    2.7713    1.6000    0.0000 O   0  0  0  0  0  0  0  0  0  0  0  0
    2.7713    0.0000    0.0000 C   0  0  0  0  0  0  0  0  0  0  0  0
    4.1569   -0.8000    0.0000 H   0  0  0  0  0  0  0  0  0  0  0  0
    1.3857   -0.8000    0.0000 O   0  0  0  0  0  0  0  0  0  0  0  0
    0.0000    0.0000    0.0000 C   0  0  0  0  0  0  0  0  0  0  0  0
   -1.3856    0.8000    0.0000 H   0  0  0  0  0  0  0  0  0  0  0  0
    0.0000    1.6000    0.0000 H   0  0  0  0  0  0  0  0  0  0  0  0
   -1.3856   -0.8000    0.0000 H   0  0  0  0  0  0  0  0  0  0  0  0
  1  2  2  0  0  0  0
  2  3  1  0  0  0  0
  2  4  1  0  0  0  0
  4  5  1  0  0  0  0
  5  6  1  0  0  0  0
  5  7  1  0  0  0  0
  5  8  1  0  0  0  0
M  END
> <ChemID>
100216

> <source_casrn>
107-31-3

> <CAS>
107-31-3

> <SMILES>
COC=O

> <NAME>
METHYLFORMATE

> <preferred_name>
Methyl formate

> <iupac>
methyl formate

> <MPID>
98775

> <dsstox_substance_id>
DTXSID5025609

> <Canonical_QSARr>
COC=O

> <InChI_Code_QSARr>
InChI=1S/C2H4O2/c1-4-2-3/h2H,1H3

> <InChI Key_QSARr>
TZIHFWKZFHZASV-UHFFFAOYSA-N

> <OH>
2.270000000000001E-13

> <OH Temperature>
25.0

> <OH Data Type>
EXP

> <OH Reference>
KWOK,ESC & ATKINSON,R (1994)

> <LogOH>
-12.643974142806885

$$$$
100218
  -INDIGO-08031719142D

 27 26  0  0  0  0  0  0  0  0999 V2000
    0.0001   -0.0000    0.0000 Si  0  0  0  0  0  0  0  0  0  0  0  0
    1.3857   -0.8000    0.0000 O   0  0  0  0  0  0  0  0  0  0  0  0
    2.8891   -0.2528    0.0000 Si  0  0  0  0  0  0  0  0  0  0  0  0
    4.4892   -0.2528    0.0000 C   0  0  0  0  0  0  0  0  0  0  0  0
    6.0891   -0.2528    0.0000 H   0  0  0  0  0  0  0  0  0  0  0  0
    5.2891   -1.6384    0.0000 H   0  0  0  0  0  0  0  0  0  0  0  0
    5.5176    0.9729    0.0000 H   0  0  0  0  0  0  0  0  0  0  0  0
    2.8891   -1.8528    0.0000 C   0  0  0  0  0  0  0  0  0  0  0  0
    2.8891   -3.4528    0.0000 H   0  0  0  0  0  0  0  0  0  0  0  0
    1.5035   -2.6528    0.0000 H   0  0  0  0  0  0  0  0  0  0  0  0
    4.2748   -2.6528    0.0000 H   0  0  0  0  0  0  0  0  0  0  0  0
    2.8891    1.3473    0.0000 C   0  0  0  0  0  0  0  0  0  0  0  0
    4.1149    2.3757    0.0000 H   0  0  0  0  0  0  0  0  0  0  0  0
    4.3926    0.8000    0.0000 H   0  0  0  0  0  0  0  0  0  0  0  0
    1.6634    0.3188    0.0000 H   0  0  0  0  0  0  0  0  0  0  0  0
   -1.5036    0.5472    0.0000 C   0  0  0  0  0  0  0  0  0  0  0  0
   -3.0070    1.0944    0.0000 H   0  0  0  0  0  0  0  0  0  0  0  0
   -2.7291   -0.4813    0.0000 H   0  0  0  0  0  0  0  0  0  0  0  0
   -1.7813    2.1229    0.0000 H   0  0  0  0  0  0  0  0  0  0  0  0
    0.8000    1.3856    0.0000 C   0  0  0  0  0  0  0  0  0  0  0  0
    1.6000    2.7713    0.0000 H   0  0  0  0  0  0  0  0  0  0  0  0
    0.0001    2.7713    0.0000 H   0  0  0  0  0  0  0  0  0  0  0  0
   -0.8000    1.3856    0.0000 H   0  0  0  0  0  0  0  0  0  0  0  0
   -0.8000   -1.3857    0.0000 C   0  0  0  0  0  0  0  0  0  0  0  0
   -1.6000   -2.7712    0.0000 H   0  0  0  0  0  0  0  0  0  0  0  0
    0.0001   -2.7712    0.0000 H   0  0  0  0  0  0  0  0  0  0  0  0
   -2.4001   -1.3857    0.0000 H   0  0  0  0  0  0  0  0  0  0  0  0
  1  2  1  0  0  0  0
  2  3  1  0  0  0  0
  3  4  1  0  0  0  0
  4  5  1  0  0  0  0
  4  6  1  0  0  0  0
  4  7  1  0  0  0  0
  3  8  1  0  0  0  0
  8  9  1  0  0  0  0
  8 10  1  0  0  0  0
  8 11  1  0  0  0  0
  3 12  1  0  0  0  0
 12 13  1  0  0  0  0
 12 14  1  0  0  0  0
 12 15  1  0  0  0  0
  1 16  1  0  0  0  0
 16 17  1  0  0  0  0
 16 18  1  0  0  0  0
 16 19  1  0  0  0  0
  1 20  1  0  0  0  0
 20 21  1  0  0  0  0
 20 22  1  0  0  0  0
 20 23  1  0  0  0  0
  1 24  1  0  0  0  0
 24 25  1  0  0  0  0
 24 26  1  0  0  0  0
 24 27  1  0  0  0  0
M  END
> <ChemID>
100218

> <source_casrn>
107-46-0

> <CAS>
107-46-0

> <SMILES>
C[Si](C)(C)O[Si](C)(C)C

> <NAME>
HEXAMETHYLDISILOXANE

> <preferred_name>
Hexamethyldisiloxane

> <iupac>
hexamethyldisiloxane

> <MPID>
98776

> <dsstox_substance_id>
DTXSID4026769

> <Canonical_QSARr>
C[Si](C)(C)O[Si](C)(C)C

> <InChI_Code_QSARr>
InChI=1S/C6H18OSi2/c1-8(2,3)7-9(4,5)6/h1-6H3

> <InChI Key_QSARr>
UQEAIHBTYFGYIE-UHFFFAOYSA-N

> <OH>
1.38E-12

> <OH Temperature>
24.0

> <OH Data Type>
EXP

> <OH Reference>
ATKINSON,R (1991)

> <LogOH>
-11.860120913598747

$$$$
100220
  -INDIGO-08031719142D

 16 15  0  0  0  0  0  0  0  0999 V2000
    2.7713    0.0000    0.0000 C   0  0  0  0  0  0  0  0  0  0  0  0
    4.1569   -0.8000    0.0000 H   0  0  0  0  0  0  0  0  0  0  0  0
    4.1569    0.8000    0.0000 H   0  0  0  0  0  0  0  0  0  0  0  0
    2.7713   -1.6000    0.0000 H   0  0  0  0  0  0  0  0  0  0  0  0
    1.3856    0.8000    0.0000 C   0  0  0  0  0  0  0  0  0  0  0  0
    0.7734    2.2782    0.0000 H   0  0  0  0  0  0  0  0  0  0  0  0
    1.9979    2.2782    0.0000 H   0  0  0  0  0  0  0  0  0  0  0  0
    0.0001    0.0000    0.0000 C   0  0  0  0  0  0  0  0  0  0  0  0
    0.6123   -1.4782    0.0000 H   0  0  0  0  0  0  0  0  0  0  0  0
   -0.6123   -1.4782    0.0000 H   0  0  0  0  0  0  0  0  0  0  0  0
   -1.3856    0.8000    0.0000 C   0  0  0  0  0  0  0  0  0  0  0  0
   -1.3856    2.4000    0.0000 O   0  0  0  0  0  0  0  0  0  0  0  0
   -2.7713    0.0000    0.0000 C   0  0  0  0  0  0  0  0  0  0  0  0
   -4.1569   -0.8000    0.0000 H   0  0  0  0  0  0  0  0  0  0  0  0
   -4.1569    0.8000    0.0000 H   0  0  0  0  0  0  0  0  0  0  0  0
   -2.7713   -1.6000    0.0000 H   0  0  0  0  0  0  0  0  0  0  0  0
  1  2  1  0  0  0  0
  1  3  1  0  0  0  0
  1  4  1  0  0  0  0
  1  5  1  0  0  0  0
  5  6  1  0  0  0  0
  5  7  1  0  0  0  0
  5  8  1  0  0  0  0
  8  9  1  0  0  0  0
  8 10  1  0  0  0  0
  8 11  1  0  0  0  0
 11 12  2  0  0  0  0
 11 13  1  0  0  0  0
 13 14  1  0  0  0  0
 13 15  1  0  0  0  0
 13 16  1  0  0  0  0
M  END
> <ChemID>
100220

> <source_casrn>
107-87-9

> <CAS>
107-87-9

> <SMILES>
CCCC(C)=O

> <NAME>
2-PENTANONE

> <preferred_name>
2-Pentanone

> <iupac>
pentan-2-one

> <MPID>
98778

> <dsstox_substance_id>
DTXSID0021888

> <Canonical_QSARr>
CCCC(C)=O

> <InChI_Code_QSARr>
InChI=1S/C5H10O/c1-3-4-5(2)6/h3-4H2,1-2H3

> <InChI Key_QSARr>
XNLICIUVMPYHGG-UHFFFAOYSA-N

> <OH>
4.659999999999999E-12

> <OH Temperature>
25.0

> <OH Data Type>
EXP

> <OH Reference>
ATKINSON,R ET AL. (2000)

> <LogOH>
-11.33161408331

$$$$
100221
  -INDIGO-08031719142D

 14 13  0  0  0  0  0  0  0  0999 V2000
    4.1569    0.8000    0.0000 O   0  0  0  0  0  0  0  0  0  0  0  0
    5.5426    0.0000    0.0000 H   0  0  0  0  0  0  0  0  0  0  0  0
    2.7713    0.0000    0.0000 C   0  0  0  0  0  0  0  0  0  0  0  0
    1.3857    0.8000    0.0000 C   0  0  0  0  0  0  0  0  0  0  0  0
    0.7733    2.2782    0.0000 H   0  0  0  0  0  0  0  0  0  0  0  0
    1.9979    2.2782    0.0000 H   0  0  0  0  0  0  0  0  0  0  0  0
    0.0000    0.0000    0.0000 C   0  0  0  0  0  0  0  0  0  0  0  0
    0.6122   -1.4782    0.0000 H   0  0  0  0  0  0  0  0  0  0  0  0
   -0.6122   -1.4782    0.0000 H   0  0  0  0  0  0  0  0  0  0  0  0
   -1.3856    0.8000    0.0000 C   0  0  0  0  0  0  0  0  0  0  0  0
   -2.7713    1.6000    0.0000 H   0  0  0  0  0  0  0  0  0  0  0  0
   -2.7713    0.0000    0.0000 H   0  0  0  0  0  0  0  0  0  0  0  0
   -1.3856    2.4000    0.0000 H   0  0  0  0  0  0  0  0  0  0  0  0
    2.7713   -1.6000    0.0000 O   0  0  0  0  0  0  0  0  0  0  0  0
  1  2  1  0  0  0  0
  1  3  1  0  0  0  0
  3  4  1  0  0  0  0
  4  5  1  0  0  0  0
  4  6  1  0  0  0  0
  4  7  1  0  0  0  0
  7  8  1  0  0  0  0
  7  9  1  0  0  0  0
  7 10  1  0  0  0  0
 10 11  1  0  0  0  0
 10 12  1  0  0  0  0
 10 13  1  0  0  0  0
  3 14  2  0  0  0  0
M  END
> <ChemID>
100221

> <source_casrn>
107-92-6

> <CAS>
107-92-6

> <SMILES>
CCCC(O)=O

> <NAME>
BUTYRIC ACID

> <preferred_name>
Butanoic acid

> <iupac>
butanoic acid

> <MPID>
98779

> <dsstox_substance_id>
DTXSID8021515

> <Canonical_QSARr>
CCCC(O)=O

> <InChI_Code_QSARr>
InChI=1S/C4H8O2/c1-2-3-4(5)6/h2-3H2,1H3,(H,5,6)

> <InChI Key_QSARr>
FERIUCNNQQJTOY-UHFFFAOYSA-N

> <OH>
2.4E-12

> <OH Temperature>
25.0

> <OH Data Type>
EXP

> <OH Reference>
ATKINSON,R (1985)

> <LogOH>
-11.619788758288415

$$$$
100222
  -INDIGO-08031719142D

 16 15  0  0  0  0  0  0  0  0999 V2000
    0.8000    1.3857    0.0000 O   0  0  0  0  0  0  0  0  0  0  0  0
    2.4000    1.3857    0.0000 H   0  0  0  0  0  0  0  0  0  0  0  0
    0.0000    0.0000    0.0000 C   0  0  0  0  0  0  0  0  0  0  0  0
   -0.8000   -1.3857    0.0000 H   0  0  0  0  0  0  0  0  0  0  0  0
   -1.3856    0.8000    0.0000 C   0  0  0  0  0  0  0  0  0  0  0  0
   -0.7733    2.2782    0.0000 H   0  0  0  0  0  0  0  0  0  0  0  0
   -1.9979    2.2782    0.0000 H   0  0  0  0  0  0  0  0  0  0  0  0
   -2.7713    0.0000    0.0000 O   0  0  0  0  0  0  0  0  0  0  0  0
   -4.1569    0.8000    0.0000 C   0  0  0  0  0  0  0  0  0  0  0  0
   -5.5426    1.6000    0.0000 H   0  0  0  0  0  0  0  0  0  0  0  0
   -5.5426    0.0000    0.0000 H   0  0  0  0  0  0  0  0  0  0  0  0
   -4.1569    2.4000    0.0000 H   0  0  0  0  0  0  0  0  0  0  0  0
    1.3857   -0.8000    0.0000 C   0  0  0  0  0  0  0  0  0  0  0  0
    2.7713   -1.6000    0.0000 H   0  0  0  0  0  0  0  0  0  0  0  0
    2.7713    0.0000    0.0000 H   0  0  0  0  0  0  0  0  0  0  0  0
    1.3857   -2.4000    0.0000 H   0  0  0  0  0  0  0  0  0  0  0  0
  1  2  1  0  0  0  0
  1  3  1  0  0  0  0
  3  4  1  0  0  0  0
  3  5  1  0  0  0  0
  5  6  1  0  0  0  0
  5  7  1  0  0  0  0
  5  8  1  0  0  0  0
  8  9  1  0  0  0  0
  9 10  1  0  0  0  0
  9 11  1  0  0  0  0
  9 12  1  0  0  0  0
  3 13  1  0  0  0  0
 13 14  1  0  0  0  0
 13 15  1  0  0  0  0
 13 16  1  0  0  0  0
M  END
> <ChemID>
100222

> <source_casrn>
107-98-2

> <CAS>
107-98-2

> <SMILES>
COCC(C)O

> <NAME>
1-METHOXY-2-PROPANOL

> <preferred_name>
1-Methoxy-2-propanol

> <iupac>
1-methoxypropan-2-ol

> <MPID>
98780

> <dsstox_substance_id>
DTXSID8024284

> <Canonical_QSARr>
COCC(C)O

> <InChI_Code_QSARr>
InChI=1S/C4H10O2/c1-4(5)3-6-2/h4-5H,3H2,1-2H3

> <InChI Key_QSARr>
ARXJGSRGQADJSQ-UHFFFAOYSA-N

> <OH>
1.86E-11

> <OH Temperature>
25.0

> <OH Data Type>
EXP

> <OH Reference>
PORTER,E ET AL. (1997)

> <LogOH>
-10.730487055782087

$$$$
100224
  -INDIGO-08031719142D

 13 12  0  0  0  0  0  0  0  0999 V2000
   -2.7713   -1.6000    0.0000 O   0  0  0  0  0  0  0  0  0  0  0  0
   -2.7713    0.0000    0.0000 N   0  0  0  0  0  0  0  0  0  0  0  0
   -1.3856    0.8000    0.0000 C   0  0  0  0  0  0  0  0  0  0  0  0
   -0.7733    2.2782    0.0000 H   0  0  0  0  0  0  0  0  0  0  0  0
   -1.9980    2.2782    0.0000 H   0  0  0  0  0  0  0  0  0  0  0  0
    0.0000    0.0000    0.0000 C   0  0  0  0  0  0  0  0  0  0  0  0
   -0.6123   -1.4782    0.0000 H   0  0  0  0  0  0  0  0  0  0  0  0
    0.6123   -1.4782    0.0000 H   0  0  0  0  0  0  0  0  0  0  0  0
    1.3856    0.8000    0.0000 C   0  0  0  0  0  0  0  0  0  0  0  0
    2.7713    1.6000    0.0000 H   0  0  0  0  0  0  0  0  0  0  0  0
    2.7713    0.0000    0.0000 H   0  0  0  0  0  0  0  0  0  0  0  0
    1.3856    2.4000    0.0000 H   0  0  0  0  0  0  0  0  0  0  0  0
   -4.1569    0.8000    0.0000 O   0  0  0  0  0  0  0  0  0  0  0  0
  1  2  2  0  0  0  0
  2  3  1  0  0  0  0
  3  4  1  0  0  0  0
  3  5  1  0  0  0  0
  3  6  1  0  0  0  0
  6  7  1  0  0  0  0
  6  8  1  0  0  0  0
  6  9  1  0  0  0  0
  9 10  1  0  0  0  0
  9 11  1  0  0  0  0
  9 12  1  0  0  0  0
  2 13  1  0  0  0  0
M  CHG  2   2   1  13  -1
M  END
> <ChemID>
100224

> <source_casrn>
108-03-2

> <CAS>
108-03-2

> <SMILES>
CCC[N+]([O-])=O

> <NAME>
1-NITROPROPANE

> <preferred_name>
1-Nitropropane

> <iupac>
1-nitropropane

> <MPID>
98782

> <dsstox_substance_id>
DTXSID1020980

> <Canonical_QSARr>
CCC[N+]([O-])=O

> <InChI_Code_QSARr>
InChI=1S/C3H7NO2/c1-2-3-4(5)6/h2-3H2,1H3

> <InChI Key_QSARr>
JSZOAYXJRCEYSX-UHFFFAOYSA-N

> <OH>
4.4E-13

> <OH Temperature>
25.0

> <OH Data Type>
EXP

> <OH Reference>
KWOK,ESC & ATKINSON,R (1994)

> <LogOH>
-12.356547323513821

$$$$
100225
  -INDIGO-08031719142D

 12 11  0  0  0  0  0  0  0  0999 V2000
    0.0001    0.0000    0.0000 C   0  0  0  0  0  0  0  0  0  0  0  0
    1.3856    0.8000    0.0000 H   0  0  0  0  0  0  0  0  0  0  0  0
    0.0001    1.6000    0.0000 H   0  0  0  0  0  0  0  0  0  0  0  0
    1.3856   -0.8000    0.0000 H   0  0  0  0  0  0  0  0  0  0  0  0
   -1.3856   -0.8000    0.0000 C   0  0  0  0  0  0  0  0  0  0  0  0
   -1.3856   -2.4000    0.0000 O   0  0  0  0  0  0  0  0  0  0  0  0
   -2.7712    0.0000    0.0000 O   0  0  0  0  0  0  0  0  0  0  0  0
   -4.1569   -0.8000    0.0000 C   0  0  0  0  0  0  0  0  0  0  0  0
   -4.1569   -2.4000    0.0000 H   0  0  0  0  0  0  0  0  0  0  0  0
   -5.5425    0.0000    0.0000 C   0  0  0  0  0  0  0  0  0  0  0  0
   -6.9282   -0.8000    0.0000 H   0  0  0  0  0  0  0  0  0  0  0  0
   -5.5425    1.6000    0.0000 H   0  0  0  0  0  0  0  0  0  0  0  0
  1  2  1  0  0  0  0
  1  3  1  0  0  0  0
  1  4  1  0  0  0  0
  1  5  1  0  0  0  0
  5  6  2  0  0  0  0
  5  7  1  0  0  0  0
  7  8  1  0  0  0  0
  8  9  1  0  0  0  0
  8 10  2  0  0  0  0
 10 11  1  0  0  0  0
 10 12  1  0  0  0  0
M  END
> <ChemID>
100225

> <source_casrn>
108-05-4

> <CAS>
108-05-4

> <SMILES>
CC(=O)OC=C

> <NAME>
VINYL ACETATE

> <preferred_name>
Vinyl acetate

> <iupac>
ethenyl acetate

> <MPID>
98783

> <dsstox_substance_id>
DTXSID3021431

> <Canonical_QSARr>
CC(=O)OC=C

> <InChI_Code_QSARr>
InChI=1S/C4H6O2/c1-3-6-4(2)5/h3H,1H2,2H3

> <InChI Key_QSARr>
XTXRWKRVRITETP-UHFFFAOYSA-N

> <OH>
2.500000000000001E-11

> <OH Temperature>
25.0

> <OH Data Type>
EXP

> <OH Reference>
SAUNDERS,SM ET AL. (1993)

> <LogOH>
-10.60205999132794

$$$$
100226
  -INDIGO-08031719142D

 23 22  0  0  0  0  0  0  0  0999 V2000
    0.0001    0.0000    0.0000 C   0  0  0  0  0  0  0  0  0  0  0  0
    0.8000   -1.3856    0.0000 H   0  0  0  0  0  0  0  0  0  0  0  0
    1.5035    0.5472    0.0000 C   0  0  0  0  0  0  0  0  0  0  0  0
    1.1572    2.1093    0.0000 H   0  0  0  0  0  0  0  0  0  0  0  0
    2.3632    1.8966    0.0000 H   0  0  0  0  0  0  0  0  0  0  0  0
    2.7292   -0.4812    0.0000 C   0  0  0  0  0  0  0  0  0  0  0  0
    1.9292   -1.8669    0.0000 H   0  0  0  0  0  0  0  0  0  0  0  0
    3.9548   -1.5097    0.0000 C   0  0  0  0  0  0  0  0  0  0  0  0
    5.1806   -2.5382    0.0000 H   0  0  0  0  0  0  0  0  0  0  0  0
    5.4584   -0.9625    0.0000 H   0  0  0  0  0  0  0  0  0  0  0  0
    3.6771   -3.0854    0.0000 H   0  0  0  0  0  0  0  0  0  0  0  0
    3.7577    0.7444    0.0000 C   0  0  0  0  0  0  0  0  0  0  0  0
    4.7861    1.9701    0.0000 H   0  0  0  0  0  0  0  0  0  0  0  0
    3.4798    2.3202    0.0000 H   0  0  0  0  0  0  0  0  0  0  0  0
    5.3333    0.4666    0.0000 H   0  0  0  0  0  0  0  0  0  0  0  0
   -1.3857   -0.8000    0.0000 C   0  0  0  0  0  0  0  0  0  0  0  0
   -2.7713   -1.6000    0.0000 H   0  0  0  0  0  0  0  0  0  0  0  0
   -2.7713    0.0000    0.0000 H   0  0  0  0  0  0  0  0  0  0  0  0
   -1.3857   -2.4000    0.0000 H   0  0  0  0  0  0  0  0  0  0  0  0
   -0.8000    1.3856    0.0000 C   0  0  0  0  0  0  0  0  0  0  0  0
   -1.6000    2.7713    0.0000 H   0  0  0  0  0  0  0  0  0  0  0  0
    0.0001    2.7713    0.0000 H   0  0  0  0  0  0  0  0  0  0  0  0
   -2.4000    1.3856    0.0000 H   0  0  0  0  0  0  0  0  0  0  0  0
  1  2  1  0  0  0  0
  1  3  1  0  0  0  0
  3  4  1  0  0  0  0
  3  5  1  0  0  0  0
  3  6  1  0  0  0  0
  6  7  1  0  0  0  0
  6  8  1  0  0  0  0
  8  9  1  0  0  0  0
  8 10  1  0  0  0  0
  8 11  1  0  0  0  0
  6 12  1  0  0  0  0
 12 13  1  0  0  0  0
 12 14  1  0  0  0  0
 12 15  1  0  0  0  0
  1 16  1  0  0  0  0
 16 17  1  0  0  0  0
 16 18  1  0  0  0  0
 16 19  1  0  0  0  0
  1 20  1  0  0  0  0
 20 21  1  0  0  0  0
 20 22  1  0  0  0  0
 20 23  1  0  0  0  0
M  END
> <ChemID>
100226

> <source_casrn>
108-08-7

> <CAS>
108-08-7

> <SMILES>
CC(C)CC(C)C

> <NAME>
2,4-DIMETHYLPENTANE

> <preferred_name>
2,4-Dimethylpentane

> <iupac>
2,4-Dimethylpentane

> <MPID>
98784

> <dsstox_substance_id>
DTXSID2059358

> <Canonical_QSARr>
CC(C)CC(C)C

> <InChI_Code_QSARr>
InChI=1S/C7H16/c1-6(2)5-7(3)4/h6-7H,5H2,1-4H3

> <InChI Key_QSARr>
BZHMBWZPUJHVEE-UHFFFAOYSA-N

> <OH>
5.16E-12

> <OH Temperature>
25.0

> <OH Data Type>
EXP

> <OH Reference>
ATKINSON,R (1989)

> <LogOH>
-11.287350298372797

$$$$
100228
  -INDIGO-08031719142D

 21 20  0  0  0  0  0  0  0  0999 V2000
    0.8000    1.3856    0.0000 C   0  0  0  0  0  0  0  0  0  0  0  0
    1.6000    2.7713    0.0000 H   0  0  0  0  0  0  0  0  0  0  0  0
    0.0000    2.7713    0.0000 H   0  0  0  0  0  0  0  0  0  0  0  0
    2.4000    1.3856    0.0000 H   0  0  0  0  0  0  0  0  0  0  0  0
    0.0000    0.0000    0.0000 C   0  0  0  0  0  0  0  0  0  0  0  0
   -0.8000   -1.3856    0.0000 H   0  0  0  0  0  0  0  0  0  0  0  0
    1.3857   -0.8000    0.0000 C   0  0  0  0  0  0  0  0  0  0  0  0
    2.7713   -1.6000    0.0000 H   0  0  0  0  0  0  0  0  0  0  0  0
    2.7713    0.0000    0.0000 H   0  0  0  0  0  0  0  0  0  0  0  0
    1.3857   -2.4000    0.0000 H   0  0  0  0  0  0  0  0  0  0  0  0
   -1.3856    0.8000    0.0000 O   0  0  0  0  0  0  0  0  0  0  0  0
   -2.7713    0.0000    0.0000 C   0  0  0  0  0  0  0  0  0  0  0  0
   -1.9713   -1.3856    0.0000 H   0  0  0  0  0  0  0  0  0  0  0  0
   -4.1569   -0.8000    0.0000 C   0  0  0  0  0  0  0  0  0  0  0  0
   -5.5426   -1.6000    0.0000 H   0  0  0  0  0  0  0  0  0  0  0  0
   -5.5426    0.0000    0.0000 H   0  0  0  0  0  0  0  0  0  0  0  0
   -4.1569   -2.4000    0.0000 H   0  0  0  0  0  0  0  0  0  0  0  0
   -3.5713    1.3856    0.0000 C   0  0  0  0  0  0  0  0  0  0  0  0
   -4.3713    2.7713    0.0000 H   0  0  0  0  0  0  0  0  0  0  0  0
   -2.7713    2.7713    0.0000 H   0  0  0  0  0  0  0  0  0  0  0  0
   -5.1712    1.3856    0.0000 H   0  0  0  0  0  0  0  0  0  0  0  0
  1  2  1  0  0  0  0
  1  3  1  0  0  0  0
  1  4  1  0  0  0  0
  1  5  1  0  0  0  0
  5  6  1  0  0  0  0
  5  7  1  0  0  0  0
  7  8  1  0  0  0  0
  7  9  1  0  0  0  0
  7 10  1  0  0  0  0
  5 11  1  0  0  0  0
 11 12  1  0  0  0  0
 12 13  1  0  0  0  0
 12 14  1  0  0  0  0
 14 15  1  0  0  0  0
 14 16  1  0  0  0  0
 14 17  1  0  0  0  0
 12 18  1  0  0  0  0
 18 19  1  0  0  0  0
 18 20  1  0  0  0  0
 18 21  1  0  0  0  0
M  END
> <ChemID>
100228

> <source_casrn>
108-20-3

> <CAS>
108-20-3

> <SMILES>
CC(C)OC(C)C

> <NAME>
DI-ISOPROPYL ETHER

> <preferred_name>
Isopropyl ether

> <iupac>
dipropan-2-yl ether

> <MPID>
98786

> <dsstox_substance_id>
DTXSID4021890

> <Canonical_QSARr>
CC(C)OC(C)C

> <InChI_Code_QSARr>
InChI=1S/C6H14O/c1-5(2)7-6(3)4/h5-6H,1-4H3

> <InChI Key_QSARr>
ZAFNJMIOTHYJRJ-UHFFFAOYSA-N

> <OH>
1.02E-11

> <OH Temperature>
25.0

> <OH Data Type>
EXP

> <OH Reference>
KWOK,ESC & ATKINSON,R (1994)

> <LogOH>
-10.991399828238071

$$$$
100229
  -INDIGO-08031719142D

 17 16  0  0  0  0  0  0  0  0999 V2000
   -1.3857    0.8000    0.0000 O   0  0  0  0  0  0  0  0  0  0  0  0
   -0.0001   -0.0000    0.0000 C   0  0  0  0  0  0  0  0  0  0  0  0
    1.3856   -0.8000    0.0000 H   0  0  0  0  0  0  0  0  0  0  0  0
    0.8000    1.3856    0.0000 C   0  0  0  0  0  0  0  0  0  0  0  0
    1.5999    2.7713    0.0000 H   0  0  0  0  0  0  0  0  0  0  0  0
    2.4000    1.3856    0.0000 H   0  0  0  0  0  0  0  0  0  0  0  0
   -0.0001    2.7713    0.0000 H   0  0  0  0  0  0  0  0  0  0  0  0
   -0.5472   -1.5035    0.0000 C   0  0  0  0  0  0  0  0  0  0  0  0
   -1.0945   -3.0070    0.0000 H   0  0  0  0  0  0  0  0  0  0  0  0
    0.4813   -2.7292    0.0000 H   0  0  0  0  0  0  0  0  0  0  0  0
   -2.1230   -1.7813    0.0000 H   0  0  0  0  0  0  0  0  0  0  0  0
   -2.8891    0.2528    0.0000 C   0  0  0  0  0  0  0  0  0  0  0  0
   -4.1149    1.2812    0.0000 C   0  0  0  0  0  0  0  0  0  0  0  0
   -5.3405    2.3097    0.0000 H   0  0  0  0  0  0  0  0  0  0  0  0
   -5.6183    0.7340    0.0000 H   0  0  0  0  0  0  0  0  0  0  0  0
   -3.8370    2.8569    0.0000 H   0  0  0  0  0  0  0  0  0  0  0  0
   -3.1670   -1.3230    0.0000 O   0  0  0  0  0  0  0  0  0  0  0  0
  1  2  1  0  0  0  0
  2  3  1  0  0  0  0
  2  4  1  0  0  0  0
  4  5  1  0  0  0  0
  4  6  1  0  0  0  0
  4  7  1  0  0  0  0
  2  8  1  0  0  0  0
  8  9  1  0  0  0  0
  8 10  1  0  0  0  0
  8 11  1  0  0  0  0
  1 12  1  0  0  0  0
 12 13  1  0  0  0  0
 13 14  1  0  0  0  0
 13 15  1  0  0  0  0
 13 16  1  0  0  0  0
 12 17  2  0  0  0  0
M  END
> <ChemID>
100229

> <source_casrn>
108-21-4

> <CAS>
108-21-4

> <SMILES>
CC(C)OC(C)=O

> <NAME>
ISOPROPYL ACETATE

> <preferred_name>
Isopropyl acetate

> <iupac>
propan-2-yl acetate

> <MPID>
98787

> <dsstox_substance_id>
DTXSID2025478

> <Canonical_QSARr>
CC(C)OC(C)=O

> <InChI_Code_QSARr>
InChI=1S/C5H10O2/c1-4(2)7-5(3)6/h4H,1-3H3

> <InChI Key_QSARr>
JMMWKPVZQRWMSS-UHFFFAOYSA-N

> <OH>
3.4E-12

> <OH Temperature>
25.0

> <OH Data Type>
EXP

> <OH Reference>
ATKINSON,R (1989)

> <LogOH>
-11.468521082957729

$$$$
100230
  -INDIGO-08031719142D

 15 14  0  0  0  0  0  0  0  0999 V2000
   -2.7713   -0.0000    0.0000 C   0  0  0  0  0  0  0  0  0  0  0  0
   -2.7713   -1.6000    0.0000 O   0  0  0  0  0  0  0  0  0  0  0  0
   -1.3857    0.8000    0.0000 O   0  0  0  0  0  0  0  0  0  0  0  0
    0.0000    0.0000    0.0000 C   0  0  0  0  0  0  0  0  0  0  0  0
    0.0000   -1.6000    0.0000 C   0  0  0  0  0  0  0  0  0  0  0  0
   -1.3856   -2.4000    0.0000 H   0  0  0  0  0  0  0  0  0  0  0  0
    1.3856   -2.4000    0.0000 H   0  0  0  0  0  0  0  0  0  0  0  0
    1.3856    0.8000    0.0000 C   0  0  0  0  0  0  0  0  0  0  0  0
    2.7713    1.6000    0.0000 H   0  0  0  0  0  0  0  0  0  0  0  0
    2.7713    0.0000    0.0000 H   0  0  0  0  0  0  0  0  0  0  0  0
    1.3856    2.4000    0.0000 H   0  0  0  0  0  0  0  0  0  0  0  0
   -4.1569    0.8000    0.0000 C   0  0  0  0  0  0  0  0  0  0  0  0
   -5.5426    1.6000    0.0000 H   0  0  0  0  0  0  0  0  0  0  0  0
   -5.5426   -0.0000    0.0000 H   0  0  0  0  0  0  0  0  0  0  0  0
   -4.1569    2.4000    0.0000 H   0  0  0  0  0  0  0  0  0  0  0  0
  1  2  2  0  0  0  0
  1  3  1  0  0  0  0
  3  4  1  0  0  0  0
  4  5  2  0  0  0  0
  5  6  1  0  0  0  0
  5  7  1  0  0  0  0
  4  8  1  0  0  0  0
  8  9  1  0  0  0  0
  8 10  1  0  0  0  0
  8 11  1  0  0  0  0
  1 12  1  0  0  0  0
 12 13  1  0  0  0  0
 12 14  1  0  0  0  0
 12 15  1  0  0  0  0
M  END
> <ChemID>
100230

> <source_casrn>
108-22-5

> <CAS>
108-22-5

> <SMILES>
CC(=O)OC(C)=C

> <NAME>
1-PROPEN-2-OL ACETATE

> <preferred_name>
Isopropenyl acetate

> <iupac>
prop-1-en-2-yl acetate

> <MPID>
98788

> <dsstox_substance_id>
DTXSID3031492

> <Canonical_QSARr>
CC(=O)OC(C)=C

> <InChI_Code_QSARr>
InChI=1S/C5H8O2/c1-4(2)7-5(3)6/h1H2,2-3H3

> <InChI Key_QSARr>
HETCEOQFVDFGSY-UHFFFAOYSA-N

> <OH>
6.959999999999998E-11

> <OH Temperature>
25.0

> <OH Data Type>
EXP

> <OH Reference>
LECALVE,S ET AL. (2000)

> <LogOH>
-10.157390760389447

$$$$
100232
  -INDIGO-08031719142D

 18 18  0  0  0  0  0  0  0  0999 V2000
    2.7713    1.6000    0.0000 C   0  0  0  0  0  0  0  0  0  0  0  0
    4.1570    2.4000    0.0000 H   0  0  0  0  0  0  0  0  0  0  0  0
    2.7713    0.0000    0.0000 C   0  0  0  0  0  0  0  0  0  0  0  0
    4.1570   -0.8000    0.0000 C   0  0  0  0  0  0  0  0  0  0  0  0
    5.5426   -1.6000    0.0000 H   0  0  0  0  0  0  0  0  0  0  0  0
    5.5426    0.0000    0.0000 H   0  0  0  0  0  0  0  0  0  0  0  0
    4.1570   -2.4000    0.0000 H   0  0  0  0  0  0  0  0  0  0  0  0
    1.3857   -0.8000    0.0000 C   0  0  0  0  0  0  0  0  0  0  0  0
    1.3857   -2.4000    0.0000 H   0  0  0  0  0  0  0  0  0  0  0  0
    0.0000    0.0000    0.0000 C   0  0  0  0  0  0  0  0  0  0  0  0
   -1.3857   -0.8000    0.0000 C   0  0  0  0  0  0  0  0  0  0  0  0
   -2.7713   -1.6000    0.0000 H   0  0  0  0  0  0  0  0  0  0  0  0
   -2.7713    0.0000    0.0000 H   0  0  0  0  0  0  0  0  0  0  0  0
   -1.3857   -2.4000    0.0000 H   0  0  0  0  0  0  0  0  0  0  0  0
    0.0000    1.6000    0.0000 C   0  0  0  0  0  0  0  0  0  0  0  0
   -1.3856    2.4000    0.0000 H   0  0  0  0  0  0  0  0  0  0  0  0
    1.3857    2.4000    0.0000 C   0  0  0  0  0  0  0  0  0  0  0  0
    1.3857    4.0000    0.0000 H   0  0  0  0  0  0  0  0  0  0  0  0
  1  2  1  0  0  0  0
  1  3  1  0  0  0  0
  3  4  1  0  0  0  0
  4  5  1  0  0  0  0
  4  6  1  0  0  0  0
  4  7  1  0  0  0  0
  3  8  2  0  0  0  0
  8  9  1  0  0  0  0
  8 10  1  0  0  0  0
 10 11  1  0  0  0  0
 11 12  1  0  0  0  0
 11 13  1  0  0  0  0
 11 14  1  0  0  0  0
 10 15  2  0  0  0  0
 15 16  1  0  0  0  0
 15 17  1  0  0  0  0
 17  1  2  0  0  0  0
 17 18  1  0  0  0  0
M  END
> <ChemID>
100232

> <source_casrn>
108-38-3

> <CAS>
108-38-3

> <SMILES>
Cc1cc(C)ccc1

> <NAME>
M-XYLENE

> <preferred_name>
m-Xylene

> <iupac>
C8H10

> <MPID>
98790

> <dsstox_substance_id>
DTXSID6026298

> <Canonical_QSARr>
Cc1cc(C)ccc1

> <InChI_Code_QSARr>
InChI=1S/C8H10/c1-7-4-3-5-8(2)6-7/h3-6H,1-2H3

> <InChI Key_QSARr>
IVSZLXZYQVIEFR-UHFFFAOYSA-N

> <OH>
2.36E-11

> <OH Temperature>
25.0

> <OH Data Type>
EXP

> <OH Reference>
ATKINSON,R (1989)

> <LogOH>
-10.627087997029898

$$$$
100233
  -INDIGO-08031719142D

 16 16  0  0  0  0  0  0  0  0999 V2000
   -0.7999    1.3856    0.0000 C   0  0  0  0  0  0  0  0  0  0  0  0
    0.0000    2.7713    0.0000 H   0  0  0  0  0  0  0  0  0  0  0  0
   -2.3999    1.3856    0.0000 C   0  0  0  0  0  0  0  0  0  0  0  0
   -3.2000    2.7713    0.0000 O   0  0  0  0  0  0  0  0  0  0  0  0
   -4.8000    2.7713    0.0000 H   0  0  0  0  0  0  0  0  0  0  0  0
   -3.2000    0.0000    0.0000 C   0  0  0  0  0  0  0  0  0  0  0  0
   -4.8000    0.0000    0.0000 H   0  0  0  0  0  0  0  0  0  0  0  0
   -2.3999   -1.3856    0.0000 C   0  0  0  0  0  0  0  0  0  0  0  0
   -3.2000   -2.7713    0.0000 H   0  0  0  0  0  0  0  0  0  0  0  0
   -0.7999   -1.3856    0.0000 C   0  0  0  0  0  0  0  0  0  0  0  0
    0.0000   -2.7713    0.0000 H   0  0  0  0  0  0  0  0  0  0  0  0
    0.0000   -0.0000    0.0000 C   0  0  0  0  0  0  0  0  0  0  0  0
    1.6000    0.0000    0.0000 C   0  0  0  0  0  0  0  0  0  0  0  0
    3.2000    0.0000    0.0000 H   0  0  0  0  0  0  0  0  0  0  0  0
    2.4001   -1.3856    0.0000 H   0  0  0  0  0  0  0  0  0  0  0  0
    2.4001    1.3856    0.0000 H   0  0  0  0  0  0  0  0  0  0  0  0
  1  2  1  0  0  0  0
  1  3  1  0  0  0  0
  3  4  1  0  0  0  0
  4  5  1  0  0  0  0
  3  6  2  0  0  0  0
  6  7  1  0  0  0  0
  6  8  1  0  0  0  0
  8  9  1  0  0  0  0
  8 10  2  0  0  0  0
 10 11  1  0  0  0  0
 10 12  1  0  0  0  0
 12  1  2  0  0  0  0
 12 13  1  0  0  0  0
 13 14  1  0  0  0  0
 13 15  1  0  0  0  0
 13 16  1  0  0  0  0
M  END
> <ChemID>
100233

> <source_casrn>
108-39-4

> <CAS>
108-39-4

> <SMILES>
Cc1cc(O)ccc1

> <NAME>
M-CRESOL

> <preferred_name>
m-Cresol

> <iupac>
3-methylphenol

> <MPID>
98791

> <dsstox_substance_id>
DTXSID6024200

> <Canonical_QSARr>
Cc1cc(O)ccc1

> <InChI_Code_QSARr>
InChI=1S/C7H8O/c1-6-3-2-4-7(8)5-6/h2-5,8H,1H3

> <InChI Key_QSARr>
RLSSMJSEOOYNOY-UHFFFAOYSA-N

> <OH>
6.400000000000001E-11

> <OH Temperature>
25.0

> <OH Data Type>
EXP

> <OH Reference>
ATKINSON,R (1989)

> <LogOH>
-10.193820026016121

$$$$
100236
  -INDIGO-08031719142D

 19 19  0  0  0  0  0  0  0  0999 V2000
    1.6000    0.0000    0.0000 C   0  0  0  0  0  0  0  0  0  0  0  0
    3.2000    0.0000    0.0000 H   0  0  0  0  0  0  0  0  0  0  0  0
    2.4001   -1.3856    0.0000 H   0  0  0  0  0  0  0  0  0  0  0  0
    2.4001    1.3856    0.0000 H   0  0  0  0  0  0  0  0  0  0  0  0
    0.0000    0.0000    0.0000 C   0  0  0  0  0  0  0  0  0  0  0  0
   -0.7999    1.3856    0.0000 C   0  0  0  0  0  0  0  0  0  0  0  0
    0.0000    2.7713    0.0000 H   0  0  0  0  0  0  0  0  0  0  0  0
   -2.3999    1.3856    0.0000 C   0  0  0  0  0  0  0  0  0  0  0  0
   -3.2000    2.7713    0.0000 C   0  0  0  0  0  0  0  0  0  0  0  0
   -3.9999    4.1569    0.0000 H   0  0  0  0  0  0  0  0  0  0  0  0
   -4.8000    2.7713    0.0000 H   0  0  0  0  0  0  0  0  0  0  0  0
   -2.3999    4.1569    0.0000 H   0  0  0  0  0  0  0  0  0  0  0  0
   -3.2000    0.0000    0.0000 C   0  0  0  0  0  0  0  0  0  0  0  0
   -4.8000    0.0000    0.0000 H   0  0  0  0  0  0  0  0  0  0  0  0
   -2.3999   -1.3856    0.0000 C   0  0  0  0  0  0  0  0  0  0  0  0
   -3.2000   -2.7713    0.0000 O   0  0  0  0  0  0  0  0  0  0  0  0
   -4.8000   -2.7713    0.0000 H   0  0  0  0  0  0  0  0  0  0  0  0
   -0.7999   -1.3856    0.0000 C   0  0  0  0  0  0  0  0  0  0  0  0
    0.0000   -2.7713    0.0000 H   0  0  0  0  0  0  0  0  0  0  0  0
  1  2  1  0  0  0  0
  1  3  1  0  0  0  0
  1  4  1  0  0  0  0
  1  5  1  0  0  0  0
  5  6  1  0  0  0  0
  6  7  1  0  0  0  0
  6  8  2  0  0  0  0
  8  9  1  0  0  0  0
  9 10  1  0  0  0  0
  9 11  1  0  0  0  0
  9 12  1  0  0  0  0
  8 13  1  0  0  0  0
 13 14  1  0  0  0  0
 13 15  2  0  0  0  0
 15 16  1  0  0  0  0
 16 17  1  0  0  0  0
 15 18  1  0  0  0  0
 18  5  2  0  0  0  0
 18 19  1  0  0  0  0
M  END
> <ChemID>
100236

> <source_casrn>
108-68-9

> <CAS>
108-68-9

> <SMILES>
Cc1cc(O)cc(C)c1

> <NAME>
3,5-DIMETHYLPHENOL

> <preferred_name>
3,5-Dimethylphenol

> <iupac>
3,5-dimethylphenol

> <MPID>
98793

> <dsstox_substance_id>
DTXSID1025148

> <Canonical_QSARr>
Cc1cc(O)cc(C)c1

> <InChI_Code_QSARr>
InChI=1S/C8H10O/c1-6-3-7(2)5-8(9)4-6/h3-5,9H,1-2H3

> <InChI Key_QSARr>
TUAMRELNJMMDMT-UHFFFAOYSA-N

> <OH>
1.13E-10

> <OH Temperature>
25.0

> <OH Data Type>
EXP

> <OH Reference>
KWOK,ESC & ATKINSON,R (1994)

> <LogOH>
-9.946921556516577

$$$$
100237
  -INDIGO-08031719142D

 28 27  0  0  0  0  0  0  0  0999 V2000
    2.4514   -2.0569    0.0000 O   0  0  0  0  0  0  0  0  0  0  0  0
    2.7291   -0.4812    0.0000 C   0  0  0  0  0  0  0  0  0  0  0  0
    4.2328    0.0660    0.0000 C   0  0  0  0  0  0  0  0  0  0  0  0
    3.8865    1.6281    0.0000 H   0  0  0  0  0  0  0  0  0  0  0  0
    5.0924    1.4154    0.0000 H   0  0  0  0  0  0  0  0  0  0  0  0
    5.4583   -0.9625    0.0000 C   0  0  0  0  0  0  0  0  0  0  0  0
    4.2328   -1.9909    0.0000 H   0  0  0  0  0  0  0  0  0  0  0  0
    6.4869   -2.1881    0.0000 C   0  0  0  0  0  0  0  0  0  0  0  0
    7.5153   -3.4138    0.0000 H   0  0  0  0  0  0  0  0  0  0  0  0
    8.0625   -1.9103    0.0000 H   0  0  0  0  0  0  0  0  0  0  0  0
    5.9396   -3.6916    0.0000 H   0  0  0  0  0  0  0  0  0  0  0  0
    6.6841    0.0660    0.0000 C   0  0  0  0  0  0  0  0  0  0  0  0
    7.9096    1.0945    0.0000 H   0  0  0  0  0  0  0  0  0  0  0  0
    6.4061    1.6417    0.0000 H   0  0  0  0  0  0  0  0  0  0  0  0
    8.1875   -0.4812    0.0000 H   0  0  0  0  0  0  0  0  0  0  0  0
    1.5036    0.5473    0.0000 C   0  0  0  0  0  0  0  0  0  0  0  0
    1.1572    2.1093    0.0000 H   0  0  0  0  0  0  0  0  0  0  0  0
    2.3632    1.8966    0.0000 H   0  0  0  0  0  0  0  0  0  0  0  0
    0.0001    0.0000    0.0000 C   0  0  0  0  0  0  0  0  0  0  0  0
    0.8001   -1.3857    0.0000 H   0  0  0  0  0  0  0  0  0  0  0  0
   -1.3857   -0.8000    0.0000 C   0  0  0  0  0  0  0  0  0  0  0  0
   -2.7713   -1.6000    0.0000 H   0  0  0  0  0  0  0  0  0  0  0  0
   -2.7713    0.0000    0.0000 H   0  0  0  0  0  0  0  0  0  0  0  0
   -1.3857   -2.4000    0.0000 H   0  0  0  0  0  0  0  0  0  0  0  0
   -0.8001    1.3856    0.0000 C   0  0  0  0  0  0  0  0  0  0  0  0
   -1.6001    2.7713    0.0000 H   0  0  0  0  0  0  0  0  0  0  0  0
    0.0001    2.7713    0.0000 H   0  0  0  0  0  0  0  0  0  0  0  0
   -2.4001    1.3856    0.0000 H   0  0  0  0  0  0  0  0  0  0  0  0
  1  2  2  0  0  0  0
  2  3  1  0  0  0  0
  3  4  1  0  0  0  0
  3  5  1  0  0  0  0
  3  6  1  0  0  0  0
  6  7  1  0  0  0  0
  6  8  1  0  0  0  0
  8  9  1  0  0  0  0
  8 10  1  0  0  0  0
  8 11  1  0  0  0  0
  6 12  1  0  0  0  0
 12 13  1  0  0  0  0
 12 14  1  0  0  0  0
 12 15  1  0  0  0  0
  2 16  1  0  0  0  0
 16 17  1  0  0  0  0
 16 18  1  0  0  0  0
 16 19  1  0  0  0  0
 19 20  1  0  0  0  0
 19 21  1  0  0  0  0
 21 22  1  0  0  0  0
 21 23  1  0  0  0  0
 21 24  1  0  0  0  0
 19 25  1  0  0  0  0
 25 26  1  0  0  0  0
 25 27  1  0  0  0  0
 25 28  1  0  0  0  0
M  END
> <ChemID>
100237

> <source_casrn>
108-83-8

> <CAS>
108-83-8

> <SMILES>
CC(C)CC(=O)CC(C)C

> <NAME>
2,6-DIMETHYL-4-HEPTANONE

> <preferred_name>
Diisobutyl ketone

> <iupac>
2,6-dimethylheptan-4-one

> <MPID>
98794

> <dsstox_substance_id>
DTXSID4025080

> <Canonical_QSARr>
CC(C)CC(=O)CC(C)C

> <InChI_Code_QSARr>
InChI=1S/C9H18O/c1-7(2)5-9(10)6-8(3)4/h7-8H,5-6H2,1-4H3

> <InChI Key_QSARr>
PTTPXKJBFFKCEK-UHFFFAOYSA-N

> <OH>
2.6E-11

> <OH Temperature>
25.0

> <OH Data Type>
EXP

> <OH Reference>
ATKINSON,R & AREY,J (2003)

> <LogOH>
-10.585026652029196

$$$$
100238
  -INDIGO-08031719142D

 12 12  0  0  0  0  0  0  0  0999 V2000
   -0.0000   -0.0000    0.0000 C   0  0  0  0  0  0  0  0  0  0  0  0
    0.8000   -1.3857    0.0000 C   0  0  0  0  0  0  0  0  0  0  0  0
    2.4000   -1.3857    0.0000 H   0  0  0  0  0  0  0  0  0  0  0  0
   -0.0000   -2.7713    0.0000 C   0  0  0  0  0  0  0  0  0  0  0  0
    0.8000   -4.1569    0.0000 H   0  0  0  0  0  0  0  0  0  0  0  0
   -1.6000   -2.7713    0.0000 C   0  0  0  0  0  0  0  0  0  0  0  0
   -2.4000   -4.1569    0.0000 H   0  0  0  0  0  0  0  0  0  0  0  0
   -2.4000   -1.3856    0.0000 C   0  0  0  0  0  0  0  0  0  0  0  0
   -4.0000   -1.3856    0.0000 H   0  0  0  0  0  0  0  0  0  0  0  0
   -1.6000   -0.0000    0.0000 C   0  0  0  0  0  0  0  0  0  0  0  0
   -2.4000    1.3856    0.0000 H   0  0  0  0  0  0  0  0  0  0  0  0
    0.8000    1.3856    0.0000 Br  0  0  0  0  0  0  0  0  0  0  0  0
  1  2  1  0  0  0  0
  2  3  1  0  0  0  0
  2  4  2  0  0  0  0
  4  5  1  0  0  0  0
  4  6  1  0  0  0  0
  6  7  1  0  0  0  0
  6  8  2  0  0  0  0
  8  9  1  0  0  0  0
  8 10  1  0  0  0  0
 10  1  2  0  0  0  0
 10 11  1  0  0  0  0
  1 12  1  0  0  0  0
M  END
> <ChemID>
100238

> <source_casrn>
108-86-1

> <CAS>
108-86-1

> <SMILES>
Brc1ccccc1

> <NAME>
BROMOBENZENE

> <preferred_name>
Bromobenzene

> <iupac>
bromobenzene

> <MPID>
98795

> <dsstox_substance_id>
DTXSID5024637

> <Canonical_QSARr>
Brc1ccccc1

> <InChI_Code_QSARr>
InChI=1S/C6H5Br/c7-6-4-2-1-3-5-6/h1-5H

> <InChI Key_QSARr>
QARVLSVVCXYDNA-UHFFFAOYSA-N

> <OH>
7.7E-13

> <OH Temperature>
25.0

> <OH Data Type>
EXP

> <OH Reference>
ATKINSON,R (1989)

> <LogOH>
-12.113509274827535

$$$$
100240
  -INDIGO-08031719142D

 15 15  0  0  0  0  0  0  0  0999 V2000
    1.6000   -0.0000    0.0000 C   0  0  0  0  0  0  0  0  0  0  0  0
    3.2000   -0.0000    0.0000 H   0  0  0  0  0  0  0  0  0  0  0  0
    2.4001   -1.3856    0.0000 H   0  0  0  0  0  0  0  0  0  0  0  0
    2.4001    1.3856    0.0000 H   0  0  0  0  0  0  0  0  0  0  0  0
    0.0000   -0.0000    0.0000 C   0  0  0  0  0  0  0  0  0  0  0  0
   -0.7999    1.3856    0.0000 C   0  0  0  0  0  0  0  0  0  0  0  0
    0.0000    2.7713    0.0000 H   0  0  0  0  0  0  0  0  0  0  0  0
   -2.4001    1.3856    0.0000 C   0  0  0  0  0  0  0  0  0  0  0  0
   -3.2000    2.7713    0.0000 H   0  0  0  0  0  0  0  0  0  0  0  0
   -3.2000   -0.0000    0.0000 C   0  0  0  0  0  0  0  0  0  0  0  0
   -4.8000   -0.0000    0.0000 H   0  0  0  0  0  0  0  0  0  0  0  0
   -2.4001   -1.3856    0.0000 C   0  0  0  0  0  0  0  0  0  0  0  0
   -3.2000   -2.7713    0.0000 H   0  0  0  0  0  0  0  0  0  0  0  0
   -0.8001   -1.3856    0.0000 C   0  0  0  0  0  0  0  0  0  0  0  0
    0.0000   -2.7713    0.0000 H   0  0  0  0  0  0  0  0  0  0  0  0
  1  2  1  0  0  0  0
  1  3  1  0  0  0  0
  1  4  1  0  0  0  0
  1  5  1  0  0  0  0
  5  6  1  0  0  0  0
  6  7  1  0  0  0  0
  6  8  2  0  0  0  0
  8  9  1  0  0  0  0
  8 10  1  0  0  0  0
 10 11  1  0  0  0  0
 10 12  2  0  0  0  0
 12 13  1  0  0  0  0
 12 14  1  0  0  0  0
 14  5  2  0  0  0  0
 14 15  1  0  0  0  0
M  END
> <ChemID>
100240

> <source_casrn>
108-88-3

> <CAS>
108-88-3

> <SMILES>
Cc1ccccc1

> <NAME>
TOLUENE

> <preferred_name>
Toluene

> <iupac>
methylbenzene

> <MPID>
98797

> <dsstox_substance_id>
DTXSID7021360

> <Canonical_QSARr>
Cc1ccccc1

> <InChI_Code_QSARr>
InChI=1S/C7H8/c1-7-5-3-2-4-6-7/h2-6H,1H3

> <InChI Key_QSARr>
YXFVVABEGXRONW-UHFFFAOYSA-N

> <OH>
5.960000000000001E-12

> <OH Temperature>
25.0

> <OH Data Type>
EXP

> <OH Reference>
ATKINSON,R (1989)

> <LogOH>
-11.224753740259766

$$$$
100241
  -INDIGO-08031719142D

 12 12  0  0  0  0  0  0  0  0999 V2000
    0.8000    1.3856    0.0000 Cl  0  0  0  0  0  0  0  0  0  0  0  0
   -0.0000   -0.0000    0.0000 C   0  0  0  0  0  0  0  0  0  0  0  0
    0.8000   -1.3857    0.0000 C   0  0  0  0  0  0  0  0  0  0  0  0
    2.4000   -1.3857    0.0000 H   0  0  0  0  0  0  0  0  0  0  0  0
   -0.0000   -2.7713    0.0000 C   0  0  0  0  0  0  0  0  0  0  0  0
    0.8000   -4.1569    0.0000 H   0  0  0  0  0  0  0  0  0  0  0  0
   -1.6000   -2.7713    0.0000 C   0  0  0  0  0  0  0  0  0  0  0  0
   -2.4000   -4.1569    0.0000 H   0  0  0  0  0  0  0  0  0  0  0  0
   -2.4000   -1.3856    0.0000 C   0  0  0  0  0  0  0  0  0  0  0  0
   -4.0000   -1.3856    0.0000 H   0  0  0  0  0  0  0  0  0  0  0  0
   -1.6000   -0.0000    0.0000 C   0  0  0  0  0  0  0  0  0  0  0  0
   -2.4000    1.3856    0.0000 H   0  0  0  0  0  0  0  0  0  0  0  0
  1  2  1  0  0  0  0
  2  3  1  0  0  0  0
  3  4  1  0  0  0  0
  3  5  2  0  0  0  0
  5  6  1  0  0  0  0
  5  7  1  0  0  0  0
  7  8  1  0  0  0  0
  7  9  2  0  0  0  0
  9 10  1  0  0  0  0
  9 11  1  0  0  0  0
 11  2  2  0  0  0  0
 11 12  1  0  0  0  0
M  END
> <ChemID>
100241

> <source_casrn>
108-90-7

> <CAS>
108-90-7

> <SMILES>
Clc1ccccc1

> <NAME>
CHLOROBENZENE

> <preferred_name>
Chlorobenzene

> <iupac>
chlorobenzene

> <MPID>
98798

> <dsstox_substance_id>
DTXSID4020298

> <Canonical_QSARr>
Clc1ccccc1

> <InChI_Code_QSARr>
InChI=1S/C6H5Cl/c7-6-4-2-1-3-5-6/h1-5H

> <InChI Key_QSARr>
MVPPADPHJFYWMZ-UHFFFAOYSA-N

> <OH>
7.7E-13

> <OH Temperature>
25.0

> <OH Data Type>
EXP

> <OH Reference>
ATKINSON,R (1989)

> <LogOH>
-12.113509274827535

$$$$
100242
  -INDIGO-08031719142D

 17 17  0  0  0  0  0  0  0  0999 V2000
   -4.1569    2.4000    0.0000 O   0  0  0  0  0  0  0  0  0  0  0  0
   -2.7713    1.6000    0.0000 C   0  0  0  0  0  0  0  0  0  0  0  0
   -1.3856    2.4000    0.0000 C   0  0  0  0  0  0  0  0  0  0  0  0
   -2.4141    3.6257    0.0000 H   0  0  0  0  0  0  0  0  0  0  0  0
   -0.3571    3.6257    0.0000 H   0  0  0  0  0  0  0  0  0  0  0  0
    0.0000    1.6000    0.0000 C   0  0  0  0  0  0  0  0  0  0  0  0
    0.5472    3.1035    0.0000 H   0  0  0  0  0  0  0  0  0  0  0  0
    1.5757    1.3222    0.0000 H   0  0  0  0  0  0  0  0  0  0  0  0
    0.0000   -0.0000    0.0000 C   0  0  0  0  0  0  0  0  0  0  0  0
    1.5757    0.2778    0.0000 H   0  0  0  0  0  0  0  0  0  0  0  0
    0.5472   -1.5035    0.0000 H   0  0  0  0  0  0  0  0  0  0  0  0
   -1.3856   -0.8000    0.0000 C   0  0  0  0  0  0  0  0  0  0  0  0
   -0.3571   -2.0257    0.0000 H   0  0  0  0  0  0  0  0  0  0  0  0
   -2.4141   -2.0257    0.0000 H   0  0  0  0  0  0  0  0  0  0  0  0
   -2.7713   -0.0000    0.0000 C   0  0  0  0  0  0  0  0  0  0  0  0
   -3.3185   -1.5035    0.0000 H   0  0  0  0  0  0  0  0  0  0  0  0
   -4.3470    0.2778    0.0000 H   0  0  0  0  0  0  0  0  0  0  0  0
  1  2  2  0  0  0  0
  2  3  1  0  0  0  0
  3  4  1  0  0  0  0
  3  5  1  0  0  0  0
  3  6  1  0  0  0  0
  6  7  1  0  0  0  0
  6  8  1  0  0  0  0
  6  9  1  0  0  0  0
  9 10  1  0  0  0  0
  9 11  1  0  0  0  0
  9 12  1  0  0  0  0
 12 13  1  0  0  0  0
 12 14  1  0  0  0  0
 12 15  1  0  0  0  0
 15  2  1  0  0  0  0
 15 16  1  0  0  0  0
 15 17  1  0  0  0  0
M  END
> <ChemID>
100242

> <source_casrn>
108-94-1

> <CAS>
108-94-1

> <SMILES>
O=C1CCCCC1

> <NAME>
CYCLOHEXANONE

> <preferred_name>
Cyclohexanone

> <iupac>
cyclohexanone

> <MPID>
98799

> <dsstox_substance_id>
DTXSID6020359

> <Canonical_QSARr>
O=C1CCCCC1

> <InChI_Code_QSARr>
InChI=1S/C6H10O/c7-6-4-2-1-3-5-6/h1-5H2

> <InChI Key_QSARr>
JHIVVAPYMSGYDF-UHFFFAOYSA-N

> <OH>
6.390000000000002E-12

> <OH Temperature>
25.0

> <OH Data Type>
EXP

> <OH Reference>
ATKINSON,R (1989)

> <LogOH>
-11.194499141841597

$$$$
100244
  -INDIGO-08031719142D

 13 13  0  0  0  0  0  0  0  0999 V2000
   -0.0000   -0.0000    0.0000 C   0  0  0  0  0  0  0  0  0  0  0  0
    0.8000   -1.3857    0.0000 C   0  0  0  0  0  0  0  0  0  0  0  0
    2.4000   -1.3857    0.0000 H   0  0  0  0  0  0  0  0  0  0  0  0
   -0.0000   -2.7713    0.0000 C   0  0  0  0  0  0  0  0  0  0  0  0
    0.8000   -4.1569    0.0000 H   0  0  0  0  0  0  0  0  0  0  0  0
   -1.6000   -2.7713    0.0000 C   0  0  0  0  0  0  0  0  0  0  0  0
   -2.4000   -4.1569    0.0000 H   0  0  0  0  0  0  0  0  0  0  0  0
   -2.4000   -1.3856    0.0000 C   0  0  0  0  0  0  0  0  0  0  0  0
   -4.0000   -1.3856    0.0000 H   0  0  0  0  0  0  0  0  0  0  0  0
   -1.6000   -0.0000    0.0000 C   0  0  0  0  0  0  0  0  0  0  0  0
   -2.4000    1.3856    0.0000 H   0  0  0  0  0  0  0  0  0  0  0  0
    0.8000    1.3856    0.0000 S   0  0  0  0  0  0  0  0  0  0  0  0
    2.4000    1.3856    0.0000 H   0  0  0  0  0  0  0  0  0  0  0  0
  1  2  1  0  0  0  0
  2  3  1  0  0  0  0
  2  4  2  0  0  0  0
  4  5  1  0  0  0  0
  4  6  1  0  0  0  0
  6  7  1  0  0  0  0
  6  8  2  0  0  0  0
  8  9  1  0  0  0  0
  8 10  1  0  0  0  0
 10  1  2  0  0  0  0
 10 11  1  0  0  0  0
  1 12  1  0  0  0  0
 12 13  1  0  0  0  0
M  END
> <ChemID>
100244

> <source_casrn>
108-98-5

> <CAS>
108-98-5

> <SMILES>
Sc1ccccc1

> <NAME>
THIOPHENOL

> <preferred_name>
Benzenethiol

> <iupac>
benzenethiol

> <MPID>
98801

> <dsstox_substance_id>
DTXSID7026811

> <Canonical_QSARr>
Sc1ccccc1

> <InChI_Code_QSARr>
InChI=1S/C6H6S/c7-6-4-2-1-3-5-6/h1-5,7H

> <InChI Key_QSARr>
RMVRSNDYEFQCLF-UHFFFAOYSA-N

> <OH>
1.12E-11

> <OH Temperature>
25.0

> <OH Data Type>
EXP

> <OH Reference>
ATKINSON,R (1989)

> <LogOH>
-10.950781977329818

$$$$
100245
  -INDIGO-08031719142D

 26 25  0  0  0  0  0  0  0  0999 V2000
   -4.1569    0.8000    0.0000 C   0  0  0  0  0  0  0  0  0  0  0  0
   -4.1569    2.4000    0.0000 O   0  0  0  0  0  0  0  0  0  0  0  0
   -2.7712    0.0000    0.0000 O   0  0  0  0  0  0  0  0  0  0  0  0
   -1.3856    0.8000    0.0000 C   0  0  0  0  0  0  0  0  0  0  0  0
   -1.9980    2.2782    0.0000 H   0  0  0  0  0  0  0  0  0  0  0  0
   -0.7733    2.2782    0.0000 H   0  0  0  0  0  0  0  0  0  0  0  0
    0.0001    0.0000    0.0000 C   0  0  0  0  0  0  0  0  0  0  0  0
    0.6122   -1.4782    0.0000 H   0  0  0  0  0  0  0  0  0  0  0  0
   -0.6122   -1.4782    0.0000 H   0  0  0  0  0  0  0  0  0  0  0  0
    1.3856    0.8000    0.0000 C   0  0  0  0  0  0  0  0  0  0  0  0
    0.7733    2.2782    0.0000 H   0  0  0  0  0  0  0  0  0  0  0  0
    1.9980    2.2782    0.0000 H   0  0  0  0  0  0  0  0  0  0  0  0
    2.7714    0.0000    0.0000 C   0  0  0  0  0  0  0  0  0  0  0  0
    4.1569   -0.8000    0.0000 H   0  0  0  0  0  0  0  0  0  0  0  0
    4.1569    0.8000    0.0000 H   0  0  0  0  0  0  0  0  0  0  0  0
    2.7714   -1.6000    0.0000 H   0  0  0  0  0  0  0  0  0  0  0  0
   -5.5425    0.0000    0.0000 C   0  0  0  0  0  0  0  0  0  0  0  0
   -4.9304   -1.4782    0.0000 H   0  0  0  0  0  0  0  0  0  0  0  0
   -6.1548   -1.4782    0.0000 H   0  0  0  0  0  0  0  0  0  0  0  0
   -6.9282    0.8000    0.0000 C   0  0  0  0  0  0  0  0  0  0  0  0
   -7.5405    2.2782    0.0000 H   0  0  0  0  0  0  0  0  0  0  0  0
   -6.3159    2.2782    0.0000 H   0  0  0  0  0  0  0  0  0  0  0  0
   -8.3137    0.0000    0.0000 C   0  0  0  0  0  0  0  0  0  0  0  0
   -9.6995   -0.8000    0.0000 H   0  0  0  0  0  0  0  0  0  0  0  0
   -9.6995    0.8000    0.0000 H   0  0  0  0  0  0  0  0  0  0  0  0
   -8.3137   -1.6000    0.0000 H   0  0  0  0  0  0  0  0  0  0  0  0
  1  2  2  0  0  0  0
  1  3  1  0  0  0  0
  3  4  1  0  0  0  0
  4  5  1  0  0  0  0
  4  6  1  0  0  0  0
  4  7  1  0  0  0  0
  7  8  1  0  0  0  0
  7  9  1  0  0  0  0
  7 10  1  0  0  0  0
 10 11  1  0  0  0  0
 10 12  1  0  0  0  0
 10 13  1  0  0  0  0
 13 14  1  0  0  0  0
 13 15  1  0  0  0  0
 13 16  1  0  0  0  0
  1 17  1  0  0  0  0
 17 18  1  0  0  0  0
 17 19  1  0  0  0  0
 17 20  1  0  0  0  0
 20 21  1  0  0  0  0
 20 22  1  0  0  0  0
 20 23  1  0  0  0  0
 23 24  1  0  0  0  0
 23 25  1  0  0  0  0
 23 26  1  0  0  0  0
M  END
> <ChemID>
100245

> <source_casrn>
109-21-7

> <CAS>
109-21-7

> <SMILES>
CCCC(=O)OCCCC

> <NAME>
N-BUTYLBUTYRATE

> <preferred_name>
Butyl butyrate

> <iupac>
butyl butanoate

> <MPID>
98802

> <dsstox_substance_id>
DTXSID7041702

> <Canonical_QSARr>
CCCC(=O)OCCCC

> <InChI_Code_QSARr>
InChI=1S/C8H16O2/c1-3-5-7-10-8(9)6-4-2/h3-7H2,1-2H3

> <InChI Key_QSARr>
XUPYJHCZDLZNFP-UHFFFAOYSA-N

> <OH>
1.06E-11

> <OH Temperature>
25.0

> <OH Data Type>
EXP

> <OH Reference>
ATKINSON,R (1989)

> <LogOH>
-10.974694134735218

$$$$
100246
  -INDIGO-08031719142D

 19 18  0  0  0  0  0  0  0  0999 V2000
   -4.1798    0.6700    0.0000 C   0  0  0  0  0  0  0  0  0  0  0  0
   -4.1101   -0.9285    0.0000 H   0  0  0  0  0  0  0  0  0  0  0  0
   -5.2608   -0.5097    0.0000 H   0  0  0  0  0  0  0  0  0  0  0  0
   -2.6042    0.9479    0.0000 C   0  0  0  0  0  0  0  0  0  0  0  0
   -2.6739    2.5463    0.0000 H   0  0  0  0  0  0  0  0  0  0  0  0
   -1.3348    1.9219    0.0000 H   0  0  0  0  0  0  0  0  0  0  0  0
   -1.5758   -0.2778    0.0000 O   0  0  0  0  0  0  0  0  0  0  0  0
    0.0000   -0.0000    0.0000 C   0  0  0  0  0  0  0  0  0  0  0  0
    1.5999   -0.0000    0.0000 H   0  0  0  0  0  0  0  0  0  0  0  0
    0.5472    1.5035    0.0000 C   0  0  0  0  0  0  0  0  0  0  0  0
    1.0945    3.0070    0.0000 H   0  0  0  0  0  0  0  0  0  0  0  0
   -0.4813    2.7292    0.0000 H   0  0  0  0  0  0  0  0  0  0  0  0
    2.1229    1.7813    0.0000 H   0  0  0  0  0  0  0  0  0  0  0  0
    0.0000   -1.6000    0.0000 C   0  0  0  0  0  0  0  0  0  0  0  0
    0.0000   -3.2000    0.0000 H   0  0  0  0  0  0  0  0  0  0  0  0
    1.3856   -2.4000    0.0000 H   0  0  0  0  0  0  0  0  0  0  0  0
   -1.3856   -2.4000    0.0000 H   0  0  0  0  0  0  0  0  0  0  0  0
   -5.2082    1.8957    0.0000 O   0  0  0  0  0  0  0  0  0  0  0  0
   -6.7840    1.6179    0.0000 H   0  0  0  0  0  0  0  0  0  0  0  0
  1  2  1  0  0  0  0
  1  3  1  0  0  0  0
  1  4  1  0  0  0  0
  4  5  1  0  0  0  0
  4  6  1  0  0  0  0
  4  7  1  0  0  0  0
  7  8  1  0  0  0  0
  8  9  1  0  0  0  0
  8 10  1  0  0  0  0
 10 11  1  0  0  0  0
 10 12  1  0  0  0  0
 10 13  1  0  0  0  0
  8 14  1  0  0  0  0
 14 15  1  0  0  0  0
 14 16  1  0  0  0  0
 14 17  1  0  0  0  0
  1 18  1  0  0  0  0
 18 19  1  0  0  0  0
M  END
> <ChemID>
100246

> <source_casrn>
109-59-1

> <CAS>
109-59-1

> <SMILES>
CC(C)OCCO

> <NAME>
2-Isopropoxyethanol

> <preferred_name>
2-Isopropoxyethanol

> <iupac>
C5H12O2

> <MPID>
98803

> <dsstox_substance_id>
DTXSID4047466

> <Canonical_QSARr>
CC(C)OCCO

> <InChI_Code_QSARr>
InChI=1S/C5H12O2/c1-5(2)7-4-3-6/h5-6H,3-4H2,1-2H3

> <InChI Key_QSARr>
HCGFUIQPSOCUHI-UHFFFAOYSA-N

> <OH>
2.060000000000001E-11

> <OH Temperature>
25.0

> <OH Data Type>
EXP

> <OH Reference>
PORTER,E ET AL. (1997)

> <LogOH>
-10.68613277963084

$$$$
100248
  -INDIGO-08031719142D

 14 13  0  0  0  0  0  0  0  0999 V2000
    1.3856   -2.4000    0.0000 Br  0  0  0  0  0  0  0  0  0  0  0  0
    1.3856   -0.8000    0.0000 C   0  0  0  0  0  0  0  0  0  0  0  0
    2.7713   -1.6000    0.0000 H   0  0  0  0  0  0  0  0  0  0  0  0
    2.7713    0.0000    0.0000 H   0  0  0  0  0  0  0  0  0  0  0  0
    0.0000    0.0000    0.0000 C   0  0  0  0  0  0  0  0  0  0  0  0
    0.6123    1.4782    0.0000 H   0  0  0  0  0  0  0  0  0  0  0  0
   -0.6123    1.4782    0.0000 H   0  0  0  0  0  0  0  0  0  0  0  0
   -1.3856   -0.8000    0.0000 C   0  0  0  0  0  0  0  0  0  0  0  0
   -1.9980   -2.2782    0.0000 H   0  0  0  0  0  0  0  0  0  0  0  0
   -0.7733   -2.2782    0.0000 H   0  0  0  0  0  0  0  0  0  0  0  0
   -2.7713    0.0000    0.0000 C   0  0  0  0  0  0  0  0  0  0  0  0
   -4.1569    0.8000    0.0000 H   0  0  0  0  0  0  0  0  0  0  0  0
   -4.1569   -0.8000    0.0000 H   0  0  0  0  0  0  0  0  0  0  0  0
   -2.7713    1.6000    0.0000 H   0  0  0  0  0  0  0  0  0  0  0  0
  1  2  1  0  0  0  0
  2  3  1  0  0  0  0
  2  4  1  0  0  0  0
  2  5  1  0  0  0  0
  5  6  1  0  0  0  0
  5  7  1  0  0  0  0
  5  8  1  0  0  0  0
  8  9  1  0  0  0  0
  8 10  1  0  0  0  0
  8 11  1  0  0  0  0
 11 12  1  0  0  0  0
 11 13  1  0  0  0  0
 11 14  1  0  0  0  0
M  END
> <ChemID>
100248

> <source_casrn>
109-65-9

> <CAS>
109-65-9

> <SMILES>
CCCCBr

> <NAME>
1-BROMOBUTANE

> <preferred_name>
1-Bromobutane

> <iupac>
1-bromobutane

> <MPID>
98805

> <dsstox_substance_id>
DTXSID6021903

> <Canonical_QSARr>
CCCCBr

> <InChI_Code_QSARr>
InChI=1S/C4H9Br/c1-2-3-4-5/h2-4H2,1H3

> <InChI Key_QSARr>
MPPPKRYCTPRNTB-UHFFFAOYSA-N

> <OH>
2.500000000000001E-12

> <OH Temperature>
25.0

> <OH Data Type>
EXP

> <OH Reference>
TOSATO,ML ET AL. (1991)

> <LogOH>
-11.602059991327964

$$$$
100249
  -INDIGO-08031719142D

 17 16  0  0  0  0  0  0  0  0999 V2000
   -1.3856    0.8000    0.0000 C   0  0  0  0  0  0  0  0  0  0  0  0
   -0.7734    2.2782    0.0000 H   0  0  0  0  0  0  0  0  0  0  0  0
   -1.9979    2.2782    0.0000 H   0  0  0  0  0  0  0  0  0  0  0  0
    0.0001   -0.0000    0.0000 C   0  0  0  0  0  0  0  0  0  0  0  0
   -0.6123   -1.4782    0.0000 H   0  0  0  0  0  0  0  0  0  0  0  0
    0.6123   -1.4782    0.0000 H   0  0  0  0  0  0  0  0  0  0  0  0
    1.3856    0.8000    0.0000 C   0  0  0  0  0  0  0  0  0  0  0  0
    1.9979    2.2782    0.0000 H   0  0  0  0  0  0  0  0  0  0  0  0
    0.7734    2.2782    0.0000 H   0  0  0  0  0  0  0  0  0  0  0  0
    2.7713   -0.0000    0.0000 C   0  0  0  0  0  0  0  0  0  0  0  0
    4.1569   -0.8000    0.0000 H   0  0  0  0  0  0  0  0  0  0  0  0
    4.1569    0.8000    0.0000 H   0  0  0  0  0  0  0  0  0  0  0  0
    2.7713   -1.6000    0.0000 H   0  0  0  0  0  0  0  0  0  0  0  0
   -2.7712   -0.0000    0.0000 C   0  0  0  0  0  0  0  0  0  0  0  0
   -4.1569   -0.8000    0.0000 H   0  0  0  0  0  0  0  0  0  0  0  0
   -4.1569    0.8000    0.0000 H   0  0  0  0  0  0  0  0  0  0  0  0
   -2.7713   -1.6000    0.0000 H   0  0  0  0  0  0  0  0  0  0  0  0
  1  2  1  0  0  0  0
  1  3  1  0  0  0  0
  1  4  1  0  0  0  0
  4  5  1  0  0  0  0
  4  6  1  0  0  0  0
  4  7  1  0  0  0  0
  7  8  1  0  0  0  0
  7  9  1  0  0  0  0
  7 10  1  0  0  0  0
 10 11  1  0  0  0  0
 10 12  1  0  0  0  0
 10 13  1  0  0  0  0
  1 14  1  0  0  0  0
 14 15  1  0  0  0  0
 14 16  1  0  0  0  0
 14 17  1  0  0  0  0
M  END
> <ChemID>
100249

> <source_casrn>
109-66-0

> <CAS>
109-66-0

> <SMILES>
CCCCC

> <NAME>
N-PENTANE

> <preferred_name>
Pentane

> <iupac>
C5H12

> <MPID>
98806

> <dsstox_substance_id>
DTXSID2025846

> <Canonical_QSARr>
CCCCC

> <InChI_Code_QSARr>
InChI=1S/C5H12/c1-3-5-4-2/h3-5H2,1-2H3

> <InChI Key_QSARr>
OFBQJSOFQDEBGM-UHFFFAOYSA-N

> <OH>
3.940000000000001E-12

> <OH Temperature>
25.0

> <OH Data Type>
EXP

> <OH Reference>
ATKINSON,R (1989)

> <LogOH>
-11.404503778174423

$$$$
100250
  -INDIGO-08031719142D

 15 14  0  0  0  0  0  0  0  0999 V2000
    2.7713    0.0000    0.0000 C   0  0  0  0  0  0  0  0  0  0  0  0
    2.7713   -1.6000    0.0000 H   0  0  0  0  0  0  0  0  0  0  0  0
    4.1569    0.8000    0.0000 C   0  0  0  0  0  0  0  0  0  0  0  0
    5.5426    0.0000    0.0000 H   0  0  0  0  0  0  0  0  0  0  0  0
    4.1569    2.4000    0.0000 H   0  0  0  0  0  0  0  0  0  0  0  0
    1.3857    0.8000    0.0000 C   0  0  0  0  0  0  0  0  0  0  0  0
    0.7733    2.2782    0.0000 H   0  0  0  0  0  0  0  0  0  0  0  0
    1.9979    2.2782    0.0000 H   0  0  0  0  0  0  0  0  0  0  0  0
    0.0000    0.0000    0.0000 C   0  0  0  0  0  0  0  0  0  0  0  0
    0.6122   -1.4782    0.0000 H   0  0  0  0  0  0  0  0  0  0  0  0
   -0.6122   -1.4782    0.0000 H   0  0  0  0  0  0  0  0  0  0  0  0
   -1.3856    0.8000    0.0000 C   0  0  0  0  0  0  0  0  0  0  0  0
   -2.7713    1.6000    0.0000 H   0  0  0  0  0  0  0  0  0  0  0  0
   -2.7713    0.0000    0.0000 H   0  0  0  0  0  0  0  0  0  0  0  0
   -1.3856    2.4000    0.0000 H   0  0  0  0  0  0  0  0  0  0  0  0
  1  2  1  0  0  0  0
  1  3  2  0  0  0  0
  3  4  1  0  0  0  0
  3  5  1  0  0  0  0
  1  6  1  0  0  0  0
  6  7  1  0  0  0  0
  6  8  1  0  0  0  0
  6  9  1  0  0  0  0
  9 10  1  0  0  0  0
  9 11  1  0  0  0  0
  9 12  1  0  0  0  0
 12 13  1  0  0  0  0
 12 14  1  0  0  0  0
 12 15  1  0  0  0  0
M  END
> <ChemID>
100250

> <source_casrn>
109-67-1

> <CAS>
109-67-1

> <SMILES>
CCCC=C

> <NAME>
1-PENTENE

> <preferred_name>
1-Pentene

> <iupac>
pent-1-ene

> <MPID>
98807

> <dsstox_substance_id>
DTXSID7025849

> <Canonical_QSARr>
CCCC=C

> <InChI_Code_QSARr>
InChI=1S/C5H10/c1-3-5-4-2/h3H,1,4-5H2,2H3

> <InChI Key_QSARr>
YWAKXRMUMFPDSH-UHFFFAOYSA-N

> <OH>
3.19E-11

> <OH Temperature>
25.0

> <OH Data Type>
EXP

> <OH Reference>
KWOK,ESC & ATKINSON,R (1994)

> <LogOH>
-10.49620931694284

$$$$
100252
  -INDIGO-08031719142D

 15 14  0  0  0  0  0  0  0  0999 V2000
    1.3856    0.8000    0.0000 C   0  0  0  0  0  0  0  0  0  0  0  0
    1.9979    2.2782    0.0000 H   0  0  0  0  0  0  0  0  0  0  0  0
    0.7734    2.2782    0.0000 H   0  0  0  0  0  0  0  0  0  0  0  0
    0.0001   -0.0000    0.0000 C   0  0  0  0  0  0  0  0  0  0  0  0
   -0.6123   -1.4782    0.0000 H   0  0  0  0  0  0  0  0  0  0  0  0
    0.6123   -1.4782    0.0000 H   0  0  0  0  0  0  0  0  0  0  0  0
   -1.3856    0.8000    0.0000 C   0  0  0  0  0  0  0  0  0  0  0  0
   -0.7734    2.2782    0.0000 H   0  0  0  0  0  0  0  0  0  0  0  0
   -1.9979    2.2782    0.0000 H   0  0  0  0  0  0  0  0  0  0  0  0
   -2.7712   -0.0000    0.0000 C   0  0  0  0  0  0  0  0  0  0  0  0
   -4.1569   -0.8000    0.0000 H   0  0  0  0  0  0  0  0  0  0  0  0
   -4.1569    0.8000    0.0000 H   0  0  0  0  0  0  0  0  0  0  0  0
   -2.7713   -1.6000    0.0000 H   0  0  0  0  0  0  0  0  0  0  0  0
    2.7713   -0.0000    0.0000 S   0  0  0  0  0  0  0  0  0  0  0  0
    4.1569    0.8000    0.0000 H   0  0  0  0  0  0  0  0  0  0  0  0
  1  2  1  0  0  0  0
  1  3  1  0  0  0  0
  1  4  1  0  0  0  0
  4  5  1  0  0  0  0
  4  6  1  0  0  0  0
  4  7  1  0  0  0  0
  7  8  1  0  0  0  0
  7  9  1  0  0  0  0
  7 10  1  0  0  0  0
 10 11  1  0  0  0  0
 10 12  1  0  0  0  0
 10 13  1  0  0  0  0
  1 14  1  0  0  0  0
 14 15  1  0  0  0  0
M  END
> <ChemID>
100252

> <source_casrn>
109-79-5

> <CAS>
109-79-5

> <SMILES>
CCCCS

> <NAME>
BUTANETHIOL

> <preferred_name>
1-Butanethiol

> <iupac>
butane-1-thiol

> <MPID>
98809

> <dsstox_substance_id>
DTXSID6026824

> <Canonical_QSARr>
CCCCS

> <InChI_Code_QSARr>
InChI=1S/C4H10S/c1-2-3-4-5/h5H,2-4H2,1H3

> <InChI Key_QSARr>
WQAQPCDUOCURKW-UHFFFAOYSA-N

> <OH>
5.1E-11

> <OH Temperature>
25.0

> <OH Data Type>
EXP

> <OH Reference>
ATKINSON,R (1989)

> <LogOH>
-10.292429823902053

$$$$
100253
  -INDIGO-08031719142D

 13 12  0  0  0  0  0  0  0  0999 V2000
    2.7713   -0.0000    0.0000 C   0  0  0  0  0  0  0  0  0  0  0  0
    4.1569   -0.8000    0.0000 H   0  0  0  0  0  0  0  0  0  0  0  0
    4.1569    0.8000    0.0000 H   0  0  0  0  0  0  0  0  0  0  0  0
    2.7713   -1.6000    0.0000 H   0  0  0  0  0  0  0  0  0  0  0  0
    1.3856    0.8000    0.0000 O   0  0  0  0  0  0  0  0  0  0  0  0
    0.0001   -0.0000    0.0000 C   0  0  0  0  0  0  0  0  0  0  0  0
   -0.6123   -1.4782    0.0000 H   0  0  0  0  0  0  0  0  0  0  0  0
    0.6123   -1.4782    0.0000 H   0  0  0  0  0  0  0  0  0  0  0  0
   -1.3856    0.8000    0.0000 C   0  0  0  0  0  0  0  0  0  0  0  0
   -0.7734    2.2782    0.0000 H   0  0  0  0  0  0  0  0  0  0  0  0
   -1.9979    2.2782    0.0000 H   0  0  0  0  0  0  0  0  0  0  0  0
   -2.7713   -0.0000    0.0000 O   0  0  0  0  0  0  0  0  0  0  0  0
   -4.1569    0.8000    0.0000 H   0  0  0  0  0  0  0  0  0  0  0  0
  1  2  1  0  0  0  0
  1  3  1  0  0  0  0
  1  4  1  0  0  0  0
  1  5  1  0  0  0  0
  5  6  1  0  0  0  0
  6  7  1  0  0  0  0
  6  8  1  0  0  0  0
  6  9  1  0  0  0  0
  9 10  1  0  0  0  0
  9 11  1  0  0  0  0
  9 12  1  0  0  0  0
 12 13  1  0  0  0  0
M  END
> <ChemID>
100253

> <source_casrn>
109-86-4

> <CAS>
109-86-4

> <SMILES>
COCCO

> <NAME>
2-METHOXYETHANOL

> <preferred_name>
2-Methoxyethanol

> <iupac>
2-methoxyethanol

> <MPID>
98810

> <dsstox_substance_id>
DTXSID5024182

> <Canonical_QSARr>
COCCO

> <InChI_Code_QSARr>
InChI=1S/C3H8O2/c1-5-3-2-4/h4H,2-3H2,1H3

> <InChI Key_QSARr>
XNWFRZJHXBZDAG-UHFFFAOYSA-N

> <OH>
1.25E-11

> <OH Temperature>
25.0

> <OH Data Type>
EXP

> <OH Reference>
ATKINSON,R (1989)

> <LogOH>
-10.903089986991946

$$$$
100256
  -INDIGO-08031719142D

 11 10  0  0  0  0  0  0  0  0999 V2000
    2.7713    0.0000    0.0000 C   0  0  0  0  0  0  0  0  0  0  0  0
    4.1569    0.8000    0.0000 H   0  0  0  0  0  0  0  0  0  0  0  0
    2.7713   -1.6000    0.0000 O   0  0  0  0  0  0  0  0  0  0  0  0
    1.3856    0.8000    0.0000 O   0  0  0  0  0  0  0  0  0  0  0  0
    0.0000    0.0000    0.0000 C   0  0  0  0  0  0  0  0  0  0  0  0
   -0.6123   -1.4782    0.0000 H   0  0  0  0  0  0  0  0  0  0  0  0
    0.6123   -1.4782    0.0000 H   0  0  0  0  0  0  0  0  0  0  0  0
   -1.3856    0.8000    0.0000 C   0  0  0  0  0  0  0  0  0  0  0  0
   -2.7713    1.6000    0.0000 H   0  0  0  0  0  0  0  0  0  0  0  0
   -2.7713    0.0000    0.0000 H   0  0  0  0  0  0  0  0  0  0  0  0
   -1.3856    2.4000    0.0000 H   0  0  0  0  0  0  0  0  0  0  0  0
  1  2  1  0  0  0  0
  1  3  2  0  0  0  0
  1  4  1  0  0  0  0
  4  5  1  0  0  0  0
  5  6  1  0  0  0  0
  5  7  1  0  0  0  0
  5  8  1  0  0  0  0
  8  9  1  0  0  0  0
  8 10  1  0  0  0  0
  8 11  1  0  0  0  0
M  END
> <ChemID>
100256

> <source_casrn>
109-94-4

> <CAS>
109-94-4

> <SMILES>
CCOC=O

> <NAME>
ETHYL FORMATE

> <preferred_name>
Ethyl formate

> <iupac>
ethyl formate

> <MPID>
98812

> <dsstox_substance_id>
DTXSID6040117

> <Canonical_QSARr>
CCOC=O

> <InChI_Code_QSARr>
InChI=1S/C3H6O2/c1-2-5-3-4/h3H,2H2,1H3

> <InChI Key_QSARr>
WBJINCZRORDGAQ-UHFFFAOYSA-N

> <OH>
1.02E-12

> <OH Temperature>
25.0

> <OH Data Type>
EXP

> <OH Reference>
ATKINSON,R (1989)

> <LogOH>
-11.991399828238094

$$$$
100257
  -INDIGO-08031719142D

 10  9  0  0  0  0  0  0  0  0999 V2000
    1.3856    0.8000    0.0000 C   0  0  0  0  0  0  0  0  0  0  0  0
    2.7713    1.6000    0.0000 H   0  0  0  0  0  0  0  0  0  0  0  0
    2.7713    0.0000    0.0000 H   0  0  0  0  0  0  0  0  0  0  0  0
    1.3856    2.4000    0.0000 H   0  0  0  0  0  0  0  0  0  0  0  0
    0.0000    0.0000    0.0000 C   0  0  0  0  0  0  0  0  0  0  0  0
    0.6123   -1.4782    0.0000 H   0  0  0  0  0  0  0  0  0  0  0  0
   -0.6123   -1.4782    0.0000 H   0  0  0  0  0  0  0  0  0  0  0  0
   -1.3856    0.8000    0.0000 O   0  0  0  0  0  0  0  0  0  0  0  0
   -2.7713    0.0000    0.0000 N   0  0  0  0  0  0  0  0  0  0  0  0
   -4.1569    0.8000    0.0000 O   0  0  0  0  0  0  0  0  0  0  0  0
  1  2  1  0  0  0  0
  1  3  1  0  0  0  0
  1  4  1  0  0  0  0
  1  5  1  0  0  0  0
  5  6  1  0  0  0  0
  5  7  1  0  0  0  0
  5  8  1  0  0  0  0
  8  9  1  0  0  0  0
  9 10  2  0  0  0  0
M  END
> <ChemID>
100257

> <source_casrn>
109-95-5

> <CAS>
109-95-5

> <SMILES>
CCON=O

> <NAME>
ETHYLNITRITE

> <preferred_name>
Ethyl nitrite

> <iupac>
ethyl nitrite

> <MPID>
98813

> <dsstox_substance_id>
DTXSID9046574

> <Canonical_QSARr>
CCON=O

> <InChI_Code_QSARr>
InChI=1S/C2H5NO2/c1-2-5-3-4/h2H2,1H3

> <InChI Key_QSARr>
QQZWEECEMNQSTG-UHFFFAOYSA-N

> <OH>
7.0E-13

> <OH Temperature>
25.0

> <OH Data Type>
EXP

> <OH Reference>
ATKINSON,R (1994)

> <LogOH>
-12.15490195998575

$$$$
100259
  -INDIGO-08031719142D

 13 13  0  0  0  0  0  0  0  0999 V2000
    1.0530    2.3650    0.0000 O   0  0  0  0  0  0  0  0  0  0  0  0
    2.2420    1.2944    0.0000 C   0  0  0  0  0  0  0  0  0  0  0  0
    3.1825    2.5888    0.0000 H   0  0  0  0  0  0  0  0  0  0  0  0
    3.6277    0.4944    0.0000 H   0  0  0  0  0  0  0  0  0  0  0  0
    1.5912   -0.1672    0.0000 C   0  0  0  0  0  0  0  0  0  0  0  0
    3.1130   -0.6617    0.0000 H   0  0  0  0  0  0  0  0  0  0  0  0
    1.2586   -1.7323    0.0000 H   0  0  0  0  0  0  0  0  0  0  0  0
    0.0000    0.0000    0.0000 C   0  0  0  0  0  0  0  0  0  0  0  0
    0.0000   -1.6000    0.0000 H   0  0  0  0  0  0  0  0  0  0  0  0
   -1.5913   -0.1672    0.0000 H   0  0  0  0  0  0  0  0  0  0  0  0
   -0.3327    1.5651    0.0000 C   0  0  0  0  0  0  0  0  0  0  0  0
   -1.8543    1.0706    0.0000 H   0  0  0  0  0  0  0  0  0  0  0  0
   -0.9835    3.0267    0.0000 H   0  0  0  0  0  0  0  0  0  0  0  0
  1  2  1  0  0  0  0
  2  3  1  0  0  0  0
  2  4  1  0  0  0  0
  2  5  1  0  0  0  0
  5  6  1  0  0  0  0
  5  7  1  0  0  0  0
  5  8  1  0  0  0  0
  8  9  1  0  0  0  0
  8 10  1  0  0  0  0
  8 11  1  0  0  0  0
 11  1  1  0  0  0  0
 11 12  1  0  0  0  0
 11 13  1  0  0  0  0
M  END
> <ChemID>
100259

> <source_casrn>
109-99-9

> <CAS>
109-99-9

> <SMILES>
C1CCCO1

> <NAME>
TETRAHYDROFURAN

> <preferred_name>
Tetrahydrofuran

> <iupac>
tetrahydrofuran

> <MPID>
98815

> <dsstox_substance_id>
DTXSID1021328

> <Canonical_QSARr>
C1CCCO1

> <InChI_Code_QSARr>
InChI=1S/C4H8O/c1-2-4-5-3-1/h1-4H2

> <InChI Key_QSARr>
WYURNTSHIVDZCO-UHFFFAOYSA-N

> <OH>
1.61E-11

> <OH Temperature>
25.0

> <OH Data Type>
EXP

> <OH Reference>
ATKINSON,R (1989)

> <LogOH>
-10.793174123968136

$$$$
100260
  -INDIGO-08031719142D

  9  9  0  0  0  0  0  0  0  0999 V2000
    0.0000   -0.0000    0.0000 C   0  0  0  0  0  0  0  0  0  0  0  0
    0.9405    1.2944    0.0000 H   0  0  0  0  0  0  0  0  0  0  0  0
    0.4944   -1.5217    0.0000 C   0  0  0  0  0  0  0  0  0  0  0  0
    2.0161   -2.0161    0.0000 H   0  0  0  0  0  0  0  0  0  0  0  0
   -0.8000   -2.4621    0.0000 O   0  0  0  0  0  0  0  0  0  0  0  0
   -2.0944   -1.5217    0.0000 C   0  0  0  0  0  0  0  0  0  0  0  0
   -3.6161   -2.0161    0.0000 H   0  0  0  0  0  0  0  0  0  0  0  0
   -1.6000   -0.0000    0.0000 C   0  0  0  0  0  0  0  0  0  0  0  0
   -2.5405    1.2944    0.0000 H   0  0  0  0  0  0  0  0  0  0  0  0
  1  2  1  0  0  0  0
  1  3  2  0  0  0  0
  3  4  1  0  0  0  0
  3  5  1  0  0  0  0
  5  6  1  0  0  0  0
  6  7  1  0  0  0  0
  6  8  2  0  0  0  0
  8  1  1  0  0  0  0
  8  9  1  0  0  0  0
M  END
> <ChemID>
100260

> <source_casrn>
110-00-9

> <CAS>
110-00-9

> <SMILES>
c1ccco1

> <NAME>
FURAN

> <preferred_name>
Furan

> <iupac>
furan

> <MPID>
98816

> <dsstox_substance_id>
DTXSID6020646

> <Canonical_QSARr>
c1ccco1

> <InChI_Code_QSARr>
InChI=1S/C4H4O/c1-2-4-5-3-1/h1-4H

> <InChI Key_QSARr>
YLQBMQCUIZJEEH-UHFFFAOYSA-N

> <OH>
4.049999999999999E-11

> <OH Temperature>
25.0

> <OH Data Type>
EXP

> <OH Reference>
ATKINSON,R (1989)

> <LogOH>
-10.39254497678535

$$$$
100261
  -INDIGO-08031719142D

 13 13  0  0  0  0  0  0  0  0999 V2000
    1.0530    2.3650    0.0000 S   0  0  0  0  0  0  0  0  0  0  0  0
    2.2420    1.2944    0.0000 C   0  0  0  0  0  0  0  0  0  0  0  0
    3.1825    2.5888    0.0000 H   0  0  0  0  0  0  0  0  0  0  0  0
    3.6277    0.4944    0.0000 H   0  0  0  0  0  0  0  0  0  0  0  0
    1.5912   -0.1672    0.0000 C   0  0  0  0  0  0  0  0  0  0  0  0
    3.1130   -0.6617    0.0000 H   0  0  0  0  0  0  0  0  0  0  0  0
    1.2586   -1.7323    0.0000 H   0  0  0  0  0  0  0  0  0  0  0  0
    0.0000    0.0000    0.0000 C   0  0  0  0  0  0  0  0  0  0  0  0
    0.0000   -1.6000    0.0000 H   0  0  0  0  0  0  0  0  0  0  0  0
   -1.5913   -0.1672    0.0000 H   0  0  0  0  0  0  0  0  0  0  0  0
   -0.3327    1.5651    0.0000 C   0  0  0  0  0  0  0  0  0  0  0  0
   -1.8543    1.0706    0.0000 H   0  0  0  0  0  0  0  0  0  0  0  0
   -0.9835    3.0267    0.0000 H   0  0  0  0  0  0  0  0  0  0  0  0
  1  2  1  0  0  0  0
  2  3  1  0  0  0  0
  2  4  1  0  0  0  0
  2  5  1  0  0  0  0
  5  6  1  0  0  0  0
  5  7  1  0  0  0  0
  5  8  1  0  0  0  0
  8  9  1  0  0  0  0
  8 10  1  0  0  0  0
  8 11  1  0  0  0  0
 11  1  1  0  0  0  0
 11 12  1  0  0  0  0
 11 13  1  0  0  0  0
M  END
> <ChemID>
100261

> <source_casrn>
110-01-0

> <CAS>
110-01-0

> <SMILES>
C1CCCS1

> <NAME>
TETRAHYDROTHIOPHENE

> <preferred_name>
Tetrahydrothiophene

> <iupac>
tetrahydrothiophene

> <MPID>
98817

> <dsstox_substance_id>
DTXSID3047760

> <Canonical_QSARr>
C1CCCS1

> <InChI_Code_QSARr>
InChI=1S/C4H8S/c1-2-4-5-3-1/h1-4H2

> <InChI Key_QSARr>
RAOIDOHSFRTOEL-UHFFFAOYSA-N

> <OH>
1.97E-11

> <OH Temperature>
25.0

> <OH Data Type>
EXP

> <OH Reference>
ATKINSON,R (1989)

> <LogOH>
-10.705533773838404

$$$$
100263
  -INDIGO-08031719142D

 22 21  0  0  0  0  0  0  0  0999 V2000
    5.4584   -0.9625    0.0000 C   0  0  0  0  0  0  0  0  0  0  0  0
    6.6840   -1.9909    0.0000 H   0  0  0  0  0  0  0  0  0  0  0  0
    6.9619   -0.4152    0.0000 H   0  0  0  0  0  0  0  0  0  0  0  0
    5.1805   -2.5381    0.0000 H   0  0  0  0  0  0  0  0  0  0  0  0
    4.2327    0.0660    0.0000 C   0  0  0  0  0  0  0  0  0  0  0  0
    4.5106    1.6417    0.0000 O   0  0  0  0  0  0  0  0  0  0  0  0
    2.7292   -0.4812    0.0000 C   0  0  0  0  0  0  0  0  0  0  0  0
    3.0754   -2.0433    0.0000 H   0  0  0  0  0  0  0  0  0  0  0  0
    1.8695   -1.8306    0.0000 H   0  0  0  0  0  0  0  0  0  0  0  0
    1.5035    0.5472    0.0000 C   0  0  0  0  0  0  0  0  0  0  0  0
    1.1572    2.1093    0.0000 H   0  0  0  0  0  0  0  0  0  0  0  0
    2.3631    1.8966    0.0000 H   0  0  0  0  0  0  0  0  0  0  0  0
    0.0001    0.0000    0.0000 C   0  0  0  0  0  0  0  0  0  0  0  0
    0.8000   -1.3856    0.0000 H   0  0  0  0  0  0  0  0  0  0  0  0
   -1.3856   -0.8000    0.0000 C   0  0  0  0  0  0  0  0  0  0  0  0
   -2.7713   -1.6000    0.0000 H   0  0  0  0  0  0  0  0  0  0  0  0
   -1.3856   -2.4000    0.0000 H   0  0  0  0  0  0  0  0  0  0  0  0
   -2.7713    0.0000    0.0000 H   0  0  0  0  0  0  0  0  0  0  0  0
   -0.8000    1.3857    0.0000 C   0  0  0  0  0  0  0  0  0  0  0  0
   -1.6001    2.7713    0.0000 H   0  0  0  0  0  0  0  0  0  0  0  0
    0.0001    2.7713    0.0000 H   0  0  0  0  0  0  0  0  0  0  0  0
   -2.4000    1.3857    0.0000 H   0  0  0  0  0  0  0  0  0  0  0  0
  1  2  1  0  0  0  0
  1  3  1  0  0  0  0
  1  4  1  0  0  0  0
  1  5  1  0  0  0  0
  5  6  2  0  0  0  0
  5  7  1  0  0  0  0
  7  8  1  0  0  0  0
  7  9  1  0  0  0  0
  7 10  1  0  0  0  0
 10 11  1  0  0  0  0
 10 12  1  0  0  0  0
 10 13  1  0  0  0  0
 13 14  1  0  0  0  0
 13 15  1  0  0  0  0
 15 16  1  0  0  0  0
 15 17  1  0  0  0  0
 15 18  1  0  0  0  0
 13 19  1  0  0  0  0
 19 20  1  0  0  0  0
 19 21  1  0  0  0  0
 19 22  1  0  0  0  0
M  END
> <ChemID>
100263

> <source_casrn>
110-12-3

> <CAS>
110-12-3

> <SMILES>
CC(C)CCC(C)=O

> <NAME>
5-METHYL-2-HEXANONE

> <preferred_name>
5-Methyl-2-hexanone

> <iupac>
5-methylhexan-2-one

> <MPID>
98819

> <dsstox_substance_id>
DTXSID5021914

> <Canonical_QSARr>
CC(C)CCC(C)=O

> <InChI_Code_QSARr>
InChI=1S/C7H14O/c1-6(2)4-5-7(3)8/h6H,4-5H2,1-3H3

> <InChI Key_QSARr>
FFWSICBKRCICMR-UHFFFAOYSA-N

> <OH>
1.03E-11

> <OH Temperature>
25.0

> <OH Data Type>
EXP

> <OH Reference>
LECALVE,S ET AL. (1998)

> <LogOH>
-10.987162775294845

$$$$
100264
  -INDIGO-08031719142D

 18 17  0  0  0  0  0  0  0  0999 V2000
    2.7713    0.0000    0.0000 C   0  0  0  0  0  0  0  0  0  0  0  0
    4.1569    0.8000    0.0000 H   0  0  0  0  0  0  0  0  0  0  0  0
    4.1569   -0.8000    0.0000 H   0  0  0  0  0  0  0  0  0  0  0  0
    2.7713    1.6000    0.0000 H   0  0  0  0  0  0  0  0  0  0  0  0
    1.3857   -0.8000    0.0000 C   0  0  0  0  0  0  0  0  0  0  0  0
    0.0001    0.0000    0.0000 C   0  0  0  0  0  0  0  0  0  0  0  0
    0.6124    1.4782    0.0000 H   0  0  0  0  0  0  0  0  0  0  0  0
   -0.6122    1.4782    0.0000 H   0  0  0  0  0  0  0  0  0  0  0  0
   -1.3857   -0.8000    0.0000 C   0  0  0  0  0  0  0  0  0  0  0  0
   -1.9980   -2.2782    0.0000 H   0  0  0  0  0  0  0  0  0  0  0  0
   -0.7734   -2.2782    0.0000 H   0  0  0  0  0  0  0  0  0  0  0  0
   -2.7713    0.0000    0.0000 C   0  0  0  0  0  0  0  0  0  0  0  0
   -4.1569   -0.8000    0.0000 C   0  0  0  0  0  0  0  0  0  0  0  0
   -5.5426   -1.6000    0.0000 H   0  0  0  0  0  0  0  0  0  0  0  0
   -5.5426    0.0000    0.0000 H   0  0  0  0  0  0  0  0  0  0  0  0
   -4.1569   -2.4000    0.0000 H   0  0  0  0  0  0  0  0  0  0  0  0
   -2.7713    1.6000    0.0000 O   0  0  0  0  0  0  0  0  0  0  0  0
    1.3857   -2.4000    0.0000 O   0  0  0  0  0  0  0  0  0  0  0  0
  1  2  1  0  0  0  0
  1  3  1  0  0  0  0
  1  4  1  0  0  0  0
  1  5  1  0  0  0  0
  5  6  1  0  0  0  0
  6  7  1  0  0  0  0
  6  8  1  0  0  0  0
  6  9  1  0  0  0  0
  9 10  1  0  0  0  0
  9 11  1  0  0  0  0
  9 12  1  0  0  0  0
 12 13  1  0  0  0  0
 13 14  1  0  0  0  0
 13 15  1  0  0  0  0
 13 16  1  0  0  0  0
 12 17  2  0  0  0  0
  5 18  2  0  0  0  0
M  END
> <ChemID>
100264

> <source_casrn>
110-13-4

> <CAS>
110-13-4

> <SMILES>
CC(=O)CCC(C)=O

> <NAME>
2,5-HEXANEDIONE

> <preferred_name>
2,5-Hexanedione

> <iupac>
hexane-2,5-dione

> <MPID>
98820

> <dsstox_substance_id>
DTXSID8030138

> <Canonical_QSARr>
CC(=O)CCC(C)=O

> <InChI_Code_QSARr>
InChI=1S/C6H10O2/c1-5(7)3-4-6(2)8/h3-4H2,1-2H3

> <InChI Key_QSARr>
OJVAMHKKJGICOG-UHFFFAOYSA-N

> <OH>
7.130000000000001E-12

> <OH Temperature>
25.0

> <OH Data Type>
EXP

> <OH Reference>
ATKINSON,R (1989)

> <LogOH>
-11.146910470148114

$$$$
100265
  -INDIGO-08031719142D

 20 19  0  0  0  0  0  0  0  0999 V2000
    4.1570   -0.8000    0.0000 C   0  0  0  0  0  0  0  0  0  0  0  0
    4.1570   -2.4000    0.0000 O   0  0  0  0  0  0  0  0  0  0  0  0
    2.7713    0.0000    0.0000 O   0  0  0  0  0  0  0  0  0  0  0  0
    1.3856   -0.8000    0.0000 C   0  0  0  0  0  0  0  0  0  0  0  0
    0.7733   -2.2782    0.0000 H   0  0  0  0  0  0  0  0  0  0  0  0
    1.9979   -2.2782    0.0000 H   0  0  0  0  0  0  0  0  0  0  0  0
   -0.0000    0.0000    0.0000 C   0  0  0  0  0  0  0  0  0  0  0  0
   -0.8000   -1.3856    0.0000 H   0  0  0  0  0  0  0  0  0  0  0  0
   -1.3857    0.8000    0.0000 C   0  0  0  0  0  0  0  0  0  0  0  0
   -2.7713    1.6000    0.0000 H   0  0  0  0  0  0  0  0  0  0  0  0
   -2.7713    0.0000    0.0000 H   0  0  0  0  0  0  0  0  0  0  0  0
   -1.3857    2.4000    0.0000 H   0  0  0  0  0  0  0  0  0  0  0  0
    0.8001    1.3856    0.0000 C   0  0  0  0  0  0  0  0  0  0  0  0
    1.6000    2.7713    0.0000 H   0  0  0  0  0  0  0  0  0  0  0  0
    2.4000    1.3856    0.0000 H   0  0  0  0  0  0  0  0  0  0  0  0
   -0.0000    2.7713    0.0000 H   0  0  0  0  0  0  0  0  0  0  0  0
    5.5426    0.0000    0.0000 C   0  0  0  0  0  0  0  0  0  0  0  0
    6.9282    0.8000    0.0000 H   0  0  0  0  0  0  0  0  0  0  0  0
    6.9282   -0.8000    0.0000 H   0  0  0  0  0  0  0  0  0  0  0  0
    5.5426    1.6000    0.0000 H   0  0  0  0  0  0  0  0  0  0  0  0
  1  2  2  0  0  0  0
  1  3  1  0  0  0  0
  3  4  1  0  0  0  0
  4  5  1  0  0  0  0
  4  6  1  0  0  0  0
  4  7  1  0  0  0  0
  7  8  1  0  0  0  0
  7  9  1  0  0  0  0
  9 10  1  0  0  0  0
  9 11  1  0  0  0  0
  9 12  1  0  0  0  0
  7 13  1  0  0  0  0
 13 14  1  0  0  0  0
 13 15  1  0  0  0  0
 13 16  1  0  0  0  0
  1 17  1  0  0  0  0
 17 18  1  0  0  0  0
 17 19  1  0  0  0  0
 17 20  1  0  0  0  0
M  END
> <ChemID>
100265

> <source_casrn>
110-19-0

> <CAS>
110-19-0

> <SMILES>
CC(C)COC(C)=O

> <NAME>
SEC-BUTYLACETATE

> <preferred_name>
Isobutyl acetate

> <iupac>
2-methylpropyl acetate

> <MPID>
98821

> <dsstox_substance_id>
DTXSID5026837

> <Canonical_QSARr>
CC(C)COC(C)=O

> <InChI_Code_QSARr>
InChI=1S/C6H12O2/c1-5(2)4-8-6(3)7/h5H,4H2,1-3H3

> <InChI Key_QSARr>
GJRQTCIYDGXPES-UHFFFAOYSA-N

> <OH>
5.5E-12

> <OH Temperature>
25.0

> <OH Data Type>
EXP

> <OH Reference>
ATKINSON,R (1989)

> <LogOH>
-11.259637310505745

$$$$
100267
  -INDIGO-08031719142D

 17 16  0  0  0  0  0  0  0  0999 V2000
    2.7713   -0.0000    0.0000 C   0  0  0  0  0  0  0  0  0  0  0  0
    4.1569   -0.8000    0.0000 H   0  0  0  0  0  0  0  0  0  0  0  0
    4.1569    0.8000    0.0000 H   0  0  0  0  0  0  0  0  0  0  0  0
    1.3856    0.8000    0.0000 C   0  0  0  0  0  0  0  0  0  0  0  0
    0.7734    2.2782    0.0000 H   0  0  0  0  0  0  0  0  0  0  0  0
    1.9979    2.2782    0.0000 H   0  0  0  0  0  0  0  0  0  0  0  0
    0.0001   -0.0000    0.0000 C   0  0  0  0  0  0  0  0  0  0  0  0
    0.6123   -1.4782    0.0000 H   0  0  0  0  0  0  0  0  0  0  0  0
   -0.6123   -1.4782    0.0000 H   0  0  0  0  0  0  0  0  0  0  0  0
   -1.3856    0.8000    0.0000 C   0  0  0  0  0  0  0  0  0  0  0  0
   -1.9979    2.2782    0.0000 H   0  0  0  0  0  0  0  0  0  0  0  0
   -0.7734    2.2782    0.0000 H   0  0  0  0  0  0  0  0  0  0  0  0
   -2.7713   -0.0000    0.0000 C   0  0  0  0  0  0  0  0  0  0  0  0
   -4.1569   -0.8000    0.0000 H   0  0  0  0  0  0  0  0  0  0  0  0
   -4.1569    0.8000    0.0000 H   0  0  0  0  0  0  0  0  0  0  0  0
   -2.7713   -1.6000    0.0000 H   0  0  0  0  0  0  0  0  0  0  0  0
    2.7713   -1.6000    0.0000 Br  0  0  0  0  0  0  0  0  0  0  0  0
  1  2  1  0  0  0  0
  1  3  1  0  0  0  0
  1  4  1  0  0  0  0
  4  5  1  0  0  0  0
  4  6  1  0  0  0  0
  4  7  1  0  0  0  0
  7  8  1  0  0  0  0
  7  9  1  0  0  0  0
  7 10  1  0  0  0  0
 10 11  1  0  0  0  0
 10 12  1  0  0  0  0
 10 13  1  0  0  0  0
 13 14  1  0  0  0  0
 13 15  1  0  0  0  0
 13 16  1  0  0  0  0
  1 17  1  0  0  0  0
M  END
> <ChemID>
100267

> <source_casrn>
110-53-2

> <CAS>
110-53-2

> <SMILES>
CCCCCBr

> <NAME>
1-BROMOPENTANE

> <preferred_name>
1-Bromopentane

> <iupac>
1-bromopentane

> <MPID>
98823

> <dsstox_substance_id>
DTXSID3049203

> <Canonical_QSARr>
CCCCCBr

> <InChI_Code_QSARr>
InChI=1S/C5H11Br/c1-2-3-4-5-6/h2-5H2,1H3

> <InChI Key_QSARr>
YZWKKMVJZFACSU-UHFFFAOYSA-N

> <OH>
3.96E-12

> <OH Temperature>
25.0

> <OH Data Type>
EXP

> <OH Reference>
DONAGHY,T ET AL. (1993)

> <LogOH>
-11.402304814074503

$$$$
100268
  -INDIGO-08031719142D

 20 19  0  0  0  0  0  0  0  0999 V2000
    2.7713    0.0000    0.0000 C   0  0  0  0  0  0  0  0  0  0  0  0
    4.1569    0.8000    0.0000 H   0  0  0  0  0  0  0  0  0  0  0  0
    4.1569   -0.8000    0.0000 H   0  0  0  0  0  0  0  0  0  0  0  0
    2.7713    1.6000    0.0000 H   0  0  0  0  0  0  0  0  0  0  0  0
    1.3857   -0.8000    0.0000 C   0  0  0  0  0  0  0  0  0  0  0  0
    0.7734   -2.2782    0.0000 H   0  0  0  0  0  0  0  0  0  0  0  0
    1.9980   -2.2782    0.0000 H   0  0  0  0  0  0  0  0  0  0  0  0
    0.0001    0.0000    0.0000 C   0  0  0  0  0  0  0  0  0  0  0  0
    0.6124    1.4782    0.0000 H   0  0  0  0  0  0  0  0  0  0  0  0
   -0.6122    1.4782    0.0000 H   0  0  0  0  0  0  0  0  0  0  0  0
   -1.3857   -0.8000    0.0000 C   0  0  0  0  0  0  0  0  0  0  0  0
   -1.9980   -2.2782    0.0000 H   0  0  0  0  0  0  0  0  0  0  0  0
   -0.7734   -2.2782    0.0000 H   0  0  0  0  0  0  0  0  0  0  0  0
   -2.7713    0.0000    0.0000 C   0  0  0  0  0  0  0  0  0  0  0  0
   -2.1590    1.4782    0.0000 H   0  0  0  0  0  0  0  0  0  0  0  0
   -3.3836    1.4782    0.0000 H   0  0  0  0  0  0  0  0  0  0  0  0
   -4.1569   -0.8000    0.0000 C   0  0  0  0  0  0  0  0  0  0  0  0
   -5.5426   -1.6000    0.0000 H   0  0  0  0  0  0  0  0  0  0  0  0
   -5.5426    0.0000    0.0000 H   0  0  0  0  0  0  0  0  0  0  0  0
   -4.1569   -2.4000    0.0000 H   0  0  0  0  0  0  0  0  0  0  0  0
  1  2  1  0  0  0  0
  1  3  1  0  0  0  0
  1  4  1  0  0  0  0
  1  5  1  0  0  0  0
  5  6  1  0  0  0  0
  5  7  1  0  0  0  0
  5  8  1  0  0  0  0
  8  9  1  0  0  0  0
  8 10  1  0  0  0  0
  8 11  1  0  0  0  0
 11 12  1  0  0  0  0
 11 13  1  0  0  0  0
 11 14  1  0  0  0  0
 14 15  1  0  0  0  0
 14 16  1  0  0  0  0
 14 17  1  0  0  0  0
 17 18  1  0  0  0  0
 17 19  1  0  0  0  0
 17 20  1  0  0  0  0
M  END
> <ChemID>
100268

> <source_casrn>
110-54-3

> <CAS>
110-54-3

> <SMILES>
CCCCCC

> <NAME>
N-HEXANE

> <preferred_name>
Hexane

> <iupac>
hexane

> <MPID>
98824

> <dsstox_substance_id>
DTXSID0021917

> <Canonical_QSARr>
CCCCCC

> <InChI_Code_QSARr>
InChI=1S/C6H14/c1-3-5-6-4-2/h3-6H2,1-2H3

> <InChI Key_QSARr>
VLKZOEOYAKHREP-UHFFFAOYSA-N

> <OH>
5.610000000000001E-12

> <OH Temperature>
25.0

> <OH Data Type>
EXP

> <OH Reference>
ATKINSON,R (1989)

> <LogOH>
-11.251037138743818

$$$$
100269
  -INDIGO-08031719142D

 16 15  0  0  0  0  0  0  0  0999 V2000
    2.7713   -0.0000    0.0000 C   0  0  0  0  0  0  0  0  0  0  0  0
    4.1569   -0.8000    0.0000 H   0  0  0  0  0  0  0  0  0  0  0  0
    4.1569    0.8000    0.0000 H   0  0  0  0  0  0  0  0  0  0  0  0
    2.7713   -1.6000    0.0000 H   0  0  0  0  0  0  0  0  0  0  0  0
    1.3856    0.8000    0.0000 C   0  0  0  0  0  0  0  0  0  0  0  0
    0.7734    2.2782    0.0000 H   0  0  0  0  0  0  0  0  0  0  0  0
    1.9979    2.2782    0.0000 H   0  0  0  0  0  0  0  0  0  0  0  0
    0.0001   -0.0000    0.0000 C   0  0  0  0  0  0  0  0  0  0  0  0
    0.6123   -1.4782    0.0000 H   0  0  0  0  0  0  0  0  0  0  0  0
   -0.6123   -1.4782    0.0000 H   0  0  0  0  0  0  0  0  0  0  0  0
   -1.3856    0.8000    0.0000 C   0  0  0  0  0  0  0  0  0  0  0  0
   -1.9979    2.2782    0.0000 H   0  0  0  0  0  0  0  0  0  0  0  0
   -0.7734    2.2782    0.0000 H   0  0  0  0  0  0  0  0  0  0  0  0
   -2.7713   -0.0000    0.0000 C   0  0  0  0  0  0  0  0  0  0  0  0
   -4.1569    0.8000    0.0000 H   0  0  0  0  0  0  0  0  0  0  0  0
   -2.7712   -1.6000    0.0000 O   0  0  0  0  0  0  0  0  0  0  0  0
  1  2  1  0  0  0  0
  1  3  1  0  0  0  0
  1  4  1  0  0  0  0
  1  5  1  0  0  0  0
  5  6  1  0  0  0  0
  5  7  1  0  0  0  0
  5  8  1  0  0  0  0
  8  9  1  0  0  0  0
  8 10  1  0  0  0  0
  8 11  1  0  0  0  0
 11 12  1  0  0  0  0
 11 13  1  0  0  0  0
 11 14  1  0  0  0  0
 14 15  1  0  0  0  0
 14 16  2  0  0  0  0
M  END
> <ChemID>
100269

> <source_casrn>
110-62-3

> <CAS>
110-62-3

> <SMILES>
CCCCC=O

> <NAME>
1-PENTANAL

> <preferred_name>
Pentanal

> <iupac>
pentanal

> <MPID>
98825

> <dsstox_substance_id>
DTXSID7021653

> <Canonical_QSARr>
CCCCC=O

> <InChI_Code_QSARr>
InChI=1S/C5H10O/c1-2-3-4-5-6/h5H,2-4H2,1H3

> <InChI Key_QSARr>
HGBOYTHUEUWSSQ-UHFFFAOYSA-N

> <OH>
2.85E-11

> <OH Temperature>
25.0

> <OH Data Type>
EXP

> <OH Reference>
ATKINSON,R (1989)

> <LogOH>
-10.54515513999147

$$$$
100271
  -INDIGO-08031719142D

 14 13  0  0  0  0  0  0  0  0999 V2000
   -1.3857    0.8000    0.0000 C   0  0  0  0  0  0  0  0  0  0  0  0
   -0.7733    2.2782    0.0000 H   0  0  0  0  0  0  0  0  0  0  0  0
   -1.9979    2.2782    0.0000 H   0  0  0  0  0  0  0  0  0  0  0  0
   -2.7713    0.0000    0.0000 O   0  0  0  0  0  0  0  0  0  0  0  0
   -4.1569    0.8000    0.0000 C   0  0  0  0  0  0  0  0  0  0  0  0
   -5.5426    0.0000    0.0000 H   0  0  0  0  0  0  0  0  0  0  0  0
   -4.1569    2.4000    0.0000 O   0  0  0  0  0  0  0  0  0  0  0  0
    0.0000    0.0000    0.0000 C   0  0  0  0  0  0  0  0  0  0  0  0
   -0.6122   -1.4782    0.0000 H   0  0  0  0  0  0  0  0  0  0  0  0
    0.6122   -1.4782    0.0000 H   0  0  0  0  0  0  0  0  0  0  0  0
    1.3856    0.8000    0.0000 C   0  0  0  0  0  0  0  0  0  0  0  0
    2.7713    1.6000    0.0000 H   0  0  0  0  0  0  0  0  0  0  0  0
    2.7713    0.0000    0.0000 H   0  0  0  0  0  0  0  0  0  0  0  0
    1.3856    2.4000    0.0000 H   0  0  0  0  0  0  0  0  0  0  0  0
  1  2  1  0  0  0  0
  1  3  1  0  0  0  0
  1  4  1  0  0  0  0
  4  5  1  0  0  0  0
  5  6  1  0  0  0  0
  5  7  2  0  0  0  0
  1  8  1  0  0  0  0
  8  9  1  0  0  0  0
  8 10  1  0  0  0  0
  8 11  1  0  0  0  0
 11 12  1  0  0  0  0
 11 13  1  0  0  0  0
 11 14  1  0  0  0  0
M  END
> <ChemID>
100271

> <source_casrn>
110-74-7

> <CAS>
110-74-7

> <SMILES>
CCCOC=O

> <NAME>
PROPYL FORMATE

> <preferred_name>
Formic acid, propyl ester

> <iupac>
PROPYL FORMATE

> <MPID>
98827

> <dsstox_substance_id>
DTXSID3059391

> <Canonical_QSARr>
CCCOC=O

> <InChI_Code_QSARr>
InChI=1S/C4H8O2/c1-2-3-6-4-5/h4H,2-3H2,1H3

> <InChI Key_QSARr>
KFNNIILCVOLYIR-UHFFFAOYSA-N

> <OH>
2.38E-12

> <OH Temperature>
25.0

> <OH Data Type>
EXP

> <OH Reference>
KWOK,ESC & ATKINSON,R (1994)

> <LogOH>
-11.623423042943502

$$$$
100272
  -INDIGO-08031719142D

 16 15  0  0  0  0  0  0  0  0999 V2000
    2.7713    0.0000    0.0000 O   0  0  0  0  0  0  0  0  0  0  0  0
    4.1569    0.8000    0.0000 H   0  0  0  0  0  0  0  0  0  0  0  0
    1.3857    0.8000    0.0000 C   0  0  0  0  0  0  0  0  0  0  0  0
    0.7734    2.2782    0.0000 H   0  0  0  0  0  0  0  0  0  0  0  0
    1.9980    2.2782    0.0000 H   0  0  0  0  0  0  0  0  0  0  0  0
    0.0001    0.0000    0.0000 C   0  0  0  0  0  0  0  0  0  0  0  0
    0.6124   -1.4782    0.0000 H   0  0  0  0  0  0  0  0  0  0  0  0
   -0.6122   -1.4782    0.0000 H   0  0  0  0  0  0  0  0  0  0  0  0
   -1.3857    0.8000    0.0000 O   0  0  0  0  0  0  0  0  0  0  0  0
   -2.7713    0.0000    0.0000 C   0  0  0  0  0  0  0  0  0  0  0  0
   -2.1590   -1.4782    0.0000 H   0  0  0  0  0  0  0  0  0  0  0  0
   -3.3836   -1.4782    0.0000 H   0  0  0  0  0  0  0  0  0  0  0  0
   -4.1569    0.8000    0.0000 C   0  0  0  0  0  0  0  0  0  0  0  0
   -5.5426    1.6000    0.0000 H   0  0  0  0  0  0  0  0  0  0  0  0
   -5.5426    0.0000    0.0000 H   0  0  0  0  0  0  0  0  0  0  0  0
   -4.1569    2.4000    0.0000 H   0  0  0  0  0  0  0  0  0  0  0  0
  1  2  1  0  0  0  0
  1  3  1  0  0  0  0
  3  4  1  0  0  0  0
  3  5  1  0  0  0  0
  3  6  1  0  0  0  0
  6  7  1  0  0  0  0
  6  8  1  0  0  0  0
  6  9  1  0  0  0  0
  9 10  1  0  0  0  0
 10 11  1  0  0  0  0
 10 12  1  0  0  0  0
 10 13  1  0  0  0  0
 13 14  1  0  0  0  0
 13 15  1  0  0  0  0
 13 16  1  0  0  0  0
M  END
> <ChemID>
100272

> <source_casrn>
110-80-5

> <CAS>
110-80-5

> <SMILES>
CCOCCO

> <NAME>
2-Ethoxyethanol

> <preferred_name>
2-Ethoxyethanol

> <iupac>
2-ethoxyethanol

> <MPID>
98828

> <dsstox_substance_id>
DTXSID7024087

> <Canonical_QSARr>
CCOCCO

> <InChI_Code_QSARr>
InChI=1S/C4H10O2/c1-2-6-4-3-5/h5H,2-4H2,1H3

> <InChI Key_QSARr>
ZNQVEEAIQZEUHB-UHFFFAOYSA-N

> <OH>
1.54E-11

> <OH Temperature>
25.0

> <OH Data Type>
EXP

> <OH Reference>
KWOK,ESC & ATKINSON,R (1994)

> <LogOH>
-10.81247927916355

$$$$
100273
  -INDIGO-08031719142D

 18 18  0  0  0  0  0  0  0  0999 V2000
    0.0000    0.0000    0.0000 C   0  0  0  0  0  0  0  0  0  0  0  0
    0.5472    1.5035    0.0000 H   0  0  0  0  0  0  0  0  0  0  0  0
    1.5757   -0.2778    0.0000 H   0  0  0  0  0  0  0  0  0  0  0  0
   -1.3856    0.8000    0.0000 C   0  0  0  0  0  0  0  0  0  0  0  0
   -0.3571    2.0257    0.0000 H   0  0  0  0  0  0  0  0  0  0  0  0
   -2.4141    2.0257    0.0000 H   0  0  0  0  0  0  0  0  0  0  0  0
   -2.7713    0.0000    0.0000 C   0  0  0  0  0  0  0  0  0  0  0  0
   -3.3185    1.5035    0.0000 H   0  0  0  0  0  0  0  0  0  0  0  0
   -4.3470   -0.2778    0.0000 H   0  0  0  0  0  0  0  0  0  0  0  0
   -2.7713   -1.6000    0.0000 C   0  0  0  0  0  0  0  0  0  0  0  0
   -4.3470   -1.3222    0.0000 H   0  0  0  0  0  0  0  0  0  0  0  0
   -3.3185   -3.1035    0.0000 H   0  0  0  0  0  0  0  0  0  0  0  0
   -1.3856   -2.4000    0.0000 C   0  0  0  0  0  0  0  0  0  0  0  0
   -2.4141   -3.6257    0.0000 H   0  0  0  0  0  0  0  0  0  0  0  0
   -0.3571   -3.6257    0.0000 H   0  0  0  0  0  0  0  0  0  0  0  0
    0.0000   -1.6000    0.0000 C   0  0  0  0  0  0  0  0  0  0  0  0
    0.5472   -3.1035    0.0000 H   0  0  0  0  0  0  0  0  0  0  0  0
    1.5757   -1.3222    0.0000 H   0  0  0  0  0  0  0  0  0  0  0  0
  1  2  1  0  0  0  0
  1  3  1  0  0  0  0
  1  4  1  0  0  0  0
  4  5  1  0  0  0  0
  4  6  1  0  0  0  0
  4  7  1  0  0  0  0
  7  8  1  0  0  0  0
  7  9  1  0  0  0  0
  7 10  1  0  0  0  0
 10 11  1  0  0  0  0
 10 12  1  0  0  0  0
 10 13  1  0  0  0  0
 13 14  1  0  0  0  0
 13 15  1  0  0  0  0
 13 16  1  0  0  0  0
 16  1  1  0  0  0  0
 16 17  1  0  0  0  0
 16 18  1  0  0  0  0
M  END
> <ChemID>
100273

> <source_casrn>
110-82-7

> <CAS>
110-82-7

> <SMILES>
C1CCCCC1

> <NAME>
CYCLOHEXANE

> <preferred_name>
Cyclohexane

> <iupac>
cyclohexane

> <MPID>
98829

> <dsstox_substance_id>
DTXSID4021923

> <Canonical_QSARr>
C1CCCCC1

> <InChI_Code_QSARr>
InChI=1S/C6H12/c1-2-4-6-5-3-1/h1-6H2

> <InChI Key_QSARr>
XDTMQSROBMDMFD-UHFFFAOYSA-N

> <OH>
7.49E-12

> <OH Temperature>
25.0

> <OH Data Type>
EXP

> <OH Reference>
ATKINSON,R (1989)

> <LogOH>
-11.125518182300524

$$$$
100275
  -INDIGO-08031719142D

 11 11  0  0  0  0  0  0  0  0999 V2000
   -0.0000    3.2000    0.0000 N   0  0  0  0  0  0  0  0  0  0  0  0
    1.3856    2.4000    0.0000 C   0  0  0  0  0  0  0  0  0  0  0  0
    2.7713    3.2000    0.0000 H   0  0  0  0  0  0  0  0  0  0  0  0
    1.3856    0.8000    0.0000 C   0  0  0  0  0  0  0  0  0  0  0  0
    2.7713    0.0000    0.0000 H   0  0  0  0  0  0  0  0  0  0  0  0
   -0.0000    0.0000    0.0000 C   0  0  0  0  0  0  0  0  0  0  0  0
   -0.0000   -1.6000    0.0000 H   0  0  0  0  0  0  0  0  0  0  0  0
   -1.3856    0.8000    0.0000 C   0  0  0  0  0  0  0  0  0  0  0  0
   -2.7713    0.0000    0.0000 H   0  0  0  0  0  0  0  0  0  0  0  0
   -1.3856    2.4000    0.0000 C   0  0  0  0  0  0  0  0  0  0  0  0
   -2.7713    3.2000    0.0000 H   0  0  0  0  0  0  0  0  0  0  0  0
  1  2  1  0  0  0  0
  2  3  1  0  0  0  0
  2  4  2  0  0  0  0
  4  5  1  0  0  0  0
  4  6  1  0  0  0  0
  6  7  1  0  0  0  0
  6  8  2  0  0  0  0
  8  9  1  0  0  0  0
  8 10  1  0  0  0  0
 10  1  2  0  0  0  0
 10 11  1  0  0  0  0
M  END
> <ChemID>
100275

> <source_casrn>
110-86-1

> <CAS>
110-86-1

> <SMILES>
c1cccc[n]1

> <NAME>
PYRIDINE

> <preferred_name>
Pyridine

> <iupac>
pyridine

> <MPID>
98831

> <dsstox_substance_id>
DTXSID9021924

> <Canonical_QSARr>
c1cccc[n]1

> <InChI_Code_QSARr>
InChI=1S/C5H5N/c1-2-4-6-5-3-1/h1-5H

> <InChI Key_QSARr>
JUJWROOIHBZHMG-UHFFFAOYSA-N

> <OH>
3.699999999999999E-13

> <OH Temperature>
25.0

> <OH Data Type>
EXP

> <OH Reference>
ATKINSON,R (1989)

> <LogOH>
-12.431798275932998

$$$$
100276
  -INDIGO-08031719142D

 12 12  0  0  0  0  0  0  0  0999 V2000
    0.0000    0.0000    0.0000 C   0  0  0  0  0  0  0  0  0  0  0  0
    0.5472    1.5035    0.0000 H   0  0  0  0  0  0  0  0  0  0  0  0
    1.5757   -0.2778    0.0000 H   0  0  0  0  0  0  0  0  0  0  0  0
   -1.3856    0.8000    0.0000 O   0  0  0  0  0  0  0  0  0  0  0  0
   -2.7713    0.0000    0.0000 C   0  0  0  0  0  0  0  0  0  0  0  0
   -3.3185    1.5035    0.0000 H   0  0  0  0  0  0  0  0  0  0  0  0
   -4.3470   -0.2778    0.0000 H   0  0  0  0  0  0  0  0  0  0  0  0
   -2.7713   -1.6000    0.0000 O   0  0  0  0  0  0  0  0  0  0  0  0
   -1.3856   -2.4000    0.0000 C   0  0  0  0  0  0  0  0  0  0  0  0
   -2.4141   -3.6257    0.0000 H   0  0  0  0  0  0  0  0  0  0  0  0
   -0.3571   -3.6257    0.0000 H   0  0  0  0  0  0  0  0  0  0  0  0
    0.0000   -1.6000    0.0000 O   0  0  0  0  0  0  0  0  0  0  0  0
  1  2  1  0  0  0  0
  1  3  1  0  0  0  0
  1  4  1  0  0  0  0
  4  5  1  0  0  0  0
  5  6  1  0  0  0  0
  5  7  1  0  0  0  0
  5  8  1  0  0  0  0
  8  9  1  0  0  0  0
  9 10  1  0  0  0  0
  9 11  1  0  0  0  0
  9 12  1  0  0  0  0
 12  1  1  0  0  0  0
M  END
> <ChemID>
100276

> <source_casrn>
110-88-3

> <CAS>
110-88-3

> <SMILES>
C1OCOCO1

> <NAME>
1,3,5-TRIOXANE

> <preferred_name>
1,3,5-Trioxane

> <iupac>
1,3,5-trioxane

> <MPID>
98832

> <dsstox_substance_id>
DTXSID4021925

> <Canonical_QSARr>
C1OCOCO1

> <InChI_Code_QSARr>
InChI=1S/C3H6O3/c1-4-2-6-3-5-1/h1-3H2

> <InChI Key_QSARr>
BGJSXRVXTHVRSN-UHFFFAOYSA-N

> <OH>
6.2E-12

> <OH Temperature>
25.0

> <OH Data Type>
EXP

> <OH Reference>
ATKINSON,R (1989)

> <LogOH>
-11.207608310501744

$$$$
100277
  -INDIGO-08031719142D

 23 22  0  0  0  0  0  0  0  0999 V2000
   -2.7712   -1.6000    0.0000 C   0  0  0  0  0  0  0  0  0  0  0  0
   -2.7712   -3.2000    0.0000 H   0  0  0  0  0  0  0  0  0  0  0  0
   -4.1569   -2.4000    0.0000 H   0  0  0  0  0  0  0  0  0  0  0  0
   -1.3856   -2.4000    0.0000 H   0  0  0  0  0  0  0  0  0  0  0  0
   -2.7712    0.0000    0.0000 C   0  0  0  0  0  0  0  0  0  0  0  0
   -4.1569    0.8000    0.0000 C   0  0  0  0  0  0  0  0  0  0  0  0
   -5.5426    1.6000    0.0000 H   0  0  0  0  0  0  0  0  0  0  0  0
   -5.5426    0.0000    0.0000 H   0  0  0  0  0  0  0  0  0  0  0  0
   -4.1569    2.4000    0.0000 H   0  0  0  0  0  0  0  0  0  0  0  0
   -1.3856    0.8000    0.0000 C   0  0  0  0  0  0  0  0  0  0  0  0
   -1.3856    2.4000    0.0000 H   0  0  0  0  0  0  0  0  0  0  0  0
    0.0001    0.0000    0.0000 C   0  0  0  0  0  0  0  0  0  0  0  0
    0.6122   -1.4782    0.0000 H   0  0  0  0  0  0  0  0  0  0  0  0
   -0.6122   -1.4782    0.0000 H   0  0  0  0  0  0  0  0  0  0  0  0
    1.3856    0.8000    0.0000 C   0  0  0  0  0  0  0  0  0  0  0  0
    0.7734    2.2782    0.0000 H   0  0  0  0  0  0  0  0  0  0  0  0
    1.9979    2.2782    0.0000 H   0  0  0  0  0  0  0  0  0  0  0  0
    2.7712    0.0000    0.0000 C   0  0  0  0  0  0  0  0  0  0  0  0
    4.1569    0.8000    0.0000 C   0  0  0  0  0  0  0  0  0  0  0  0
    5.5426    1.6000    0.0000 H   0  0  0  0  0  0  0  0  0  0  0  0
    5.5426    0.0000    0.0000 H   0  0  0  0  0  0  0  0  0  0  0  0
    4.1569    2.4000    0.0000 H   0  0  0  0  0  0  0  0  0  0  0  0
    2.7712   -1.6000    0.0000 O   0  0  0  0  0  0  0  0  0  0  0  0
  1  2  1  0  0  0  0
  1  3  1  0  0  0  0
  1  4  1  0  0  0  0
  1  5  1  0  0  0  0
  5  6  1  0  0  0  0
  6  7  1  0  0  0  0
  6  8  1  0  0  0  0
  6  9  1  0  0  0  0
  5 10  2  0  0  0  0
 10 11  1  0  0  0  0
 10 12  1  0  0  0  0
 12 13  1  0  0  0  0
 12 14  1  0  0  0  0
 12 15  1  0  0  0  0
 15 16  1  0  0  0  0
 15 17  1  0  0  0  0
 15 18  1  0  0  0  0
 18 19  1  0  0  0  0
 19 20  1  0  0  0  0
 19 21  1  0  0  0  0
 19 22  1  0  0  0  0
 18 23  2  0  0  0  0
M  END
> <ChemID>
100277

> <source_casrn>
110-93-0

> <CAS>
110-93-0

> <SMILES>
CC(C)=CCCC(C)=O

> <NAME>
5-Hepten-2-one, 6-methyl-

> <preferred_name>
6-Methyl-5-hepten-2-one

> <iupac>
6-methylhept-5-en-2-one

> <MPID>
98833

> <dsstox_substance_id>
DTXSID5021629

> <Canonical_QSARr>
CC(C)=CCCC(C)=O

> <InChI_Code_QSARr>
InChI=1S/C8H14O/c1-7(2)5-4-6-8(3)9/h5H,4,6H2,1-3H3

> <InChI Key_QSARr>
UHEPJGULSIKKTP-UHFFFAOYSA-N

> <OH>
1.57E-10

> <OH Temperature>
23.0

> <OH Data Type>
EXP

> <OH Reference>
SMITH,AM ET AL. (1996)

> <LogOH>
-9.804100347590747

$$$$
100279
  -INDIGO-08031719142D

 21 20  0  0  0  0  0  0  0  0999 V2000
    5.5425    0.0000    0.0000 C   0  0  0  0  0  0  0  0  0  0  0  0
    6.9282   -0.8000    0.0000 H   0  0  0  0  0  0  0  0  0  0  0  0
    6.9282    0.8000    0.0000 H   0  0  0  0  0  0  0  0  0  0  0  0
    5.5425   -1.6000    0.0000 H   0  0  0  0  0  0  0  0  0  0  0  0
    4.1570    0.8000    0.0000 C   0  0  0  0  0  0  0  0  0  0  0  0
    4.1570    2.4000    0.0000 O   0  0  0  0  0  0  0  0  0  0  0  0
    2.7713    0.0000    0.0000 O   0  0  0  0  0  0  0  0  0  0  0  0
    1.3856    0.8000    0.0000 C   0  0  0  0  0  0  0  0  0  0  0  0
    0.7734    2.2782    0.0000 H   0  0  0  0  0  0  0  0  0  0  0  0
    1.9979    2.2782    0.0000 H   0  0  0  0  0  0  0  0  0  0  0  0
    0.0001    0.0000    0.0000 C   0  0  0  0  0  0  0  0  0  0  0  0
    0.6122   -1.4782    0.0000 H   0  0  0  0  0  0  0  0  0  0  0  0
   -0.6123   -1.4782    0.0000 H   0  0  0  0  0  0  0  0  0  0  0  0
   -1.3856    0.8000    0.0000 O   0  0  0  0  0  0  0  0  0  0  0  0
   -2.7713    0.0000    0.0000 C   0  0  0  0  0  0  0  0  0  0  0  0
   -2.1590   -1.4782    0.0000 H   0  0  0  0  0  0  0  0  0  0  0  0
   -3.3835   -1.4782    0.0000 H   0  0  0  0  0  0  0  0  0  0  0  0
   -4.1569    0.8000    0.0000 C   0  0  0  0  0  0  0  0  0  0  0  0
   -5.5426    1.6000    0.0000 H   0  0  0  0  0  0  0  0  0  0  0  0
   -5.5426    0.0000    0.0000 H   0  0  0  0  0  0  0  0  0  0  0  0
   -4.1569    2.4000    0.0000 H   0  0  0  0  0  0  0  0  0  0  0  0
  1  2  1  0  0  0  0
  1  3  1  0  0  0  0
  1  4  1  0  0  0  0
  1  5  1  0  0  0  0
  5  6  2  0  0  0  0
  5  7  1  0  0  0  0
  7  8  1  0  0  0  0
  8  9  1  0  0  0  0
  8 10  1  0  0  0  0
  8 11  1  0  0  0  0
 11 12  1  0  0  0  0
 11 13  1  0  0  0  0
 11 14  1  0  0  0  0
 14 15  1  0  0  0  0
 15 16  1  0  0  0  0
 15 17  1  0  0  0  0
 15 18  1  0  0  0  0
 18 19  1  0  0  0  0
 18 20  1  0  0  0  0
 18 21  1  0  0  0  0
M  END
> <ChemID>
100279

> <source_casrn>
111-15-9

> <CAS>
111-15-9

> <SMILES>
CCOCCOC(C)=O

> <NAME>
ETHOXYETHYLACETATE

> <preferred_name>
2-Ethoxyethyl acetate

> <iupac>
2-ethoxyethyl acetate

> <MPID>
98835

> <dsstox_substance_id>
DTXSID9021928

> <Canonical_QSARr>
CCOCCOC(C)=O

> <InChI_Code_QSARr>
InChI=1S/C6H12O3/c1-3-8-4-5-9-6(2)7/h3-5H2,1-2H3

> <InChI Key_QSARr>
SVONRAPFKPVNKG-UHFFFAOYSA-N

> <OH>
1.3E-11

> <OH Temperature>
25.0

> <OH Data Type>
EXP

> <OH Reference>
ATKINSON,R (1989)

> <LogOH>
-10.886056647693158

$$$$
100280
  -INDIGO-08031719142D

 20 19  0  0  0  0  0  0  0  0999 V2000
    2.7713    1.6000    0.0000 Br  0  0  0  0  0  0  0  0  0  0  0  0
    2.7713    0.0000    0.0000 C   0  0  0  0  0  0  0  0  0  0  0  0
    4.1569    0.8000    0.0000 H   0  0  0  0  0  0  0  0  0  0  0  0
    4.1569   -0.8000    0.0000 H   0  0  0  0  0  0  0  0  0  0  0  0
    1.3857   -0.8000    0.0000 C   0  0  0  0  0  0  0  0  0  0  0  0
    0.7734   -2.2782    0.0000 H   0  0  0  0  0  0  0  0  0  0  0  0
    1.9980   -2.2782    0.0000 H   0  0  0  0  0  0  0  0  0  0  0  0
    0.0001    0.0000    0.0000 C   0  0  0  0  0  0  0  0  0  0  0  0
    0.6124    1.4782    0.0000 H   0  0  0  0  0  0  0  0  0  0  0  0
   -0.6122    1.4782    0.0000 H   0  0  0  0  0  0  0  0  0  0  0  0
   -1.3857   -0.8000    0.0000 C   0  0  0  0  0  0  0  0  0  0  0  0
   -1.9980   -2.2782    0.0000 H   0  0  0  0  0  0  0  0  0  0  0  0
   -0.7734   -2.2782    0.0000 H   0  0  0  0  0  0  0  0  0  0  0  0
   -2.7713    0.0000    0.0000 C   0  0  0  0  0  0  0  0  0  0  0  0
   -2.1590    1.4782    0.0000 H   0  0  0  0  0  0  0  0  0  0  0  0
   -3.3836    1.4782    0.0000 H   0  0  0  0  0  0  0  0  0  0  0  0
   -4.1569   -0.8000    0.0000 C   0  0  0  0  0  0  0  0  0  0  0  0
   -5.5426   -1.6000    0.0000 H   0  0  0  0  0  0  0  0  0  0  0  0
   -5.5426    0.0000    0.0000 H   0  0  0  0  0  0  0  0  0  0  0  0
   -4.1569   -2.4000    0.0000 H   0  0  0  0  0  0  0  0  0  0  0  0
  1  2  1  0  0  0  0
  2  3  1  0  0  0  0
  2  4  1  0  0  0  0
  2  5  1  0  0  0  0
  5  6  1  0  0  0  0
  5  7  1  0  0  0  0
  5  8  1  0  0  0  0
  8  9  1  0  0  0  0
  8 10  1  0  0  0  0
  8 11  1  0  0  0  0
 11 12  1  0  0  0  0
 11 13  1  0  0  0  0
 11 14  1  0  0  0  0
 14 15  1  0  0  0  0
 14 16  1  0  0  0  0
 14 17  1  0  0  0  0
 17 18  1  0  0  0  0
 17 19  1  0  0  0  0
 17 20  1  0  0  0  0
M  END
> <ChemID>
100280

> <source_casrn>
111-25-1

> <CAS>
111-25-1

> <SMILES>
CCCCCCBr

> <NAME>
1-BROMOHEXANE

> <preferred_name>
1-Bromohexane

> <iupac>
1-bromohexane

> <MPID>
98836

> <dsstox_substance_id>
DTXSID4021929

> <Canonical_QSARr>
CCCCCCBr

> <InChI_Code_QSARr>
InChI=1S/C6H13Br/c1-2-3-4-5-6-7/h2-6H2,1H3

> <InChI Key_QSARr>
MNDIARAMWBIKFW-UHFFFAOYSA-N

> <OH>
5.849999999999998E-12

> <OH Temperature>
25.0

> <OH Data Type>
EXP

> <OH Reference>
DONAGHY,T ET AL. (1993)

> <LogOH>
-11.232844133917826

$$$$
100281
  -INDIGO-08031719142D

 21 20  0  0  0  0  0  0  0  0999 V2000
    4.1569    0.8000    0.0000 C   0  0  0  0  0  0  0  0  0  0  0  0
    5.5426    1.6000    0.0000 H   0  0  0  0  0  0  0  0  0  0  0  0
    5.5426    0.0000    0.0000 H   0  0  0  0  0  0  0  0  0  0  0  0
    4.1569    2.4000    0.0000 H   0  0  0  0  0  0  0  0  0  0  0  0
    2.7712    0.0000    0.0000 C   0  0  0  0  0  0  0  0  0  0  0  0
    3.3836   -1.4782    0.0000 H   0  0  0  0  0  0  0  0  0  0  0  0
    2.1589   -1.4782    0.0000 H   0  0  0  0  0  0  0  0  0  0  0  0
    1.3856    0.8000    0.0000 C   0  0  0  0  0  0  0  0  0  0  0  0
    0.7734    2.2782    0.0000 H   0  0  0  0  0  0  0  0  0  0  0  0
    1.9979    2.2782    0.0000 H   0  0  0  0  0  0  0  0  0  0  0  0
    0.0001    0.0000    0.0000 C   0  0  0  0  0  0  0  0  0  0  0  0
    0.6122   -1.4782    0.0000 H   0  0  0  0  0  0  0  0  0  0  0  0
   -0.6122   -1.4782    0.0000 H   0  0  0  0  0  0  0  0  0  0  0  0
   -1.3856    0.8000    0.0000 C   0  0  0  0  0  0  0  0  0  0  0  0
   -1.9979    2.2782    0.0000 H   0  0  0  0  0  0  0  0  0  0  0  0
   -0.7734    2.2782    0.0000 H   0  0  0  0  0  0  0  0  0  0  0  0
   -2.7712    0.0000    0.0000 C   0  0  0  0  0  0  0  0  0  0  0  0
   -2.1589   -1.4782    0.0000 H   0  0  0  0  0  0  0  0  0  0  0  0
   -3.3836   -1.4782    0.0000 H   0  0  0  0  0  0  0  0  0  0  0  0
   -4.1569    0.8000    0.0000 O   0  0  0  0  0  0  0  0  0  0  0  0
   -5.5426    0.0000    0.0000 H   0  0  0  0  0  0  0  0  0  0  0  0
  1  2  1  0  0  0  0
  1  3  1  0  0  0  0
  1  4  1  0  0  0  0
  1  5  1  0  0  0  0
  5  6  1  0  0  0  0
  5  7  1  0  0  0  0
  5  8  1  0  0  0  0
  8  9  1  0  0  0  0
  8 10  1  0  0  0  0
  8 11  1  0  0  0  0
 11 12  1  0  0  0  0
 11 13  1  0  0  0  0
 11 14  1  0  0  0  0
 14 15  1  0  0  0  0
 14 16  1  0  0  0  0
 14 17  1  0  0  0  0
 17 18  1  0  0  0  0
 17 19  1  0  0  0  0
 17 20  1  0  0  0  0
 20 21  1  0  0  0  0
M  END
> <ChemID>
100281

> <source_casrn>
111-27-3

> <CAS>
111-27-3

> <SMILES>
CCCCCCO

> <NAME>
1-HEXANOL

> <preferred_name>
1-Hexanol

> <iupac>
hexan-1-ol

> <MPID>
98837

> <dsstox_substance_id>
DTXSID8021931

> <Canonical_QSARr>
CCCCCCO

> <InChI_Code_QSARr>
InChI=1S/C6H14O/c1-2-3-4-5-6-7/h7H,2-6H2,1H3

> <InChI Key_QSARr>
ZSIAUFGUXNUGDI-UHFFFAOYSA-N

> <OH>
1.25E-11

> <OH Temperature>
25.0

> <OH Data Type>
EXP

> <OH Reference>
KWOK,ESC & ATKINSON,R (1994)

> <LogOH>
-10.903089986991946

$$$$
100283
  -INDIGO-08031719142D

 19 18  0  0  0  0  0  0  0  0999 V2000
   -1.3856    0.8000    0.0000 C   0  0  0  0  0  0  0  0  0  0  0  0
   -0.7734    2.2782    0.0000 H   0  0  0  0  0  0  0  0  0  0  0  0
   -1.9979    2.2782    0.0000 H   0  0  0  0  0  0  0  0  0  0  0  0
   -0.0001   -0.0000    0.0000 C   0  0  0  0  0  0  0  0  0  0  0  0
   -0.6122   -1.4782    0.0000 H   0  0  0  0  0  0  0  0  0  0  0  0
    0.6123   -1.4782    0.0000 H   0  0  0  0  0  0  0  0  0  0  0  0
    1.3856    0.8000    0.0000 C   0  0  0  0  0  0  0  0  0  0  0  0
    1.9979    2.2782    0.0000 H   0  0  0  0  0  0  0  0  0  0  0  0
    0.7733    2.2782    0.0000 H   0  0  0  0  0  0  0  0  0  0  0  0
    2.7713   -0.0000    0.0000 O   0  0  0  0  0  0  0  0  0  0  0  0
    4.1569    0.8000    0.0000 H   0  0  0  0  0  0  0  0  0  0  0  0
   -2.7712   -0.0000    0.0000 O   0  0  0  0  0  0  0  0  0  0  0  0
   -4.1569    0.8000    0.0000 C   0  0  0  0  0  0  0  0  0  0  0  0
   -3.5446    2.2782    0.0000 H   0  0  0  0  0  0  0  0  0  0  0  0
   -4.7692    2.2782    0.0000 H   0  0  0  0  0  0  0  0  0  0  0  0
   -5.5425   -0.0000    0.0000 C   0  0  0  0  0  0  0  0  0  0  0  0
   -6.9282   -0.8000    0.0000 H   0  0  0  0  0  0  0  0  0  0  0  0
   -6.9282    0.8000    0.0000 H   0  0  0  0  0  0  0  0  0  0  0  0
   -5.5425   -1.6000    0.0000 H   0  0  0  0  0  0  0  0  0  0  0  0
  1  2  1  0  0  0  0
  1  3  1  0  0  0  0
  1  4  1  0  0  0  0
  4  5  1  0  0  0  0
  4  6  1  0  0  0  0
  4  7  1  0  0  0  0
  7  8  1  0  0  0  0
  7  9  1  0  0  0  0
  7 10  1  0  0  0  0
 10 11  1  0  0  0  0
  1 12  1  0  0  0  0
 12 13  1  0  0  0  0
 13 14  1  0  0  0  0
 13 15  1  0  0  0  0
 13 16  1  0  0  0  0
 16 17  1  0  0  0  0
 16 18  1  0  0  0  0
 16 19  1  0  0  0  0
M  END
> <ChemID>
100283

> <source_casrn>
111-35-3

> <CAS>
111-35-3

> <SMILES>
CCOCCCO

> <NAME>
3-ETHOXY-1-PROPANOL

> <preferred_name>
3-Ethoxy-1-propanol

> <iupac>
3-ethoxypropan-1-ol

> <MPID>
98839

> <dsstox_substance_id>
DTXSID4073124

> <Canonical_QSARr>
CCOCCCO

> <InChI_Code_QSARr>
InChI=1S/C5H12O2/c1-2-7-5-3-4-6/h6H,2-5H2,1H3

> <InChI Key_QSARr>
XHMWPVBQGARKQM-UHFFFAOYSA-N

> <OH>
2.2E-11

> <OH Temperature>
25.0

> <OH Data Type>
EXP

> <OH Reference>
ATKINSON,R (1989)

> <LogOH>
-10.65757731917778

$$$$
100284
  -INDIGO-08031719142D

 21 20  0  0  0  0  0  0  0  0999 V2000
    2.7714    0.0000    0.0000 O   0  0  0  0  0  0  0  0  0  0  0  0
    4.1569    0.8000    0.0000 C   0  0  0  0  0  0  0  0  0  0  0  0
    3.5447    2.2782    0.0000 H   0  0  0  0  0  0  0  0  0  0  0  0
    4.7692    2.2782    0.0000 H   0  0  0  0  0  0  0  0  0  0  0  0
    5.5425    0.0000    0.0000 C   0  0  0  0  0  0  0  0  0  0  0  0
    6.1548   -1.4782    0.0000 H   0  0  0  0  0  0  0  0  0  0  0  0
    4.9302   -1.4782    0.0000 H   0  0  0  0  0  0  0  0  0  0  0  0
    6.9282    0.8000    0.0000 C   0  0  0  0  0  0  0  0  0  0  0  0
    8.3138    1.6000    0.0000 H   0  0  0  0  0  0  0  0  0  0  0  0
    8.3138    0.0000    0.0000 H   0  0  0  0  0  0  0  0  0  0  0  0
    6.9282    2.4000    0.0000 H   0  0  0  0  0  0  0  0  0  0  0  0
    1.3857    0.8000    0.0000 C   0  0  0  0  0  0  0  0  0  0  0  0
    0.7734    2.2782    0.0000 H   0  0  0  0  0  0  0  0  0  0  0  0
    1.9979    2.2782    0.0000 H   0  0  0  0  0  0  0  0  0  0  0  0
    0.0000    0.0000    0.0000 C   0  0  0  0  0  0  0  0  0  0  0  0
    0.6124   -1.4782    0.0000 H   0  0  0  0  0  0  0  0  0  0  0  0
   -0.6123   -1.4782    0.0000 H   0  0  0  0  0  0  0  0  0  0  0  0
   -1.3856    0.8000    0.0000 C   0  0  0  0  0  0  0  0  0  0  0  0
   -2.7713    1.6000    0.0000 H   0  0  0  0  0  0  0  0  0  0  0  0
   -2.7713    0.0000    0.0000 H   0  0  0  0  0  0  0  0  0  0  0  0
   -1.3856    2.4000    0.0000 H   0  0  0  0  0  0  0  0  0  0  0  0
  1  2  1  0  0  0  0
  2  3  1  0  0  0  0
  2  4  1  0  0  0  0
  2  5  1  0  0  0  0
  5  6  1  0  0  0  0
  5  7  1  0  0  0  0
  5  8  1  0  0  0  0
  8  9  1  0  0  0  0
  8 10  1  0  0  0  0
  8 11  1  0  0  0  0
  1 12  1  0  0  0  0
 12 13  1  0  0  0  0
 12 14  1  0  0  0  0
 12 15  1  0  0  0  0
 15 16  1  0  0  0  0
 15 17  1  0  0  0  0
 15 18  1  0  0  0  0
 18 19  1  0  0  0  0
 18 20  1  0  0  0  0
 18 21  1  0  0  0  0
M  END
> <ChemID>
100284

> <source_casrn>
111-43-3

> <CAS>
111-43-3

> <SMILES>
CCCOCCC

> <NAME>
DI(N-PROPYL) ETHER

> <preferred_name>
Propyl ether

> <iupac>
dipropyl ether

> <MPID>
98840

> <dsstox_substance_id>
DTXSID8042343

> <Canonical_QSARr>
CCCOCCC

> <InChI_Code_QSARr>
InChI=1S/C6H14O/c1-3-5-7-6-4-2/h3-6H2,1-2H3

> <InChI Key_QSARr>
POLCUAVZOMRGSN-UHFFFAOYSA-N

> <OH>
1.849999999999999E-11

> <OH Temperature>
25.0

> <OH Data Type>
EXP

> <OH Reference>
KWOK,ESC & ATKINSON,R (1994)

> <LogOH>
-10.732828271596999

$$$$
100285
  -INDIGO-08031719142D

 17 16  0  0  0  0  0  0  0  0999 V2000
    2.7713    0.0000    0.0000 O   0  0  0  0  0  0  0  0  0  0  0  0
    4.1569    0.8000    0.0000 H   0  0  0  0  0  0  0  0  0  0  0  0
    1.3856    0.8000    0.0000 C   0  0  0  0  0  0  0  0  0  0  0  0
    0.7733    2.2782    0.0000 H   0  0  0  0  0  0  0  0  0  0  0  0
    1.9979    2.2782    0.0000 H   0  0  0  0  0  0  0  0  0  0  0  0
   -0.0001    0.0000    0.0000 C   0  0  0  0  0  0  0  0  0  0  0  0
    0.6123   -1.4782    0.0000 H   0  0  0  0  0  0  0  0  0  0  0  0
   -0.6122   -1.4782    0.0000 H   0  0  0  0  0  0  0  0  0  0  0  0
   -1.3856    0.8000    0.0000 O   0  0  0  0  0  0  0  0  0  0  0  0
   -2.7712    0.0000    0.0000 C   0  0  0  0  0  0  0  0  0  0  0  0
   -2.1591   -1.4782    0.0000 H   0  0  0  0  0  0  0  0  0  0  0  0
   -3.3835   -1.4782    0.0000 H   0  0  0  0  0  0  0  0  0  0  0  0
   -4.1569    0.8000    0.0000 C   0  0  0  0  0  0  0  0  0  0  0  0
   -4.7692    2.2782    0.0000 H   0  0  0  0  0  0  0  0  0  0  0  0
   -3.5446    2.2782    0.0000 H   0  0  0  0  0  0  0  0  0  0  0  0
   -5.5425    0.0000    0.0000 O   0  0  0  0  0  0  0  0  0  0  0  0
   -6.9282    0.8000    0.0000 H   0  0  0  0  0  0  0  0  0  0  0  0
  1  2  1  0  0  0  0
  1  3  1  0  0  0  0
  3  4  1  0  0  0  0
  3  5  1  0  0  0  0
  3  6  1  0  0  0  0
  6  7  1  0  0  0  0
  6  8  1  0  0  0  0
  6  9  1  0  0  0  0
  9 10  1  0  0  0  0
 10 11  1  0  0  0  0
 10 12  1  0  0  0  0
 10 13  1  0  0  0  0
 13 14  1  0  0  0  0
 13 15  1  0  0  0  0
 13 16  1  0  0  0  0
 16 17  1  0  0  0  0
M  END
> <ChemID>
100285

> <source_casrn>
111-46-6

> <CAS>
111-46-6

> <SMILES>
OCCOCCO

> <NAME>
DIETHYLENE GLYCOL

> <preferred_name>
Diethylene glycol

> <iupac>
2,2'-oxydiethanol

> <MPID>
98841

> <dsstox_substance_id>
DTXSID8020462

> <Canonical_QSARr>
OCCOCCO

> <InChI_Code_QSARr>
InChI=1S/C4H10O3/c5-1-3-7-4-2-6/h5-6H,1-4H2

> <InChI Key_QSARr>
MTHSVFCYNBDYFN-UHFFFAOYSA-N

> <OH>
3.000000000000001E-11

> <OH Temperature>
25.0

> <OH Data Type>
EXP

> <OH Reference>
LEIFER,A (1993)

> <LogOH>
-10.52287874528034

$$$$
100287
  -INDIGO-08031719142D

 26 25  0  0  0  0  0  0  0  0999 V2000
    4.1569   -0.8000    0.0000 C   0  0  0  0  0  0  0  0  0  0  0  0
    5.5426   -1.6000    0.0000 H   0  0  0  0  0  0  0  0  0  0  0  0
    5.5426    0.0000    0.0000 H   0  0  0  0  0  0  0  0  0  0  0  0
    4.1569   -2.4000    0.0000 H   0  0  0  0  0  0  0  0  0  0  0  0
    2.7713    0.0000    0.0000 C   0  0  0  0  0  0  0  0  0  0  0  0
    3.3835    1.4782    0.0000 H   0  0  0  0  0  0  0  0  0  0  0  0
    2.1590    1.4782    0.0000 H   0  0  0  0  0  0  0  0  0  0  0  0
    1.3856   -0.8000    0.0000 C   0  0  0  0  0  0  0  0  0  0  0  0
    0.7733   -2.2782    0.0000 H   0  0  0  0  0  0  0  0  0  0  0  0
    1.9980   -2.2782    0.0000 H   0  0  0  0  0  0  0  0  0  0  0  0
   -0.0001    0.0000    0.0000 C   0  0  0  0  0  0  0  0  0  0  0  0
    0.6123    1.4782    0.0000 H   0  0  0  0  0  0  0  0  0  0  0  0
   -0.6122    1.4782    0.0000 H   0  0  0  0  0  0  0  0  0  0  0  0
   -1.3856   -0.8000    0.0000 C   0  0  0  0  0  0  0  0  0  0  0  0
   -1.9979   -2.2782    0.0000 H   0  0  0  0  0  0  0  0  0  0  0  0
   -0.7734   -2.2782    0.0000 H   0  0  0  0  0  0  0  0  0  0  0  0
   -2.7713    0.0000    0.0000 C   0  0  0  0  0  0  0  0  0  0  0  0
   -2.1589    1.4782    0.0000 H   0  0  0  0  0  0  0  0  0  0  0  0
   -3.3836    1.4782    0.0000 H   0  0  0  0  0  0  0  0  0  0  0  0
   -4.1570   -0.8000    0.0000 C   0  0  0  0  0  0  0  0  0  0  0  0
   -4.7692   -2.2782    0.0000 H   0  0  0  0  0  0  0  0  0  0  0  0
   -3.5446   -2.2782    0.0000 H   0  0  0  0  0  0  0  0  0  0  0  0
   -5.5425    0.0000    0.0000 C   0  0  0  0  0  0  0  0  0  0  0  0
   -6.9282    0.8000    0.0000 H   0  0  0  0  0  0  0  0  0  0  0  0
   -6.9282   -0.8000    0.0000 H   0  0  0  0  0  0  0  0  0  0  0  0
   -5.5425    1.6000    0.0000 H   0  0  0  0  0  0  0  0  0  0  0  0
  1  2  1  0  0  0  0
  1  3  1  0  0  0  0
  1  4  1  0  0  0  0
  1  5  1  0  0  0  0
  5  6  1  0  0  0  0
  5  7  1  0  0  0  0
  5  8  1  0  0  0  0
  8  9  1  0  0  0  0
  8 10  1  0  0  0  0
  8 11  1  0  0  0  0
 11 12  1  0  0  0  0
 11 13  1  0  0  0  0
 11 14  1  0  0  0  0
 14 15  1  0  0  0  0
 14 16  1  0  0  0  0
 14 17  1  0  0  0  0
 17 18  1  0  0  0  0
 17 19  1  0  0  0  0
 17 20  1  0  0  0  0
 20 21  1  0  0  0  0
 20 22  1  0  0  0  0
 20 23  1  0  0  0  0
 23 24  1  0  0  0  0
 23 25  1  0  0  0  0
 23 26  1  0  0  0  0
M  END
> <ChemID>
100287

> <source_casrn>
111-65-9

> <CAS>
111-65-9

> <SMILES>
CCCCCCCC

> <NAME>
OCTANE

> <preferred_name>
Octane

> <iupac>
octane

> <MPID>
98843

> <dsstox_substance_id>
DTXSID0026882

> <Canonical_QSARr>
CCCCCCCC

> <InChI_Code_QSARr>
InChI=1S/C8H18/c1-3-5-7-8-6-4-2/h3-8H2,1-2H3

> <InChI Key_QSARr>
TVMXDCGIABBOFY-UHFFFAOYSA-N

> <OH>
8.680000000000004E-12

> <OH Temperature>
25.0

> <OH Data Type>
EXP

> <OH Reference>
ATKINSON,R (1989)

> <LogOH>
-11.061480274823511

$$$$
100289
  -INDIGO-08031719142D

 24 23  0  0  0  0  0  0  0  0999 V2000
    4.1569    0.8000    0.0000 C   0  0  0  0  0  0  0  0  0  0  0  0
    5.5426    1.6000    0.0000 H   0  0  0  0  0  0  0  0  0  0  0  0
    5.5426    0.0000    0.0000 H   0  0  0  0  0  0  0  0  0  0  0  0
    4.1569    2.4000    0.0000 H   0  0  0  0  0  0  0  0  0  0  0  0
    2.7713    0.0000    0.0000 C   0  0  0  0  0  0  0  0  0  0  0  0
    2.1590   -1.4782    0.0000 H   0  0  0  0  0  0  0  0  0  0  0  0
    3.3835   -1.4782    0.0000 H   0  0  0  0  0  0  0  0  0  0  0  0
    1.3856    0.8000    0.0000 C   0  0  0  0  0  0  0  0  0  0  0  0
    1.9980    2.2782    0.0000 H   0  0  0  0  0  0  0  0  0  0  0  0
    0.7733    2.2782    0.0000 H   0  0  0  0  0  0  0  0  0  0  0  0
   -0.0001    0.0000    0.0000 C   0  0  0  0  0  0  0  0  0  0  0  0
   -0.6122   -1.4782    0.0000 H   0  0  0  0  0  0  0  0  0  0  0  0
    0.6123   -1.4782    0.0000 H   0  0  0  0  0  0  0  0  0  0  0  0
   -1.3856    0.8000    0.0000 C   0  0  0  0  0  0  0  0  0  0  0  0
   -0.7734    2.2782    0.0000 H   0  0  0  0  0  0  0  0  0  0  0  0
   -1.9979    2.2782    0.0000 H   0  0  0  0  0  0  0  0  0  0  0  0
   -2.7713    0.0000    0.0000 C   0  0  0  0  0  0  0  0  0  0  0  0
   -3.3836   -1.4782    0.0000 H   0  0  0  0  0  0  0  0  0  0  0  0
   -2.1589   -1.4782    0.0000 H   0  0  0  0  0  0  0  0  0  0  0  0
   -4.1570    0.8000    0.0000 C   0  0  0  0  0  0  0  0  0  0  0  0
   -3.5446    2.2782    0.0000 H   0  0  0  0  0  0  0  0  0  0  0  0
   -4.7692    2.2782    0.0000 H   0  0  0  0  0  0  0  0  0  0  0  0
   -5.5425    0.0000    0.0000 O   0  0  0  0  0  0  0  0  0  0  0  0
   -6.9282    0.8000    0.0000 H   0  0  0  0  0  0  0  0  0  0  0  0
  1  2  1  0  0  0  0
  1  3  1  0  0  0  0
  1  4  1  0  0  0  0
  1  5  1  0  0  0  0
  5  6  1  0  0  0  0
  5  7  1  0  0  0  0
  5  8  1  0  0  0  0
  8  9  1  0  0  0  0
  8 10  1  0  0  0  0
  8 11  1  0  0  0  0
 11 12  1  0  0  0  0
 11 13  1  0  0  0  0
 11 14  1  0  0  0  0
 14 15  1  0  0  0  0
 14 16  1  0  0  0  0
 14 17  1  0  0  0  0
 17 18  1  0  0  0  0
 17 19  1  0  0  0  0
 17 20  1  0  0  0  0
 20 21  1  0  0  0  0
 20 22  1  0  0  0  0
 20 23  1  0  0  0  0
 23 24  1  0  0  0  0
M  END
> <ChemID>
100289

> <source_casrn>
111-70-6

> <CAS>
111-70-6

> <SMILES>
CCCCCCCO

> <NAME>
1-HEPTANOL

> <preferred_name>
1-Heptanol

> <iupac>
heptan-1-ol

> <MPID>
98844

> <dsstox_substance_id>
DTXSID8021937

> <Canonical_QSARr>
CCCCCCCO

> <InChI_Code_QSARr>
InChI=1S/C7H16O/c1-2-3-4-5-6-7-8/h8H,2-7H2,1H3

> <InChI Key_QSARr>
BBMCTIGTTCKYKF-UHFFFAOYSA-N

> <OH>
1.37E-11

> <OH Temperature>
25.0

> <OH Data Type>
EXP

> <OH Reference>
KWOK,ESC & ATKINSON,R (1994)

> <LogOH>
-10.863279432843605

$$$$
100291
  -INDIGO-08031719142D

 29 28  0  0  0  0  0  0  0  0999 V2000
   -4.1569    0.8000    0.0000 C   0  0  0  0  0  0  0  0  0  0  0  0
   -3.5446    2.2782    0.0000 H   0  0  0  0  0  0  0  0  0  0  0  0
   -4.7692    2.2782    0.0000 H   0  0  0  0  0  0  0  0  0  0  0  0
   -2.7712   -0.0000    0.0000 C   0  0  0  0  0  0  0  0  0  0  0  0
   -3.3835   -1.4782    0.0000 H   0  0  0  0  0  0  0  0  0  0  0  0
   -2.1591   -1.4782    0.0000 H   0  0  0  0  0  0  0  0  0  0  0  0
   -1.3856    0.8000    0.0000 C   0  0  0  0  0  0  0  0  0  0  0  0
   -0.7733    2.2782    0.0000 H   0  0  0  0  0  0  0  0  0  0  0  0
   -1.9980    2.2782    0.0000 H   0  0  0  0  0  0  0  0  0  0  0  0
    0.0001   -0.0000    0.0000 C   0  0  0  0  0  0  0  0  0  0  0  0
   -0.6122   -1.4782    0.0000 H   0  0  0  0  0  0  0  0  0  0  0  0
    0.6122   -1.4782    0.0000 H   0  0  0  0  0  0  0  0  0  0  0  0
    1.3856    0.8000    0.0000 C   0  0  0  0  0  0  0  0  0  0  0  0
    1.9980    2.2782    0.0000 H   0  0  0  0  0  0  0  0  0  0  0  0
    0.7733    2.2782    0.0000 H   0  0  0  0  0  0  0  0  0  0  0  0
    2.7714   -0.0000    0.0000 C   0  0  0  0  0  0  0  0  0  0  0  0
    2.1591   -1.4782    0.0000 H   0  0  0  0  0  0  0  0  0  0  0  0
    3.3835   -1.4782    0.0000 H   0  0  0  0  0  0  0  0  0  0  0  0
    4.1569    0.8000    0.0000 C   0  0  0  0  0  0  0  0  0  0  0  0
    4.7692    2.2782    0.0000 H   0  0  0  0  0  0  0  0  0  0  0  0
    3.5446    2.2782    0.0000 H   0  0  0  0  0  0  0  0  0  0  0  0
    5.5427   -0.0000    0.0000 C   0  0  0  0  0  0  0  0  0  0  0  0
    6.9282   -0.8000    0.0000 H   0  0  0  0  0  0  0  0  0  0  0  0
    6.9282    0.8000    0.0000 H   0  0  0  0  0  0  0  0  0  0  0  0
    5.5427   -1.6000    0.0000 H   0  0  0  0  0  0  0  0  0  0  0  0
   -5.5425   -0.0000    0.0000 C   0  0  0  0  0  0  0  0  0  0  0  0
   -6.9282   -0.8000    0.0000 H   0  0  0  0  0  0  0  0  0  0  0  0
   -6.9282    0.8000    0.0000 H   0  0  0  0  0  0  0  0  0  0  0  0
   -5.5425   -1.6000    0.0000 H   0  0  0  0  0  0  0  0  0  0  0  0
  1  2  1  0  0  0  0
  1  3  1  0  0  0  0
  1  4  1  0  0  0  0
  4  5  1  0  0  0  0
  4  6  1  0  0  0  0
  4  7  1  0  0  0  0
  7  8  1  0  0  0  0
  7  9  1  0  0  0  0
  7 10  1  0  0  0  0
 10 11  1  0  0  0  0
 10 12  1  0  0  0  0
 10 13  1  0  0  0  0
 13 14  1  0  0  0  0
 13 15  1  0  0  0  0
 13 16  1  0  0  0  0
 16 17  1  0  0  0  0
 16 18  1  0  0  0  0
 16 19  1  0  0  0  0
 19 20  1  0  0  0  0
 19 21  1  0  0  0  0
 19 22  1  0  0  0  0
 22 23  1  0  0  0  0
 22 24  1  0  0  0  0
 22 25  1  0  0  0  0
  1 26  1  0  0  0  0
 26 27  1  0  0  0  0
 26 28  1  0  0  0  0
 26 29  1  0  0  0  0
M  END
> <ChemID>
100291

> <source_casrn>
111-84-2

> <CAS>
111-84-2

> <SMILES>
CCCCCCCCC

> <NAME>
N-NONANE

> <preferred_name>
Nonane

> <iupac>
nonane

> <MPID>
98846

> <dsstox_substance_id>
DTXSID9025796

> <Canonical_QSARr>
CCCCCCCCC

> <InChI_Code_QSARr>
InChI=1S/C9H20/c1-3-5-7-9-8-6-4-2/h3-9H2,1-2H3

> <InChI Key_QSARr>
BKIMMITUMNQMOS-UHFFFAOYSA-N

> <OH>
1.02E-11

> <OH Temperature>
25.0

> <OH Data Type>
EXP

> <OH Reference>
ATKINSON,R (1989)

> <LogOH>
-10.991399828238071

$$$$
100292
  -INDIGO-08031719142D

 27 26  0  0  0  0  0  0  0  0999 V2000
    5.5427   -0.0000    0.0000 C   0  0  0  0  0  0  0  0  0  0  0  0
    6.9282   -0.8000    0.0000 H   0  0  0  0  0  0  0  0  0  0  0  0
    6.9282    0.8000    0.0000 H   0  0  0  0  0  0  0  0  0  0  0  0
    5.5427   -1.6000    0.0000 H   0  0  0  0  0  0  0  0  0  0  0  0
    4.1569    0.8000    0.0000 C   0  0  0  0  0  0  0  0  0  0  0  0
    3.5446    2.2782    0.0000 H   0  0  0  0  0  0  0  0  0  0  0  0
    4.7692    2.2782    0.0000 H   0  0  0  0  0  0  0  0  0  0  0  0
    2.7714   -0.0000    0.0000 C   0  0  0  0  0  0  0  0  0  0  0  0
    3.3835   -1.4782    0.0000 H   0  0  0  0  0  0  0  0  0  0  0  0
    2.1591   -1.4782    0.0000 H   0  0  0  0  0  0  0  0  0  0  0  0
    1.3856    0.8000    0.0000 C   0  0  0  0  0  0  0  0  0  0  0  0
    0.7733    2.2782    0.0000 H   0  0  0  0  0  0  0  0  0  0  0  0
    1.9980    2.2782    0.0000 H   0  0  0  0  0  0  0  0  0  0  0  0
    0.0001   -0.0000    0.0000 C   0  0  0  0  0  0  0  0  0  0  0  0
    0.6122   -1.4782    0.0000 H   0  0  0  0  0  0  0  0  0  0  0  0
   -0.6122   -1.4782    0.0000 H   0  0  0  0  0  0  0  0  0  0  0  0
   -1.3856    0.8000    0.0000 C   0  0  0  0  0  0  0  0  0  0  0  0
   -1.9980    2.2782    0.0000 H   0  0  0  0  0  0  0  0  0  0  0  0
   -0.7733    2.2782    0.0000 H   0  0  0  0  0  0  0  0  0  0  0  0
   -2.7712   -0.0000    0.0000 C   0  0  0  0  0  0  0  0  0  0  0  0
   -2.1591   -1.4782    0.0000 H   0  0  0  0  0  0  0  0  0  0  0  0
   -3.3835   -1.4782    0.0000 H   0  0  0  0  0  0  0  0  0  0  0  0
   -4.1569    0.8000    0.0000 C   0  0  0  0  0  0  0  0  0  0  0  0
   -4.7692    2.2782    0.0000 H   0  0  0  0  0  0  0  0  0  0  0  0
   -3.5446    2.2782    0.0000 H   0  0  0  0  0  0  0  0  0  0  0  0
   -5.5425   -0.0000    0.0000 O   0  0  0  0  0  0  0  0  0  0  0  0
   -6.9282    0.8000    0.0000 H   0  0  0  0  0  0  0  0  0  0  0  0
  1  2  1  0  0  0  0
  1  3  1  0  0  0  0
  1  4  1  0  0  0  0
  1  5  1  0  0  0  0
  5  6  1  0  0  0  0
  5  7  1  0  0  0  0
  5  8  1  0  0  0  0
  8  9  1  0  0  0  0
  8 10  1  0  0  0  0
  8 11  1  0  0  0  0
 11 12  1  0  0  0  0
 11 13  1  0  0  0  0
 11 14  1  0  0  0  0
 14 15  1  0  0  0  0
 14 16  1  0  0  0  0
 14 17  1  0  0  0  0
 17 18  1  0  0  0  0
 17 19  1  0  0  0  0
 17 20  1  0  0  0  0
 20 21  1  0  0  0  0
 20 22  1  0  0  0  0
 20 23  1  0  0  0  0
 23 24  1  0  0  0  0
 23 25  1  0  0  0  0
 23 26  1  0  0  0  0
 26 27  1  0  0  0  0
M  END
> <ChemID>
100292

> <source_casrn>
111-87-5

> <CAS>
111-87-5

> <SMILES>
CCCCCCCCO

> <NAME>
1-OCTANOL

> <preferred_name>
1-Octanol

> <iupac>
octan-1-ol

> <MPID>
98847

> <dsstox_substance_id>
DTXSID7021940

> <Canonical_QSARr>
CCCCCCCCO

> <InChI_Code_QSARr>
InChI=1S/C8H18O/c1-2-3-4-5-6-7-8-9/h9H,2-8H2,1H3

> <InChI Key_QSARr>
KBPLFHHGFOOTCA-UHFFFAOYSA-N

> <OH>
1.44E-11

> <OH Temperature>
25.0

> <OH Data Type>
EXP

> <OH Reference>
ATKINSON,R (1994)

> <LogOH>
-10.841637507904753

$$$$
100293
  -INDIGO-08031719142D

 23 22  0  0  0  0  0  0  0  0999 V2000
    5.5427   -0.0000    0.0000 C   0  0  0  0  0  0  0  0  0  0  0  0
    6.9282   -0.8000    0.0000 H   0  0  0  0  0  0  0  0  0  0  0  0
    6.9282    0.8000    0.0000 H   0  0  0  0  0  0  0  0  0  0  0  0
    5.5427   -1.6000    0.0000 H   0  0  0  0  0  0  0  0  0  0  0  0
    4.1569    0.8000    0.0000 C   0  0  0  0  0  0  0  0  0  0  0  0
    3.5446    2.2782    0.0000 H   0  0  0  0  0  0  0  0  0  0  0  0
    4.7692    2.2782    0.0000 H   0  0  0  0  0  0  0  0  0  0  0  0
    2.7714   -0.0000    0.0000 O   0  0  0  0  0  0  0  0  0  0  0  0
    1.3856    0.8000    0.0000 C   0  0  0  0  0  0  0  0  0  0  0  0
    0.7733    2.2782    0.0000 H   0  0  0  0  0  0  0  0  0  0  0  0
    1.9980    2.2782    0.0000 H   0  0  0  0  0  0  0  0  0  0  0  0
    0.0001   -0.0000    0.0000 C   0  0  0  0  0  0  0  0  0  0  0  0
    0.6122   -1.4782    0.0000 H   0  0  0  0  0  0  0  0  0  0  0  0
   -0.6122   -1.4782    0.0000 H   0  0  0  0  0  0  0  0  0  0  0  0
   -1.3856    0.8000    0.0000 O   0  0  0  0  0  0  0  0  0  0  0  0
   -2.7712   -0.0000    0.0000 C   0  0  0  0  0  0  0  0  0  0  0  0
   -2.1591   -1.4782    0.0000 H   0  0  0  0  0  0  0  0  0  0  0  0
   -3.3835   -1.4782    0.0000 H   0  0  0  0  0  0  0  0  0  0  0  0
   -4.1569    0.8000    0.0000 C   0  0  0  0  0  0  0  0  0  0  0  0
   -4.7692    2.2782    0.0000 H   0  0  0  0  0  0  0  0  0  0  0  0
   -3.5446    2.2782    0.0000 H   0  0  0  0  0  0  0  0  0  0  0  0
   -5.5425   -0.0000    0.0000 O   0  0  0  0  0  0  0  0  0  0  0  0
   -6.9282    0.8000    0.0000 H   0  0  0  0  0  0  0  0  0  0  0  0
  1  2  1  0  0  0  0
  1  3  1  0  0  0  0
  1  4  1  0  0  0  0
  1  5  1  0  0  0  0
  5  6  1  0  0  0  0
  5  7  1  0  0  0  0
  5  8  1  0  0  0  0
  8  9  1  0  0  0  0
  9 10  1  0  0  0  0
  9 11  1  0  0  0  0
  9 12  1  0  0  0  0
 12 13  1  0  0  0  0
 12 14  1  0  0  0  0
 12 15  1  0  0  0  0
 15 16  1  0  0  0  0
 16 17  1  0  0  0  0
 16 18  1  0  0  0  0
 16 19  1  0  0  0  0
 19 20  1  0  0  0  0
 19 21  1  0  0  0  0
 19 22  1  0  0  0  0
 22 23  1  0  0  0  0
M  END
> <ChemID>
100293

> <source_casrn>
111-90-0

> <CAS>
111-90-0

> <SMILES>
CCOCCOCCO

> <NAME>
DIETHYLENE GLYCOL MONOETHYL ETHER

> <preferred_name>
2-(2-Ethoxyethoxy)ethanol

> <iupac>
2-(2-ethoxyethoxy)ethanol

> <MPID>
98848

> <dsstox_substance_id>
DTXSID2021941

> <Canonical_QSARr>
CCOCCOCCO

> <InChI_Code_QSARr>
InChI=1S/C6H14O3/c1-2-8-5-6-9-4-3-7/h7H,2-6H2,1H3

> <InChI Key_QSARr>
XXJWXESWEXIICW-UHFFFAOYSA-N

> <OH>
5.719999999999999E-11

> <OH Temperature>
23.0

> <OH Data Type>
EXP

> <OH Reference>
ASCHMANN,SM ET AL. (2001)

> <LogOH>
-10.242603971206977

$$$$
100295
  -INDIGO-08031719142D

 29 28  0  0  0  0  0  0  0  0999 V2000
    2.7713   -0.0000    0.0000 C   0  0  0  0  0  0  0  0  0  0  0  0
    4.1569   -0.8000    0.0000 H   0  0  0  0  0  0  0  0  0  0  0  0
    4.1569    0.8000    0.0000 H   0  0  0  0  0  0  0  0  0  0  0  0
    2.7713   -1.6000    0.0000 H   0  0  0  0  0  0  0  0  0  0  0  0
    1.3858    0.8000    0.0000 C   0  0  0  0  0  0  0  0  0  0  0  0
    0.7733    2.2782    0.0000 H   0  0  0  0  0  0  0  0  0  0  0  0
    1.9980    2.2782    0.0000 H   0  0  0  0  0  0  0  0  0  0  0  0
   -0.0001   -0.0000    0.0000 C   0  0  0  0  0  0  0  0  0  0  0  0
    0.6122   -1.4782    0.0000 H   0  0  0  0  0  0  0  0  0  0  0  0
   -0.6123   -1.4782    0.0000 H   0  0  0  0  0  0  0  0  0  0  0  0
   -1.3856    0.8000    0.0000 C   0  0  0  0  0  0  0  0  0  0  0  0
   -1.9979    2.2782    0.0000 H   0  0  0  0  0  0  0  0  0  0  0  0
   -0.7734    2.2782    0.0000 H   0  0  0  0  0  0  0  0  0  0  0  0
   -2.7712   -0.0000    0.0000 O   0  0  0  0  0  0  0  0  0  0  0  0
   -4.1568    0.8000    0.0000 C   0  0  0  0  0  0  0  0  0  0  0  0
   -4.7693    2.2782    0.0000 H   0  0  0  0  0  0  0  0  0  0  0  0
   -3.5446    2.2782    0.0000 H   0  0  0  0  0  0  0  0  0  0  0  0
   -5.5426   -0.0000    0.0000 C   0  0  0  0  0  0  0  0  0  0  0  0
   -4.9304   -1.4782    0.0000 H   0  0  0  0  0  0  0  0  0  0  0  0
   -6.1549   -1.4782    0.0000 H   0  0  0  0  0  0  0  0  0  0  0  0
   -6.9282    0.8000    0.0000 O   0  0  0  0  0  0  0  0  0  0  0  0
   -8.3138   -0.0000    0.0000 C   0  0  0  0  0  0  0  0  0  0  0  0
   -7.7015   -1.4782    0.0000 H   0  0  0  0  0  0  0  0  0  0  0  0
   -8.9260   -1.4782    0.0000 H   0  0  0  0  0  0  0  0  0  0  0  0
   -9.6994    0.8000    0.0000 C   0  0  0  0  0  0  0  0  0  0  0  0
  -10.3118    2.2782    0.0000 H   0  0  0  0  0  0  0  0  0  0  0  0
   -9.0871    2.2782    0.0000 H   0  0  0  0  0  0  0  0  0  0  0  0
  -11.0852   -0.0000    0.0000 O   0  0  0  0  0  0  0  0  0  0  0  0
  -12.4708    0.8000    0.0000 H   0  0  0  0  0  0  0  0  0  0  0  0
  1  2  1  0  0  0  0
  1  3  1  0  0  0  0
  1  4  1  0  0  0  0
  1  5  1  0  0  0  0
  5  6  1  0  0  0  0
  5  7  1  0  0  0  0
  5  8  1  0  0  0  0
  8  9  1  0  0  0  0
  8 10  1  0  0  0  0
  8 11  1  0  0  0  0
 11 12  1  0  0  0  0
 11 13  1  0  0  0  0
 11 14  1  0  0  0  0
 14 15  1  0  0  0  0
 15 16  1  0  0  0  0
 15 17  1  0  0  0  0
 15 18  1  0  0  0  0
 18 19  1  0  0  0  0
 18 20  1  0  0  0  0
 18 21  1  0  0  0  0
 21 22  1  0  0  0  0
 22 23  1  0  0  0  0
 22 24  1  0  0  0  0
 22 25  1  0  0  0  0
 25 26  1  0  0  0  0
 25 27  1  0  0  0  0
 25 28  1  0  0  0  0
 28 29  1  0  0  0  0
M  END
> <ChemID>
100295

> <source_casrn>
112-34-5

> <CAS>
112-34-5

> <SMILES>
CCCCOCCOCCO

> <NAME>
DIETHYLENE GLYCOL MONO-N-BUTYL ETHER

> <preferred_name>
2-(2-Butoxyethoxy)ethanol

> <iupac>
2-(2-butoxyethoxy)ethanol

> <MPID>
98850

> <dsstox_substance_id>
DTXSID8021519

> <Canonical_QSARr>
CCCCOCCOCCO

> <InChI_Code_QSARr>
InChI=1S/C8H18O3/c1-2-3-5-10-7-8-11-6-4-9/h9H,2-8H2,1H3

> <InChI Key_QSARr>
OAYXUHPQHDHDDZ-UHFFFAOYSA-N

> <OH>
7.44E-11

> <OH Temperature>
23.0

> <OH Data Type>
EXP

> <OH Reference>
ASCHMANN,SM ET AL. (2001)

> <LogOH>
-10.128427064454119

$$$$
100296
  -INDIGO-08031719142D

 29 28  0  0  0  0  0  0  0  0999 V2000
    1.3858    0.8000    0.0000 O   0  0  0  0  0  0  0  0  0  0  0  0
    2.7713   -0.0000    0.0000 C   0  0  0  0  0  0  0  0  0  0  0  0
    2.1591   -1.4782    0.0000 H   0  0  0  0  0  0  0  0  0  0  0  0
    3.3836   -1.4782    0.0000 H   0  0  0  0  0  0  0  0  0  0  0  0
    4.1569    0.8000    0.0000 C   0  0  0  0  0  0  0  0  0  0  0  0
    4.7692    2.2782    0.0000 H   0  0  0  0  0  0  0  0  0  0  0  0
    3.5447    2.2782    0.0000 H   0  0  0  0  0  0  0  0  0  0  0  0
    5.5425   -0.0000    0.0000 O   0  0  0  0  0  0  0  0  0  0  0  0
    6.9283    0.8000    0.0000 C   0  0  0  0  0  0  0  0  0  0  0  0
    7.5406    2.2782    0.0000 H   0  0  0  0  0  0  0  0  0  0  0  0
    6.3158    2.2782    0.0000 H   0  0  0  0  0  0  0  0  0  0  0  0
    8.3139   -0.0000    0.0000 C   0  0  0  0  0  0  0  0  0  0  0  0
    9.6995   -0.8000    0.0000 H   0  0  0  0  0  0  0  0  0  0  0  0
    9.6995    0.8000    0.0000 H   0  0  0  0  0  0  0  0  0  0  0  0
    8.3139   -1.6000    0.0000 H   0  0  0  0  0  0  0  0  0  0  0  0
   -0.0001   -0.0000    0.0000 C   0  0  0  0  0  0  0  0  0  0  0  0
   -0.6123   -1.4782    0.0000 H   0  0  0  0  0  0  0  0  0  0  0  0
    0.6122   -1.4782    0.0000 H   0  0  0  0  0  0  0  0  0  0  0  0
   -1.3856    0.8000    0.0000 C   0  0  0  0  0  0  0  0  0  0  0  0
   -0.7734    2.2782    0.0000 H   0  0  0  0  0  0  0  0  0  0  0  0
   -1.9979    2.2782    0.0000 H   0  0  0  0  0  0  0  0  0  0  0  0
   -2.7712   -0.0000    0.0000 O   0  0  0  0  0  0  0  0  0  0  0  0
   -4.1568    0.8000    0.0000 C   0  0  0  0  0  0  0  0  0  0  0  0
   -3.5446    2.2782    0.0000 H   0  0  0  0  0  0  0  0  0  0  0  0
   -4.7693    2.2782    0.0000 H   0  0  0  0  0  0  0  0  0  0  0  0
   -5.5426   -0.0000    0.0000 C   0  0  0  0  0  0  0  0  0  0  0  0
   -6.9282   -0.8000    0.0000 H   0  0  0  0  0  0  0  0  0  0  0  0
   -6.9282    0.8000    0.0000 H   0  0  0  0  0  0  0  0  0  0  0  0
   -5.5426   -1.6000    0.0000 H   0  0  0  0  0  0  0  0  0  0  0  0
  1  2  1  0  0  0  0
  2  3  1  0  0  0  0
  2  4  1  0  0  0  0
  2  5  1  0  0  0  0
  5  6  1  0  0  0  0
  5  7  1  0  0  0  0
  5  8  1  0  0  0  0
  8  9  1  0  0  0  0
  9 10  1  0  0  0  0
  9 11  1  0  0  0  0
  9 12  1  0  0  0  0
 12 13  1  0  0  0  0
 12 14  1  0  0  0  0
 12 15  1  0  0  0  0
  1 16  1  0  0  0  0
 16 17  1  0  0  0  0
 16 18  1  0  0  0  0
 16 19  1  0  0  0  0
 19 20  1  0  0  0  0
 19 21  1  0  0  0  0
 19 22  1  0  0  0  0
 22 23  1  0  0  0  0
 23 24  1  0  0  0  0
 23 25  1  0  0  0  0
 23 26  1  0  0  0  0
 26 27  1  0  0  0  0
 26 28  1  0  0  0  0
 26 29  1  0  0  0  0
M  END
> <ChemID>
100296

> <source_casrn>
112-36-7

> <CAS>
112-36-7

> <SMILES>
CCOCCOCCOCC

> <NAME>
BIS (2-ETHOXY ETHYL)  ETHER

> <preferred_name>
Diethylene glycol diethyl ether

> <iupac>
1-ethoxy-2-(2-ethoxyethoxy)ethane

> <MPID>
98851

> <dsstox_substance_id>
DTXSID3025047

> <Canonical_QSARr>
CCOCCOCCOCC

> <InChI_Code_QSARr>
InChI=1S/C8H18O3/c1-3-9-5-7-11-8-6-10-4-2/h3-8H2,1-2H3

> <InChI Key_QSARr>
RRQYJINTUHWNHW-UHFFFAOYSA-N

> <OH>
2.68E-11

> <OH Temperature>
25.0

> <OH Data Type>
EXP

> <OH Reference>
ATKINSON,R (1989)

> <LogOH>
-10.571865205971195

$$$$
100297
  -INDIGO-08031719142D

 38 37  0  0  0  0  0  0  0  0999 V2000
    6.9282   -0.8000    0.0000 C   0  0  0  0  0  0  0  0  0  0  0  0
    8.3138   -1.6000    0.0000 H   0  0  0  0  0  0  0  0  0  0  0  0
    8.3138    0.0000    0.0000 H   0  0  0  0  0  0  0  0  0  0  0  0
    6.9282   -2.4000    0.0000 H   0  0  0  0  0  0  0  0  0  0  0  0
    5.5426    0.0000    0.0000 C   0  0  0  0  0  0  0  0  0  0  0  0
    6.1548    1.4782    0.0000 H   0  0  0  0  0  0  0  0  0  0  0  0
    4.9302    1.4782    0.0000 H   0  0  0  0  0  0  0  0  0  0  0  0
    4.1570   -0.8000    0.0000 C   0  0  0  0  0  0  0  0  0  0  0  0
    3.5446   -2.2782    0.0000 H   0  0  0  0  0  0  0  0  0  0  0  0
    4.7692   -2.2782    0.0000 H   0  0  0  0  0  0  0  0  0  0  0  0
    2.7712    0.0000    0.0000 C   0  0  0  0  0  0  0  0  0  0  0  0
    3.3836    1.4782    0.0000 H   0  0  0  0  0  0  0  0  0  0  0  0
    2.1590    1.4782    0.0000 H   0  0  0  0  0  0  0  0  0  0  0  0
    1.3856   -0.8000    0.0000 C   0  0  0  0  0  0  0  0  0  0  0  0
    0.7735   -2.2782    0.0000 H   0  0  0  0  0  0  0  0  0  0  0  0
    1.9980   -2.2782    0.0000 H   0  0  0  0  0  0  0  0  0  0  0  0
   -0.0000    0.0000    0.0000 C   0  0  0  0  0  0  0  0  0  0  0  0
    0.6124    1.4782    0.0000 H   0  0  0  0  0  0  0  0  0  0  0  0
   -0.6124    1.4782    0.0000 H   0  0  0  0  0  0  0  0  0  0  0  0
   -1.3856   -0.8000    0.0000 C   0  0  0  0  0  0  0  0  0  0  0  0
   -1.9980   -2.2782    0.0000 H   0  0  0  0  0  0  0  0  0  0  0  0
   -0.7732   -2.2782    0.0000 H   0  0  0  0  0  0  0  0  0  0  0  0
   -2.7712    0.0000    0.0000 C   0  0  0  0  0  0  0  0  0  0  0  0
   -2.1591    1.4782    0.0000 H   0  0  0  0  0  0  0  0  0  0  0  0
   -3.3836    1.4782    0.0000 H   0  0  0  0  0  0  0  0  0  0  0  0
   -4.1568   -0.8000    0.0000 C   0  0  0  0  0  0  0  0  0  0  0  0
   -4.7692   -2.2782    0.0000 H   0  0  0  0  0  0  0  0  0  0  0  0
   -3.5447   -2.2782    0.0000 H   0  0  0  0  0  0  0  0  0  0  0  0
   -5.5427    0.0000    0.0000 C   0  0  0  0  0  0  0  0  0  0  0  0
   -4.9303    1.4782    0.0000 H   0  0  0  0  0  0  0  0  0  0  0  0
   -6.1548    1.4782    0.0000 H   0  0  0  0  0  0  0  0  0  0  0  0
   -6.9283   -0.8000    0.0000 C   0  0  0  0  0  0  0  0  0  0  0  0
   -7.5404   -2.2782    0.0000 H   0  0  0  0  0  0  0  0  0  0  0  0
   -6.3159   -2.2782    0.0000 H   0  0  0  0  0  0  0  0  0  0  0  0
   -8.3139    0.0000    0.0000 C   0  0  0  0  0  0  0  0  0  0  0  0
   -9.6995    0.8000    0.0000 H   0  0  0  0  0  0  0  0  0  0  0  0
   -9.6995   -0.8000    0.0000 H   0  0  0  0  0  0  0  0  0  0  0  0
   -8.3139    1.6000    0.0000 H   0  0  0  0  0  0  0  0  0  0  0  0
  1  2  1  0  0  0  0
  1  3  1  0  0  0  0
  1  4  1  0  0  0  0
  1  5  1  0  0  0  0
  5  6  1  0  0  0  0
  5  7  1  0  0  0  0
  5  8  1  0  0  0  0
  8  9  1  0  0  0  0
  8 10  1  0  0  0  0
  8 11  1  0  0  0  0
 11 12  1  0  0  0  0
 11 13  1  0  0  0  0
 11 14  1  0  0  0  0
 14 15  1  0  0  0  0
 14 16  1  0  0  0  0
 14 17  1  0  0  0  0
 17 18  1  0  0  0  0
 17 19  1  0  0  0  0
 17 20  1  0  0  0  0
 20 21  1  0  0  0  0
 20 22  1  0  0  0  0
 20 23  1  0  0  0  0
 23 24  1  0  0  0  0
 23 25  1  0  0  0  0
 23 26  1  0  0  0  0
 26 27  1  0  0  0  0
 26 28  1  0  0  0  0
 26 29  1  0  0  0  0
 29 30  1  0  0  0  0
 29 31  1  0  0  0  0
 29 32  1  0  0  0  0
 32 33  1  0  0  0  0
 32 34  1  0  0  0  0
 32 35  1  0  0  0  0
 35 36  1  0  0  0  0
 35 37  1  0  0  0  0
 35 38  1  0  0  0  0
M  END
> <ChemID>
100297

> <source_casrn>
112-40-3

> <CAS>
112-40-3

> <SMILES>
CCCCCCCCCCCC

> <NAME>
DODECANE

> <preferred_name>
Dodecane

> <iupac>
dodecane

> <MPID>
98852

> <dsstox_substance_id>
DTXSID0026913

> <Canonical_QSARr>
CCCCCCCCCCCC

> <InChI_Code_QSARr>
InChI=1S/C12H26/c1-3-5-7-9-11-12-10-8-6-4-2/h3-12H2,1-2H3

> <InChI Key_QSARr>
SNRUBQQJIBEYMU-UHFFFAOYSA-N

> <OH>
1.42E-11

> <OH Temperature>
25.0

> <OH Data Type>
EXP

> <OH Reference>
ATKINSON,R (1994)

> <LogOH>
-10.847711655616928

$$$$
100299
  -INDIGO-08031719142D

  9  8  0  0  0  0  0  0  0  0999 V2000
   -0.0000    0.0000    0.0000 C   0  0  0  0  0  0  0  0  0  0  0  0
    1.3856    0.8000    0.0000 H   0  0  0  0  0  0  0  0  0  0  0  0
   -0.0000    1.6000    0.0000 H   0  0  0  0  0  0  0  0  0  0  0  0
    1.3856   -0.8000    0.0000 H   0  0  0  0  0  0  0  0  0  0  0  0
   -1.3856   -0.8000    0.0000 O   0  0  0  0  0  0  0  0  0  0  0  0
   -2.7713    0.0000    0.0000 C   0  0  0  0  0  0  0  0  0  0  0  0
   -4.1569    0.8000    0.0000 H   0  0  0  0  0  0  0  0  0  0  0  0
   -4.1569   -0.8000    0.0000 H   0  0  0  0  0  0  0  0  0  0  0  0
   -2.7713    1.6000    0.0000 H   0  0  0  0  0  0  0  0  0  0  0  0
  1  2  1  0  0  0  0
  1  3  1  0  0  0  0
  1  4  1  0  0  0  0
  1  5  1  0  0  0  0
  5  6  1  0  0  0  0
  6  7  1  0  0  0  0
  6  8  1  0  0  0  0
  6  9  1  0  0  0  0
M  END
> <ChemID>
100299

> <source_casrn>
115-10-6

> <CAS>
115-10-6

> <SMILES>
COC

> <NAME>
DIMETHYL ETHER

> <preferred_name>
Dimethyl ether

> <iupac>
C2H6O

> <MPID>
98854

> <dsstox_substance_id>
DTXSID8026937

> <Canonical_QSARr>
COC

> <InChI_Code_QSARr>
InChI=1S/C2H6O/c1-3-2/h1-2H3

> <InChI Key_QSARr>
LCGLNKUTAGEVQW-UHFFFAOYSA-N

> <OH>
2.98E-12

> <OH Temperature>
25.0

> <OH Data Type>
EXP

> <OH Reference>
KWOK,ESC & ATKINSON,R (1994)

> <LogOH>
-11.525783735923728

$$$$
100300
  -INDIGO-08031719142D

 12 11  0  0  0  0  0  0  0  0999 V2000
    0.0000    0.0000    0.0000 C   0  0  0  0  0  0  0  0  0  0  0  0
   -0.0000   -1.6000    0.0000 C   0  0  0  0  0  0  0  0  0  0  0  0
    1.3856   -2.4000    0.0000 H   0  0  0  0  0  0  0  0  0  0  0  0
   -1.3856   -2.4000    0.0000 H   0  0  0  0  0  0  0  0  0  0  0  0
    1.3856    0.8000    0.0000 C   0  0  0  0  0  0  0  0  0  0  0  0
    2.7713    1.6000    0.0000 H   0  0  0  0  0  0  0  0  0  0  0  0
    2.7713    0.0000    0.0000 H   0  0  0  0  0  0  0  0  0  0  0  0
    1.3856    2.4000    0.0000 H   0  0  0  0  0  0  0  0  0  0  0  0
   -1.3856    0.8000    0.0000 C   0  0  0  0  0  0  0  0  0  0  0  0
   -2.7713    1.6000    0.0000 H   0  0  0  0  0  0  0  0  0  0  0  0
   -2.7713    0.0000    0.0000 H   0  0  0  0  0  0  0  0  0  0  0  0
   -1.3856    2.4000    0.0000 H   0  0  0  0  0  0  0  0  0  0  0  0
  1  2  2  0  0  0  0
  2  3  1  0  0  0  0
  2  4  1  0  0  0  0
  1  5  1  0  0  0  0
  5  6  1  0  0  0  0
  5  7  1  0  0  0  0
  5  8  1  0  0  0  0
  1  9  1  0  0  0  0
  9 10  1  0  0  0  0
  9 11  1  0  0  0  0
  9 12  1  0  0  0  0
M  END
> <ChemID>
100300

> <source_casrn>
115-11-7

> <CAS>
115-11-7

> <SMILES>
CC(C)=C

> <NAME>
ISOBUTENE

> <preferred_name>
Isobutene

> <iupac>
2-methylprop-1-ene

> <MPID>
98855

> <dsstox_substance_id>
DTXSID9020748

> <Canonical_QSARr>
CC(C)=C

> <InChI_Code_QSARr>
InChI=1S/C4H8/c1-4(2)3/h1H2,2-3H3

> <InChI Key_QSARr>
VQTUBCCKSQIDNK-UHFFFAOYSA-N

> <OH>
5.14E-11

> <OH Temperature>
25.0

> <OH Data Type>
EXP

> <OH Reference>
ATKINSON,R (1989)

> <LogOH>
-10.28903688100471

$$$$
100301
  -INDIGO-08031719142D

 16 15  0  0  0  0  0  0  0  0999 V2000
    0.8000   -1.3856    0.0000 C   0  0  0  0  0  0  0  0  0  0  0  0
    1.6000   -2.7713    0.0000 H   0  0  0  0  0  0  0  0  0  0  0  0
    0.0000   -2.7713    0.0000 H   0  0  0  0  0  0  0  0  0  0  0  0
    2.4000   -1.3856    0.0000 H   0  0  0  0  0  0  0  0  0  0  0  0
    0.0000    0.0000    0.0000 C   0  0  0  0  0  0  0  0  0  0  0  0
    1.3856    0.8000    0.0000 C   0  0  0  0  0  0  0  0  0  0  0  0
    1.3856    2.4000    0.0000 H   0  0  0  0  0  0  0  0  0  0  0  0
    2.9613    0.5222    0.0000 C   0  0  0  0  0  0  0  0  0  0  0  0
    3.9898    1.7479    0.0000 H   0  0  0  0  0  0  0  0  0  0  0  0
    3.5085   -0.9814    0.0000 H   0  0  0  0  0  0  0  0  0  0  0  0
   -1.3856   -0.8000    0.0000 O   0  0  0  0  0  0  0  0  0  0  0  0
   -2.7713    0.0000    0.0000 H   0  0  0  0  0  0  0  0  0  0  0  0
   -0.8000    1.3856    0.0000 C   0  0  0  0  0  0  0  0  0  0  0  0
   -1.6000    2.7713    0.0000 H   0  0  0  0  0  0  0  0  0  0  0  0
   -2.4000    1.3856    0.0000 H   0  0  0  0  0  0  0  0  0  0  0  0
    0.0000    2.7713    0.0000 H   0  0  0  0  0  0  0  0  0  0  0  0
  1  2  1  0  0  0  0
  1  3  1  0  0  0  0
  1  4  1  0  0  0  0
  1  5  1  0  0  0  0
  5  6  1  0  0  0  0
  6  7  1  0  0  0  0
  6  8  2  0  0  0  0
  8  9  1  0  0  0  0
  8 10  1  0  0  0  0
  5 11  1  0  0  0  0
 11 12  1  0  0  0  0
  5 13  1  0  0  0  0
 13 14  1  0  0  0  0
 13 15  1  0  0  0  0
 13 16  1  0  0  0  0
M  END
> <ChemID>
100301

> <source_casrn>
115-18-4

> <CAS>
115-18-4

> <SMILES>
CC(C)(O)C=C

> <NAME>
3-Buten-2-ol, 2-methyl-

> <preferred_name>
2-Methyl-3-buten-2-ol

> <iupac>
2-methylbut-3-en-2-ol

> <MPID>
98856

> <dsstox_substance_id>
DTXSID3047471

> <Canonical_QSARr>
CC(C)(O)C=C

> <InChI_Code_QSARr>
InChI=1S/C5H10O/c1-4-5(2,3)6/h4,6H,1H2,2-3H3

> <InChI Key_QSARr>
HNVRRHSXBLFLIG-UHFFFAOYSA-N

> <OH>
6.479999999999999E-11

> <OH Temperature>
25.0

> <OH Data Type>
EXP

> <OH Reference>
RUDICH,Y ET AL. (1995)

> <LogOH>
-10.188424994129397

$$$$
100303
  -INDIGO-08031719142D

 17 16  0  0  0  0  0  0  0  0999 V2000
    2.7713    0.0000    0.0000 C   0  0  0  0  0  0  0  0  0  0  0  0
    4.1569   -0.8000    0.0000 H   0  0  0  0  0  0  0  0  0  0  0  0
    4.1569    0.8000    0.0000 H   0  0  0  0  0  0  0  0  0  0  0  0
    2.7713   -1.6000    0.0000 H   0  0  0  0  0  0  0  0  0  0  0  0
    1.3856    0.8000    0.0000 C   0  0  0  0  0  0  0  0  0  0  0  0
    0.0000    0.0000    0.0000 C   0  0  0  0  0  0  0  0  0  0  0  0
   -1.3856   -0.8000    0.0000 C   0  0  0  0  0  0  0  0  0  0  0  0
   -2.7713   -1.6000    0.0000 H   0  0  0  0  0  0  0  0  0  0  0  0
   -1.3856   -2.4000    0.0000 H   0  0  0  0  0  0  0  0  0  0  0  0
   -2.7713    0.0000    0.0000 H   0  0  0  0  0  0  0  0  0  0  0  0
    0.8000   -1.3856    0.0000 O   0  0  0  0  0  0  0  0  0  0  0  0
    0.0000   -2.7713    0.0000 H   0  0  0  0  0  0  0  0  0  0  0  0
   -0.8000    1.3856    0.0000 C   0  0  0  0  0  0  0  0  0  0  0  0
   -1.6000    2.7713    0.0000 H   0  0  0  0  0  0  0  0  0  0  0  0
    0.0000    2.7713    0.0000 H   0  0  0  0  0  0  0  0  0  0  0  0
   -2.4000    1.3856    0.0000 H   0  0  0  0  0  0  0  0  0  0  0  0
    1.3856    2.4000    0.0000 O   0  0  0  0  0  0  0  0  0  0  0  0
  1  2  1  0  0  0  0
  1  3  1  0  0  0  0
  1  4  1  0  0  0  0
  1  5  1  0  0  0  0
  5  6  1  0  0  0  0
  6  7  1  0  0  0  0
  7  8  1  0  0  0  0
  7  9  1  0  0  0  0
  7 10  1  0  0  0  0
  6 11  1  0  0  0  0
 11 12  1  0  0  0  0
  6 13  1  0  0  0  0
 13 14  1  0  0  0  0
 13 15  1  0  0  0  0
 13 16  1  0  0  0  0
  5 17  2  0  0  0  0
M  END
> <ChemID>
100303

> <source_casrn>
115-22-0

> <CAS>
NOCAS_870468

> <SMILES>
CC(=O)C(C)(C)O

> <NAME>
3-HYDROXY-3-METHYL-2-BUTANONE

> <preferred_name>


> <iupac>


> <MPID>
98858

> <dsstox_substance_id>
DTXSID60870468

> <Canonical_QSARr>
CC(=O)C(C)(C)O

> <InChI_Code_QSARr>
InChI=1S/C5H10O2/c1-4(6)5(2,3)7/h7H,1-3H3

> <InChI Key_QSARr>
BNDRWEVUODOUDW-UHFFFAOYSA-N

> <OH>
9.4E-13

> <OH Temperature>
23.0

> <OH Data Type>
EXP

> <OH Reference>
ASCHMANN,SM ET AL. (2000)

> <LogOH>
-12.026872146400285

$$$$
100304
  -INDIGO-08031719142D

 21 20  0  0  0  0  0  0  0  0999 V2000
    0.0001   -0.0000    0.0000 P   0  0  0  0  0  0  0  0  0  0  0  0
    1.3856    0.8000    0.0000 N   0  0  0  0  0  0  0  0  0  0  0  0
    2.7713   -0.0000    0.0000 C   0  0  0  0  0  0  0  0  0  0  0  0
    4.1569   -0.8000    0.0000 H   0  0  0  0  0  0  0  0  0  0  0  0
    4.1569    0.8000    0.0000 H   0  0  0  0  0  0  0  0  0  0  0  0
    2.7713   -1.6000    0.0000 H   0  0  0  0  0  0  0  0  0  0  0  0
    1.3856    2.4000    0.0000 C   0  0  0  0  0  0  0  0  0  0  0  0
    2.7713    3.2000    0.0000 H   0  0  0  0  0  0  0  0  0  0  0  0
    1.3856    4.0000    0.0000 H   0  0  0  0  0  0  0  0  0  0  0  0
    2.7713    1.6000    0.0000 H   0  0  0  0  0  0  0  0  0  0  0  0
   -1.3856    0.8000    0.0000 N   0  0  0  0  0  0  0  0  0  0  0  0
   -2.7712   -0.0000    0.0000 C   0  0  0  0  0  0  0  0  0  0  0  0
   -4.1569   -0.8000    0.0000 H   0  0  0  0  0  0  0  0  0  0  0  0
   -4.1569    0.8000    0.0000 H   0  0  0  0  0  0  0  0  0  0  0  0
   -2.7713   -1.6000    0.0000 H   0  0  0  0  0  0  0  0  0  0  0  0
   -1.3856    2.4000    0.0000 C   0  0  0  0  0  0  0  0  0  0  0  0
   -1.3856    4.0000    0.0000 H   0  0  0  0  0  0  0  0  0  0  0  0
   -2.7712    3.2000    0.0000 H   0  0  0  0  0  0  0  0  0  0  0  0
    0.0001    3.2000    0.0000 H   0  0  0  0  0  0  0  0  0  0  0  0
   -0.6123   -1.4782    0.0000 O   0  0  0  0  0  0  0  0  0  0  0  0
    0.6123   -1.4782    0.0000 F   0  0  0  0  0  0  0  0  0  0  0  0
  1  2  1  0  0  0  0
  2  3  1  0  0  0  0
  3  4  1  0  0  0  0
  3  5  1  0  0  0  0
  3  6  1  0  0  0  0
  2  7  1  0  0  0  0
  7  8  1  0  0  0  0
  7  9  1  0  0  0  0
  7 10  1  0  0  0  0
  1 11  1  0  0  0  0
 11 12  1  0  0  0  0
 12 13  1  0  0  0  0
 12 14  1  0  0  0  0
 12 15  1  0  0  0  0
 11 16  1  0  0  0  0
 16 17  1  0  0  0  0
 16 18  1  0  0  0  0
 16 19  1  0  0  0  0
  1 20  2  0  0  0  0
  1 21  1  0  0  0  0
M  END
> <ChemID>
100304

> <source_casrn>
115-26-4

> <CAS>
115-26-4

> <SMILES>
CN(C)P(=O)(F)N(C)C

> <NAME>
DIMEFOX

> <preferred_name>
Dimefox

> <iupac>
N,N,N',N'-tetramethylphosphorodiamidic fluoride

> <MPID>
98859

> <dsstox_substance_id>
DTXSID8041870

> <Canonical_QSARr>
CN(C)P(=O)(F)N(C)C

> <InChI_Code_QSARr>
InChI=1S/C4H12FN2OP/c1-6(2)9(5,8)7(3)4/h1-4H3

> <InChI Key_QSARr>
PGJBQBDNXAZHBP-UHFFFAOYSA-N

> <OH>
6.400000000000001E-11

> <OH Temperature>
25.0

> <OH Data Type>
EXP

> <OH Reference>
priv. communication; KOCH,R ET AL. (1994)

> <LogOH>
-10.193820026016121

$$$$
100308
  -INDIGO-08031719142D

  9  8  0  0  0  0  0  0  0  0999 V2000
   -2.7713    0.0000    0.0000 C   0  0  0  0  0  0  0  0  0  0  0  0
   -1.3856   -0.8000    0.0000 C   0  0  0  0  0  0  0  0  0  0  0  0
   -0.0000    0.0000    0.0000 C   0  0  0  0  0  0  0  0  0  0  0  0
    1.3856    0.8000    0.0000 F   0  0  0  0  0  0  0  0  0  0  0  0
   -0.0000    1.6000    0.0000 F   0  0  0  0  0  0  0  0  0  0  0  0
    1.3856   -0.8000    0.0000 F   0  0  0  0  0  0  0  0  0  0  0  0
   -1.3856   -2.4000    0.0000 F   0  0  0  0  0  0  0  0  0  0  0  0
   -4.1569   -0.8000    0.0000 F   0  0  0  0  0  0  0  0  0  0  0  0
   -2.7713    1.6000    0.0000 F   0  0  0  0  0  0  0  0  0  0  0  0
  1  2  2  0  0  0  0
  2  3  1  0  0  0  0
  3  4  1  0  0  0  0
  3  5  1  0  0  0  0
  3  6  1  0  0  0  0
  2  7  1  0  0  0  0
  1  8  1  0  0  0  0
  1  9  1  0  0  0  0
M  END
> <ChemID>
100308

> <source_casrn>
116-15-4

> <CAS>
116-15-4

> <SMILES>
FC(F)=C(F)C(F)(F)F

> <NAME>
HEXAFLUOROPROPENE

> <preferred_name>
1,1,2,3,3,3-Hexafluoro-1-propene

> <iupac>
1,1,2,3,3,3-hexafluoroprop-1-ene

> <MPID>
98861

> <dsstox_substance_id>
DTXSID2026949

> <Canonical_QSARr>
FC(F)=C(F)C(F)(F)F

> <InChI_Code_QSARr>
InChI=1S/C3F6/c4-1(2(5)6)3(7,8)9

> <InChI Key_QSARr>
HCDGVLDPFQMKDK-UHFFFAOYSA-N

> <OH>
2.2E-12

> <OH Temperature>
25.0

> <OH Data Type>
EXP

> <OH Reference>
LI,Z ET AL. (2000)

> <LogOH>
-11.657577319177802

$$$$
100309
  -INDIGO-08031719142D

 12 12  0  0  0  0  0  0  0  0999 V2000
    0.8000    1.3856    0.0000 Cl  0  0  0  0  0  0  0  0  0  0  0  0
   -0.0000   -0.0000    0.0000 C   0  0  0  0  0  0  0  0  0  0  0  0
    0.8000   -1.3857    0.0000 C   0  0  0  0  0  0  0  0  0  0  0  0
    2.4000   -1.3857    0.0000 Cl  0  0  0  0  0  0  0  0  0  0  0  0
   -0.0000   -2.7713    0.0000 C   0  0  0  0  0  0  0  0  0  0  0  0
    0.8000   -4.1569    0.0000 Cl  0  0  0  0  0  0  0  0  0  0  0  0
   -1.6000   -2.7713    0.0000 C   0  0  0  0  0  0  0  0  0  0  0  0
   -2.4000   -4.1569    0.0000 Cl  0  0  0  0  0  0  0  0  0  0  0  0
   -2.4000   -1.3856    0.0000 C   0  0  0  0  0  0  0  0  0  0  0  0
   -4.0000   -1.3856    0.0000 Cl  0  0  0  0  0  0  0  0  0  0  0  0
   -1.6000   -0.0000    0.0000 C   0  0  0  0  0  0  0  0  0  0  0  0
   -2.4000    1.3856    0.0000 Cl  0  0  0  0  0  0  0  0  0  0  0  0
  1  2  1  0  0  0  0
  2  3  1  0  0  0  0
  3  4  1  0  0  0  0
  3  5  2  0  0  0  0
  5  6  1  0  0  0  0
  5  7  1  0  0  0  0
  7  8  1  0  0  0  0
  7  9  2  0  0  0  0
  9 10  1  0  0  0  0
  9 11  1  0  0  0  0
 11  2  2  0  0  0  0
 11 12  1  0  0  0  0
M  END
> <ChemID>
100309

> <source_casrn>
118-74-1

> <CAS>
118-74-1

> <SMILES>
Clc1c(Cl)c(Cl)c(Cl)c(Cl)c1Cl

> <NAME>
HEXACHLOROBENZENE

> <preferred_name>
Hexachlorobenzene

> <iupac>
hexachlorobenzene

> <MPID>
98862

> <dsstox_substance_id>
DTXSID2020682

> <Canonical_QSARr>
Clc1c(Cl)c(Cl)c(Cl)c(Cl)c1Cl

> <InChI_Code_QSARr>
InChI=1S/C6Cl6/c7-1-2(8)4(10)6(12)5(11)3(1)9

> <InChI Key_QSARr>
CKAPSXZOOQJIBF-UHFFFAOYSA-N

> <OH>
2.7E-14

> <OH Temperature>
25.0

> <OH Data Type>
EXP

> <OH Reference>
BRUBAKER,WWJR & HITES,RA (1998A)

> <LogOH>
-13.568636235841032

$$$$
100311
  -INDIGO-08031719142D

 17 18  0  0  0  0  0  0  0  0999 V2000
   -2.7713   -1.6000    0.0000 N   0  0  0  0  0  0  0  0  0  0  0  0
   -1.3856   -2.4000    0.0000 C   0  0  0  0  0  0  0  0  0  0  0  0
   -1.3856   -4.0000    0.0000 H   0  0  0  0  0  0  0  0  0  0  0  0
   -0.0001   -1.6000    0.0000 C   0  0  0  0  0  0  0  0  0  0  0  0
    0.0001   -0.0000    0.0000 C   0  0  0  0  0  0  0  0  0  0  0  0
    1.3856    0.8000    0.0000 C   0  0  0  0  0  0  0  0  0  0  0  0
    1.3856    2.4000    0.0000 H   0  0  0  0  0  0  0  0  0  0  0  0
    2.7713   -0.0000    0.0000 C   0  0  0  0  0  0  0  0  0  0  0  0
    4.1569    0.8000    0.0000 H   0  0  0  0  0  0  0  0  0  0  0  0
    2.7713   -1.6000    0.0000 C   0  0  0  0  0  0  0  0  0  0  0  0
    4.1569   -2.4000    0.0000 H   0  0  0  0  0  0  0  0  0  0  0  0
    1.3856   -2.4000    0.0000 C   0  0  0  0  0  0  0  0  0  0  0  0
    1.3856   -4.0000    0.0000 H   0  0  0  0  0  0  0  0  0  0  0  0
   -1.3856    0.8000    0.0000 C   0  0  0  0  0  0  0  0  0  0  0  0
   -1.3856    2.4000    0.0000 H   0  0  0  0  0  0  0  0  0  0  0  0
   -2.7713   -0.0000    0.0000 C   0  0  0  0  0  0  0  0  0  0  0  0
   -4.1569    0.8000    0.0000 H   0  0  0  0  0  0  0  0  0  0  0  0
  1  2  1  0  0  0  0
  2  3  1  0  0  0  0
  2  4  2  0  0  0  0
  4  5  1  0  0  0  0
  5  6  1  0  0  0  0
  6  7  1  0  0  0  0
  6  8  2  0  0  0  0
  8  9  1  0  0  0  0
  8 10  1  0  0  0  0
 10 11  1  0  0  0  0
 10 12  2  0  0  0  0
 12  4  1  0  0  0  0
 12 13  1  0  0  0  0
  5 14  2  0  0  0  0
 14 15  1  0  0  0  0
 14 16  1  0  0  0  0
 16  1  2  0  0  0  0
 16 17  1  0  0  0  0
M  END
> <ChemID>
100311

> <source_casrn>
119-65-3

> <CAS>
119-65-3

> <SMILES>
c1[n]ccc2ccccc21

> <NAME>
ISOQUINOLINE

> <preferred_name>
Isoquinoline

> <iupac>
isoquinoline

> <MPID>
98864

> <dsstox_substance_id>
DTXSID2047644

> <Canonical_QSARr>
c1[n]ccc2ccccc21

> <InChI_Code_QSARr>
InChI=1S/C9H7N/c1-2-4-9-7-10-6-5-8(9)3-1/h1-7H

> <InChI Key_QSARr>
AWJUIBRHMBBTKR-UHFFFAOYSA-N

> <OH>
8.5E-12

> <OH Temperature>
24.0

> <OH Data Type>
EXP

> <OH Reference>
ATKINSON,R ET AL. (1995B)

> <LogOH>
-11.070581074285716

$$$$
100312
  -INDIGO-08031719142D

 24 26  0  0  0  0  0  0  0  0999 V2000
   -1.3856    0.8000    0.0000 C   0  0  0  0  0  0  0  0  0  0  0  0
   -1.3856    2.4000    0.0000 H   0  0  0  0  0  0  0  0  0  0  0  0
   -2.7712   -0.0000    0.0000 C   0  0  0  0  0  0  0  0  0  0  0  0
   -2.7712   -1.6000    0.0000 C   0  0  0  0  0  0  0  0  0  0  0  0
   -4.1569   -2.4000    0.0000 C   0  0  0  0  0  0  0  0  0  0  0  0
   -4.1569   -4.0000    0.0000 H   0  0  0  0  0  0  0  0  0  0  0  0
   -5.5425   -1.6000    0.0000 C   0  0  0  0  0  0  0  0  0  0  0  0
   -6.9282   -2.4000    0.0000 H   0  0  0  0  0  0  0  0  0  0  0  0
   -5.5425   -0.0000    0.0000 C   0  0  0  0  0  0  0  0  0  0  0  0
   -6.9282    0.8000    0.0000 H   0  0  0  0  0  0  0  0  0  0  0  0
   -4.1569    0.8000    0.0000 C   0  0  0  0  0  0  0  0  0  0  0  0
   -4.1569    2.4000    0.0000 H   0  0  0  0  0  0  0  0  0  0  0  0
   -1.3856   -2.4000    0.0000 C   0  0  0  0  0  0  0  0  0  0  0  0
   -1.3856   -4.0000    0.0000 H   0  0  0  0  0  0  0  0  0  0  0  0
   -0.0001   -1.6000    0.0000 C   0  0  0  0  0  0  0  0  0  0  0  0
   -0.0001   -0.0000    0.0000 C   0  0  0  0  0  0  0  0  0  0  0  0
    1.3856    0.8000    0.0000 C   0  0  0  0  0  0  0  0  0  0  0  0
    1.3856    2.4000    0.0000 H   0  0  0  0  0  0  0  0  0  0  0  0
    2.7713   -0.0000    0.0000 C   0  0  0  0  0  0  0  0  0  0  0  0
    4.1569    0.8000    0.0000 H   0  0  0  0  0  0  0  0  0  0  0  0
    2.7713   -1.6000    0.0000 C   0  0  0  0  0  0  0  0  0  0  0  0
    4.1569   -2.4000    0.0000 H   0  0  0  0  0  0  0  0  0  0  0  0
    1.3856   -2.4000    0.0000 C   0  0  0  0  0  0  0  0  0  0  0  0
    1.3856   -4.0000    0.0000 H   0  0  0  0  0  0  0  0  0  0  0  0
  1  2  1  0  0  0  0
  1  3  1  0  0  0  0
  3  4  1  0  0  0  0
  4  5  2  0  0  0  0
  5  6  1  0  0  0  0
  5  7  1  0  0  0  0
  7  8  1  0  0  0  0
  7  9  2  0  0  0  0
  9 10  1  0  0  0  0
  9 11  1  0  0  0  0
 11  3  2  0  0  0  0
 11 12  1  0  0  0  0
  4 13  1  0  0  0  0
 13 14  1  0  0  0  0
 13 15  2  0  0  0  0
 15 16  1  0  0  0  0
 16  1  2  0  0  0  0
 16 17  1  0  0  0  0
 17 18  1  0  0  0  0
 17 19  2  0  0  0  0
 19 20  1  0  0  0  0
 19 21  1  0  0  0  0
 21 22  1  0  0  0  0
 21 23  2  0  0  0  0
 23 15  1  0  0  0  0
 23 24  1  0  0  0  0
M  END
> <ChemID>
100312

> <source_casrn>
120-12-7

> <CAS>
120-12-7

> <SMILES>
c1c2ccccc2cc2ccccc21

> <NAME>
ANTHRACENE

> <preferred_name>
Anthracene

> <iupac>
anthracene

> <MPID>
98865

> <dsstox_substance_id>
DTXSID0023878

> <Canonical_QSARr>
c1c2ccccc2cc2ccccc21

> <InChI_Code_QSARr>
InChI=1S/C14H10/c1-2-6-12-10-14-8-4-3-7-13(14)9-11(12)5-1/h1-10H

> <InChI Key_QSARr>
MWPLVEDNUUSJAV-UHFFFAOYSA-N

> <OH>
1.1E-10

> <OH Temperature>
25.0

> <OH Data Type>
EXP

> <OH Reference>
KWOK,ESC ET AL. (1994)

> <LogOH>
-9.95860731484176

$$$$
100313
  -INDIGO-08031719142D

 16 17  0  0  0  0  0  0  0  0999 V2000
    1.5217    0.4944    0.0000 N   0  0  0  0  0  0  0  0  0  0  0  0
    2.0161    2.0161    0.0000 H   0  0  0  0  0  0  0  0  0  0  0  0
    2.4621   -0.8000    0.0000 C   0  0  0  0  0  0  0  0  0  0  0  0
    4.0621   -0.8000    0.0000 H   0  0  0  0  0  0  0  0  0  0  0  0
    1.5217   -2.0944    0.0000 C   0  0  0  0  0  0  0  0  0  0  0  0
    2.0161   -3.6161    0.0000 H   0  0  0  0  0  0  0  0  0  0  0  0
   -0.0000   -1.6000    0.0000 C   0  0  0  0  0  0  0  0  0  0  0  0
   -0.0000   -0.0000    0.0000 C   0  0  0  0  0  0  0  0  0  0  0  0
   -1.3856    0.8000    0.0000 C   0  0  0  0  0  0  0  0  0  0  0  0
   -1.3856    2.4000    0.0000 H   0  0  0  0  0  0  0  0  0  0  0  0
   -2.7713   -0.0000    0.0000 C   0  0  0  0  0  0  0  0  0  0  0  0
   -4.1569    0.8000    0.0000 H   0  0  0  0  0  0  0  0  0  0  0  0
   -2.7713   -1.6000    0.0000 C   0  0  0  0  0  0  0  0  0  0  0  0
   -4.1569   -2.4000    0.0000 H   0  0  0  0  0  0  0  0  0  0  0  0
   -1.3856   -2.4000    0.0000 C   0  0  0  0  0  0  0  0  0  0  0  0
   -1.3856   -4.0000    0.0000 H   0  0  0  0  0  0  0  0  0  0  0  0
  1  2  1  0  0  0  0
  1  3  1  0  0  0  0
  3  4  1  0  0  0  0
  3  5  2  0  0  0  0
  5  6  1  0  0  0  0
  5  7  1  0  0  0  0
  7  8  1  0  0  0  0
  8  1  1  0  0  0  0
  8  9  2  0  0  0  0
  9 10  1  0  0  0  0
  9 11  1  0  0  0  0
 11 12  1  0  0  0  0
 11 13  2  0  0  0  0
 13 14  1  0  0  0  0
 13 15  1  0  0  0  0
 15  7  2  0  0  0  0
 15 16  1  0  0  0  0
M  END
> <ChemID>
100313

> <source_casrn>
120-72-9

> <CAS>
120-72-9

> <SMILES>
c1cccc2[nH]ccc21

> <NAME>
INDOLE

> <preferred_name>
Indole

> <iupac>
1H-indole

> <MPID>
98866

> <dsstox_substance_id>
DTXSID0020737

> <Canonical_QSARr>
c1cccc2[nH]ccc21

> <InChI_Code_QSARr>
InChI=1S/C8H7N/c1-2-4-8-7(3-1)5-6-9-8/h1-6,9H

> <InChI Key_QSARr>
SIKJAQJRHWYJAI-UHFFFAOYSA-N

> <OH>
1.54E-10

> <OH Temperature>
25.0

> <OH Data Type>
EXP

> <OH Reference>
ATKINSON,R ET AL. (1995B)

> <LogOH>
-9.81247927916353

$$$$
100315
  -INDIGO-08031719142D

 12 12  0  0  0  0  0  0  0  0999 V2000
    0.8000    1.3856    0.0000 Cl  0  0  0  0  0  0  0  0  0  0  0  0
   -0.0000   -0.0000    0.0000 C   0  0  0  0  0  0  0  0  0  0  0  0
    0.8000   -1.3857    0.0000 C   0  0  0  0  0  0  0  0  0  0  0  0
    2.4000   -1.3857    0.0000 Cl  0  0  0  0  0  0  0  0  0  0  0  0
   -0.0000   -2.7713    0.0000 C   0  0  0  0  0  0  0  0  0  0  0  0
    0.8000   -4.1569    0.0000 H   0  0  0  0  0  0  0  0  0  0  0  0
   -1.6000   -2.7713    0.0000 C   0  0  0  0  0  0  0  0  0  0  0  0
   -2.4000   -4.1569    0.0000 Cl  0  0  0  0  0  0  0  0  0  0  0  0
   -2.4000   -1.3856    0.0000 C   0  0  0  0  0  0  0  0  0  0  0  0
   -4.0000   -1.3856    0.0000 H   0  0  0  0  0  0  0  0  0  0  0  0
   -1.6000   -0.0000    0.0000 C   0  0  0  0  0  0  0  0  0  0  0  0
   -2.4000    1.3856    0.0000 H   0  0  0  0  0  0  0  0  0  0  0  0
  1  2  1  0  0  0  0
  2  3  1  0  0  0  0
  3  4  1  0  0  0  0
  3  5  2  0  0  0  0
  5  6  1  0  0  0  0
  5  7  1  0  0  0  0
  7  8  1  0  0  0  0
  7  9  2  0  0  0  0
  9 10  1  0  0  0  0
  9 11  1  0  0  0  0
 11  2  2  0  0  0  0
 11 12  1  0  0  0  0
M  END
> <ChemID>
100315

> <source_casrn>
120-82-1

> <CAS>
120-82-1

> <SMILES>
Clc1cc(Cl)c(Cl)cc1

> <NAME>
1,2,4-TRICHLOROBENZENE

> <preferred_name>
1,2,4-Trichlorobenzene

> <iupac>
C6H3Cl3

> <MPID>
98868

> <dsstox_substance_id>
DTXSID0021965

> <Canonical_QSARr>
Clc1cc(Cl)c(Cl)cc1

> <InChI_Code_QSARr>
InChI=1S/C6H3Cl3/c7-4-1-2-5(8)6(9)3-4/h1-3H

> <InChI Key_QSARr>
PBKONEOXTCPAFI-UHFFFAOYSA-N

> <OH>
5.500000000000001E-13

> <OH Temperature>
25.0

> <OH Data Type>
EXP

> <OH Reference>
KWOK,ESC & ATKINSON,R (1994)

> <LogOH>
-12.259637310505768

$$$$
100316
  -INDIGO-08031719142D

 13 13  0  0  0  0  0  0  0  0999 V2000
    0.0000    2.7713    0.0000 Cl  0  0  0  0  0  0  0  0  0  0  0  0
   -0.8000    1.3856    0.0000 C   0  0  0  0  0  0  0  0  0  0  0  0
    0.0000   -0.0000    0.0000 C   0  0  0  0  0  0  0  0  0  0  0  0
    1.6000   -0.0000    0.0000 O   0  0  0  0  0  0  0  0  0  0  0  0
    2.4000    1.3856    0.0000 H   0  0  0  0  0  0  0  0  0  0  0  0
   -0.8000   -1.3856    0.0000 C   0  0  0  0  0  0  0  0  0  0  0  0
    0.0000   -2.7713    0.0000 H   0  0  0  0  0  0  0  0  0  0  0  0
   -2.4000   -1.3856    0.0000 C   0  0  0  0  0  0  0  0  0  0  0  0
   -3.2000   -2.7713    0.0000 H   0  0  0  0  0  0  0  0  0  0  0  0
   -3.2000   -0.0000    0.0000 C   0  0  0  0  0  0  0  0  0  0  0  0
   -4.8000   -0.0000    0.0000 Cl  0  0  0  0  0  0  0  0  0  0  0  0
   -2.4000    1.3856    0.0000 C   0  0  0  0  0  0  0  0  0  0  0  0
   -3.2000    2.7713    0.0000 H   0  0  0  0  0  0  0  0  0  0  0  0
  1  2  1  0  0  0  0
  2  3  1  0  0  0  0
  3  4  1  0  0  0  0
  4  5  1  0  0  0  0
  3  6  2  0  0  0  0
  6  7  1  0  0  0  0
  6  8  1  0  0  0  0
  8  9  1  0  0  0  0
  8 10  2  0  0  0  0
 10 11  1  0  0  0  0
 10 12  1  0  0  0  0
 12  2  2  0  0  0  0
 12 13  1  0  0  0  0
M  END
> <ChemID>
100316

> <source_casrn>
120-83-2

> <CAS>
120-83-2

> <SMILES>
Oc1ccc(Cl)cc1Cl

> <NAME>
2,4-DICHLOROPHENOL

> <preferred_name>
2,4-Dichlorophenol

> <iupac>
2,4-dichlorophenol

> <MPID>
98869

> <dsstox_substance_id>
DTXSID1020439

> <Canonical_QSARr>
Oc1ccc(Cl)cc1Cl

> <InChI_Code_QSARr>
InChI=1S/C6H4Cl2O/c7-4-1-2-6(9)5(8)3-4/h1-3,9H

> <InChI Key_QSARr>
HFZWRUODUSTPEG-UHFFFAOYSA-N

> <OH>
1.06E-12

> <OH Temperature>
25.0

> <OH Data Type>
EXP

> <OH Reference>
ATKINSON,R (1989)

> <LogOH>
-11.974694134735241

$$$$
100317
  -INDIGO-08031719142D

 14 14  0  0  0  0  0  0  0  0999 V2000
    2.0944    1.5217    0.0000 C   0  0  0  0  0  0  0  0  0  0  0  0
    2.5889    0.0000    0.0000 C   0  0  0  0  0  0  0  0  0  0  0  0
    4.0505    0.6508    0.0000 H   0  0  0  0  0  0  0  0  0  0  0  0
    3.3888   -1.3856    0.0000 H   0  0  0  0  0  0  0  0  0  0  0  0
    1.2944   -0.9405    0.0000 C   0  0  0  0  0  0  0  0  0  0  0  0
    2.3650   -2.1295    0.0000 H   0  0  0  0  0  0  0  0  0  0  0  0
    0.2238   -2.1295    0.0000 H   0  0  0  0  0  0  0  0  0  0  0  0
    0.0000    0.0000    0.0000 C   0  0  0  0  0  0  0  0  0  0  0  0
   -0.8000   -1.3856    0.0000 H   0  0  0  0  0  0  0  0  0  0  0  0
   -1.4617    0.6508    0.0000 H   0  0  0  0  0  0  0  0  0  0  0  0
    0.4944    1.5217    0.0000 C   0  0  0  0  0  0  0  0  0  0  0  0
   -1.0706    1.8544    0.0000 H   0  0  0  0  0  0  0  0  0  0  0  0
    0.6617    3.1129    0.0000 H   0  0  0  0  0  0  0  0  0  0  0  0
    3.0349    2.8161    0.0000 O   0  0  0  0  0  0  0  0  0  0  0  0
  1  2  1  0  0  0  0
  2  3  1  0  0  0  0
  2  4  1  0  0  0  0
  2  5  1  0  0  0  0
  5  6  1  0  0  0  0
  5  7  1  0  0  0  0
  5  8  1  0  0  0  0
  8  9  1  0  0  0  0
  8 10  1  0  0  0  0
  8 11  1  0  0  0  0
 11  1  1  0  0  0  0
 11 12  1  0  0  0  0
 11 13  1  0  0  0  0
  1 14  2  0  0  0  0
M  END
> <ChemID>
100317

> <source_casrn>
120-92-3

> <CAS>
120-92-3

> <SMILES>
O=C1CCCC1

> <NAME>
CYCLOPENTANONE

> <preferred_name>
Cyclopentanone

> <iupac>
cyclopentanone

> <MPID>
98870

> <dsstox_substance_id>
DTXSID3029154

> <Canonical_QSARr>
O=C1CCCC1

> <InChI_Code_QSARr>
InChI=1S/C5H8O/c6-5-3-1-2-4-5/h1-4H2

> <InChI Key_QSARr>
BGTOWKSIORTVQH-UHFFFAOYSA-N

> <OH>
2.939999999999999E-12

> <OH Temperature>
25.0

> <OH Data Type>
EXP

> <OH Reference>
KWOK,ESC & ATKINSON,R (1994)

> <LogOH>
-11.53165266958786

$$$$
100319
  -INDIGO-08031719142D

 20 20  0  0  0  0  0  0  0  0999 V2000
    0.8001    1.3856    0.0000 C   0  0  0  0  0  0  0  0  0  0  0  0
    1.6000    2.7713    0.0000 H   0  0  0  0  0  0  0  0  0  0  0  0
    2.4000    1.3856    0.0000 H   0  0  0  0  0  0  0  0  0  0  0  0
    0.0000    2.7713    0.0000 H   0  0  0  0  0  0  0  0  0  0  0  0
    0.0000   -0.0000    0.0000 N   0  0  0  0  0  0  0  0  0  0  0  0
   -1.6000    0.0000    0.0000 C   0  0  0  0  0  0  0  0  0  0  0  0
   -2.4000    1.3856    0.0000 C   0  0  0  0  0  0  0  0  0  0  0  0
   -1.6000    2.7713    0.0000 H   0  0  0  0  0  0  0  0  0  0  0  0
   -4.0000    1.3856    0.0000 C   0  0  0  0  0  0  0  0  0  0  0  0
   -4.8001    2.7713    0.0000 H   0  0  0  0  0  0  0  0  0  0  0  0
   -4.8001    0.0000    0.0000 C   0  0  0  0  0  0  0  0  0  0  0  0
   -6.4000    0.0000    0.0000 H   0  0  0  0  0  0  0  0  0  0  0  0
   -4.0000   -1.3856    0.0000 C   0  0  0  0  0  0  0  0  0  0  0  0
   -4.8001   -2.7713    0.0000 H   0  0  0  0  0  0  0  0  0  0  0  0
   -2.4000   -1.3856    0.0000 C   0  0  0  0  0  0  0  0  0  0  0  0
   -1.6000   -2.7713    0.0000 H   0  0  0  0  0  0  0  0  0  0  0  0
    0.8001   -1.3856    0.0000 C   0  0  0  0  0  0  0  0  0  0  0  0
    1.6000   -2.7713    0.0000 H   0  0  0  0  0  0  0  0  0  0  0  0
    2.4000   -1.3856    0.0000 H   0  0  0  0  0  0  0  0  0  0  0  0
    0.0000   -2.7713    0.0000 H   0  0  0  0  0  0  0  0  0  0  0  0
  1  2  1  0  0  0  0
  1  3  1  0  0  0  0
  1  4  1  0  0  0  0
  1  5  1  0  0  0  0
  5  6  1  0  0  0  0
  6  7  1  0  0  0  0
  7  8  1  0  0  0  0
  7  9  2  0  0  0  0
  9 10  1  0  0  0  0
  9 11  1  0  0  0  0
 11 12  1  0  0  0  0
 11 13  2  0  0  0  0
 13 14  1  0  0  0  0
 13 15  1  0  0  0  0
 15  6  2  0  0  0  0
 15 16  1  0  0  0  0
  5 17  1  0  0  0  0
 17 18  1  0  0  0  0
 17 19  1  0  0  0  0
 17 20  1  0  0  0  0
M  END
> <ChemID>
100319

> <source_casrn>
121-69-7

> <CAS>
121-69-7

> <SMILES>
CN(C)c1ccccc1

> <NAME>
N,N-DIMETHYLANILINE

> <preferred_name>
N,N-Dimethylaniline

> <iupac>
N,N-dimethylaniline

> <MPID>
98872

> <dsstox_substance_id>
DTXSID2020507

> <Canonical_QSARr>
CN(C)c1ccccc1

> <InChI_Code_QSARr>
InChI=1S/C8H11N/c1-9(2)8-6-4-3-5-7-8/h3-7H,1-2H3

> <InChI Key_QSARr>
JLTDJTHDQAWBAV-UHFFFAOYSA-N

> <OH>
1.48E-10

> <OH Temperature>
25.0

> <OH Data Type>
EXP

> <OH Reference>
ATKINSON,R (1989)

> <LogOH>
-9.829738284605027

$$$$
100320
  -INDIGO-08031719142D

 25 25  0  0  0  0  0  0  0  0999 V2000
    4.1568    4.0000    0.0000 Cl  0  0  0  0  0  0  0  0  0  0  0  0
    4.1570    2.4000    0.0000 C   0  0  0  0  0  0  0  0  0  0  0  0
    5.5426    1.6000    0.0000 N   0  0  0  0  0  0  0  0  0  0  0  0
    5.5426    0.0000    0.0000 C   0  0  0  0  0  0  0  0  0  0  0  0
    6.9283   -0.8000    0.0000 N   0  0  0  0  0  0  0  0  0  0  0  0
    6.9283   -2.4000    0.0000 H   0  0  0  0  0  0  0  0  0  0  0  0
    8.3138    0.0000    0.0000 C   0  0  0  0  0  0  0  0  0  0  0  0
    8.9262    1.4782    0.0000 H   0  0  0  0  0  0  0  0  0  0  0  0
    7.7015    1.4782    0.0000 H   0  0  0  0  0  0  0  0  0  0  0  0
    9.6996   -0.8000    0.0000 C   0  0  0  0  0  0  0  0  0  0  0  0
   11.0851   -1.6000    0.0000 H   0  0  0  0  0  0  0  0  0  0  0  0
   11.0851    0.0000    0.0000 H   0  0  0  0  0  0  0  0  0  0  0  0
    9.6996   -2.4000    0.0000 H   0  0  0  0  0  0  0  0  0  0  0  0
    4.1570   -0.8000    0.0000 N   0  0  0  0  0  0  0  0  0  0  0  0
    2.7713    0.0000    0.0000 C   0  0  0  0  0  0  0  0  0  0  0  0
    1.3857   -0.8000    0.0000 N   0  0  0  0  0  0  0  0  0  0  0  0
    1.3857   -2.4000    0.0000 H   0  0  0  0  0  0  0  0  0  0  0  0
    0.0000    0.0000    0.0000 C   0  0  0  0  0  0  0  0  0  0  0  0
    0.6123    1.4782    0.0000 H   0  0  0  0  0  0  0  0  0  0  0  0
   -0.6123    1.4782    0.0000 H   0  0  0  0  0  0  0  0  0  0  0  0
   -1.3855   -0.8000    0.0000 C   0  0  0  0  0  0  0  0  0  0  0  0
   -2.7713   -1.6000    0.0000 H   0  0  0  0  0  0  0  0  0  0  0  0
   -2.7713    0.0000    0.0000 H   0  0  0  0  0  0  0  0  0  0  0  0
   -1.3855   -2.4000    0.0000 H   0  0  0  0  0  0  0  0  0  0  0  0
    2.7713    1.6000    0.0000 N   0  0  0  0  0  0  0  0  0  0  0  0
  1  2  1  0  0  0  0
  2  3  1  0  0  0  0
  3  4  2  0  0  0  0
  4  5  1  0  0  0  0
  5  6  1  0  0  0  0
  5  7  1  0  0  0  0
  7  8  1  0  0  0  0
  7  9  1  0  0  0  0
  7 10  1  0  0  0  0
 10 11  1  0  0  0  0
 10 12  1  0  0  0  0
 10 13  1  0  0  0  0
  4 14  1  0  0  0  0
 14 15  2  0  0  0  0
 15 16  1  0  0  0  0
 16 17  1  0  0  0  0
 16 18  1  0  0  0  0
 18 19  1  0  0  0  0
 18 20  1  0  0  0  0
 18 21  1  0  0  0  0
 21 22  1  0  0  0  0
 21 23  1  0  0  0  0
 21 24  1  0  0  0  0
 15 25  1  0  0  0  0
 25  2  2  0  0  0  0
M  END
> <ChemID>
100320

> <source_casrn>
122-34-9

> <CAS>
122-34-9

> <SMILES>
CCNc1[n]c(Cl)[n]c(NCC)[n]1

> <NAME>
SIMAZINE

> <preferred_name>
Simazine

> <iupac>
6-chloro-N,N'-diethyl-1,3,5-triazine-2,4-diamine

> <MPID>
98873

> <dsstox_substance_id>
DTXSID4021268

> <Canonical_QSARr>
CCNc1[n]c(Cl)[n]c(NCC)[n]1

> <InChI_Code_QSARr>
InChI=1S/C7H12ClN5/c1-3-9-6-11-5(8)12-7(13-6)10-4-2/h3-4H2,1-2H3,(H2,9,10,11,12,13)

> <InChI Key_QSARr>
ODCWYMIRDDJXKW-UHFFFAOYSA-N

> <OH>
1.1E-11

> <OH Temperature>
25.0

> <OH Data Type>
EXP

> <OH Reference>
PALM,WU ET AL. (1998)

> <LogOH>
-10.958607314841784

$$$$
100321
  -INDIGO-08031719142D

 24 25  0  0  0  0  0  0  0  0999 V2000
   -0.5473   -1.5035    0.0000 C   0  0  0  0  0  0  0  0  0  0  0  0
    0.4812   -2.7292    0.0000 H   0  0  0  0  0  0  0  0  0  0  0  0
   -2.1229   -1.7813    0.0000 C   0  0  0  0  0  0  0  0  0  0  0  0
   -2.6702   -3.2849    0.0000 H   0  0  0  0  0  0  0  0  0  0  0  0
   -3.1513   -0.5556    0.0000 C   0  0  0  0  0  0  0  0  0  0  0  0
   -4.7271   -0.8335    0.0000 H   0  0  0  0  0  0  0  0  0  0  0  0
   -2.6042    0.9479    0.0000 C   0  0  0  0  0  0  0  0  0  0  0  0
   -3.6326    2.1735    0.0000 H   0  0  0  0  0  0  0  0  0  0  0  0
   -1.0284    1.2257    0.0000 C   0  0  0  0  0  0  0  0  0  0  0  0
   -0.4813    2.7292    0.0000 H   0  0  0  0  0  0  0  0  0  0  0  0
    0.0000    0.0000    0.0000 C   0  0  0  0  0  0  0  0  0  0  0  0
    1.5756    0.2779    0.0000 N   0  0  0  0  0  0  0  0  0  0  0  0
    1.8536    1.8535    0.0000 H   0  0  0  0  0  0  0  0  0  0  0  0
    2.9614   -0.5221    0.0000 C   0  0  0  0  0  0  0  0  0  0  0  0
    2.9614   -2.1222    0.0000 C   0  0  0  0  0  0  0  0  0  0  0  0
    1.5756   -2.9222    0.0000 H   0  0  0  0  0  0  0  0  0  0  0  0
    4.3470   -2.9222    0.0000 C   0  0  0  0  0  0  0  0  0  0  0  0
    4.3470   -4.5222    0.0000 H   0  0  0  0  0  0  0  0  0  0  0  0
    5.7326   -2.1222    0.0000 C   0  0  0  0  0  0  0  0  0  0  0  0
    7.1183   -2.9222    0.0000 H   0  0  0  0  0  0  0  0  0  0  0  0
    5.7326   -0.5221    0.0000 C   0  0  0  0  0  0  0  0  0  0  0  0
    7.1183    0.2779    0.0000 H   0  0  0  0  0  0  0  0  0  0  0  0
    4.3470    0.2779    0.0000 C   0  0  0  0  0  0  0  0  0  0  0  0
    4.3470    1.8779    0.0000 H   0  0  0  0  0  0  0  0  0  0  0  0
  1  2  1  0  0  0  0
  1  3  1  0  0  0  0
  3  4  1  0  0  0  0
  3  5  2  0  0  0  0
  5  6  1  0  0  0  0
  5  7  1  0  0  0  0
  7  8  1  0  0  0  0
  7  9  2  0  0  0  0
  9 10  1  0  0  0  0
  9 11  1  0  0  0  0
 11  1  2  0  0  0  0
 11 12  1  0  0  0  0
 12 13  1  0  0  0  0
 12 14  1  0  0  0  0
 14 15  1  0  0  0  0
 15 16  1  0  0  0  0
 15 17  2  0  0  0  0
 17 18  1  0  0  0  0
 17 19  1  0  0  0  0
 19 20  1  0  0  0  0
 19 21  2  0  0  0  0
 21 22  1  0  0  0  0
 21 23  1  0  0  0  0
 23 14  2  0  0  0  0
 23 24  1  0  0  0  0
M  END
> <ChemID>
100321

> <source_casrn>
122-39-4

> <CAS>
122-39-4

> <SMILES>
c1ccccc1Nc1ccccc1

> <NAME>
DIPHENYLAMINE

> <preferred_name>
Diphenylamine

> <iupac>
N-phenylaniline

> <MPID>
98874

> <dsstox_substance_id>
DTXSID4021975

> <Canonical_QSARr>
c1ccccc1Nc1ccccc1

> <InChI_Code_QSARr>
InChI=1S/C12H11N/c1-3-7-11(8-4-1)13-12-9-5-2-6-10-12/h1-10,13H

> <InChI Key_QSARr>
DMBHHRLKUKUOEG-UHFFFAOYSA-N

> <OH>
1.94E-10

> <OH Temperature>
25.0

> <OH Data Type>
EXP

> <OH Reference>
priv. communication; KOCH,R ET AL. (1994)

> <LogOH>
-9.712198270069765

$$$$
100323
  -INDIGO-08031719142D

 10  9  0  0  0  0  0  0  0  0999 V2000
    1.3856    0.8000    0.0000 C   0  0  0  0  0  0  0  0  0  0  0  0
    2.7713    1.6000    0.0000 H   0  0  0  0  0  0  0  0  0  0  0  0
    2.7713    0.0000    0.0000 H   0  0  0  0  0  0  0  0  0  0  0  0
    1.3856    2.4000    0.0000 H   0  0  0  0  0  0  0  0  0  0  0  0
   -0.0000    0.0000    0.0000 C   0  0  0  0  0  0  0  0  0  0  0  0
    0.6123   -1.4782    0.0000 H   0  0  0  0  0  0  0  0  0  0  0  0
   -0.6123   -1.4782    0.0000 H   0  0  0  0  0  0  0  0  0  0  0  0
   -1.3856    0.8000    0.0000 C   0  0  0  0  0  0  0  0  0  0  0  0
   -2.7713    0.0000    0.0000 H   0  0  0  0  0  0  0  0  0  0  0  0
   -1.3856    2.4000    0.0000 O   0  0  0  0  0  0  0  0  0  0  0  0
  1  2  1  0  0  0  0
  1  3  1  0  0  0  0
  1  4  1  0  0  0  0
  1  5  1  0  0  0  0
  5  6  1  0  0  0  0
  5  7  1  0  0  0  0
  5  8  1  0  0  0  0
  8  9  1  0  0  0  0
  8 10  2  0  0  0  0
M  END
> <ChemID>
100323

> <source_casrn>
123-38-6

> <CAS>
123-38-6

> <SMILES>
CCC=O

> <NAME>
PROPIONALDEHYDE

> <preferred_name>
Propanal

> <iupac>
propanal

> <MPID>
98876

> <dsstox_substance_id>
DTXSID2021658

> <Canonical_QSARr>
CCC=O

> <InChI_Code_QSARr>
InChI=1S/C3H6O/c1-2-3-4/h3H,2H2,1H3

> <InChI Key_QSARr>
NBBJYMSMWIIQGU-UHFFFAOYSA-N

> <OH>
1.96E-11

> <OH Temperature>
25.0

> <OH Data Type>
EXP

> <OH Reference>
ATKINSON,R (1989)

> <LogOH>
-10.707743928643534

$$$$
100324
  -INDIGO-08031719142D

 20 19  0  0  0  0  0  0  0  0999 V2000
   -1.5036    0.5472    0.0000 C   0  0  0  0  0  0  0  0  0  0  0  0
   -1.1572    2.1093    0.0000 H   0  0  0  0  0  0  0  0  0  0  0  0
   -2.3632    1.8967    0.0000 H   0  0  0  0  0  0  0  0  0  0  0  0
   -2.7291   -0.4813    0.0000 C   0  0  0  0  0  0  0  0  0  0  0  0
   -4.2327    0.0660    0.0000 C   0  0  0  0  0  0  0  0  0  0  0  0
   -5.7362    0.6132    0.0000 H   0  0  0  0  0  0  0  0  0  0  0  0
   -5.4584   -0.9625    0.0000 H   0  0  0  0  0  0  0  0  0  0  0  0
   -4.5105    1.6417    0.0000 H   0  0  0  0  0  0  0  0  0  0  0  0
   -2.4513   -2.0569    0.0000 O   0  0  0  0  0  0  0  0  0  0  0  0
   -0.0000    0.0000    0.0000 C   0  0  0  0  0  0  0  0  0  0  0  0
    1.3856   -0.8000    0.0000 C   0  0  0  0  0  0  0  0  0  0  0  0
    2.7713   -1.6000    0.0000 H   0  0  0  0  0  0  0  0  0  0  0  0
    1.3856   -2.4000    0.0000 H   0  0  0  0  0  0  0  0  0  0  0  0
    2.7713    0.0000    0.0000 H   0  0  0  0  0  0  0  0  0  0  0  0
    0.8000    1.3856    0.0000 C   0  0  0  0  0  0  0  0  0  0  0  0
    1.6000    2.7713    0.0000 H   0  0  0  0  0  0  0  0  0  0  0  0
   -0.0000    2.7713    0.0000 H   0  0  0  0  0  0  0  0  0  0  0  0
    2.4000    1.3856    0.0000 H   0  0  0  0  0  0  0  0  0  0  0  0
   -0.8000   -1.3856    0.0000 O   0  0  0  0  0  0  0  0  0  0  0  0
   -0.0000   -2.7713    0.0000 H   0  0  0  0  0  0  0  0  0  0  0  0
  1  2  1  0  0  0  0
  1  3  1  0  0  0  0
  1  4  1  0  0  0  0
  4  5  1  0  0  0  0
  5  6  1  0  0  0  0
  5  7  1  0  0  0  0
  5  8  1  0  0  0  0
  4  9  2  0  0  0  0
  1 10  1  0  0  0  0
 10 11  1  0  0  0  0
 11 12  1  0  0  0  0
 11 13  1  0  0  0  0
 11 14  1  0  0  0  0
 10 15  1  0  0  0  0
 15 16  1  0  0  0  0
 15 17  1  0  0  0  0
 15 18  1  0  0  0  0
 10 19  1  0  0  0  0
 19 20  1  0  0  0  0
M  END
> <ChemID>
100324

> <source_casrn>
123-42-2

> <CAS>
123-42-2

> <SMILES>
CC(=O)CC(C)(C)O

> <NAME>
4-HYDROXY-4-METHYL-2-PENTANONE

> <preferred_name>
Diacetone alcohol

> <iupac>
4-hydroxy-4-methylpentan-2-one

> <MPID>
98877

> <dsstox_substance_id>
DTXSID6024917

> <Canonical_QSARr>
CC(=O)CC(C)(C)O

> <InChI_Code_QSARr>
InChI=1S/C6H12O2/c1-5(7)4-6(2,3)8/h8H,4H2,1-3H3

> <InChI Key_QSARr>
SWXVUIWOUIDPGS-UHFFFAOYSA-N

> <OH>
4.000000000000001E-12

> <OH Temperature>
23.0

> <OH Data Type>
EXP

> <OH Reference>
ATKINSON,R & ASCHMANN,SM (1995)

> <LogOH>
-11.397940008672055

$$$$
100325
  -INDIGO-08031719142D

 18 17  0  0  0  0  0  0  0  0999 V2000
   -1.5035    0.5472    0.0000 C   0  0  0  0  0  0  0  0  0  0  0  0
   -1.1572    2.1093    0.0000 H   0  0  0  0  0  0  0  0  0  0  0  0
   -2.3632    1.8967    0.0000 H   0  0  0  0  0  0  0  0  0  0  0  0
   -2.7292   -0.4813    0.0000 C   0  0  0  0  0  0  0  0  0  0  0  0
   -3.0754   -2.0433    0.0000 H   0  0  0  0  0  0  0  0  0  0  0  0
   -1.8695   -1.8307    0.0000 H   0  0  0  0  0  0  0  0  0  0  0  0
   -4.2327    0.0660    0.0000 O   0  0  0  0  0  0  0  0  0  0  0  0
   -5.4584   -0.9624    0.0000 H   0  0  0  0  0  0  0  0  0  0  0  0
   -0.0001    0.0000    0.0000 C   0  0  0  0  0  0  0  0  0  0  0  0
   -0.8000   -1.3856    0.0000 H   0  0  0  0  0  0  0  0  0  0  0  0
    1.3857   -0.8000    0.0000 C   0  0  0  0  0  0  0  0  0  0  0  0
    2.7713   -1.6000    0.0000 H   0  0  0  0  0  0  0  0  0  0  0  0
    1.3857   -2.4000    0.0000 H   0  0  0  0  0  0  0  0  0  0  0  0
    2.7713    0.0000    0.0000 H   0  0  0  0  0  0  0  0  0  0  0  0
    0.8000    1.3856    0.0000 C   0  0  0  0  0  0  0  0  0  0  0  0
    1.6000    2.7713    0.0000 H   0  0  0  0  0  0  0  0  0  0  0  0
   -0.0001    2.7713    0.0000 H   0  0  0  0  0  0  0  0  0  0  0  0
    2.4000    1.3856    0.0000 H   0  0  0  0  0  0  0  0  0  0  0  0
  1  2  1  0  0  0  0
  1  3  1  0  0  0  0
  1  4  1  0  0  0  0
  4  5  1  0  0  0  0
  4  6  1  0  0  0  0
  4  7  1  0  0  0  0
  7  8  1  0  0  0  0
  1  9  1  0  0  0  0
  9 10  1  0  0  0  0
  9 11  1  0  0  0  0
 11 12  1  0  0  0  0
 11 13  1  0  0  0  0
 11 14  1  0  0  0  0
  9 15  1  0  0  0  0
 15 16  1  0  0  0  0
 15 17  1  0  0  0  0
 15 18  1  0  0  0  0
M  END
> <ChemID>
100325

> <source_casrn>
123-51-3

> <CAS>
123-51-3

> <SMILES>
CC(C)CCO

> <NAME>
ISOPENTANOL

> <preferred_name>
Isopentyl alcohol

> <iupac>
3-methylbutan-1-ol

> <MPID>
98878

> <dsstox_substance_id>
DTXSID3025469

> <Canonical_QSARr>
CC(C)CCO

> <InChI_Code_QSARr>
InChI=1S/C5H12O/c1-5(2)3-4-6/h5-6H,3-4H2,1-2H3

> <InChI Key_QSARr>
PHTQWCKDNZKARW-UHFFFAOYSA-N

> <OH>
1.31E-11

> <OH Temperature>
25.0

> <OH Data Type>
EXP

> <OH Reference>
SAUNDERS,SM ET AL. (1993)

> <LogOH>
-10.882728704344215

$$$$
100327
  -INDIGO-08031719142D

 13 12  0  0  0  0  0  0  0  0999 V2000
    1.3856    0.8000    0.0000 C   0  0  0  0  0  0  0  0  0  0  0  0
    2.7713    1.6000    0.0000 H   0  0  0  0  0  0  0  0  0  0  0  0
    2.7713    0.0000    0.0000 H   0  0  0  0  0  0  0  0  0  0  0  0
    1.3856    2.4000    0.0000 H   0  0  0  0  0  0  0  0  0  0  0  0
    0.0000    0.0000    0.0000 C   0  0  0  0  0  0  0  0  0  0  0  0
   -0.6123   -1.4782    0.0000 H   0  0  0  0  0  0  0  0  0  0  0  0
    0.6123   -1.4782    0.0000 H   0  0  0  0  0  0  0  0  0  0  0  0
   -1.3856    0.8000    0.0000 C   0  0  0  0  0  0  0  0  0  0  0  0
   -0.7733    2.2782    0.0000 H   0  0  0  0  0  0  0  0  0  0  0  0
   -1.9980    2.2782    0.0000 H   0  0  0  0  0  0  0  0  0  0  0  0
   -2.7713    0.0000    0.0000 C   0  0  0  0  0  0  0  0  0  0  0  0
   -4.1569    0.8000    0.0000 H   0  0  0  0  0  0  0  0  0  0  0  0
   -2.7713   -1.6000    0.0000 O   0  0  0  0  0  0  0  0  0  0  0  0
  1  2  1  0  0  0  0
  1  3  1  0  0  0  0
  1  4  1  0  0  0  0
  1  5  1  0  0  0  0
  5  6  1  0  0  0  0
  5  7  1  0  0  0  0
  5  8  1  0  0  0  0
  8  9  1  0  0  0  0
  8 10  1  0  0  0  0
  8 11  1  0  0  0  0
 11 12  1  0  0  0  0
 11 13  2  0  0  0  0
M  END
> <ChemID>
100327

> <source_casrn>
123-72-8

> <CAS>
123-72-8

> <SMILES>
CCCC=O

> <NAME>
BUTYRALDEHYDE

> <preferred_name>
Butyraldehyde

> <iupac>
butanal

> <MPID>
98880

> <dsstox_substance_id>
DTXSID8021513

> <Canonical_QSARr>
CCCC=O

> <InChI_Code_QSARr>
InChI=1S/C4H8O/c1-2-3-4-5/h4H,2-3H2,1H3

> <InChI Key_QSARr>
ZTQSAGDEMFDKMZ-UHFFFAOYSA-N

> <OH>
2.35E-11

> <OH Temperature>
25.0

> <OH Data Type>
EXP

> <OH Reference>
ATKINSON,R (1985)

> <LogOH>
-10.628932137728247

$$$$
100328
  -INDIGO-08031719142D

 11 10  0  0  0  0  0  0  0  0999 V2000
    1.3856    0.8000    0.0000 C   0  0  0  0  0  0  0  0  0  0  0  0
    2.7713    1.6000    0.0000 H   0  0  0  0  0  0  0  0  0  0  0  0
    2.7713    0.0000    0.0000 H   0  0  0  0  0  0  0  0  0  0  0  0
    1.3856    2.4000    0.0000 H   0  0  0  0  0  0  0  0  0  0  0  0
    0.0000    0.0000    0.0000 C   0  0  0  0  0  0  0  0  0  0  0  0
    0.0000   -1.6000    0.0000 H   0  0  0  0  0  0  0  0  0  0  0  0
   -1.3856    0.8000    0.0000 C   0  0  0  0  0  0  0  0  0  0  0  0
   -1.3856    2.4000    0.0000 H   0  0  0  0  0  0  0  0  0  0  0  0
   -2.7713    0.0000    0.0000 C   0  0  0  0  0  0  0  0  0  0  0  0
   -4.1569    0.8000    0.0000 H   0  0  0  0  0  0  0  0  0  0  0  0
   -2.7713   -1.6000    0.0000 O   0  0  0  0  0  0  0  0  0  0  0  0
  1  2  1  0  0  0  0
  1  3  1  0  0  0  0
  1  4  1  0  0  0  0
  1  5  1  0  0  0  0
  5  6  1  0  0  0  0
  5  7  2  0  0  0  0
  7  8  1  0  0  0  0
  7  9  1  0  0  0  0
  9 10  1  0  0  0  0
  9 11  2  0  0  0  0
M  END
> <ChemID>
100328

> <source_casrn>
123-73-9|4170-30-3

> <CAS>
123-73-9|4170-30-3

> <SMILES>
C/C=C/C=O

> <NAME>
TRANS-CROTONALDEHYDE, CROTONALDEHYDE

> <preferred_name>
(E)-Crotonaldehyde

> <iupac>
(2E)-but-2-enal

> <MPID>
98881|99202

> <dsstox_substance_id>
DTXSID6020351|DTXSID8024864

> <Canonical_QSARr>
CC=CC=O

> <InChI_Code_QSARr>
InChI=1S/C4H6O/c1-2-3-4-5/h2-4H,1H3/b3-2+

> <InChI Key_QSARr>
MLUCVPSAIODCQM-NSCUHMNNSA-N

> <OH>
3.609499999999999E-11

> <OH Temperature>
25.0

> <OH Data Type>
EXP

> <OH Reference>
ATKINSON,R (1989)

> <LogOH>
-10.44255295385063

$$$$
100329
  -INDIGO-08031719142D

 20 19  0  0  0  0  0  0  0  0999 V2000
    5.5425    0.0000    0.0000 C   0  0  0  0  0  0  0  0  0  0  0  0
    6.9282   -0.8000    0.0000 H   0  0  0  0  0  0  0  0  0  0  0  0
    6.9282    0.8000    0.0000 H   0  0  0  0  0  0  0  0  0  0  0  0
    5.5425   -1.6000    0.0000 H   0  0  0  0  0  0  0  0  0  0  0  0
    4.1569    0.8000    0.0000 C   0  0  0  0  0  0  0  0  0  0  0  0
    4.1569    2.4000    0.0000 O   0  0  0  0  0  0  0  0  0  0  0  0
    2.7712    0.0000    0.0000 O   0  0  0  0  0  0  0  0  0  0  0  0
    1.3857    0.8000    0.0000 C   0  0  0  0  0  0  0  0  0  0  0  0
    1.9979    2.2782    0.0000 H   0  0  0  0  0  0  0  0  0  0  0  0
    0.7734    2.2782    0.0000 H   0  0  0  0  0  0  0  0  0  0  0  0
    0.0001    0.0000    0.0000 C   0  0  0  0  0  0  0  0  0  0  0  0
   -0.6123   -1.4782    0.0000 H   0  0  0  0  0  0  0  0  0  0  0  0
    0.6122   -1.4782    0.0000 H   0  0  0  0  0  0  0  0  0  0  0  0
   -1.3856    0.8000    0.0000 C   0  0  0  0  0  0  0  0  0  0  0  0
   -0.7733    2.2782    0.0000 H   0  0  0  0  0  0  0  0  0  0  0  0
   -1.9979    2.2782    0.0000 H   0  0  0  0  0  0  0  0  0  0  0  0
   -2.7713    0.0000    0.0000 C   0  0  0  0  0  0  0  0  0  0  0  0
   -4.1569   -0.8000    0.0000 H   0  0  0  0  0  0  0  0  0  0  0  0
   -4.1569    0.8000    0.0000 H   0  0  0  0  0  0  0  0  0  0  0  0
   -2.7713   -1.6000    0.0000 H   0  0  0  0  0  0  0  0  0  0  0  0
  1  2  1  0  0  0  0
  1  3  1  0  0  0  0
  1  4  1  0  0  0  0
  1  5  1  0  0  0  0
  5  6  2  0  0  0  0
  5  7  1  0  0  0  0
  7  8  1  0  0  0  0
  8  9  1  0  0  0  0
  8 10  1  0  0  0  0
  8 11  1  0  0  0  0
 11 12  1  0  0  0  0
 11 13  1  0  0  0  0
 11 14  1  0  0  0  0
 14 15  1  0  0  0  0
 14 16  1  0  0  0  0
 14 17  1  0  0  0  0
 17 18  1  0  0  0  0
 17 19  1  0  0  0  0
 17 20  1  0  0  0  0
M  END
> <ChemID>
100329

> <source_casrn>
123-86-4

> <CAS>
123-86-4

> <SMILES>
CCCCOC(C)=O

> <NAME>
N-BUTYL ACETATE

> <preferred_name>
Butyl acetate

> <iupac>
butyl acetate

> <MPID>
98882

> <dsstox_substance_id>
DTXSID3021982

> <Canonical_QSARr>
CCCCOC(C)=O

> <InChI_Code_QSARr>
InChI=1S/C6H12O2/c1-3-4-5-8-6(2)7/h3-5H2,1-2H3

> <InChI Key_QSARr>
DKPFZGUDAPQIHT-UHFFFAOYSA-N

> <OH>
4.9E-12

> <OH Temperature>
25.0

> <OH Data Type>
EXP

> <OH Reference>
KWOK,ESC & ATKINSON,R (1994)

> <LogOH>
-11.309803919971499

$$$$
100331
  -INDIGO-08031719142D

 32 31  0  0  0  0  0  0  0  0999 V2000
   -4.1570   -0.8000    0.0000 C   0  0  0  0  0  0  0  0  0  0  0  0
   -3.5446   -2.2782    0.0000 H   0  0  0  0  0  0  0  0  0  0  0  0
   -4.7692   -2.2782    0.0000 H   0  0  0  0  0  0  0  0  0  0  0  0
   -2.7713    0.0000    0.0000 C   0  0  0  0  0  0  0  0  0  0  0  0
   -3.3835    1.4782    0.0000 H   0  0  0  0  0  0  0  0  0  0  0  0
   -2.1589    1.4782    0.0000 H   0  0  0  0  0  0  0  0  0  0  0  0
   -1.3856   -0.8000    0.0000 C   0  0  0  0  0  0  0  0  0  0  0  0
   -0.7732   -2.2782    0.0000 H   0  0  0  0  0  0  0  0  0  0  0  0
   -1.9980   -2.2782    0.0000 H   0  0  0  0  0  0  0  0  0  0  0  0
    0.0001    0.0000    0.0000 C   0  0  0  0  0  0  0  0  0  0  0  0
   -0.6123    1.4782    0.0000 H   0  0  0  0  0  0  0  0  0  0  0  0
    0.6122    1.4782    0.0000 H   0  0  0  0  0  0  0  0  0  0  0  0
    1.3856   -0.8000    0.0000 C   0  0  0  0  0  0  0  0  0  0  0  0
    1.9979   -2.2782    0.0000 H   0  0  0  0  0  0  0  0  0  0  0  0
    0.7734   -2.2782    0.0000 H   0  0  0  0  0  0  0  0  0  0  0  0
    2.7713    0.0000    0.0000 C   0  0  0  0  0  0  0  0  0  0  0  0
    2.1589    1.4782    0.0000 H   0  0  0  0  0  0  0  0  0  0  0  0
    3.3836    1.4782    0.0000 H   0  0  0  0  0  0  0  0  0  0  0  0
    4.1570   -0.8000    0.0000 C   0  0  0  0  0  0  0  0  0  0  0  0
    4.7691   -2.2782    0.0000 H   0  0  0  0  0  0  0  0  0  0  0  0
    3.5446   -2.2782    0.0000 H   0  0  0  0  0  0  0  0  0  0  0  0
    5.5427    0.0000    0.0000 C   0  0  0  0  0  0  0  0  0  0  0  0
    4.9303    1.4782    0.0000 H   0  0  0  0  0  0  0  0  0  0  0  0
    6.1548    1.4782    0.0000 H   0  0  0  0  0  0  0  0  0  0  0  0
    6.9281   -0.8000    0.0000 C   0  0  0  0  0  0  0  0  0  0  0  0
    8.3138   -1.6000    0.0000 H   0  0  0  0  0  0  0  0  0  0  0  0
    8.3138    0.0000    0.0000 H   0  0  0  0  0  0  0  0  0  0  0  0
    6.9281   -2.4000    0.0000 H   0  0  0  0  0  0  0  0  0  0  0  0
   -5.5425    0.0000    0.0000 C   0  0  0  0  0  0  0  0  0  0  0  0
   -6.9282    0.8000    0.0000 H   0  0  0  0  0  0  0  0  0  0  0  0
   -6.9282   -0.8000    0.0000 H   0  0  0  0  0  0  0  0  0  0  0  0
   -5.5425    1.6000    0.0000 H   0  0  0  0  0  0  0  0  0  0  0  0
  1  2  1  0  0  0  0
  1  3  1  0  0  0  0
  1  4  1  0  0  0  0
  4  5  1  0  0  0  0
  4  6  1  0  0  0  0
  4  7  1  0  0  0  0
  7  8  1  0  0  0  0
  7  9  1  0  0  0  0
  7 10  1  0  0  0  0
 10 11  1  0  0  0  0
 10 12  1  0  0  0  0
 10 13  1  0  0  0  0
 13 14  1  0  0  0  0
 13 15  1  0  0  0  0
 13 16  1  0  0  0  0
 16 17  1  0  0  0  0
 16 18  1  0  0  0  0
 16 19  1  0  0  0  0
 19 20  1  0  0  0  0
 19 21  1  0  0  0  0
 19 22  1  0  0  0  0
 22 23  1  0  0  0  0
 22 24  1  0  0  0  0
 22 25  1  0  0  0  0
 25 26  1  0  0  0  0
 25 27  1  0  0  0  0
 25 28  1  0  0  0  0
  1 29  1  0  0  0  0
 29 30  1  0  0  0  0
 29 31  1  0  0  0  0
 29 32  1  0  0  0  0
M  END
> <ChemID>
100331

> <source_casrn>
124-18-5

> <CAS>
124-18-5

> <SMILES>
CCCCCCCCCC

> <NAME>
N-DECANE

> <preferred_name>
Decane

> <iupac>
decane

> <MPID>
98884

> <dsstox_substance_id>
DTXSID6024913

> <Canonical_QSARr>
CCCCCCCCCC

> <InChI_Code_QSARr>
InChI=1S/C10H22/c1-3-5-7-9-10-8-6-4-2/h3-10H2,1-2H3

> <InChI Key_QSARr>
DIOQZVSQGTUSAI-UHFFFAOYSA-N

> <OH>
1.16E-11

> <OH Temperature>
25.0

> <OH Data Type>
EXP

> <OH Reference>
ATKINSON,R (1989)

> <LogOH>
-10.935542010773068

$$$$
100332
  -INDIGO-08031719142D

 10  9  0  0  0  0  0  0  0  0999 V2000
    1.3856    0.8000    0.0000 C   0  0  0  0  0  0  0  0  0  0  0  0
    2.7713    1.6000    0.0000 H   0  0  0  0  0  0  0  0  0  0  0  0
    2.7713    0.0000    0.0000 H   0  0  0  0  0  0  0  0  0  0  0  0
    1.3856    2.4000    0.0000 H   0  0  0  0  0  0  0  0  0  0  0  0
    0.0000    0.0000    0.0000 N   0  0  0  0  0  0  0  0  0  0  0  0
    0.0000   -1.6000    0.0000 H   0  0  0  0  0  0  0  0  0  0  0  0
   -1.3856    0.8000    0.0000 C   0  0  0  0  0  0  0  0  0  0  0  0
   -2.7713    1.6000    0.0000 H   0  0  0  0  0  0  0  0  0  0  0  0
   -2.7713    0.0000    0.0000 H   0  0  0  0  0  0  0  0  0  0  0  0
   -1.3856    2.4000    0.0000 H   0  0  0  0  0  0  0  0  0  0  0  0
  1  2  1  0  0  0  0
  1  3  1  0  0  0  0
  1  4  1  0  0  0  0
  1  5  1  0  0  0  0
  5  6  1  0  0  0  0
  5  7  1  0  0  0  0
  7  8  1  0  0  0  0
  7  9  1  0  0  0  0
  7 10  1  0  0  0  0
M  END
> <ChemID>
100332

> <source_casrn>
124-40-3

> <CAS>
124-40-3

> <SMILES>
CNC

> <NAME>
DIMETHYLAMINE

> <preferred_name>
Dimethylamine

> <iupac>
N-methylmethanamine

> <MPID>
98885

> <dsstox_substance_id>
DTXSID5024057

> <Canonical_QSARr>
CNC

> <InChI_Code_QSARr>
InChI=1S/C2H7N/c1-3-2/h3H,1-2H3

> <InChI Key_QSARr>
ROSDSFDQCJNGOL-UHFFFAOYSA-N

> <OH>
6.539999999999999E-11

> <OH Temperature>
25.0

> <OH Data Type>
EXP

> <OH Reference>
ATKINSON,R (1989)

> <LogOH>
-10.184422251675734

$$$$
100333
  -INDIGO-08031719142D

 17 16  0  0  0  0  0  0  0  0999 V2000
   -1.3856   -0.8000    0.0000 C   0  0  0  0  0  0  0  0  0  0  0  0
   -0.7733   -2.2782    0.0000 H   0  0  0  0  0  0  0  0  0  0  0  0
   -1.9980   -2.2782    0.0000 H   0  0  0  0  0  0  0  0  0  0  0  0
    0.0000    0.0000    0.0000 C   0  0  0  0  0  0  0  0  0  0  0  0
    1.3856    0.8000    0.0000 C   0  0  0  0  0  0  0  0  0  0  0  0
    2.7713    1.6000    0.0000 H   0  0  0  0  0  0  0  0  0  0  0  0
    2.7713    0.0000    0.0000 H   0  0  0  0  0  0  0  0  0  0  0  0
    1.3856    2.4000    0.0000 H   0  0  0  0  0  0  0  0  0  0  0  0
    0.8000   -1.3857    0.0000 N   0  0  0  0  0  0  0  0  0  0  0  0
    0.2528   -2.8891    0.0000 H   0  0  0  0  0  0  0  0  0  0  0  0
    2.4000   -1.3857    0.0000 H   0  0  0  0  0  0  0  0  0  0  0  0
   -0.8000    1.3856    0.0000 C   0  0  0  0  0  0  0  0  0  0  0  0
   -1.6000    2.7713    0.0000 H   0  0  0  0  0  0  0  0  0  0  0  0
   -2.4000    1.3856    0.0000 H   0  0  0  0  0  0  0  0  0  0  0  0
    0.0000    2.7713    0.0000 H   0  0  0  0  0  0  0  0  0  0  0  0
   -2.7713    0.0000    0.0000 O   0  0  0  0  0  0  0  0  0  0  0  0
   -4.1569   -0.8000    0.0000 H   0  0  0  0  0  0  0  0  0  0  0  0
  1  2  1  0  0  0  0
  1  3  1  0  0  0  0
  1  4  1  0  0  0  0
  4  5  1  0  0  0  0
  5  6  1  0  0  0  0
  5  7  1  0  0  0  0
  5  8  1  0  0  0  0
  4  9  1  0  0  0  0
  9 10  1  0  0  0  0
  9 11  1  0  0  0  0
  4 12  1  0  0  0  0
 12 13  1  0  0  0  0
 12 14  1  0  0  0  0
 12 15  1  0  0  0  0
  1 16  1  0  0  0  0
 16 17  1  0  0  0  0
M  END
> <ChemID>
100333

> <source_casrn>
124-68-5

> <CAS>
124-68-5

> <SMILES>
CC(C)(N)CO

> <NAME>
2-AMINO-2-METHYL-1-PROPANOL

> <preferred_name>
2-Amino-2-methylpropan-1-ol

> <iupac>
2-amino-2-methylpropan-1-ol

> <MPID>
98886

> <dsstox_substance_id>
DTXSID8027032

> <Canonical_QSARr>
CC(C)(N)CO

> <InChI_Code_QSARr>
InChI=1S/C4H11NO/c1-4(2,5)3-6/h6H,3,5H2,1-2H3

> <InChI Key_QSARr>
CBTVGIZVANVGBH-UHFFFAOYSA-N

> <OH>
2.8E-11

> <OH Temperature>
25.0

> <OH Data Type>
EXP

> <OH Reference>
ATKINSON,R (1989)

> <LogOH>
-10.55284196865776

$$$$
100335
  -INDIGO-08031719142D

  8  7  0  0  0  0  0  0  0  0999 V2000
    0.0000    0.0000    0.0000 C   0  0  0  0  0  0  0  0  0  0  0  0
    1.6000    0.0000    0.0000 C   0  0  0  0  0  0  0  0  0  0  0  0
    3.2000    0.0000    0.0000 Br  0  0  0  0  0  0  0  0  0  0  0  0
    2.4000   -1.3856    0.0000 F   0  0  0  0  0  0  0  0  0  0  0  0
    2.4000    1.3856    0.0000 F   0  0  0  0  0  0  0  0  0  0  0  0
   -1.6000   -0.0000    0.0000 Br  0  0  0  0  0  0  0  0  0  0  0  0
   -0.8000   -1.3856    0.0000 F   0  0  0  0  0  0  0  0  0  0  0  0
   -0.8000    1.3856    0.0000 F   0  0  0  0  0  0  0  0  0  0  0  0
  1  2  1  0  0  0  0
  2  3  1  0  0  0  0
  2  4  1  0  0  0  0
  2  5  1  0  0  0  0
  1  6  1  0  0  0  0
  1  7  1  0  0  0  0
  1  8  1  0  0  0  0
M  END
> <ChemID>
100335

> <source_casrn>
124-73-2

> <CAS>
124-73-2

> <SMILES>
FC(F)(Br)C(F)(F)Br

> <NAME>
1,2-DIBROMOTETRAFLUOROETHANE

> <preferred_name>
1,2-Dibromo-1,1,2,2-tetrafluoroethane

> <iupac>
1,2-dibromo-1,1,2,2-tetrafluoroethane

> <MPID>
98888

> <dsstox_substance_id>
DTXSID0041226

> <Canonical_QSARr>
FC(F)(Br)C(F)(F)Br

> <InChI_Code_QSARr>
InChI=1S/C2Br2F4/c3-1(5,6)2(4,7)8

> <InChI Key_QSARr>
KVBKAPANDHPRDG-UHFFFAOYSA-N

> <OH>
1.3E-16

> <OH Temperature>
23.0

> <OH Data Type>
EXP

> <OH Reference>
ATKINSON,R (1994); <1.3E-16

> <LogOH>
-15.886056647693144

$$$$
100336
  -INDIGO-08031719142D

 25 24  0  0  0  0  0  0  0  0999 V2000
    0.0001    0.0000    0.0000 C   0  0  0  0  0  0  0  0  0  0  0  0
    1.5999    0.0000    0.0000 O   0  0  0  0  0  0  0  0  0  0  0  0
    2.9856   -0.8000    0.0000 C   0  0  0  0  0  0  0  0  0  0  0  0
    3.5979   -2.2782    0.0000 H   0  0  0  0  0  0  0  0  0  0  0  0
    2.3733   -2.2782    0.0000 H   0  0  0  0  0  0  0  0  0  0  0  0
    4.3713    0.0000    0.0000 C   0  0  0  0  0  0  0  0  0  0  0  0
    5.7569    0.8000    0.0000 H   0  0  0  0  0  0  0  0  0  0  0  0
    4.3713    1.6000    0.0000 H   0  0  0  0  0  0  0  0  0  0  0  0
    5.7569   -0.8000    0.0000 H   0  0  0  0  0  0  0  0  0  0  0  0
   -1.5999    0.0000    0.0000 O   0  0  0  0  0  0  0  0  0  0  0  0
   -2.9856    0.8000    0.0000 C   0  0  0  0  0  0  0  0  0  0  0  0
   -3.5979    2.2782    0.0000 H   0  0  0  0  0  0  0  0  0  0  0  0
   -2.3733    2.2782    0.0000 H   0  0  0  0  0  0  0  0  0  0  0  0
   -4.3713    0.0000    0.0000 C   0  0  0  0  0  0  0  0  0  0  0  0
   -5.7569   -0.8000    0.0000 H   0  0  0  0  0  0  0  0  0  0  0  0
   -4.3713   -1.6000    0.0000 H   0  0  0  0  0  0  0  0  0  0  0  0
   -5.7569    0.8000    0.0000 H   0  0  0  0  0  0  0  0  0  0  0  0
    0.0001    1.6000    0.0000 C   0  0  0  0  0  0  0  0  0  0  0  0
    0.0001    3.2000    0.0000 H   0  0  0  0  0  0  0  0  0  0  0  0
    1.3856    2.4000    0.0000 H   0  0  0  0  0  0  0  0  0  0  0  0
   -1.3856    2.4000    0.0000 H   0  0  0  0  0  0  0  0  0  0  0  0
    0.0001   -1.6000    0.0000 C   0  0  0  0  0  0  0  0  0  0  0  0
   -0.0001   -3.2000    0.0000 H   0  0  0  0  0  0  0  0  0  0  0  0
    1.3856   -2.4000    0.0000 H   0  0  0  0  0  0  0  0  0  0  0  0
   -1.3856   -2.4000    0.0000 H   0  0  0  0  0  0  0  0  0  0  0  0
  1  2  1  0  0  0  0
  2  3  1  0  0  0  0
  3  4  1  0  0  0  0
  3  5  1  0  0  0  0
  3  6  1  0  0  0  0
  6  7  1  0  0  0  0
  6  8  1  0  0  0  0
  6  9  1  0  0  0  0
  1 10  1  0  0  0  0
 10 11  1  0  0  0  0
 11 12  1  0  0  0  0
 11 13  1  0  0  0  0
 11 14  1  0  0  0  0
 14 15  1  0  0  0  0
 14 16  1  0  0  0  0
 14 17  1  0  0  0  0
  1 18  1  0  0  0  0
 18 19  1  0  0  0  0
 18 20  1  0  0  0  0
 18 21  1  0  0  0  0
  1 22  1  0  0  0  0
 22 23  1  0  0  0  0
 22 24  1  0  0  0  0
 22 25  1  0  0  0  0
M  END
> <ChemID>
100336

> <source_casrn>
126-84-1

> <CAS>
126-84-1

> <SMILES>
CC(C)(OCC)OCC

> <NAME>
2,2-DIETHOXYPROPANE

> <preferred_name>
Propane, 2,2-diethoxy-

> <iupac>
2,2-DIETHOXYPROPANE

> <MPID>
98889

> <dsstox_substance_id>
DTXSID2059568

> <Canonical_QSARr>
CC(C)(OCC)OCC

> <InChI_Code_QSARr>
InChI=1S/C7H16O2/c1-5-8-7(3,4)9-6-2/h5-6H2,1-4H3

> <InChI Key_QSARr>
FGQLGYBGTRHODR-UHFFFAOYSA-N

> <OH>
1.17E-11

> <OH Temperature>
25.0

> <OH Data Type>
EXP

> <OH Reference>
ATKINSON,R (1989)

> <LogOH>
-10.931814138253822

$$$$
100337
  -INDIGO-08031719142D

  6  5  0  0  0  0  0  0  0  0999 V2000
   -0.8000   -1.3856    0.0000 Cl  0  0  0  0  0  0  0  0  0  0  0  0
    0.0000    0.0000    0.0000 C   0  0  0  0  0  0  0  0  0  0  0  0
    1.6000    0.0000    0.0000 C   0  0  0  0  0  0  0  0  0  0  0  0
    2.4000    1.3856    0.0000 Cl  0  0  0  0  0  0  0  0  0  0  0  0
    2.4000   -1.3856    0.0000 Cl  0  0  0  0  0  0  0  0  0  0  0  0
   -0.8000    1.3856    0.0000 Cl  0  0  0  0  0  0  0  0  0  0  0  0
  1  2  1  0  0  0  0
  2  3  2  0  0  0  0
  3  4  1  0  0  0  0
  3  5  1  0  0  0  0
  2  6  1  0  0  0  0
M  END
> <ChemID>
100337

> <source_casrn>
127-18-4

> <CAS>
127-18-4

> <SMILES>
ClC(Cl)=C(Cl)Cl

> <NAME>
TETRACHLOROETHENE

> <preferred_name>
Tetrachloroethylene

> <iupac>
tetrachloroethene

> <MPID>
98890

> <dsstox_substance_id>
DTXSID2021319

> <Canonical_QSARr>
ClC(Cl)=C(Cl)Cl

> <InChI_Code_QSARr>
InChI=1S/C2Cl4/c3-1(4)2(5)6

> <InChI Key_QSARr>
CYTYCFOTNPOANT-UHFFFAOYSA-N

> <OH>
1.67E-13

> <OH Temperature>
25.0

> <OH Data Type>
EXP

> <OH Reference>
ATKINSON,R (1989)

> <LogOH>
-12.777283528852402

$$$$
100339
  -INDIGO-08031719142D

 26 27  0  0  0  0  0  0  0  0999 V2000
    4.5084   -0.0884    0.0000 C   0  0  0  0  0  0  0  0  0  0  0  0
    5.9605    0.5835    0.0000 H   0  0  0  0  0  0  0  0  0  0  0  0
    5.1147   -1.5691    0.0000 H   0  0  0  0  0  0  0  0  0  0  0  0
    3.8376    1.2062    0.0000 C   0  0  0  0  0  0  0  0  0  0  0  0
    5.3980    1.5600    0.0000 H   0  0  0  0  0  0  0  0  0  0  0  0
    4.4329    2.6914    0.0000 H   0  0  0  0  0  0  0  0  0  0  0  0
    2.2450    1.6766    0.0000 C   0  0  0  0  0  0  0  0  0  0  0  0
    3.2826    2.8946    0.0000 H   0  0  0  0  0  0  0  0  0  0  0  0
   -0.0000    0.0000    0.0000 C   0  0  0  0  0  0  0  0  0  0  0  0
   -1.2956    0.9390    0.0000 C   0  0  0  0  0  0  0  0  0  0  0  0
   -2.5910    1.8780    0.0000 H   0  0  0  0  0  0  0  0  0  0  0  0
   -2.7564    0.2865    0.0000 H   0  0  0  0  0  0  0  0  0  0  0  0
   -1.1301    2.5304    0.0000 H   0  0  0  0  0  0  0  0  0  0  0  0
   -0.5109   -1.5162    0.0000 C   0  0  0  0  0  0  0  0  0  0  0  0
   -1.0220   -3.0324    0.0000 H   0  0  0  0  0  0  0  0  0  0  0  0
   -2.0795   -1.8318    0.0000 H   0  0  0  0  0  0  0  0  0  0  0  0
    0.5467   -2.7168    0.0000 H   0  0  0  0  0  0  0  0  0  0  0  0
    1.6255   -0.0373    0.0000 C   0  0  0  0  0  0  0  0  0  0  0  0
    1.3309   -1.6099    0.0000 H   0  0  0  0  0  0  0  0  0  0  0  0
    1.5557    3.1156    0.0000 C   0  0  0  0  0  0  0  0  0  0  0  0
    2.6369    4.2950    0.0000 H   0  0  0  0  0  0  0  0  0  0  0  0
    0.0582    3.6791    0.0000 H   0  0  0  0  0  0  0  0  0  0  0  0
    3.1299   -0.5821    0.0000 C   0  0  0  0  0  0  0  0  0  0  0  0
    3.1270   -2.1821    0.0000 C   0  0  0  0  0  0  0  0  0  0  0  0
    4.5112   -2.9846    0.0000 H   0  0  0  0  0  0  0  0  0  0  0  0
    1.7399   -2.9797    0.0000 H   0  0  0  0  0  0  0  0  0  0  0  0
  1  2  1  0  0  0  0
  1  3  1  0  0  0  0
  1  4  1  0  0  0  0
  4  5  1  0  0  0  0
  4  6  1  0  0  0  0
  4  7  1  0  0  0  0
  7  8  1  0  0  0  0
  7  9  1  0  0  0  0
  9 10  1  0  0  0  0
 10 11  1  0  0  0  0
 10 12  1  0  0  0  0
 10 13  1  0  0  0  0
  9 14  1  0  0  0  0
 14 15  1  0  0  0  0
 14 16  1  0  0  0  0
 14 17  1  0  0  0  0
  9 18  1  0  0  0  0
 18 19  1  0  0  0  0
 18 20  1  0  0  0  0
 20  7  1  0  0  0  0
 20 21  1  0  0  0  0
 20 22  1  0  0  0  0
 18 23  1  0  0  0  0
 23  1  1  0  0  0  0
 23 24  2  0  0  0  0
 24 25  1  0  0  0  0
 24 26  1  0  0  0  0
M  END
> <ChemID>
100339

> <source_casrn>
127-91-3

> <CAS>
127-91-3

> <SMILES>
CC1(C)C2CC1CCC2=C

> <NAME>
beta-PINENE

> <preferred_name>
beta-Pinene

> <iupac>
6,6-dimethyl-2-methylidenebicyclo[3.1.1]heptane

> <MPID>
98892

> <dsstox_substance_id>
DTXSID7027049

> <Canonical_QSARr>
CC1(C)C2CC1CCC2=C

> <InChI_Code_QSARr>
InChI=1S/C10H16/c1-7-4-5-8-6-9(7)10(8,2)3/h8-9H,1,4-6H2,2-3H3

> <InChI Key_QSARr>
WTARULDDTDQWMU-UHFFFAOYSA-N

> <OH>
7.889999999999997E-11

> <OH Temperature>
25.0

> <OH Data Type>
EXP

> <OH Reference>
ATKINSON,R (1989)

> <LogOH>
-10.102922996790571

$$$$
100340
  -INDIGO-08031719142D

 26 29  0  0  0  0  0  0  0  0999 V2000
    0.0001    0.0001    0.0000 C   0  0  0  0  0  0  0  0  0  0  0  0
   -1.6001    0.0001    0.0000 C   0  0  0  0  0  0  0  0  0  0  0  0
   -2.4001   -1.3856    0.0000 C   0  0  0  0  0  0  0  0  0  0  0  0
   -4.0000   -1.3856    0.0000 C   0  0  0  0  0  0  0  0  0  0  0  0
   -4.8000   -2.7712    0.0000 H   0  0  0  0  0  0  0  0  0  0  0  0
   -4.8000    0.0001    0.0000 C   0  0  0  0  0  0  0  0  0  0  0  0
   -6.4000    0.0001    0.0000 H   0  0  0  0  0  0  0  0  0  0  0  0
   -4.0000    1.3856    0.0000 C   0  0  0  0  0  0  0  0  0  0  0  0
   -4.8000    2.7713    0.0000 H   0  0  0  0  0  0  0  0  0  0  0  0
   -2.4001    1.3856    0.0000 C   0  0  0  0  0  0  0  0  0  0  0  0
   -1.6001    2.7713    0.0000 C   0  0  0  0  0  0  0  0  0  0  0  0
   -2.4001    4.1569    0.0000 H   0  0  0  0  0  0  0  0  0  0  0  0
    0.0001    2.7713    0.0000 C   0  0  0  0  0  0  0  0  0  0  0  0
    0.8001    4.1569    0.0000 H   0  0  0  0  0  0  0  0  0  0  0  0
    0.8001    1.3856    0.0000 C   0  0  0  0  0  0  0  0  0  0  0  0
    2.4000    1.3856    0.0000 C   0  0  0  0  0  0  0  0  0  0  0  0
    3.2000    2.7712    0.0000 H   0  0  0  0  0  0  0  0  0  0  0  0
    3.2000    0.0001    0.0000 C   0  0  0  0  0  0  0  0  0  0  0  0
    4.8000    0.0001    0.0000 H   0  0  0  0  0  0  0  0  0  0  0  0
    2.4000   -1.3856    0.0000 C   0  0  0  0  0  0  0  0  0  0  0  0
    3.2000   -2.7712    0.0000 H   0  0  0  0  0  0  0  0  0  0  0  0
    0.8001   -1.3856    0.0000 C   0  0  0  0  0  0  0  0  0  0  0  0
    0.0001   -2.7712    0.0000 C   0  0  0  0  0  0  0  0  0  0  0  0
    0.8001   -4.1569    0.0000 H   0  0  0  0  0  0  0  0  0  0  0  0
   -1.6001   -2.7712    0.0000 C   0  0  0  0  0  0  0  0  0  0  0  0
   -2.4001   -4.1569    0.0000 H   0  0  0  0  0  0  0  0  0  0  0  0
  1  2  2  0  0  0  0
  2  3  1  0  0  0  0
  3  4  1  0  0  0  0
  4  5  1  0  0  0  0
  4  6  2  0  0  0  0
  6  7  1  0  0  0  0
  6  8  1  0  0  0  0
  8  9  1  0  0  0  0
  8 10  2  0  0  0  0
 10  2  1  0  0  0  0
 10 11  1  0  0  0  0
 11 12  1  0  0  0  0
 11 13  2  0  0  0  0
 13 14  1  0  0  0  0
 13 15  1  0  0  0  0
 15  1  1  0  0  0  0
 15 16  2  0  0  0  0
 16 17  1  0  0  0  0
 16 18  1  0  0  0  0
 18 19  1  0  0  0  0
 18 20  2  0  0  0  0
 20 21  1  0  0  0  0
 20 22  1  0  0  0  0
 22  1  1  0  0  0  0
 22 23  2  0  0  0  0
 23 24  1  0  0  0  0
 23 25  1  0  0  0  0
 25  3  2  0  0  0  0
 25 26  1  0  0  0  0
M  END
> <ChemID>
100340

> <source_casrn>
129-00-0

> <CAS>
129-00-0

> <SMILES>
c1cc2cccc3ccc4cccc1c4c32

> <NAME>
PYRENE

> <preferred_name>
Pyrene

> <iupac>
pyrene

> <MPID>
98893

> <dsstox_substance_id>
DTXSID3024289

> <Canonical_QSARr>
c1cc2cccc3ccc4cccc1c4c32

> <InChI_Code_QSARr>
InChI=1S/C16H10/c1-3-11-7-9-13-5-2-6-14-10-8-12(4-1)15(11)16(13)14/h1-10H

> <InChI Key_QSARr>
BBEAQIROQSPTKN-UHFFFAOYSA-N

> <OH>
5.000000000000002E-11

> <OH Temperature>
25.0

> <OH Data Type>
EXP

> <OH Reference>
ATKINSON,R ET AL. (1990B)

> <LogOH>
-10.30102999566398

$$$$
100341
  -INDIGO-08031719142D

 18 19  0  0  0  0  0  0  0  0999 V2000
    0.0001   -0.0000    0.0000 C   0  0  0  0  0  0  0  0  0  0  0  0
    1.3856    0.8000    0.0000 C   0  0  0  0  0  0  0  0  0  0  0  0
    1.3856    2.4000    0.0000 O   0  0  0  0  0  0  0  0  0  0  0  0
    2.7713   -0.0000    0.0000 C   0  0  0  0  0  0  0  0  0  0  0  0
    4.1569    0.8000    0.0000 H   0  0  0  0  0  0  0  0  0  0  0  0
    2.7713   -1.6000    0.0000 C   0  0  0  0  0  0  0  0  0  0  0  0
    4.1569   -2.4000    0.0000 H   0  0  0  0  0  0  0  0  0  0  0  0
    1.3856   -2.4000    0.0000 C   0  0  0  0  0  0  0  0  0  0  0  0
    1.3856   -4.0000    0.0000 O   0  0  0  0  0  0  0  0  0  0  0  0
    0.0001   -1.6000    0.0000 C   0  0  0  0  0  0  0  0  0  0  0  0
   -1.3856   -2.4000    0.0000 C   0  0  0  0  0  0  0  0  0  0  0  0
   -1.3856   -4.0000    0.0000 H   0  0  0  0  0  0  0  0  0  0  0  0
   -2.7712   -1.6000    0.0000 C   0  0  0  0  0  0  0  0  0  0  0  0
   -4.1569   -2.4000    0.0000 H   0  0  0  0  0  0  0  0  0  0  0  0
   -2.7712   -0.0000    0.0000 C   0  0  0  0  0  0  0  0  0  0  0  0
   -4.1569    0.8000    0.0000 H   0  0  0  0  0  0  0  0  0  0  0  0
   -1.3856    0.8000    0.0000 C   0  0  0  0  0  0  0  0  0  0  0  0
   -1.3856    2.4000    0.0000 H   0  0  0  0  0  0  0  0  0  0  0  0
  1  2  1  0  0  0  0
  2  3  2  0  0  0  0
  2  4  1  0  0  0  0
  4  5  1  0  0  0  0
  4  6  2  0  0  0  0
  6  7  1  0  0  0  0
  6  8  1  0  0  0  0
  8  9  2  0  0  0  0
  8 10  1  0  0  0  0
 10  1  1  0  0  0  0
 10 11  2  0  0  0  0
 11 12  1  0  0  0  0
 11 13  1  0  0  0  0
 13 14  1  0  0  0  0
 13 15  2  0  0  0  0
 15 16  1  0  0  0  0
 15 17  1  0  0  0  0
 17  1  2  0  0  0  0
 17 18  1  0  0  0  0
M  END
> <ChemID>
100341

> <source_casrn>
130-15-4

> <CAS>
130-15-4

> <SMILES>
O=C1C=CC(=O)c2ccccc12

> <NAME>
1,4-NAPHTHOQUINONE

> <preferred_name>
1,4-Naphthoquinone

> <iupac>
naphthalene-1,4-dione

> <MPID>
98894

> <dsstox_substance_id>
DTXSID5040704

> <Canonical_QSARr>
O=C1C=CC(=O)c2ccccc12

> <InChI_Code_QSARr>
InChI=1S/C10H6O2/c11-9-5-6-10(12)8-4-2-1-3-7(8)9/h1-6H

> <InChI Key_QSARr>
FRASJONUBLZVQX-UHFFFAOYSA-N

> <OH>
3.1E-12

> <OH Temperature>
25.0

> <OH Data Type>
EXP

> <OH Reference>
LEIFER,A (1993)

> <LogOH>
-11.508638306165748

$$$$
100343
  -INDIGO-08031719142D

 21 23  0  0  0  0  0  0  0  0999 V2000
   -0.8000    1.3856    0.0000 C   0  0  0  0  0  0  0  0  0  0  0  0
    0.2707    2.5747    0.0000 S   0  0  0  0  0  0  0  0  0  0  0  0
    1.7322    1.9239    0.0000 C   0  0  0  0  0  0  0  0  0  0  0  0
    1.5651    0.3327    0.0000 C   0  0  0  0  0  0  0  0  0  0  0  0
    2.8595   -0.6078    0.0000 C   0  0  0  0  0  0  0  0  0  0  0  0
    2.6921   -2.1990    0.0000 H   0  0  0  0  0  0  0  0  0  0  0  0
    4.3212    0.0430    0.0000 C   0  0  0  0  0  0  0  0  0  0  0  0
    5.6156   -0.8974    0.0000 H   0  0  0  0  0  0  0  0  0  0  0  0
    4.4883    1.6342    0.0000 C   0  0  0  0  0  0  0  0  0  0  0  0
    5.9501    2.2850    0.0000 H   0  0  0  0  0  0  0  0  0  0  0  0
    3.1939    2.5747    0.0000 C   0  0  0  0  0  0  0  0  0  0  0  0
    3.3612    4.1659    0.0000 H   0  0  0  0  0  0  0  0  0  0  0  0
    0.0000    0.0000    0.0000 C   0  0  0  0  0  0  0  0  0  0  0  0
   -0.8000   -1.3856    0.0000 C   0  0  0  0  0  0  0  0  0  0  0  0
    0.0000   -2.7713    0.0000 H   0  0  0  0  0  0  0  0  0  0  0  0
   -2.4000   -1.3856    0.0000 C   0  0  0  0  0  0  0  0  0  0  0  0
   -3.2000   -2.7713    0.0000 H   0  0  0  0  0  0  0  0  0  0  0  0
   -3.2000    0.0000    0.0000 C   0  0  0  0  0  0  0  0  0  0  0  0
   -4.8000    0.0000    0.0000 H   0  0  0  0  0  0  0  0  0  0  0  0
   -2.4000    1.3856    0.0000 C   0  0  0  0  0  0  0  0  0  0  0  0
   -3.2000    2.7713    0.0000 H   0  0  0  0  0  0  0  0  0  0  0  0
  1  2  1  0  0  0  0
  2  3  1  0  0  0  0
  3  4  1  0  0  0  0
  4  5  2  0  0  0  0
  5  6  1  0  0  0  0
  5  7  1  0  0  0  0
  7  8  1  0  0  0  0
  7  9  2  0  0  0  0
  9 10  1  0  0  0  0
  9 11  1  0  0  0  0
 11  3  2  0  0  0  0
 11 12  1  0  0  0  0
  4 13  1  0  0  0  0
 13  1  1  0  0  0  0
 13 14  2  0  0  0  0
 14 15  1  0  0  0  0
 14 16  1  0  0  0  0
 16 17  1  0  0  0  0
 16 18  2  0  0  0  0
 18 19  1  0  0  0  0
 18 20  1  0  0  0  0
 20  1  2  0  0  0  0
 20 21  1  0  0  0  0
M  END
> <ChemID>
100343

> <source_casrn>
132-65-0

> <CAS>
132-65-0

> <SMILES>
c1cccc2[s]c3ccccc3c21

> <NAME>
DIBENZOTHIOPHENE

> <preferred_name>
Dibenzothiophene

> <iupac>
dibenzo[b,d]thiophene

> <MPID>
98896

> <dsstox_substance_id>
DTXSID0047741

> <Canonical_QSARr>
c1cccc2[s]c3ccccc3c21

> <InChI_Code_QSARr>
InChI=1S/C12H8S/c1-3-7-11-9(5-1)10-6-2-4-8-12(10)13-11/h1-8H

> <InChI Key_QSARr>
IYYZUPMFVPLQIF-UHFFFAOYSA-N

> <OH>
8.099999999999998E-12

> <OH Temperature>
24.0

> <OH Data Type>
EXP

> <OH Reference>
KWOK,ESC ET AL. (1999)

> <LogOH>
-11.09151498112137

$$$$
100344
  -INDIGO-08031719142D

 19 20  0  0  0  0  0  0  0  0999 V2000
    0.0001   -0.0000    0.0000 C   0  0  0  0  0  0  0  0  0  0  0  0
    1.3857    0.8000    0.0000 C   0  0  0  0  0  0  0  0  0  0  0  0
    1.3857    2.4000    0.0000 H   0  0  0  0  0  0  0  0  0  0  0  0
    2.7713   -0.0000    0.0000 C   0  0  0  0  0  0  0  0  0  0  0  0
    4.1569    0.8000    0.0000 H   0  0  0  0  0  0  0  0  0  0  0  0
    2.7713   -1.6000    0.0000 C   0  0  0  0  0  0  0  0  0  0  0  0
    4.1569   -2.4000    0.0000 H   0  0  0  0  0  0  0  0  0  0  0  0
    1.3857   -2.4000    0.0000 C   0  0  0  0  0  0  0  0  0  0  0  0
    1.3857   -4.0000    0.0000 H   0  0  0  0  0  0  0  0  0  0  0  0
    0.0001   -1.6000    0.0000 C   0  0  0  0  0  0  0  0  0  0  0  0
   -1.3857   -2.4000    0.0000 C   0  0  0  0  0  0  0  0  0  0  0  0
   -1.3857   -4.0000    0.0000 H   0  0  0  0  0  0  0  0  0  0  0  0
   -2.7713   -1.6000    0.0000 C   0  0  0  0  0  0  0  0  0  0  0  0
   -4.1569   -2.4000    0.0000 H   0  0  0  0  0  0  0  0  0  0  0  0
   -2.7713   -0.0000    0.0000 C   0  0  0  0  0  0  0  0  0  0  0  0
   -4.1569    0.8000    0.0000 O   0  0  0  0  0  0  0  0  0  0  0  0
   -5.5426   -0.0000    0.0000 H   0  0  0  0  0  0  0  0  0  0  0  0
   -1.3857    0.8000    0.0000 C   0  0  0  0  0  0  0  0  0  0  0  0
   -1.3857    2.4000    0.0000 H   0  0  0  0  0  0  0  0  0  0  0  0
  1  2  1  0  0  0  0
  2  3  1  0  0  0  0
  2  4  2  0  0  0  0
  4  5  1  0  0  0  0
  4  6  1  0  0  0  0
  6  7  1  0  0  0  0
  6  8  2  0  0  0  0
  8  9  1  0  0  0  0
  8 10  1  0  0  0  0
 10  1  1  0  0  0  0
 10 11  2  0  0  0  0
 11 12  1  0  0  0  0
 11 13  1  0  0  0  0
 13 14  1  0  0  0  0
 13 15  2  0  0  0  0
 15 16  1  0  0  0  0
 16 17  1  0  0  0  0
 15 18  1  0  0  0  0
 18  1  2  0  0  0  0
 18 19  1  0  0  0  0
M  END
> <ChemID>
100344

> <source_casrn>
135-19-3

> <CAS>
135-19-3

> <SMILES>
Oc1cc2ccccc2cc1

> <NAME>
2-NAPHTHOL

> <preferred_name>
2-Naphthalenol

> <iupac>
naphthalen-2-ol

> <MPID>
98897

> <dsstox_substance_id>
DTXSID5027061

> <Canonical_QSARr>
Oc1cc2ccccc2cc1

> <InChI_Code_QSARr>
InChI=1S/C10H8O/c11-10-6-5-8-3-1-2-4-9(8)7-10/h1-7,11H

> <InChI Key_QSARr>
JWAZRIHNYRIHIV-UHFFFAOYSA-N

> <OH>
1.7E-10

> <OH Temperature>
25.0

> <OH Data Type>
EXP

> <OH Reference>
BUNCE,NJ ET AL. (1997)

> <LogOH>
-9.769551078621731

$$$$
100345
  -INDIGO-08031719142D

 15 14  0  0  0  0  0  0  0  0999 V2000
   -2.7713   -1.6000    0.0000 O   0  0  0  0  0  0  0  0  0  0  0  0
   -2.7713    0.0000    0.0000 C   0  0  0  0  0  0  0  0  0  0  0  0
   -1.3856    0.8000    0.0000 O   0  0  0  0  0  0  0  0  0  0  0  0
    0.0000    0.0000    0.0000 C   0  0  0  0  0  0  0  0  0  0  0  0
    0.6123   -1.4782    0.0000 H   0  0  0  0  0  0  0  0  0  0  0  0
   -0.6123   -1.4782    0.0000 H   0  0  0  0  0  0  0  0  0  0  0  0
    1.3857    0.8000    0.0000 C   0  0  0  0  0  0  0  0  0  0  0  0
    2.7713    1.6000    0.0000 H   0  0  0  0  0  0  0  0  0  0  0  0
    2.7713    0.0000    0.0000 H   0  0  0  0  0  0  0  0  0  0  0  0
    1.3857    2.4000    0.0000 H   0  0  0  0  0  0  0  0  0  0  0  0
   -4.1570    0.8000    0.0000 C   0  0  0  0  0  0  0  0  0  0  0  0
   -4.1570    2.4000    0.0000 H   0  0  0  0  0  0  0  0  0  0  0  0
   -5.5426    0.0000    0.0000 C   0  0  0  0  0  0  0  0  0  0  0  0
   -6.9282    0.8000    0.0000 H   0  0  0  0  0  0  0  0  0  0  0  0
   -5.5426   -1.6000    0.0000 H   0  0  0  0  0  0  0  0  0  0  0  0
  1  2  2  0  0  0  0
  2  3  1  0  0  0  0
  3  4  1  0  0  0  0
  4  5  1  0  0  0  0
  4  6  1  0  0  0  0
  4  7  1  0  0  0  0
  7  8  1  0  0  0  0
  7  9  1  0  0  0  0
  7 10  1  0  0  0  0
  2 11  1  0  0  0  0
 11 12  1  0  0  0  0
 11 13  2  0  0  0  0
 13 14  1  0  0  0  0
 13 15  1  0  0  0  0
M  END
> <ChemID>
100345

> <source_casrn>
140-88-5

> <CAS>
140-88-5

> <SMILES>
CCOC(=O)C=C

> <NAME>
ETHYL ACRYLATE

> <preferred_name>
Ethyl acrylate

> <iupac>
ethyl prop-2-enoate

> <MPID>
98898

> <dsstox_substance_id>
DTXSID4020583

> <Canonical_QSARr>
CCOC(=O)C=C

> <InChI_Code_QSARr>
InChI=1S/C5H8O2/c1-3-5(6)7-4-2/h3H,1,4H2,2H3

> <InChI Key_QSARr>
JIGUQPWFLRLWPJ-UHFFFAOYSA-N

> <OH>
1.6E-11

> <OH Temperature>
25.0

> <OH Data Type>
EXP

> <OH Reference>
KWOK,ESC & ATKINSON,R (1994)

> <LogOH>
-10.79588001734409

$$$$
100347
  -INDIGO-08031719142D

 14 13  0  0  0  0  0  0  0  0999 V2000
    4.1569    0.8000    0.0000 C   0  0  0  0  0  0  0  0  0  0  0  0
    5.5426    1.6000    0.0000 H   0  0  0  0  0  0  0  0  0  0  0  0
    5.5426    0.0000    0.0000 H   0  0  0  0  0  0  0  0  0  0  0  0
    4.1569    2.4000    0.0000 H   0  0  0  0  0  0  0  0  0  0  0  0
    2.7713    0.0000    0.0000 C   0  0  0  0  0  0  0  0  0  0  0  0
    2.7713   -1.6000    0.0000 O   0  0  0  0  0  0  0  0  0  0  0  0
    1.3857    0.8000    0.0000 O   0  0  0  0  0  0  0  0  0  0  0  0
    0.0000    0.0000    0.0000 C   0  0  0  0  0  0  0  0  0  0  0  0
   -0.6122   -1.4782    0.0000 H   0  0  0  0  0  0  0  0  0  0  0  0
    0.6122   -1.4782    0.0000 H   0  0  0  0  0  0  0  0  0  0  0  0
   -1.3856    0.8000    0.0000 C   0  0  0  0  0  0  0  0  0  0  0  0
   -2.7713    1.6000    0.0000 H   0  0  0  0  0  0  0  0  0  0  0  0
   -2.7713    0.0000    0.0000 H   0  0  0  0  0  0  0  0  0  0  0  0
   -1.3856    2.4000    0.0000 H   0  0  0  0  0  0  0  0  0  0  0  0
  1  2  1  0  0  0  0
  1  3  1  0  0  0  0
  1  4  1  0  0  0  0
  1  5  1  0  0  0  0
  5  6  2  0  0  0  0
  5  7  1  0  0  0  0
  7  8  1  0  0  0  0
  8  9  1  0  0  0  0
  8 10  1  0  0  0  0
  8 11  1  0  0  0  0
 11 12  1  0  0  0  0
 11 13  1  0  0  0  0
 11 14  1  0  0  0  0
M  END
> <ChemID>
100347

> <source_casrn>
141-78-6

> <CAS>
141-78-6

> <SMILES>
CCOC(C)=O

> <NAME>
ETHYL ACETATE

> <preferred_name>
Ethyl acetate

> <iupac>
ethyl acetate

> <MPID>
98900

> <dsstox_substance_id>
DTXSID1022001

> <Canonical_QSARr>
CCOC(C)=O

> <InChI_Code_QSARr>
InChI=1S/C4H8O2/c1-3-6-4(2)5/h3H2,1-2H3

> <InChI Key_QSARr>
XEKOWRVHYACXOJ-UHFFFAOYSA-N

> <OH>
1.6E-12

> <OH Temperature>
25.0

> <OH Data Type>
EXP

> <OH Reference>
ATKINSON,R (1989)

> <LogOH>
-11.795880017344068

$$$$
100348
  -INDIGO-08031719142D

 11 10  0  0  0  0  0  0  0  0999 V2000
    1.3856    2.4000    0.0000 Cl  0  0  0  0  0  0  0  0  0  0  0  0
    1.3856    0.8000    0.0000 C   0  0  0  0  0  0  0  0  0  0  0  0
    2.7713    1.6000    0.0000 H   0  0  0  0  0  0  0  0  0  0  0  0
    2.7713    0.0000    0.0000 H   0  0  0  0  0  0  0  0  0  0  0  0
    0.0000    0.0000    0.0000 C   0  0  0  0  0  0  0  0  0  0  0  0
    0.6123   -1.4782    0.0000 H   0  0  0  0  0  0  0  0  0  0  0  0
   -0.6123   -1.4782    0.0000 H   0  0  0  0  0  0  0  0  0  0  0  0
   -1.3856    0.8000    0.0000 C   0  0  0  0  0  0  0  0  0  0  0  0
   -2.7713    1.6000    0.0000 H   0  0  0  0  0  0  0  0  0  0  0  0
   -2.7713    0.0000    0.0000 H   0  0  0  0  0  0  0  0  0  0  0  0
   -1.3856    2.4000    0.0000 Cl  0  0  0  0  0  0  0  0  0  0  0  0
  1  2  1  0  0  0  0
  2  3  1  0  0  0  0
  2  4  1  0  0  0  0
  2  5  1  0  0  0  0
  5  6  1  0  0  0  0
  5  7  1  0  0  0  0
  5  8  1  0  0  0  0
  8  9  1  0  0  0  0
  8 10  1  0  0  0  0
  8 11  1  0  0  0  0
M  END
> <ChemID>
100348

> <source_casrn>
142-28-9

> <CAS>
142-28-9

> <SMILES>
ClCCCCl

> <NAME>
1,3-DICHLOROPROPANE

> <preferred_name>
1,3-Dichloropropane

> <iupac>
1,3-dichloropropane

> <MPID>
98901

> <dsstox_substance_id>
DTXSID6022004

> <Canonical_QSARr>
ClCCCCl

> <InChI_Code_QSARr>
InChI=1S/C3H6Cl2/c4-2-1-3-5/h1-3H2

> <InChI Key_QSARr>
YHRUOJUYPBUZOS-UHFFFAOYSA-N

> <OH>
7.8E-13

> <OH Temperature>
25.0

> <OH Data Type>
EXP

> <OH Reference>
DONAGHY,T ET AL. (1993)

> <LogOH>
-12.107905397309498

$$$$
100349
  -INDIGO-08031719142D

 13 13  0  0  0  0  0  0  0  0999 V2000
    2.0944    1.5217    0.0000 C   0  0  0  0  0  0  0  0  0  0  0  0
    3.0349    2.8161    0.0000 H   0  0  0  0  0  0  0  0  0  0  0  0
    2.5888    0.0000    0.0000 C   0  0  0  0  0  0  0  0  0  0  0  0
    4.1105   -0.4944    0.0000 H   0  0  0  0  0  0  0  0  0  0  0  0
    1.2945   -0.9405    0.0000 C   0  0  0  0  0  0  0  0  0  0  0  0
    2.3650   -2.1295    0.0000 H   0  0  0  0  0  0  0  0  0  0  0  0
    0.2238   -2.1295    0.0000 H   0  0  0  0  0  0  0  0  0  0  0  0
    0.0000    0.0000    0.0000 C   0  0  0  0  0  0  0  0  0  0  0  0
   -0.8000   -1.3856    0.0000 H   0  0  0  0  0  0  0  0  0  0  0  0
   -1.4617    0.6508    0.0000 H   0  0  0  0  0  0  0  0  0  0  0  0
    0.4944    1.5217    0.0000 C   0  0  0  0  0  0  0  0  0  0  0  0
   -1.0706    1.8544    0.0000 H   0  0  0  0  0  0  0  0  0  0  0  0
    0.6617    3.1129    0.0000 H   0  0  0  0  0  0  0  0  0  0  0  0
  1  2  1  0  0  0  0
  1  3  2  0  0  0  0
  3  4  1  0  0  0  0
  3  5  1  0  0  0  0
  5  6  1  0  0  0  0
  5  7  1  0  0  0  0
  5  8  1  0  0  0  0
  8  9  1  0  0  0  0
  8 10  1  0  0  0  0
  8 11  1  0  0  0  0
 11  1  1  0  0  0  0
 11 12  1  0  0  0  0
 11 13  1  0  0  0  0
M  END
> <ChemID>
100349

> <source_casrn>
142-29-0

> <CAS>
142-29-0

> <SMILES>
C1CCC=C1

> <NAME>
CYCLOPENTENE

> <preferred_name>
Cyclopentene

> <iupac>
cyclopentene

> <MPID>
98902

> <dsstox_substance_id>
DTXSID6029171

> <Canonical_QSARr>
C1CCC=C1

> <InChI_Code_QSARr>
InChI=1S/C5H8/c1-2-4-5-3-1/h1-2H,3-5H2

> <InChI Key_QSARr>
LPIQUOYDBNQMRZ-UHFFFAOYSA-N

> <OH>
6.7E-11

> <OH Temperature>
25.0

> <OH Data Type>
EXP

> <OH Reference>
KWOK,ESC & ATKINSON,R (1994)

> <LogOH>
-10.17392519729918

$$$$
100351
  -INDIGO-08031719142D

 23 22  0  0  0  0  0  0  0  0999 V2000
    2.7712    0.0000    0.0000 C   0  0  0  0  0  0  0  0  0  0  0  0
    3.3836   -1.4782    0.0000 H   0  0  0  0  0  0  0  0  0  0  0  0
    2.1589   -1.4782    0.0000 H   0  0  0  0  0  0  0  0  0  0  0  0
    1.3856    0.8000    0.0000 C   0  0  0  0  0  0  0  0  0  0  0  0
    0.7734    2.2782    0.0000 H   0  0  0  0  0  0  0  0  0  0  0  0
    1.9979    2.2782    0.0000 H   0  0  0  0  0  0  0  0  0  0  0  0
    0.0001    0.0000    0.0000 C   0  0  0  0  0  0  0  0  0  0  0  0
    0.6122   -1.4782    0.0000 H   0  0  0  0  0  0  0  0  0  0  0  0
   -0.6122   -1.4782    0.0000 H   0  0  0  0  0  0  0  0  0  0  0  0
   -1.3856    0.8000    0.0000 C   0  0  0  0  0  0  0  0  0  0  0  0
   -1.9979    2.2782    0.0000 H   0  0  0  0  0  0  0  0  0  0  0  0
   -0.7734    2.2782    0.0000 H   0  0  0  0  0  0  0  0  0  0  0  0
   -2.7712    0.0000    0.0000 C   0  0  0  0  0  0  0  0  0  0  0  0
   -2.1589   -1.4782    0.0000 H   0  0  0  0  0  0  0  0  0  0  0  0
   -3.3836   -1.4782    0.0000 H   0  0  0  0  0  0  0  0  0  0  0  0
   -4.1569    0.8000    0.0000 C   0  0  0  0  0  0  0  0  0  0  0  0
   -5.5426    1.6000    0.0000 H   0  0  0  0  0  0  0  0  0  0  0  0
   -5.5426    0.0000    0.0000 H   0  0  0  0  0  0  0  0  0  0  0  0
   -4.1569    2.4000    0.0000 H   0  0  0  0  0  0  0  0  0  0  0  0
    4.1569    0.8000    0.0000 C   0  0  0  0  0  0  0  0  0  0  0  0
    5.5426    1.6000    0.0000 H   0  0  0  0  0  0  0  0  0  0  0  0
    5.5426    0.0000    0.0000 H   0  0  0  0  0  0  0  0  0  0  0  0
    4.1569    2.4000    0.0000 H   0  0  0  0  0  0  0  0  0  0  0  0
  1  2  1  0  0  0  0
  1  3  1  0  0  0  0
  1  4  1  0  0  0  0
  4  5  1  0  0  0  0
  4  6  1  0  0  0  0
  4  7  1  0  0  0  0
  7  8  1  0  0  0  0
  7  9  1  0  0  0  0
  7 10  1  0  0  0  0
 10 11  1  0  0  0  0
 10 12  1  0  0  0  0
 10 13  1  0  0  0  0
 13 14  1  0  0  0  0
 13 15  1  0  0  0  0
 13 16  1  0  0  0  0
 16 17  1  0  0  0  0
 16 18  1  0  0  0  0
 16 19  1  0  0  0  0
  1 20  1  0  0  0  0
 20 21  1  0  0  0  0
 20 22  1  0  0  0  0
 20 23  1  0  0  0  0
M  END
> <ChemID>
100351

> <source_casrn>
142-82-5

> <CAS>
142-82-5

> <SMILES>
CCCCCCC

> <NAME>
N-HEPTANE

> <preferred_name>
Heptane

> <iupac>
heptane

> <MPID>
98904

> <dsstox_substance_id>
DTXSID6024127

> <Canonical_QSARr>
CCCCCCC

> <InChI_Code_QSARr>
InChI=1S/C7H16/c1-3-5-7-6-4-2/h3-7H2,1-2H3

> <InChI Key_QSARr>
IMNFDUFMRHMDMM-UHFFFAOYSA-N

> <OH>
7.149999999999998E-12

> <OH Temperature>
25.0

> <OH Data Type>
EXP

> <OH Reference>
ATKINSON,R (1989)

> <LogOH>
-11.145693958198905

$$$$
100352
  -INDIGO-08031719142D

 27 26  0  0  0  0  0  0  0  0999 V2000
    2.7714   -0.0000    0.0000 C   0  0  0  0  0  0  0  0  0  0  0  0
    4.1569   -0.8000    0.0000 H   0  0  0  0  0  0  0  0  0  0  0  0
    4.1569    0.8000    0.0000 H   0  0  0  0  0  0  0  0  0  0  0  0
    2.7714   -1.6000    0.0000 H   0  0  0  0  0  0  0  0  0  0  0  0
    1.3856    0.8000    0.0000 C   0  0  0  0  0  0  0  0  0  0  0  0
    0.7733    2.2782    0.0000 H   0  0  0  0  0  0  0  0  0  0  0  0
    1.9980    2.2782    0.0000 H   0  0  0  0  0  0  0  0  0  0  0  0
    0.0001   -0.0000    0.0000 C   0  0  0  0  0  0  0  0  0  0  0  0
    0.6122   -1.4782    0.0000 H   0  0  0  0  0  0  0  0  0  0  0  0
   -0.6122   -1.4782    0.0000 H   0  0  0  0  0  0  0  0  0  0  0  0
   -1.3856    0.8000    0.0000 C   0  0  0  0  0  0  0  0  0  0  0  0
   -1.9980    2.2782    0.0000 H   0  0  0  0  0  0  0  0  0  0  0  0
   -0.7733    2.2782    0.0000 H   0  0  0  0  0  0  0  0  0  0  0  0
   -2.7712   -0.0000    0.0000 O   0  0  0  0  0  0  0  0  0  0  0  0
   -4.1569    0.8000    0.0000 C   0  0  0  0  0  0  0  0  0  0  0  0
   -4.7692    2.2782    0.0000 H   0  0  0  0  0  0  0  0  0  0  0  0
   -3.5446    2.2782    0.0000 H   0  0  0  0  0  0  0  0  0  0  0  0
   -5.5425   -0.0000    0.0000 C   0  0  0  0  0  0  0  0  0  0  0  0
   -4.9304   -1.4782    0.0000 H   0  0  0  0  0  0  0  0  0  0  0  0
   -6.1548   -1.4782    0.0000 H   0  0  0  0  0  0  0  0  0  0  0  0
   -6.9282    0.8000    0.0000 C   0  0  0  0  0  0  0  0  0  0  0  0
   -7.5405    2.2782    0.0000 H   0  0  0  0  0  0  0  0  0  0  0  0
   -6.3159    2.2782    0.0000 H   0  0  0  0  0  0  0  0  0  0  0  0
   -8.3137   -0.0000    0.0000 C   0  0  0  0  0  0  0  0  0  0  0  0
   -9.6995   -0.8000    0.0000 H   0  0  0  0  0  0  0  0  0  0  0  0
   -9.6995    0.8000    0.0000 H   0  0  0  0  0  0  0  0  0  0  0  0
   -8.3137   -1.6000    0.0000 H   0  0  0  0  0  0  0  0  0  0  0  0
  1  2  1  0  0  0  0
  1  3  1  0  0  0  0
  1  4  1  0  0  0  0
  1  5  1  0  0  0  0
  5  6  1  0  0  0  0
  5  7  1  0  0  0  0
  5  8  1  0  0  0  0
  8  9  1  0  0  0  0
  8 10  1  0  0  0  0
  8 11  1  0  0  0  0
 11 12  1  0  0  0  0
 11 13  1  0  0  0  0
 11 14  1  0  0  0  0
 14 15  1  0  0  0  0
 15 16  1  0  0  0  0
 15 17  1  0  0  0  0
 15 18  1  0  0  0  0
 18 19  1  0  0  0  0
 18 20  1  0  0  0  0
 18 21  1  0  0  0  0
 21 22  1  0  0  0  0
 21 23  1  0  0  0  0
 21 24  1  0  0  0  0
 24 25  1  0  0  0  0
 24 26  1  0  0  0  0
 24 27  1  0  0  0  0
M  END
> <ChemID>
100352

> <source_casrn>
142-96-1

> <CAS>
142-96-1

> <SMILES>
CCCCOCCCC

> <NAME>
DI-N-BUTYL ETHER

> <preferred_name>
Butyl ether

> <iupac>
1-butoxybutane

> <MPID>
98905

> <dsstox_substance_id>
DTXSID1022007

> <Canonical_QSARr>
CCCCOCCCC

> <InChI_Code_QSARr>
InChI=1S/C8H18O/c1-3-5-7-9-8-6-4-2/h3-8H2,1-2H3

> <InChI Key_QSARr>
DURPTKYDGMDSBL-UHFFFAOYSA-N

> <OH>
2.879999999999999E-11

> <OH Temperature>
25.0

> <OH Data Type>
EXP

> <OH Reference>
KWOK,ESC & ATKINSON,R (1994)

> <LogOH>
-10.540607512240747

$$$$
100353
  -INDIGO-08031719142D

 17 16  0  0  0  0  0  0  0  0999 V2000
    0.0001    0.0000    0.0000 C   0  0  0  0  0  0  0  0  0  0  0  0
    0.8000   -1.3856    0.0000 H   0  0  0  0  0  0  0  0  0  0  0  0
    1.6001    0.0000    0.0000 O   0  0  0  0  0  0  0  0  0  0  0  0
    2.4000   -1.3856    0.0000 C   0  0  0  0  0  0  0  0  0  0  0  0
    4.0000   -1.3856    0.0000 H   0  0  0  0  0  0  0  0  0  0  0  0
    3.2001   -2.7713    0.0000 H   0  0  0  0  0  0  0  0  0  0  0  0
    1.6001   -2.7713    0.0000 H   0  0  0  0  0  0  0  0  0  0  0  0
    0.8000    1.3856    0.0000 O   0  0  0  0  0  0  0  0  0  0  0  0
    0.0001    2.7713    0.0000 C   0  0  0  0  0  0  0  0  0  0  0  0
   -0.8000    4.1569    0.0000 H   0  0  0  0  0  0  0  0  0  0  0  0
    0.8000    4.1569    0.0000 H   0  0  0  0  0  0  0  0  0  0  0  0
   -1.5999    2.7713    0.0000 H   0  0  0  0  0  0  0  0  0  0  0  0
   -1.5999    0.0000    0.0000 O   0  0  0  0  0  0  0  0  0  0  0  0
   -2.4000   -1.3856    0.0000 C   0  0  0  0  0  0  0  0  0  0  0  0
   -3.2001   -2.7713    0.0000 H   0  0  0  0  0  0  0  0  0  0  0  0
   -4.0000   -1.3856    0.0000 H   0  0  0  0  0  0  0  0  0  0  0  0
   -1.5999   -2.7713    0.0000 H   0  0  0  0  0  0  0  0  0  0  0  0
  1  2  1  0  0  0  0
  1  3  1  0  0  0  0
  3  4  1  0  0  0  0
  4  5  1  0  0  0  0
  4  6  1  0  0  0  0
  4  7  1  0  0  0  0
  1  8  1  0  0  0  0
  8  9  1  0  0  0  0
  9 10  1  0  0  0  0
  9 11  1  0  0  0  0
  9 12  1  0  0  0  0
  1 13  1  0  0  0  0
 13 14  1  0  0  0  0
 14 15  1  0  0  0  0
 14 16  1  0  0  0  0
 14 17  1  0  0  0  0
M  END
> <ChemID>
100353

> <source_casrn>
149-73-5

> <CAS>
149-73-5

> <SMILES>
COC(OC)OC

> <NAME>
TRIMETHOXYMETHANE

> <preferred_name>
Trimethoxymethane

> <iupac>
trimethoxymethane

> <MPID>
98906

> <dsstox_substance_id>
DTXSID7027122

> <Canonical_QSARr>
COC(OC)OC

> <InChI_Code_QSARr>
InChI=1S/C4H10O3/c1-5-4(6-2)7-3/h4H,1-3H3

> <InChI Key_QSARr>
PYOKUURKVVELLB-UHFFFAOYSA-N

> <OH>
6.000000000000001E-12

> <OH Temperature>
23.0

> <OH Data Type>
EXP

> <OH Reference>
PLATZ,J ET AL. (1999)

> <LogOH>
-11.221848749616358

$$$$
100356
  -INDIGO-08031719142D

  8  8  0  0  0  0  0  0  0  0999 V2000
    0.0000   -0.0000    0.0000 C   0  0  0  0  0  0  0  0  0  0  0  0
    1.5035   -0.5472    0.0000 H   0  0  0  0  0  0  0  0  0  0  0  0
    0.2778    1.5757    0.0000 H   0  0  0  0  0  0  0  0  0  0  0  0
   -0.8000   -1.3856    0.0000 C   0  0  0  0  0  0  0  0  0  0  0  0
    0.4257   -2.4141    0.0000 H   0  0  0  0  0  0  0  0  0  0  0  0
   -2.0257   -2.4141    0.0000 H   0  0  0  0  0  0  0  0  0  0  0  0
   -1.6000   -0.0000    0.0000 N   0  0  0  0  0  0  0  0  0  0  0  0
   -2.9856    0.8000    0.0000 H   0  0  0  0  0  0  0  0  0  0  0  0
  1  2  1  0  0  0  0
  1  3  1  0  0  0  0
  1  4  1  0  0  0  0
  4  5  1  0  0  0  0
  4  6  1  0  0  0  0
  4  7  1  0  0  0  0
  7  1  1  0  0  0  0
  7  8  1  0  0  0  0
M  END
> <ChemID>
100356

> <source_casrn>
151-56-4

> <CAS>
151-56-4

> <SMILES>
C1CN1

> <NAME>
AZIRIDINE

> <preferred_name>
Ethyleneimine

> <iupac>
aziridine

> <MPID>
98907

> <dsstox_substance_id>
DTXSID8020599

> <Canonical_QSARr>
C1CN1

> <InChI_Code_QSARr>
InChI=1S/C2H5N/c1-2-3-1/h3H,1-2H2

> <InChI Key_QSARr>
NOWKCMXCCJGMRR-UHFFFAOYSA-N

> <OH>
6.1E-12

> <OH Temperature>
25.0

> <OH Data Type>
EXP

> <OH Reference>
ATKINSON,R (1989)

> <LogOH>
-11.21467016498924

$$$$
100357
  -INDIGO-08031719142D

  8  7  0  0  0  0  0  0  0  0999 V2000
    0.8000    1.3856    0.0000 F   0  0  0  0  0  0  0  0  0  0  0  0
    0.0000    0.0000    0.0000 C   0  0  0  0  0  0  0  0  0  0  0  0
    1.6000   -0.0000    0.0000 F   0  0  0  0  0  0  0  0  0  0  0  0
    0.8000   -1.3856    0.0000 F   0  0  0  0  0  0  0  0  0  0  0  0
   -1.6000    0.0000    0.0000 C   0  0  0  0  0  0  0  0  0  0  0  0
   -3.2000    0.0000    0.0000 H   0  0  0  0  0  0  0  0  0  0  0  0
   -2.4000   -1.3856    0.0000 Cl  0  0  0  0  0  0  0  0  0  0  0  0
   -2.4000    1.3856    0.0000 Br  0  0  0  0  0  0  0  0  0  0  0  0
  1  2  1  0  0  0  0
  2  3  1  0  0  0  0
  2  4  1  0  0  0  0
  2  5  1  0  0  0  0
  5  6  1  0  0  0  0
  5  7  1  0  0  0  0
  5  8  1  0  0  0  0
M  END
> <ChemID>
100357

> <source_casrn>
151-67-7

> <CAS>
151-67-7

> <SMILES>
FC(F)(F)C(Cl)Br

> <NAME>
HALOTHANE

> <preferred_name>
Halothane

> <iupac>
2-bromo-2-chloro-1,1,1-trifluoroethane

> <MPID>
98908

> <dsstox_substance_id>
DTXSID4025371

> <Canonical_QSARr>
FC(F)(F)C(Cl)Br

> <InChI_Code_QSARr>
InChI=1S/C2HBrClF3/c3-1(4)2(5,6)7/h1H

> <InChI Key_QSARr>
BCQZXOMGPXTTIC-UHFFFAOYSA-N

> <OH>
4.499999999999999E-14

> <OH Temperature>
25.0

> <OH Data Type>
EXP

> <OH Reference>
ORKIN,VL & KHAMAGANOV,VG (1993)

> <LogOH>
-13.34678748622467

$$$$
100359
  -INDIGO-08031719142D

 17 16  0  0  0  0  0  0  0  0999 V2000
   -1.5999    0.0000    0.0000 S   0  0  0  0  0  0  0  0  0  0  0  0
    0.0001    0.0000    0.0000 P   0  0  0  0  0  0  0  0  0  0  0  0
    1.6001    0.0000    0.0000 O   0  0  0  0  0  0  0  0  0  0  0  0
    2.4000   -1.3856    0.0000 C   0  0  0  0  0  0  0  0  0  0  0  0
    4.0000   -1.3856    0.0000 H   0  0  0  0  0  0  0  0  0  0  0  0
    3.2001   -2.7713    0.0000 H   0  0  0  0  0  0  0  0  0  0  0  0
    1.6001   -2.7713    0.0000 H   0  0  0  0  0  0  0  0  0  0  0  0
    0.8000    1.3856    0.0000 O   0  0  0  0  0  0  0  0  0  0  0  0
    0.0001    2.7713    0.0000 C   0  0  0  0  0  0  0  0  0  0  0  0
   -0.8000    4.1569    0.0000 H   0  0  0  0  0  0  0  0  0  0  0  0
    0.8000    4.1569    0.0000 H   0  0  0  0  0  0  0  0  0  0  0  0
   -1.5999    2.7713    0.0000 H   0  0  0  0  0  0  0  0  0  0  0  0
    0.8000   -1.3856    0.0000 O   0  0  0  0  0  0  0  0  0  0  0  0
   -2.4000   -1.3856    0.0000 C   0  0  0  0  0  0  0  0  0  0  0  0
   -3.2001   -2.7713    0.0000 H   0  0  0  0  0  0  0  0  0  0  0  0
   -4.0000   -1.3856    0.0000 H   0  0  0  0  0  0  0  0  0  0  0  0
   -1.5999   -2.7713    0.0000 H   0  0  0  0  0  0  0  0  0  0  0  0
  1  2  1  0  0  0  0
  2  3  1  0  0  0  0
  3  4  1  0  0  0  0
  4  5  1  0  0  0  0
  4  6  1  0  0  0  0
  4  7  1  0  0  0  0
  2  8  1  0  0  0  0
  8  9  1  0  0  0  0
  9 10  1  0  0  0  0
  9 11  1  0  0  0  0
  9 12  1  0  0  0  0
  2 13  2  0  0  0  0
  1 14  1  0  0  0  0
 14 15  1  0  0  0  0
 14 16  1  0  0  0  0
 14 17  1  0  0  0  0
M  END
> <ChemID>
100359

> <source_casrn>
152-20-5

> <CAS>
152-20-5

> <SMILES>
CSP(=O)(OC)OC

> <NAME>
PHOSPHOROTHIOIC ACID, O,O,S-TRIMETHYL ESTER

> <preferred_name>
O,O,S-Trimethyl phosphorothioate

> <iupac>
(methoxy-methylsulfanylphosphoryl)oxymethane

> <MPID>
98910

> <dsstox_substance_id>
DTXSID90164928

> <Canonical_QSARr>
CSP(=O)(OC)OC

> <InChI_Code_QSARr>
InChI=1S/C3H9O3PS/c1-5-7(4,6-2)8-3/h1-3H3

> <InChI Key_QSARr>
WTUNGUOZHBRADH-UHFFFAOYSA-N

> <OH>
9.289999999999998E-12

> <OH Temperature>
25.0

> <OH Data Type>
EXP

> <OH Reference>
KWOK,ESC & ATKINSON,R (1994)

> <LogOH>
-11.031984286006358

$$$$
100360
  -INDIGO-08031719142D

  6  5  0  0  0  0  0  0  0  0999 V2000
   -0.8000   -1.3856    0.0000 Cl  0  0  0  0  0  0  0  0  0  0  0  0
    0.0000    0.0000    0.0000 C   0  0  0  0  0  0  0  0  0  0  0  0
   -0.8000    1.3856    0.0000 H   0  0  0  0  0  0  0  0  0  0  0  0
    1.6000    0.0000    0.0000 C   0  0  0  0  0  0  0  0  0  0  0  0
    2.4000    1.3856    0.0000 H   0  0  0  0  0  0  0  0  0  0  0  0
    2.4000   -1.3856    0.0000 Cl  0  0  0  0  0  0  0  0  0  0  0  0
  1  2  1  0  0  0  0
  2  3  1  0  0  0  0
  2  4  2  0  0  0  0
  4  5  1  0  0  0  0
  4  6  1  0  0  0  0
M  END
> <ChemID>
100360

> <source_casrn>
156-59-2|156-60-5

> <CAS>
156-59-2|156-60-5

> <SMILES>
Cl/C=C\Cl

> <NAME>
1,2-DICHLOROETHENE (CIS), 1,2-DICHLOROETHENE (TRANS)

> <preferred_name>
(Z)-1,2-Dichloroethylene

> <iupac>
(Z)-1,2-dichloroethene

> <MPID>
98911|98912

> <dsstox_substance_id>
DTXSID2024030|DTXSID7024031

> <Canonical_QSARr>
ClC=CCl

> <InChI_Code_QSARr>
InChI=1S/C2H2Cl2/c3-1-2-4/h1-2H/b2-1-

> <InChI Key_QSARr>
KFUSEUYYWQURPO-UPHRSURJSA-N

> <OH>
2.479999999999999E-12

> <OH Temperature>
25.0

> <OH Data Type>
EXP

> <OH Reference>
KWOK,ESC & ATKINSON,R (1994)

> <LogOH>
-11.605548319173801

$$$$
100362
  -INDIGO-08031719142D

 26 29  0  0  0  0  0  0  0  0999 V2000
    0.0000    0.0001    0.0000 C   0  0  0  0  0  0  0  0  0  0  0  0
    0.8000    1.3856    0.0000 C   0  0  0  0  0  0  0  0  0  0  0  0
    2.2889    0.8000    0.0000 C   0  0  0  0  0  0  0  0  0  0  0  0
    3.6747    1.6000    0.0000 C   0  0  0  0  0  0  0  0  0  0  0  0
    3.6747    3.2000    0.0000 H   0  0  0  0  0  0  0  0  0  0  0  0
    5.0603    0.8000    0.0000 C   0  0  0  0  0  0  0  0  0  0  0  0
    6.4459    1.6000    0.0000 H   0  0  0  0  0  0  0  0  0  0  0  0
    5.0603   -0.8000    0.0000 C   0  0  0  0  0  0  0  0  0  0  0  0
    6.4459   -1.6000    0.0000 H   0  0  0  0  0  0  0  0  0  0  0  0
    3.6747   -1.6000    0.0000 C   0  0  0  0  0  0  0  0  0  0  0  0
    3.6747   -3.2000    0.0000 H   0  0  0  0  0  0  0  0  0  0  0  0
    2.2889   -0.8000    0.0000 C   0  0  0  0  0  0  0  0  0  0  0  0
    0.8000   -1.3856    0.0000 C   0  0  0  0  0  0  0  0  0  0  0  0
    0.0000   -2.7712    0.0000 C   0  0  0  0  0  0  0  0  0  0  0  0
    0.8000   -4.1569    0.0000 H   0  0  0  0  0  0  0  0  0  0  0  0
   -1.6000   -2.7712    0.0000 C   0  0  0  0  0  0  0  0  0  0  0  0
   -2.4000   -4.1569    0.0000 H   0  0  0  0  0  0  0  0  0  0  0  0
   -2.4000   -1.3856    0.0000 C   0  0  0  0  0  0  0  0  0  0  0  0
   -1.6000    0.0001    0.0000 C   0  0  0  0  0  0  0  0  0  0  0  0
   -2.4000    1.3856    0.0000 C   0  0  0  0  0  0  0  0  0  0  0  0
   -4.0000    1.3856    0.0000 H   0  0  0  0  0  0  0  0  0  0  0  0
   -1.6000    2.7713    0.0000 C   0  0  0  0  0  0  0  0  0  0  0  0
   -2.4000    4.1569    0.0000 H   0  0  0  0  0  0  0  0  0  0  0  0
    0.0000    2.7713    0.0000 C   0  0  0  0  0  0  0  0  0  0  0  0
    0.8000    4.1569    0.0000 H   0  0  0  0  0  0  0  0  0  0  0  0
   -4.0000   -1.3856    0.0000 H   0  0  0  0  0  0  0  0  0  0  0  0
  1  2  2  0  0  0  0
  2  3  1  0  0  0  0
  3  4  1  0  0  0  0
  4  5  1  0  0  0  0
  4  6  2  0  0  0  0
  6  7  1  0  0  0  0
  6  8  1  0  0  0  0
  8  9  1  0  0  0  0
  8 10  2  0  0  0  0
 10 11  1  0  0  0  0
 10 12  1  0  0  0  0
 12  3  2  0  0  0  0
 12 13  1  0  0  0  0
 13  1  1  0  0  0  0
 13 14  2  0  0  0  0
 14 15  1  0  0  0  0
 14 16  1  0  0  0  0
 16 17  1  0  0  0  0
 16 18  2  0  0  0  0
 18 19  1  0  0  0  0
 19  1  1  0  0  0  0
 19 20  2  0  0  0  0
 20 21  1  0  0  0  0
 20 22  1  0  0  0  0
 22 23  1  0  0  0  0
 22 24  2  0  0  0  0
 24  2  1  0  0  0  0
 24 25  1  0  0  0  0
 18 26  1  0  0  0  0
M  END
> <ChemID>
100362

> <source_casrn>
206-44-0

> <CAS>
206-44-0

> <SMILES>
c1ccc2c3c(cccc31)-c1ccccc1-2

> <NAME>
FLUORANTHENE

> <preferred_name>
Fluoranthene

> <iupac>
fluoranthene

> <MPID>
98913

> <dsstox_substance_id>
DTXSID3024104

> <Canonical_QSARr>
c1ccc2c3c(cccc31)-c1ccccc1-2

> <InChI_Code_QSARr>
InChI=1S/C16H10/c1-2-8-13-12(7-1)14-9-3-5-11-6-4-10-15(13)16(11)14/h1-10H

> <InChI Key_QSARr>
GVEPBJHOBDJJJI-UHFFFAOYSA-N

> <OH>
5.000000000000002E-11

> <OH Temperature>
25.0

> <OH Data Type>
EXP

> <OH Reference>
ATKINSON,R ET AL. (1990B)

> <LogOH>
-10.30102999566398

$$$$
100364
  -INDIGO-08031719142D

 22 24  0  0  0  0  0  0  0  0999 V2000
   -1.3856    0.8000    0.0000 O   0  0  0  0  0  0  0  0  0  0  0  0
   -2.7712   -0.0000    0.0000 C   0  0  0  0  0  0  0  0  0  0  0  0
   -2.7712   -1.6000    0.0000 C   0  0  0  0  0  0  0  0  0  0  0  0
   -4.1569   -2.4000    0.0000 C   0  0  0  0  0  0  0  0  0  0  0  0
   -4.1569   -4.0000    0.0000 H   0  0  0  0  0  0  0  0  0  0  0  0
   -5.5425   -1.6000    0.0000 C   0  0  0  0  0  0  0  0  0  0  0  0
   -6.9282   -2.4000    0.0000 H   0  0  0  0  0  0  0  0  0  0  0  0
   -5.5425   -0.0000    0.0000 C   0  0  0  0  0  0  0  0  0  0  0  0
   -6.9282    0.8000    0.0000 H   0  0  0  0  0  0  0  0  0  0  0  0
   -4.1569    0.8000    0.0000 C   0  0  0  0  0  0  0  0  0  0  0  0
   -4.1569    2.4000    0.0000 H   0  0  0  0  0  0  0  0  0  0  0  0
   -1.3856   -2.4000    0.0000 O   0  0  0  0  0  0  0  0  0  0  0  0
   -0.0001   -1.6000    0.0000 C   0  0  0  0  0  0  0  0  0  0  0  0
   -0.0001   -0.0000    0.0000 C   0  0  0  0  0  0  0  0  0  0  0  0
    1.3856    0.8000    0.0000 C   0  0  0  0  0  0  0  0  0  0  0  0
    1.3856    2.4000    0.0000 H   0  0  0  0  0  0  0  0  0  0  0  0
    2.7713   -0.0000    0.0000 C   0  0  0  0  0  0  0  0  0  0  0  0
    4.1569    0.8000    0.0000 H   0  0  0  0  0  0  0  0  0  0  0  0
    2.7713   -1.6000    0.0000 C   0  0  0  0  0  0  0  0  0  0  0  0
    4.1569   -2.4000    0.0000 H   0  0  0  0  0  0  0  0  0  0  0  0
    1.3856   -2.4000    0.0000 C   0  0  0  0  0  0  0  0  0  0  0  0
    1.3856   -4.0000    0.0000 H   0  0  0  0  0  0  0  0  0  0  0  0
  1  2  1  0  0  0  0
  2  3  1  0  0  0  0
  3  4  2  0  0  0  0
  4  5  1  0  0  0  0
  4  6  1  0  0  0  0
  6  7  1  0  0  0  0
  6  8  2  0  0  0  0
  8  9  1  0  0  0  0
  8 10  1  0  0  0  0
 10  2  2  0  0  0  0
 10 11  1  0  0  0  0
  3 12  1  0  0  0  0
 12 13  1  0  0  0  0
 13 14  1  0  0  0  0
 14  1  1  0  0  0  0
 14 15  2  0  0  0  0
 15 16  1  0  0  0  0
 15 17  1  0  0  0  0
 17 18  1  0  0  0  0
 17 19  2  0  0  0  0
 19 20  1  0  0  0  0
 19 21  1  0  0  0  0
 21 13  2  0  0  0  0
 21 22  1  0  0  0  0
M  END
> <ChemID>
100364

> <source_casrn>
262-12-4

> <CAS>
262-12-4

> <SMILES>
c1cccc2Oc3ccccc3Oc21

> <NAME>
DIBENZO-P-DIOXIN

> <preferred_name>
Dibenzo-p-dioxin

> <iupac>
oxanthrene

> <MPID>
98915

> <dsstox_substance_id>
DTXSID8020410

> <Canonical_QSARr>
c1cccc2Oc3ccccc3Oc21

> <InChI_Code_QSARr>
InChI=1S/C12H8O2/c1-2-6-10-9(5-1)13-11-7-3-4-8-12(11)14-10/h1-8H

> <InChI Key_QSARr>
NFBOHOGPQUYFRF-UHFFFAOYSA-N

> <OH>
1.2E-11

> <OH Temperature>
25.0

> <OH Data Type>
EXP

> <OH Reference>
BRUBAKER,WWJR & HITES,RA (1998)

> <LogOH>
-10.920818753952396

$$$$
100365
  -INDIGO-08031719142D

 15 16  0  0  0  0  0  0  0  0999 V2000
    1.5217    0.4944    0.0000 C   0  0  0  0  0  0  0  0  0  0  0  0
    2.0161    2.0161    0.0000 H   0  0  0  0  0  0  0  0  0  0  0  0
    2.4621   -0.8000    0.0000 C   0  0  0  0  0  0  0  0  0  0  0  0
    4.0621   -0.8000    0.0000 H   0  0  0  0  0  0  0  0  0  0  0  0
    1.5217   -2.0944    0.0000 O   0  0  0  0  0  0  0  0  0  0  0  0
   -0.0000   -1.6000    0.0000 C   0  0  0  0  0  0  0  0  0  0  0  0
   -0.0000   -0.0000    0.0000 C   0  0  0  0  0  0  0  0  0  0  0  0
   -1.3856    0.8000    0.0000 C   0  0  0  0  0  0  0  0  0  0  0  0
   -1.3856    2.4000    0.0000 H   0  0  0  0  0  0  0  0  0  0  0  0
   -2.7713   -0.0000    0.0000 C   0  0  0  0  0  0  0  0  0  0  0  0
   -4.1569    0.8000    0.0000 H   0  0  0  0  0  0  0  0  0  0  0  0
   -2.7713   -1.6000    0.0000 C   0  0  0  0  0  0  0  0  0  0  0  0
   -4.1569   -2.4000    0.0000 H   0  0  0  0  0  0  0  0  0  0  0  0
   -1.3856   -2.4000    0.0000 C   0  0  0  0  0  0  0  0  0  0  0  0
   -1.3856   -4.0000    0.0000 H   0  0  0  0  0  0  0  0  0  0  0  0
  1  2  1  0  0  0  0
  1  3  2  0  0  0  0
  3  4  1  0  0  0  0
  3  5  1  0  0  0  0
  5  6  1  0  0  0  0
  6  7  1  0  0  0  0
  7  1  1  0  0  0  0
  7  8  2  0  0  0  0
  8  9  1  0  0  0  0
  8 10  1  0  0  0  0
 10 11  1  0  0  0  0
 10 12  2  0  0  0  0
 12 13  1  0  0  0  0
 12 14  1  0  0  0  0
 14  6  2  0  0  0  0
 14 15  1  0  0  0  0
M  END
> <ChemID>
100365

> <source_casrn>
271-89-6

> <CAS>
271-89-6

> <SMILES>
c1cccc2occc21

> <NAME>
BENZOFURAN

> <preferred_name>
2,3-Benzofuran

> <iupac>
1-benzofuran

> <MPID>
98916

> <dsstox_substance_id>
DTXSID6020141

> <Canonical_QSARr>
c1cccc2occc21

> <InChI_Code_QSARr>
InChI=1S/C8H6O/c1-2-4-8-7(3-1)5-6-9-8/h1-6H

> <InChI Key_QSARr>
IANQTJSKSUMEQM-UHFFFAOYSA-N

> <OH>
3.73E-11

> <OH Temperature>
25.0

> <OH Data Type>
EXP

> <OH Reference>
ATKINSON,R (1989)

> <LogOH>
-10.42829116819132

$$$$
100366
  -INDIGO-08031719142D

 15 18  0  0  0  0  0  0  0  0999 V2000
   -0.0000   -0.0000    0.0000 C   0  0  0  0  0  0  0  0  0  0  0  0
    0.9741   -1.2694    0.0000 H   0  0  0  0  0  0  0  0  0  0  0  0
   -3.1562    0.1654    0.0000 C   0  0  0  0  0  0  0  0  0  0  0  0
   -4.0626   -1.1532    0.0000 H   0  0  0  0  0  0  0  0  0  0  0  0
   -3.8070    1.6271    0.0000 C   0  0  0  0  0  0  0  0  0  0  0  0
   -4.7475    2.9215    0.0000 H   0  0  0  0  0  0  0  0  0  0  0  0
   -5.1927    0.8271    0.0000 H   0  0  0  0  0  0  0  0  0  0  0  0
   -2.6180    2.6977    0.0000 C   0  0  0  0  0  0  0  0  0  0  0  0
   -2.9096    4.2709    0.0000 H   0  0  0  0  0  0  0  0  0  0  0  0
   -1.2323    1.8977    0.0000 C   0  0  0  0  0  0  0  0  0  0  0  0
   -0.6590    3.3914    0.0000 H   0  0  0  0  0  0  0  0  0  0  0  0
   -1.5651    0.3327    0.0000 C   0  0  0  0  0  0  0  0  0  0  0  0
   -1.6487   -1.2651    0.0000 H   0  0  0  0  0  0  0  0  0  0  0  0
    0.3327    1.5651    0.0000 C   0  0  0  0  0  0  0  0  0  0  0  0
    1.7388    2.3285    0.0000 H   0  0  0  0  0  0  0  0  0  0  0  0
  1  2  1  0  0  0  0
  1  3  1  0  0  0  0
  3  4  1  0  0  0  0
  3  5  1  0  0  0  0
  5  6  1  0  0  0  0
  5  7  1  0  0  0  0
  5  8  1  0  0  0  0
  8  9  1  0  0  0  0
  8 10  1  0  0  0  0
 10 11  1  0  0  0  0
 10 12  1  0  0  0  0
 12  1  1  0  0  0  0
 12  3  1  0  0  0  0
 12 13  1  0  0  0  0
 10 14  1  0  0  0  0
 14  1  1  0  0  0  0
 14  8  1  0  0  0  0
 14 15  1  0  0  0  0
M  END
> <ChemID>
100366

> <source_casrn>
278-06-8

> <CAS>
278-06-8

> <SMILES>
C1C2C3C4C1C4C32

> <NAME>
Quadricyclane

> <preferred_name>
Quadricyclane

> <iupac>


> <MPID>
98917

> <dsstox_substance_id>
DTXSID30182121

> <Canonical_QSARr>
C1C2C3C4C1C4C32

> <InChI_Code_QSARr>
InChI=1S/C7H8/c1-2-4-5(2)7-3(1)6(4)7/h2-7H,1H2

> <InChI Key_QSARr>
DGZUEIPKRRSMGK-UHFFFAOYSA-N

> <OH>
1.83E-12

> <OH Temperature>
25.0

> <OH Data Type>
EXP

> <OH Reference>
ATKINSON,R (1994)

> <LogOH>
-11.737548910269561

$$$$
100368
  -INDIGO-08031719142D

 22 23  0  0  0  0  0  0  0  0999 V2000
    0.0000   -0.0000    0.0000 C   0  0  0  0  0  0  0  0  0  0  0  0
    1.3857    0.8000    0.0000 H   0  0  0  0  0  0  0  0  0  0  0  0
   -1.1977    0.0745    0.0000 C   0  0  0  0  0  0  0  0  0  0  0  0
   -0.1194    1.2565    0.0000 H   0  0  0  0  0  0  0  0  0  0  0  0
   -0.9589    0.8980    0.0000 H   0  0  0  0  0  0  0  0  0  0  0  0
   -2.2370   -0.5255    0.0000 C   0  0  0  0  0  0  0  0  0  0  0  0
   -2.5473    1.0440    0.0000 H   0  0  0  0  0  0  0  0  0  0  0  0
   -3.7998   -0.8683    0.0000 H   0  0  0  0  0  0  0  0  0  0  0  0
   -2.7713   -1.6000    0.0000 C   0  0  0  0  0  0  0  0  0  0  0  0
   -4.1569   -2.4000    0.0000 H   0  0  0  0  0  0  0  0  0  0  0  0
   -2.7713   -0.0000    0.0000 C   0  0  0  0  0  0  0  0  0  0  0  0
   -3.3185    1.5035    0.0000 H   0  0  0  0  0  0  0  0  0  0  0  0
   -4.3713   -0.0000    0.0000 H   0  0  0  0  0  0  0  0  0  0  0  0
   -1.3857    0.8000    0.0000 C   0  0  0  0  0  0  0  0  0  0  0  0
   -1.4428    1.6555    0.0000 H   0  0  0  0  0  0  0  0  0  0  0  0
   -2.1856    2.1856    0.0000 H   0  0  0  0  0  0  0  0  0  0  0  0
   -1.3857   -2.4000    0.0000 C   0  0  0  0  0  0  0  0  0  0  0  0
   -2.4141   -3.6257    0.0000 H   0  0  0  0  0  0  0  0  0  0  0  0
   -0.3572   -3.6257    0.0000 H   0  0  0  0  0  0  0  0  0  0  0  0
    0.0000   -1.6000    0.0000 C   0  0  0  0  0  0  0  0  0  0  0  0
    0.5472   -3.1035    0.0000 H   0  0  0  0  0  0  0  0  0  0  0  0
    1.5757   -1.3222    0.0000 H   0  0  0  0  0  0  0  0  0  0  0  0
  1  2  1  0  0  0  0
  1  3  1  0  0  0  0
  3  4  1  0  0  0  0
  3  5  1  0  0  0  0
  3  6  1  0  0  0  0
  6  7  1  0  0  0  0
  6  8  1  0  0  0  0
  6  9  1  0  0  0  0
  9 10  1  0  0  0  0
  9 11  1  0  0  0  0
 11 12  1  0  0  0  0
 11 13  1  0  0  0  0
 11 14  1  0  0  0  0
 14  1  1  0  0  0  0
 14 15  1  0  0  0  0
 14 16  1  0  0  0  0
  9 17  1  0  0  0  0
 17 18  1  0  0  0  0
 17 19  1  0  0  0  0
 17 20  1  0  0  0  0
 20  1  1  0  0  0  0
 20 21  1  0  0  0  0
 20 22  1  0  0  0  0
M  END
> <ChemID>
100368

> <source_casrn>
280-33-1

> <CAS>
280-33-1

> <SMILES>
C1CC2CCC1CC2

> <NAME>
BICYCLO[2.2.2]OCTANE

> <preferred_name>
Bicyclo(2.2.2)octane

> <iupac>
bicyclo[2.2.2]octane

> <MPID>
98919

> <dsstox_substance_id>
DTXSID40182278

> <Canonical_QSARr>
C1CC2CCC1CC2

> <InChI_Code_QSARr>
InChI=1S/C8H14/c1-2-8-5-3-7(1)4-6-8/h7-8H,1-6H2

> <InChI Key_QSARr>
GPRLTFBKWDERLU-UHFFFAOYSA-N

> <OH>
1.47E-11

> <OH Temperature>
25.0

> <OH Data Type>
EXP

> <OH Reference>
ATKINSON,R (1989)

> <LogOH>
-10.832682665251841

$$$$
100369
  -INDIGO-08031719142D

 20 21  0  0  0  0  0  0  0  0999 V2000
    0.0000    0.0000    0.0000 N   0  0  0  0  0  0  0  0  0  0  0  0
    0.6633   -1.0000    0.0000 C   0  0  0  0  0  0  0  0  0  0  0  0
    1.1479    0.5249    0.0000 H   0  0  0  0  0  0  0  0  0  0  0  0
    1.2571   -0.3815    0.0000 H   0  0  0  0  0  0  0  0  0  0  0  0
    0.6633   -2.2000    0.0000 C   0  0  0  0  0  0  0  0  0  0  0  0
    2.1778   -1.6840    0.0000 H   0  0  0  0  0  0  0  0  0  0  0  0
    1.1479   -3.7249    0.0000 H   0  0  0  0  0  0  0  0  0  0  0  0
    0.0000   -3.2000    0.0000 N   0  0  0  0  0  0  0  0  0  0  0  0
    1.3856   -2.4000    0.0000 C   0  0  0  0  0  0  0  0  0  0  0  0
    2.9613   -2.1221    0.0000 H   0  0  0  0  0  0  0  0  0  0  0  0
    2.1856   -3.7856    0.0000 H   0  0  0  0  0  0  0  0  0  0  0  0
    1.3856   -0.8000    0.0000 C   0  0  0  0  0  0  0  0  0  0  0  0
    2.1551   -0.4218    0.0000 H   0  0  0  0  0  0  0  0  0  0  0  0
    2.9856   -0.8000    0.0000 H   0  0  0  0  0  0  0  0  0  0  0  0
   -1.3856   -2.4000    0.0000 C   0  0  0  0  0  0  0  0  0  0  0  0
   -1.9328   -3.9035    0.0000 H   0  0  0  0  0  0  0  0  0  0  0  0
   -2.9613   -2.1221    0.0000 H   0  0  0  0  0  0  0  0  0  0  0  0
   -1.3856   -0.8000    0.0000 C   0  0  0  0  0  0  0  0  0  0  0  0
   -2.9613   -1.0779    0.0000 H   0  0  0  0  0  0  0  0  0  0  0  0
   -1.9328    0.7035    0.0000 H   0  0  0  0  0  0  0  0  0  0  0  0
  1  2  1  0  0  0  0
  2  3  1  0  0  0  0
  2  4  1  0  0  0  0
  2  5  1  0  0  0  0
  5  6  1  0  0  0  0
  5  7  1  0  0  0  0
  5  8  1  0  0  0  0
  8  9  1  0  0  0  0
  9 10  1  0  0  0  0
  9 11  1  0  0  0  0
  9 12  1  0  0  0  0
 12  1  1  0  0  0  0
 12 13  1  0  0  0  0
 12 14  1  0  0  0  0
  8 15  1  0  0  0  0
 15 16  1  0  0  0  0
 15 17  1  0  0  0  0
 15 18  1  0  0  0  0
 18  1  1  0  0  0  0
 18 19  1  0  0  0  0
 18 20  1  0  0  0  0
M  END
> <ChemID>
100369

> <source_casrn>
280-57-9

> <CAS>
280-57-9

> <SMILES>
C1CN2CCN1CC2

> <NAME>
1,4-DIAZABICYCLO(2,2,2)OCTANE  (DABCO)

> <preferred_name>
1,4-Diazabicyclo[2.2.2]octane

> <iupac>
1,4-diazabicyclo[2.2.2]octane

> <MPID>
98920

> <dsstox_substance_id>
DTXSID0022016

> <Canonical_QSARr>
C1CN2CCN1CC2

> <InChI_Code_QSARr>
InChI=1S/C6H12N2/c1-2-8-5-3-7(1)4-6-8/h1-6H2

> <InChI Key_QSARr>
IMNIMPAHZVJRPE-UHFFFAOYSA-N

> <OH>
2.2E-11

> <OH Temperature>
25.0

> <OH Data Type>
EXP

> <OH Reference>
KOCH,R ET AL. (1996)

> <LogOH>
-10.65757731917778

$$$$
100370
  -INDIGO-08031719142D

 26 28  0  0  0  0  0  0  0  0999 V2000
    0.0000   -0.0000    0.0000 C   0  0  0  0  0  0  0  0  0  0  0  0
    1.6000   -0.0003    0.0000 H   0  0  0  0  0  0  0  0  0  0  0  0
   -1.4140   -2.4491    0.0000 C   0  0  0  0  0  0  0  0  0  0  0  0
   -1.6922   -4.0248    0.0000 H   0  0  0  0  0  0  0  0  0  0  0  0
    0.0894   -2.9965    0.0000 H   0  0  0  0  0  0  0  0  0  0  0  0
   -4.2350   -2.4483    0.0000 C   0  0  0  0  0  0  0  0  0  0  0  0
   -5.0340   -3.8345    0.0000 H   0  0  0  0  0  0  0  0  0  0  0  0
   -5.6537   -0.0014    0.0000 C   0  0  0  0  0  0  0  0  0  0  0  0
   -6.8800    1.0264    0.0000 H   0  0  0  0  0  0  0  0  0  0  0  0
   -6.8781   -1.0313    0.0000 H   0  0  0  0  0  0  0  0  0  0  0  0
   -4.2397    2.4478    0.0000 C   0  0  0  0  0  0  0  0  0  0  0  0
   -5.0390    3.8339    0.0000 H   0  0  0  0  0  0  0  0  0  0  0  0
   -1.4102    2.4445    0.0000 C   0  0  0  0  0  0  0  0  0  0  0  0
    0.0937    2.9908    0.0000 H   0  0  0  0  0  0  0  0  0  0  0  0
   -1.6867    4.0204    0.0000 H   0  0  0  0  0  0  0  0  0  0  0  0
   -3.4311    1.2040    0.0000 C   0  0  0  0  0  0  0  0  0  0  0  0
   -1.9142    0.6954    0.0000 H   0  0  0  0  0  0  0  0  0  0  0  0
   -2.6860    2.6200    0.0000 H   0  0  0  0  0  0  0  0  0  0  0  0
   -2.7811    0.1085    0.0000 C   0  0  0  0  0  0  0  0  0  0  0  0
   -1.9909   -1.2826    0.0000 H   0  0  0  0  0  0  0  0  0  0  0  0
   -3.4518   -1.0531    0.0000 C   0  0  0  0  0  0  0  0  0  0  0  0
   -4.2573    0.3293    0.0000 H   0  0  0  0  0  0  0  0  0  0  0  0
   -5.0518   -1.0660    0.0000 H   0  0  0  0  0  0  0  0  0  0  0  0
   -1.4061    0.0892    0.0000 C   0  0  0  0  0  0  0  0  0  0  0  0
   -0.5420    1.4358    0.0000 H   0  0  0  0  0  0  0  0  0  0  0  0
   -2.1635    1.4985    0.0000 H   0  0  0  0  0  0  0  0  0  0  0  0
  1  2  1  0  0  0  0
  1  3  1  0  0  0  0
  3  4  1  0  0  0  0
  3  5  1  0  0  0  0
  3  6  1  0  0  0  0
  6  7  1  0  0  0  0
  6  8  1  0  0  0  0
  8  9  1  0  0  0  0
  8 10  1  0  0  0  0
  8 11  1  0  0  0  0
 11 12  1  0  0  0  0
 11 13  1  0  0  0  0
 13  1  1  0  0  0  0
 13 14  1  0  0  0  0
 13 15  1  0  0  0  0
 11 16  1  0  0  0  0
 16 17  1  0  0  0  0
 16 18  1  0  0  0  0
 16 19  1  0  0  0  0
 19 20  1  0  0  0  0
 19 21  1  0  0  0  0
 21  6  1  0  0  0  0
 21 22  1  0  0  0  0
 21 23  1  0  0  0  0
 19 24  1  0  0  0  0
 24  1  1  0  0  0  0
 24 25  1  0  0  0  0
 24 26  1  0  0  0  0
M  END
> <ChemID>
100370

> <source_casrn>
281-23-2

> <CAS>
281-23-2

> <SMILES>
C1C2CC3CC1CC(C2)C3

> <NAME>
TRICYCLO[3.3.1.1]DECANE

> <preferred_name>
Adamantane

> <iupac>
tricyclo[3.3.1.1~3,7~]decane

> <MPID>
98921

> <dsstox_substance_id>
DTXSID5022017

> <Canonical_QSARr>
C1C2CC3CC1CC(C2)C3

> <InChI_Code_QSARr>
InChI=1S/C10H16/c1-7-2-9-4-8(1)5-10(3-7)6-9/h7-10H,1-6H2

> <InChI Key_QSARr>
ORILYTVJVMAKLC-UHFFFAOYSA-N

> <OH>
2.26E-11

> <OH Temperature>
25.0

> <OH Data Type>
EXP

> <OH Reference>
ATKINSON,R (1989)

> <LogOH>
-10.645891560852593

$$$$
100372
  -INDIGO-08031719142D

 15 15  0  0  0  0  0  0  0  0999 V2000
    0.0000    0.0000    0.0000 C   0  0  0  0  0  0  0  0  0  0  0  0
    1.5651    0.3327    0.0000 H   0  0  0  0  0  0  0  0  0  0  0  0
   -0.1673    1.5912    0.0000 H   0  0  0  0  0  0  0  0  0  0  0  0
    0.4944   -1.5217    0.0000 C   0  0  0  0  0  0  0  0  0  0  0  0
    1.9561   -0.8709    0.0000 H   0  0  0  0  0  0  0  0  0  0  0  0
    1.2944   -2.9073    0.0000 H   0  0  0  0  0  0  0  0  0  0  0  0
   -0.8000   -2.4621    0.0000 C   0  0  0  0  0  0  0  0  0  0  0  0
    0.2706   -3.6512    0.0000 H   0  0  0  0  0  0  0  0  0  0  0  0
   -1.8706   -3.6512    0.0000 H   0  0  0  0  0  0  0  0  0  0  0  0
   -2.0944   -1.5217    0.0000 C   0  0  0  0  0  0  0  0  0  0  0  0
   -2.8944   -2.9073    0.0000 H   0  0  0  0  0  0  0  0  0  0  0  0
   -3.5561   -0.8709    0.0000 H   0  0  0  0  0  0  0  0  0  0  0  0
   -1.6000    0.0000    0.0000 C   0  0  0  0  0  0  0  0  0  0  0  0
   -3.1651    0.3327    0.0000 H   0  0  0  0  0  0  0  0  0  0  0  0
   -1.4327    1.5912    0.0000 H   0  0  0  0  0  0  0  0  0  0  0  0
  1  2  1  0  0  0  0
  1  3  1  0  0  0  0
  1  4  1  0  0  0  0
  4  5  1  0  0  0  0
  4  6  1  0  0  0  0
  4  7  1  0  0  0  0
  7  8  1  0  0  0  0
  7  9  1  0  0  0  0
  7 10  1  0  0  0  0
 10 11  1  0  0  0  0
 10 12  1  0  0  0  0
 10 13  1  0  0  0  0
 13  1  1  0  0  0  0
 13 14  1  0  0  0  0
 13 15  1  0  0  0  0
M  END
> <ChemID>
100372

> <source_casrn>
287-92-3

> <CAS>
287-92-3

> <SMILES>
C1CCCC1

> <NAME>
CYCLOPENTANE

> <preferred_name>
Cyclopentane

> <iupac>
cyclopentane

> <MPID>
98923

> <dsstox_substance_id>
DTXSID6024886

> <Canonical_QSARr>
C1CCCC1

> <InChI_Code_QSARr>
InChI=1S/C5H10/c1-2-4-5-3-1/h1-5H2

> <InChI Key_QSARr>
RGSFGYAAUTVSQA-UHFFFAOYSA-N

> <OH>
5.16E-12

> <OH Temperature>
25.0

> <OH Data Type>
EXP

> <OH Reference>
ATKINSON,R (1989)

> <LogOH>
-11.287350298372797

$$$$
100373
  -INDIGO-08031719142D

  9  9  0  0  0  0  0  0  0  0999 V2000
    1.0530    2.3650    0.0000 N   0  0  0  0  0  0  0  0  0  0  0  0
    2.2420    1.2944    0.0000 C   0  0  0  0  0  0  0  0  0  0  0  0
    3.8070    1.6271    0.0000 H   0  0  0  0  0  0  0  0  0  0  0  0
    1.5912   -0.1672    0.0000 N   0  0  0  0  0  0  0  0  0  0  0  0
    2.3912   -1.5529    0.0000 H   0  0  0  0  0  0  0  0  0  0  0  0
   -0.0000    0.0000    0.0000 C   0  0  0  0  0  0  0  0  0  0  0  0
   -1.0706   -1.1890    0.0000 H   0  0  0  0  0  0  0  0  0  0  0  0
   -0.3327    1.5650    0.0000 C   0  0  0  0  0  0  0  0  0  0  0  0
   -1.7943    2.2158    0.0000 H   0  0  0  0  0  0  0  0  0  0  0  0
  1  2  2  0  0  0  0
  2  3  1  0  0  0  0
  2  4  1  0  0  0  0
  4  5  1  0  0  0  0
  4  6  1  0  0  0  0
  6  7  1  0  0  0  0
  6  8  2  0  0  0  0
  8  1  1  0  0  0  0
  8  9  1  0  0  0  0
M  END
> <ChemID>
100373

> <source_casrn>
288-32-4

> <CAS>
288-32-4

> <SMILES>
c1[nH]cc[n]1

> <NAME>
IMIDAZOLE

> <preferred_name>
Imidazole

> <iupac>
C3H4N2

> <MPID>
98924

> <dsstox_substance_id>
DTXSID2029616

> <Canonical_QSARr>
c1[nH]cc[n]1

> <InChI_Code_QSARr>
InChI=1S/C3H4N2/c1-2-5-3-4-1/h1-3H,(H,4,5)

> <InChI Key_QSARr>
RAXXELZNTBOGNW-UHFFFAOYSA-N

> <OH>
3.59E-11

> <OH Temperature>
24.0

> <OH Data Type>
EXP

> <OH Reference>
ATKINSON,R (1989)

> <LogOH>
-10.444905551421673

$$$$
100374
  -INDIGO-08031719142D

  8  8  0  0  0  0  0  0  0  0999 V2000
   -1.7323    1.9239    0.0000 O   0  0  0  0  0  0  0  0  0  0  0  0
   -0.1673    1.5913    0.0000 C   0  0  0  0  0  0  0  0  0  0  0  0
    1.0218    2.6618    0.0000 H   0  0  0  0  0  0  0  0  0  0  0  0
    0.0000    0.0000    0.0000 C   0  0  0  0  0  0  0  0  0  0  0  0
    1.3856   -0.8000    0.0000 H   0  0  0  0  0  0  0  0  0  0  0  0
   -1.4617   -0.6508    0.0000 N   0  0  0  0  0  0  0  0  0  0  0  0
   -2.5323    0.5383    0.0000 C   0  0  0  0  0  0  0  0  0  0  0  0
   -4.1235    0.3710    0.0000 H   0  0  0  0  0  0  0  0  0  0  0  0
  1  2  1  0  0  0  0
  2  3  1  0  0  0  0
  2  4  2  0  0  0  0
  4  5  1  0  0  0  0
  4  6  1  0  0  0  0
  6  7  2  0  0  0  0
  7  1  1  0  0  0  0
  7  8  1  0  0  0  0
M  END
> <ChemID>
100374

> <source_casrn>
288-42-6

> <CAS>
288-42-6

> <SMILES>
c1[n]cco1

> <NAME>
OXAZOLE

> <preferred_name>
Oxazole

> <iupac>
1,3-oxazole

> <MPID>
98925

> <dsstox_substance_id>
DTXSID70182983

> <Canonical_QSARr>
c1[n]cco1

> <InChI_Code_QSARr>
InChI=1S/C3H3NO/c1-2-5-3-4-1/h1-3H

> <InChI Key_QSARr>
ZCQWOFVYLHDMMC-UHFFFAOYSA-N

> <OH>
9.100000000000001E-12

> <OH Temperature>
25.0

> <OH Data Type>
EXP

> <OH Reference>
ATKINSON,R (1989)

> <LogOH>
-11.040958607678887

$$$$
100376
  -INDIGO-08031719142D

  9  9  0  0  0  0  0  0  0  0999 V2000
   -0.0000   -0.0000    0.0000 C   0  0  0  0  0  0  0  0  0  0  0  0
    1.3856    0.8000    0.0000 H   0  0  0  0  0  0  0  0  0  0  0  0
   -1.3857    0.8000    0.0000 N   0  0  0  0  0  0  0  0  0  0  0  0
   -2.7713    0.0000    0.0000 C   0  0  0  0  0  0  0  0  0  0  0  0
   -4.1569    0.8000    0.0000 H   0  0  0  0  0  0  0  0  0  0  0  0
   -2.7713   -1.6000    0.0000 N   0  0  0  0  0  0  0  0  0  0  0  0
   -1.3856   -2.4000    0.0000 C   0  0  0  0  0  0  0  0  0  0  0  0
   -1.3856   -4.0000    0.0000 H   0  0  0  0  0  0  0  0  0  0  0  0
   -0.0000   -1.6000    0.0000 N   0  0  0  0  0  0  0  0  0  0  0  0
  1  2  1  0  0  0  0
  1  3  1  0  0  0  0
  3  4  2  0  0  0  0
  4  5  1  0  0  0  0
  4  6  1  0  0  0  0
  6  7  2  0  0  0  0
  7  8  1  0  0  0  0
  7  9  1  0  0  0  0
  9  1  2  0  0  0  0
M  END
> <ChemID>
100376

> <source_casrn>
290-87-9

> <CAS>
290-87-9

> <SMILES>
c1[n]c[n]c[n]1

> <NAME>
SYM-TRIAZINE

> <preferred_name>
1,3,5-Triazine

> <iupac>
1,3,5-triazine

> <MPID>
98927

> <dsstox_substance_id>
DTXSID7052785

> <Canonical_QSARr>
c1[n]c[n]c[n]1

> <InChI_Code_QSARr>
InChI=1S/C3H3N3/c1-4-2-6-3-5-1/h1-3H

> <InChI Key_QSARr>
JIHQDMXYYFUGFV-UHFFFAOYSA-N

> <OH>
1.45E-13

> <OH Temperature>
23.0

> <OH Data Type>
EXP

> <OH Reference>
ATKINSON,R (1989)

> <LogOH>
-12.838631997765019

$$$$
100377
  -INDIGO-08031719142D

 21 21  0  0  0  0  0  0  0  0999 V2000
    0.0000    0.0000    0.0000 C   0  0  0  0  0  0  0  0  0  0  0  0
    1.5921    0.1593    0.0000 H   0  0  0  0  0  0  0  0  0  0  0  0
    0.4716    1.5289    0.0000 H   0  0  0  0  0  0  0  0  0  0  0  0
    0.2385   -1.5822    0.0000 C   0  0  0  0  0  0  0  0  0  0  0  0
    1.7279   -0.9976    0.0000 H   0  0  0  0  0  0  0  0  0  0  0  0
    1.3557   -2.7275    0.0000 H   0  0  0  0  0  0  0  0  0  0  0  0
   -0.8498   -2.7551    0.0000 C   0  0  0  0  0  0  0  0  0  0  0  0
    0.5358   -3.5550    0.0000 H   0  0  0  0  0  0  0  0  0  0  0  0
   -1.0488   -4.3426    0.0000 H   0  0  0  0  0  0  0  0  0  0  0  0
   -2.4453   -2.6355    0.0000 C   0  0  0  0  0  0  0  0  0  0  0  0
   -2.2069   -4.2176    0.0000 H   0  0  0  0  0  0  0  0  0  0  0  0
   -3.8106   -3.4697    0.0000 H   0  0  0  0  0  0  0  0  0  0  0  0
   -3.3467   -1.3134    0.0000 C   0  0  0  0  0  0  0  0  0  0  0  0
   -4.4349   -2.4863    0.0000 H   0  0  0  0  0  0  0  0  0  0  0  0
   -4.8502   -0.7663    0.0000 H   0  0  0  0  0  0  0  0  0  0  0  0
   -2.8750    0.2154    0.0000 C   0  0  0  0  0  0  0  0  0  0  0  0
   -4.4705    0.3350    0.0000 H   0  0  0  0  0  0  0  0  0  0  0  0
   -3.3846    1.7322    0.0000 H   0  0  0  0  0  0  0  0  0  0  0  0
   -1.3856    0.8000    0.0000 C   0  0  0  0  0  0  0  0  0  0  0  0
   -2.2870    2.1220    0.0000 H   0  0  0  0  0  0  0  0  0  0  0  0
   -0.5176    2.1440    0.0000 H   0  0  0  0  0  0  0  0  0  0  0  0
  1  2  1  0  0  0  0
  1  3  1  0  0  0  0
  1  4  1  0  0  0  0
  4  5  1  0  0  0  0
  4  6  1  0  0  0  0
  4  7  1  0  0  0  0
  7  8  1  0  0  0  0
  7  9  1  0  0  0  0
  7 10  1  0  0  0  0
 10 11  1  0  0  0  0
 10 12  1  0  0  0  0
 10 13  1  0  0  0  0
 13 14  1  0  0  0  0
 13 15  1  0  0  0  0
 13 16  1  0  0  0  0
 16 17  1  0  0  0  0
 16 18  1  0  0  0  0
 16 19  1  0  0  0  0
 19  1  1  0  0  0  0
 19 20  1  0  0  0  0
 19 21  1  0  0  0  0
M  END
> <ChemID>
100377

> <source_casrn>
291-64-5

> <CAS>
291-64-5

> <SMILES>
C1CCCCCC1

> <NAME>
CYCLOHEPTANE

> <preferred_name>
Cycloheptane

> <iupac>
Cycloheptane

> <MPID>
98928

> <dsstox_substance_id>
DTXSID0074269

> <Canonical_QSARr>
C1CCCCCC1

> <InChI_Code_QSARr>
InChI=1S/C7H14/c1-2-4-6-7-5-3-1/h1-7H2

> <InChI Key_QSARr>
DMEGYFMYUHOHGS-UHFFFAOYSA-N

> <OH>
1.25E-11

> <OH Temperature>
25.0

> <OH Data Type>
EXP

> <OH Reference>
ATKINSON,R (1989)

> <LogOH>
-10.903089986991946

$$$$
100378
  -INDIGO-08031719142D

 24 24  0  0  0  0  0  0  0  0999 V2000
    0.0000    0.0000    0.0000 C   0  0  0  0  0  0  0  0  0  0  0  0
    0.2778    1.5757    0.0000 H   0  0  0  0  0  0  0  0  0  0  0  0
    1.5454    0.4141    0.0000 H   0  0  0  0  0  0  0  0  0  0  0  0
   -1.5455    0.4141    0.0000 C   0  0  0  0  0  0  0  0  0  0  0  0
   -0.7455    1.7998    0.0000 H   0  0  0  0  0  0  0  0  0  0  0  0
   -2.4632    1.7247    0.0000 H   0  0  0  0  0  0  0  0  0  0  0  0
   -2.9311   -0.3859    0.0000 C   0  0  0  0  0  0  0  0  0  0  0  0
   -3.3452    1.1596    0.0000 H   0  0  0  0  0  0  0  0  0  0  0  0
   -4.5068   -0.1081    0.0000 H   0  0  0  0  0  0  0  0  0  0  0  0
   -3.3452   -1.9314    0.0000 C   0  0  0  0  0  0  0  0  0  0  0  0
   -4.7309   -1.1314    0.0000 H   0  0  0  0  0  0  0  0  0  0  0  0
   -4.6558   -2.8490    0.0000 H   0  0  0  0  0  0  0  0  0  0  0  0
   -2.5453   -3.3170    0.0000 C   0  0  0  0  0  0  0  0  0  0  0  0
   -4.0907   -3.7311    0.0000 H   0  0  0  0  0  0  0  0  0  0  0  0
   -2.8230   -4.8927    0.0000 H   0  0  0  0  0  0  0  0  0  0  0  0
   -0.9997   -3.7311    0.0000 C   0  0  0  0  0  0  0  0  0  0  0  0
   -1.7997   -5.1168    0.0000 H   0  0  0  0  0  0  0  0  0  0  0  0
   -0.0820   -5.0417    0.0000 H   0  0  0  0  0  0  0  0  0  0  0  0
    0.3859   -2.9312    0.0000 C   0  0  0  0  0  0  0  0  0  0  0  0
    0.8000   -4.4766    0.0000 H   0  0  0  0  0  0  0  0  0  0  0  0
    1.9616   -3.2089    0.0000 H   0  0  0  0  0  0  0  0  0  0  0  0
    0.8000   -1.3856    0.0000 C   0  0  0  0  0  0  0  0  0  0  0  0
    2.1856   -2.1856    0.0000 H   0  0  0  0  0  0  0  0  0  0  0  0
    2.1106   -0.4679    0.0000 H   0  0  0  0  0  0  0  0  0  0  0  0
  1  2  1  0  0  0  0
  1  3  1  0  0  0  0
  1  4  1  0  0  0  0
  4  5  1  0  0  0  0
  4  6  1  0  0  0  0
  4  7  1  0  0  0  0
  7  8  1  0  0  0  0
  7  9  1  0  0  0  0
  7 10  1  0  0  0  0
 10 11  1  0  0  0  0
 10 12  1  0  0  0  0
 10 13  1  0  0  0  0
 13 14  1  0  0  0  0
 13 15  1  0  0  0  0
 13 16  1  0  0  0  0
 16 17  1  0  0  0  0
 16 18  1  0  0  0  0
 16 19  1  0  0  0  0
 19 20  1  0  0  0  0
 19 21  1  0  0  0  0
 19 22  1  0  0  0  0
 22  1  1  0  0  0  0
 22 23  1  0  0  0  0
 22 24  1  0  0  0  0
M  END
> <ChemID>
100378

> <source_casrn>
292-64-8

> <CAS>
292-64-8

> <SMILES>
C1CCCCCCC1

> <NAME>
CYCLOOCTANE

> <preferred_name>
Cyclooctane

> <iupac>


> <MPID>
98929

> <dsstox_substance_id>
DTXSID9075377

> <Canonical_QSARr>
C1CCCCCCC1

> <InChI_Code_QSARr>
InChI=1S/C8H16/c1-2-4-6-8-7-5-3-1/h1-8H2

> <InChI Key_QSARr>
WJTCGQSWYFHTAC-UHFFFAOYSA-N

> <OH>
1.37E-11

> <OH Temperature>
25.0

> <OH Data Type>
EXP

> <OH Reference>
ATKINSON,R (1989)

> <LogOH>
-10.863279432843605

$$$$
100380
  -INDIGO-08031719142D

 40 39  0  0  0  0  0  0  0  0999 V2000
    1.6000    0.0000    0.0000 C   0  0  0  0  0  0  0  0  0  0  0  0
    2.6285    1.2257    0.0000 C   0  0  0  0  0  0  0  0  0  0  0  0
    4.2041    0.9478    0.0000 C   0  0  0  0  0  0  0  0  0  0  0  0
    5.2326    2.1735    0.0000 C   0  0  0  0  0  0  0  0  0  0  0  0
    6.2610    3.3992    0.0000 F   0  0  0  0  0  0  0  0  0  0  0  0
    6.8083    1.8957    0.0000 F   0  0  0  0  0  0  0  0  0  0  0  0
    4.6853    3.6769    0.0000 F   0  0  0  0  0  0  0  0  0  0  0  0
    5.2850   -0.2319    0.0000 F   0  0  0  0  0  0  0  0  0  0  0  0
    4.1343   -0.6507    0.0000 F   0  0  0  0  0  0  0  0  0  0  0  0
    1.5475    2.4054    0.0000 F   0  0  0  0  0  0  0  0  0  0  0  0
    2.6983    2.8242    0.0000 F   0  0  0  0  0  0  0  0  0  0  0  0
    0.0001    0.0000    0.0000 N   0  0  0  0  0  0  0  0  0  0  0  0
   -0.8000    1.3856    0.0000 C   0  0  0  0  0  0  0  0  0  0  0  0
   -2.3757    1.6635    0.0000 C   0  0  0  0  0  0  0  0  0  0  0  0
   -2.9230    3.1670    0.0000 C   0  0  0  0  0  0  0  0  0  0  0  0
   -4.4986    3.4449    0.0000 C   0  0  0  0  0  0  0  0  0  0  0  0
   -6.0743    3.7226    0.0000 F   0  0  0  0  0  0  0  0  0  0  0  0
   -5.0458    4.9483    0.0000 F   0  0  0  0  0  0  0  0  0  0  0  0
   -5.5270    2.2192    0.0000 F   0  0  0  0  0  0  0  0  0  0  0  0
   -2.4418    4.6929    0.0000 F   0  0  0  0  0  0  0  0  0  0  0  0
   -1.5037    3.9057    0.0000 F   0  0  0  0  0  0  0  0  0  0  0  0
   -2.8568    0.1376    0.0000 F   0  0  0  0  0  0  0  0  0  0  0  0
   -3.7948    0.9248    0.0000 F   0  0  0  0  0  0  0  0  0  0  0  0
   -0.5912    2.9719    0.0000 F   0  0  0  0  0  0  0  0  0  0  0  0
    0.4693    2.3597    0.0000 F   0  0  0  0  0  0  0  0  0  0  0  0
   -0.8000   -1.3856    0.0000 C   0  0  0  0  0  0  0  0  0  0  0  0
   -0.2527   -2.8892    0.0000 C   0  0  0  0  0  0  0  0  0  0  0  0
   -1.2812   -4.1147    0.0000 C   0  0  0  0  0  0  0  0  0  0  0  0
   -0.7339   -5.6184    0.0000 C   0  0  0  0  0  0  0  0  0  0  0  0
   -0.1869   -7.1218    0.0000 F   0  0  0  0  0  0  0  0  0  0  0  0
   -1.7624   -6.8439    0.0000 F   0  0  0  0  0  0  0  0  0  0  0  0
    0.8416   -5.8961    0.0000 F   0  0  0  0  0  0  0  0  0  0  0  0
   -2.8434   -4.4612    0.0000 F   0  0  0  0  0  0  0  0  0  0  0  0
   -2.6307   -3.2552    0.0000 F   0  0  0  0  0  0  0  0  0  0  0  0
    1.3093   -2.5428    0.0000 F   0  0  0  0  0  0  0  0  0  0  0  0
    1.0966   -3.7488    0.0000 F   0  0  0  0  0  0  0  0  0  0  0  0
   -2.2782   -1.9980    0.0000 F   0  0  0  0  0  0  0  0  0  0  0  0
   -2.2782   -0.7734    0.0000 F   0  0  0  0  0  0  0  0  0  0  0  0
    2.8693   -0.9739    0.0000 F   0  0  0  0  0  0  0  0  0  0  0  0
    1.8088   -1.5863    0.0000 F   0  0  0  0  0  0  0  0  0  0  0  0
  1  2  1  0  0  0  0
  2  3  1  0  0  0  0
  3  4  1  0  0  0  0
  4  5  1  0  0  0  0
  4  6  1  0  0  0  0
  4  7  1  0  0  0  0
  3  8  1  0  0  0  0
  3  9  1  0  0  0  0
  2 10  1  0  0  0  0
  2 11  1  0  0  0  0
  1 12  1  0  0  0  0
 12 13  1  0  0  0  0
 13 14  1  0  0  0  0
 14 15  1  0  0  0  0
 15 16  1  0  0  0  0
 16 17  1  0  0  0  0
 16 18  1  0  0  0  0
 16 19  1  0  0  0  0
 15 20  1  0  0  0  0
 15 21  1  0  0  0  0
 14 22  1  0  0  0  0
 14 23  1  0  0  0  0
 13 24  1  0  0  0  0
 13 25  1  0  0  0  0
 12 26  1  0  0  0  0
 26 27  1  0  0  0  0
 27 28  1  0  0  0  0
 28 29  1  0  0  0  0
 29 30  1  0  0  0  0
 29 31  1  0  0  0  0
 29 32  1  0  0  0  0
 28 33  1  0  0  0  0
 28 34  1  0  0  0  0
 27 35  1  0  0  0  0
 27 36  1  0  0  0  0
 26 37  1  0  0  0  0
 26 38  1  0  0  0  0
  1 39  1  0  0  0  0
  1 40  1  0  0  0  0
M  END
> <ChemID>
100380

> <source_casrn>
311-89-7

> <CAS>
311-89-7

> <SMILES>
FC(F)(F)C(F)(F)C(F)(F)C(F)(F)N(C(F)(F)C(F)(F)C(F)(F)C(F)(F)F)C(F)(F)C(F)(F)C(F)(F)C(F)(F)F

> <NAME>
HEPTACOSAFLUOROTRIBUTYLAMINE

> <preferred_name>
Perfluorotributylamine

> <iupac>
1,1,2,2,3,3,4,4,4-nonafluoro-N,N-bis(nonafluorobutyl)butan-1-amine

> <MPID>
98931

> <dsstox_substance_id>
DTXSID0027141

> <Canonical_QSARr>
FC(F)(F)C(F)(F)C(F)(F)C(F)(F)N(C(F)(F)C(F)(F)C(F)(F)C(F)(F)F)C(F)(F)C(F)(F)C(F)(F)C(F)(F)F

> <InChI_Code_QSARr>
InChI=1S/C12F27N/c13-1(14,7(25,26)27)4(19,20)10(34,35)40(11(36,37)5(21,22)2(15,16)8(28,29)30)12(38,39)6(23,24)3(17,18)9(31,32)33

> <InChI Key_QSARr>
RVZRBWKZFJCCIB-UHFFFAOYSA-N

> <OH>
6.000000000000001E-17

> <OH Temperature>
25.0

> <OH Data Type>
EXP

> <OH Reference>
priv. communication;<6E-17

> <LogOH>
-16.221848749616345

$$$$
100382
  -INDIGO-08031719142D

 15 14  0  0  0  0  0  0  0  0999 V2000
    1.3856    2.4000    0.0000 F   0  0  0  0  0  0  0  0  0  0  0  0
    1.3856    0.8000    0.0000 C   0  0  0  0  0  0  0  0  0  0  0  0
    2.7713    1.6000    0.0000 F   0  0  0  0  0  0  0  0  0  0  0  0
    2.7713    0.0000    0.0000 F   0  0  0  0  0  0  0  0  0  0  0  0
    0.0000    0.0000    0.0000 C   0  0  0  0  0  0  0  0  0  0  0  0
    0.6122   -1.4782    0.0000 H   0  0  0  0  0  0  0  0  0  0  0  0
   -0.6122   -1.4782    0.0000 H   0  0  0  0  0  0  0  0  0  0  0  0
   -1.3857    0.8000    0.0000 O   0  0  0  0  0  0  0  0  0  0  0  0
   -2.7713    0.0000    0.0000 C   0  0  0  0  0  0  0  0  0  0  0  0
   -2.1590   -1.4782    0.0000 H   0  0  0  0  0  0  0  0  0  0  0  0
   -3.3835   -1.4782    0.0000 H   0  0  0  0  0  0  0  0  0  0  0  0
   -4.1569    0.8000    0.0000 C   0  0  0  0  0  0  0  0  0  0  0  0
   -5.5426    1.6000    0.0000 F   0  0  0  0  0  0  0  0  0  0  0  0
   -5.5426    0.0000    0.0000 F   0  0  0  0  0  0  0  0  0  0  0  0
   -4.1569    2.4000    0.0000 F   0  0  0  0  0  0  0  0  0  0  0  0
  1  2  1  0  0  0  0
  2  3  1  0  0  0  0
  2  4  1  0  0  0  0
  2  5  1  0  0  0  0
  5  6  1  0  0  0  0
  5  7  1  0  0  0  0
  5  8  1  0  0  0  0
  8  9  1  0  0  0  0
  9 10  1  0  0  0  0
  9 11  1  0  0  0  0
  9 12  1  0  0  0  0
 12 13  1  0  0  0  0
 12 14  1  0  0  0  0
 12 15  1  0  0  0  0
M  END
> <ChemID>
100382

> <source_casrn>
333-36-8

> <CAS>
333-36-8

> <SMILES>
FC(F)(F)COCC(F)(F)F

> <NAME>
Flurothyl

> <preferred_name>
Flurothyl

> <iupac>
bis(2,2,2-trifluoroethyl) ether

> <MPID>
98933

> <dsstox_substance_id>
DTXSID5046516

> <Canonical_QSARr>
FC(F)(F)COCC(F)(F)F

> <InChI_Code_QSARr>
InChI=1S/C4H4F6O/c5-3(6,7)1-11-2-4(8,9)10/h1-2H2

> <InChI Key_QSARr>
KGPPDNUWZNWPSI-UHFFFAOYSA-N

> <OH>
1.63E-13

> <OH Temperature>
25.0

> <OH Data Type>
EXP

> <OH Reference>
ORKIN,VL ET AL. (1999)

> <LogOH>
-12.787812395596031

$$$$
100385
  -INDIGO-08031719142D

  8  7  0  0  0  0  0  0  0  0999 V2000
    0.0000    0.0000    0.0000 C   0  0  0  0  0  0  0  0  0  0  0  0
    1.6000   -0.0000    0.0000 H   0  0  0  0  0  0  0  0  0  0  0  0
    0.8000   -1.3856    0.0000 H   0  0  0  0  0  0  0  0  0  0  0  0
   -1.6000    0.0000    0.0000 C   0  0  0  0  0  0  0  0  0  0  0  0
   -3.2000    0.0000    0.0000 H   0  0  0  0  0  0  0  0  0  0  0  0
   -2.4000   -1.3856    0.0000 H   0  0  0  0  0  0  0  0  0  0  0  0
   -2.4000    1.3856    0.0000 H   0  0  0  0  0  0  0  0  0  0  0  0
    0.8000    1.3856    0.0000 F   0  0  0  0  0  0  0  0  0  0  0  0
  1  2  1  0  0  0  0
  1  3  1  0  0  0  0
  1  4  1  0  0  0  0
  4  5  1  0  0  0  0
  4  6  1  0  0  0  0
  4  7  1  0  0  0  0
  1  8  1  0  0  0  0
M  END
> <ChemID>
100385

> <source_casrn>
353-36-6

> <CAS>
353-36-6

> <SMILES>
CCF

> <NAME>
FLUOROETHANE

> <preferred_name>
HFC-161

> <iupac>
FLUOROETHANE

> <MPID>
98935

> <dsstox_substance_id>
DTXSID2059857

> <Canonical_QSARr>
CCF

> <InChI_Code_QSARr>
InChI=1S/C2H5F/c1-2-3/h2H2,1H3

> <InChI Key_QSARr>
UHCBBWUQDAVSMS-UHFFFAOYSA-N

> <OH>
2.32E-13

> <OH Temperature>
25.0

> <OH Data Type>
EXP

> <OH Reference>
ATKINSON,R (1989)

> <LogOH>
-12.63451201510911

$$$$
100386
  -INDIGO-08031719142D

  5  4  0  0  0  0  0  0  0  0999 V2000
   -0.8000   -1.3856    0.0000 F   0  0  0  0  0  0  0  0  0  0  0  0
    0.0000    0.0000    0.0000 C   0  0  0  0  0  0  0  0  0  0  0  0
    0.8000    1.3856    0.0000 Br  0  0  0  0  0  0  0  0  0  0  0  0
   -1.3856    0.8000    0.0000 Br  0  0  0  0  0  0  0  0  0  0  0  0
    1.3856   -0.8000    0.0000 Br  0  0  0  0  0  0  0  0  0  0  0  0
  1  2  1  0  0  0  0
  2  3  1  0  0  0  0
  2  4  1  0  0  0  0
  2  5  1  0  0  0  0
M  END
> <ChemID>
100386

> <source_casrn>
353-54-8

> <CAS>
353-54-8

> <SMILES>
FC(Br)(Br)Br

> <NAME>
Methane, tribromofluoro-

> <preferred_name>
Methane, tribromofluoro-

> <iupac>
tribromo-fluoromethane

> <MPID>
98936

> <dsstox_substance_id>
DTXSID2059859

> <Canonical_QSARr>
FC(Br)(Br)Br

> <InChI_Code_QSARr>
InChI=1S/CBr3F/c2-1(3,4)5

> <InChI Key_QSARr>
IHZAEIHJPNTART-UHFFFAOYSA-N

> <OH>
1.0E-15

> <OH Temperature>
25.0

> <OH Data Type>
EXP

> <OH Reference>
ATKINSON,R (1994);<1.0E-15

> <LogOH>
-15.000000000000004

$$$$
100387
  -INDIGO-08031719142D

  5  4  0  0  0  0  0  0  0  0999 V2000
    0.0000    0.0000    0.0000 C   0  0  0  0  0  0  0  0  0  0  0  0
    0.8000    1.3856    0.0000 Br  0  0  0  0  0  0  0  0  0  0  0  0
   -1.3856    0.8000    0.0000 Cl  0  0  0  0  0  0  0  0  0  0  0  0
    1.3856   -0.8000    0.0000 F   0  0  0  0  0  0  0  0  0  0  0  0
   -0.8000   -1.3856    0.0000 F   0  0  0  0  0  0  0  0  0  0  0  0
  1  2  1  0  0  0  0
  1  3  1  0  0  0  0
  1  4  1  0  0  0  0
  1  5  1  0  0  0  0
M  END
> <ChemID>
100387

> <source_casrn>
353-59-3

> <CAS>
353-59-3

> <SMILES>
FC(F)(Cl)Br

> <NAME>
BROMOCHLORODIFLUOROMETHANE

> <preferred_name>
Methane, bromochlorodifluoro-

> <iupac>
bromo(chloro)difluoromethane

> <MPID>
98937

> <dsstox_substance_id>
DTXSID0027147

> <Canonical_QSARr>
FC(F)(Cl)Br

> <InChI_Code_QSARr>
InChI=1S/CBrClF2/c2-1(3,4)5

> <InChI Key_QSARr>
MEXUFEQDCXZEON-UHFFFAOYSA-N

> <OH>
1.0E-15

> <OH Temperature>
25.0

> <OH Data Type>
EXP

> <OH Reference>
ATKINSON,R (1989);<1E-15

> <LogOH>
-15.000000000000004

$$$$
100390
  -INDIGO-08031719142D

  8  7  0  0  0  0  0  0  0  0999 V2000
    0.0000    0.0000    0.0000 C   0  0  0  0  0  0  0  0  0  0  0  0
    1.6000    0.0000    0.0000 C   0  0  0  0  0  0  0  0  0  0  0  0
    3.2000    0.0000    0.0000 H   0  0  0  0  0  0  0  0  0  0  0  0
    2.4000   -1.3856    0.0000 F   0  0  0  0  0  0  0  0  0  0  0  0
    2.4000    1.3856    0.0000 Cl  0  0  0  0  0  0  0  0  0  0  0  0
   -1.6000   -0.0000    0.0000 F   0  0  0  0  0  0  0  0  0  0  0  0
   -0.8000   -1.3856    0.0000 F   0  0  0  0  0  0  0  0  0  0  0  0
   -0.8000    1.3856    0.0000 Cl  0  0  0  0  0  0  0  0  0  0  0  0
  1  2  1  0  0  0  0
  2  3  1  0  0  0  0
  2  4  1  0  0  0  0
  2  5  1  0  0  0  0
  1  6  1  0  0  0  0
  1  7  1  0  0  0  0
  1  8  1  0  0  0  0
M  END
> <ChemID>
100390

> <source_casrn>
354-23-4

> <CAS>
354-23-4

> <SMILES>
FC(Cl)C(F)(F)Cl

> <NAME>
Ethane, 1,2-dichloro-1,1,2-trifluoro-

> <preferred_name>
1,2-dichloro-1,1,2-trifluoroethane

> <iupac>
1,2-dichloro-1,1,2-trifluoroethane

> <MPID>
98939

> <dsstox_substance_id>
DTXSID1042021

> <Canonical_QSARr>
FC(Cl)C(F)(F)Cl

> <InChI_Code_QSARr>
InChI=1S/C2HCl2F3/c3-1(5)2(4,6)7/h1H

> <InChI Key_QSARr>
YMRMDGSNYHCUCL-UHFFFAOYSA-N

> <OH>
1.23E-14

> <OH Temperature>
25.0

> <OH Data Type>
EXP

> <OH Reference>
ORKIN,VL & KHAMAGANOV,VG (1993B)

> <LogOH>
-13.910094888560593

$$$$
100391
  -INDIGO-08031719142D

  8  7  0  0  0  0  0  0  0  0999 V2000
    0.8000    1.3856    0.0000 F   0  0  0  0  0  0  0  0  0  0  0  0
    0.0000    0.0000    0.0000 C   0  0  0  0  0  0  0  0  0  0  0  0
    1.6000   -0.0000    0.0000 F   0  0  0  0  0  0  0  0  0  0  0  0
    0.8000   -1.3856    0.0000 F   0  0  0  0  0  0  0  0  0  0  0  0
   -1.6000    0.0000    0.0000 C   0  0  0  0  0  0  0  0  0  0  0  0
   -3.2000    0.0000    0.0000 H   0  0  0  0  0  0  0  0  0  0  0  0
   -2.4000   -1.3856    0.0000 F   0  0  0  0  0  0  0  0  0  0  0  0
   -2.4000    1.3856    0.0000 F   0  0  0  0  0  0  0  0  0  0  0  0
  1  2  1  0  0  0  0
  2  3  1  0  0  0  0
  2  4  1  0  0  0  0
  2  5  1  0  0  0  0
  5  6  1  0  0  0  0
  5  7  1  0  0  0  0
  5  8  1  0  0  0  0
M  END
> <ChemID>
100391

> <source_casrn>
354-33-6

> <CAS>
354-33-6

> <SMILES>
FC(F)C(F)(F)F

> <NAME>
1,1,1,2,2-PENTAFLUOROETHANE

> <preferred_name>
Pentafluoroethane

> <iupac>
1,1,1,2,2-pentafluoroethane

> <MPID>
98940

> <dsstox_substance_id>
DTXSID1024251

> <Canonical_QSARr>
FC(F)C(F)(F)F

> <InChI_Code_QSARr>
InChI=1S/C2HF5/c3-1(4)2(5,6)7/h1H

> <InChI Key_QSARr>
GTLACDSXYULKMZ-UHFFFAOYSA-N

> <OH>
2.5E-15

> <OH Temperature>
25.0

> <OH Data Type>
EXP

> <OH Reference>
ATKINSON,R (1989)

> <LogOH>
-14.602059991327948

$$$$
100394
  -INDIGO-08031719142D

 22 21  0  0  0  0  0  0  0  0999 V2000
    1.8088   -1.5864    0.0000 F   0  0  0  0  0  0  0  0  0  0  0  0
    1.6001   -0.0000    0.0000 C   0  0  0  0  0  0  0  0  0  0  0  0
    2.8694   -0.9740    0.0000 F   0  0  0  0  0  0  0  0  0  0  0  0
    0.0001   -0.0000    0.0000 N   0  0  0  0  0  0  0  0  0  0  0  0
   -0.8000    1.3856    0.0000 C   0  0  0  0  0  0  0  0  0  0  0  0
   -0.5911    2.9720    0.0000 F   0  0  0  0  0  0  0  0  0  0  0  0
    0.4693    2.3596    0.0000 F   0  0  0  0  0  0  0  0  0  0  0  0
   -2.4000    1.3856    0.0000 C   0  0  0  0  0  0  0  0  0  0  0  0
   -4.0000    1.3856    0.0000 F   0  0  0  0  0  0  0  0  0  0  0  0
   -3.2001    2.7713    0.0000 F   0  0  0  0  0  0  0  0  0  0  0  0
   -3.2001   -0.0000    0.0000 F   0  0  0  0  0  0  0  0  0  0  0  0
   -0.8000   -1.3857    0.0000 C   0  0  0  0  0  0  0  0  0  0  0  0
   -2.2782   -1.9980    0.0000 F   0  0  0  0  0  0  0  0  0  0  0  0
   -2.2782   -0.7733    0.0000 F   0  0  0  0  0  0  0  0  0  0  0  0
    0.0001   -2.7713    0.0000 C   0  0  0  0  0  0  0  0  0  0  0  0
    0.8000   -4.1569    0.0000 F   0  0  0  0  0  0  0  0  0  0  0  0
   -0.8000   -4.1569    0.0000 F   0  0  0  0  0  0  0  0  0  0  0  0
    1.6001   -2.7713    0.0000 F   0  0  0  0  0  0  0  0  0  0  0  0
    2.4000    1.3856    0.0000 C   0  0  0  0  0  0  0  0  0  0  0  0
    3.2001    2.7713    0.0000 F   0  0  0  0  0  0  0  0  0  0  0  0
    4.0000    1.3856    0.0000 F   0  0  0  0  0  0  0  0  0  0  0  0
    1.6001    2.7713    0.0000 F   0  0  0  0  0  0  0  0  0  0  0  0
  1  2  1  0  0  0  0
  2  3  1  0  0  0  0
  2  4  1  0  0  0  0
  4  5  1  0  0  0  0
  5  6  1  0  0  0  0
  5  7  1  0  0  0  0
  5  8  1  0  0  0  0
  8  9  1  0  0  0  0
  8 10  1  0  0  0  0
  8 11  1  0  0  0  0
  4 12  1  0  0  0  0
 12 13  1  0  0  0  0
 12 14  1  0  0  0  0
 12 15  1  0  0  0  0
 15 16  1  0  0  0  0
 15 17  1  0  0  0  0
 15 18  1  0  0  0  0
  2 19  1  0  0  0  0
 19 20  1  0  0  0  0
 19 21  1  0  0  0  0
 19 22  1  0  0  0  0
M  END
> <ChemID>
100394

> <source_casrn>
359-70-6

> <CAS>
359-70-6

> <SMILES>
FC(F)(F)C(F)(F)N(C(F)(F)C(F)(F)F)C(F)(F)C(F)(F)F

> <NAME>
Perfluoro-tri-n-ethylamine

> <preferred_name>
Perfluorotriethylamine

> <iupac>
1,1,2,2,2-pentafluoro-N,N-bis(1,1,2,2,2-pentafluoroethyl)ethanamine

> <MPID>
98942

> <dsstox_substance_id>
DTXSID40189464

> <Canonical_QSARr>
FC(F)(F)C(F)(F)N(C(F)(F)C(F)(F)F)C(F)(F)C(F)(F)F

> <InChI_Code_QSARr>
InChI=1S/C6F15N/c7-1(8,9)4(16,17)22(5(18,19)2(10,11)12)6(20,21)3(13,14)15

> <InChI Key_QSARr>
CBEFDCMSEZEGCX-UHFFFAOYSA-N

> <OH>
6.000000000000001E-16

> <OH Temperature>
25.0

> <OH Data Type>
EXP

> <OH Reference>
INOUE,G (1998); <6E-16

> <LogOH>
-15.221848749616365

$$$$
100396
  -INDIGO-08031719142D

 15 14  0  0  0  0  0  0  0  0999 V2000
   -1.3856    0.8000    0.0000 C   0  0  0  0  0  0  0  0  0  0  0  0
    0.0001   -0.0000    0.0000 C   0  0  0  0  0  0  0  0  0  0  0  0
    1.3856    0.8000    0.0000 C   0  0  0  0  0  0  0  0  0  0  0  0
    1.9979    2.2782    0.0000 H   0  0  0  0  0  0  0  0  0  0  0  0
    0.7734    2.2782    0.0000 H   0  0  0  0  0  0  0  0  0  0  0  0
    2.7713   -0.0000    0.0000 O   0  0  0  0  0  0  0  0  0  0  0  0
    4.1569    0.8000    0.0000 H   0  0  0  0  0  0  0  0  0  0  0  0
   -0.6123   -1.4782    0.0000 F   0  0  0  0  0  0  0  0  0  0  0  0
    0.6123   -1.4782    0.0000 F   0  0  0  0  0  0  0  0  0  0  0  0
   -2.7712   -0.0000    0.0000 C   0  0  0  0  0  0  0  0  0  0  0  0
   -4.1569   -0.8000    0.0000 F   0  0  0  0  0  0  0  0  0  0  0  0
   -4.1569    0.8000    0.0000 F   0  0  0  0  0  0  0  0  0  0  0  0
   -2.7713   -1.6000    0.0000 F   0  0  0  0  0  0  0  0  0  0  0  0
   -0.7734    2.2782    0.0000 F   0  0  0  0  0  0  0  0  0  0  0  0
   -1.9979    2.2782    0.0000 F   0  0  0  0  0  0  0  0  0  0  0  0
  1  2  1  0  0  0  0
  2  3  1  0  0  0  0
  3  4  1  0  0  0  0
  3  5  1  0  0  0  0
  3  6  1  0  0  0  0
  6  7  1  0  0  0  0
  2  8  1  0  0  0  0
  2  9  1  0  0  0  0
  1 10  1  0  0  0  0
 10 11  1  0  0  0  0
 10 12  1  0  0  0  0
 10 13  1  0  0  0  0
  1 14  1  0  0  0  0
  1 15  1  0  0  0  0
M  END
> <ChemID>
100396

> <source_casrn>
375-01-9

> <CAS>
375-01-9

> <SMILES>
OCC(F)(F)C(F)(F)C(F)(F)F

> <NAME>
2,2,3,3,4,4,-HEPTAFLUOROBUTANOL

> <preferred_name>
1-Butanol, 2,2,3,3,4,4,4-heptafluoro-

> <iupac>
2,2,3,3,4,4,4-Heptafluorobutan-1-ol

> <MPID>
98943

> <dsstox_substance_id>
DTXSID4059914

> <Canonical_QSARr>
OCC(F)(F)C(F)(F)C(F)(F)F

> <InChI_Code_QSARr>
InChI=1S/C4H3F7O/c5-2(6,1-12)3(7,8)4(9,10)11/h12H,1H2

> <InChI Key_QSARr>
WXJFKAZDSQLPBX-UHFFFAOYSA-N

> <OH>
1.12E-13

> <OH Temperature>
25.0

> <OH Data Type>
EXP

> <OH Reference>
INOUE,G (1998)

> <LogOH>
-12.950781977329822

$$$$
100398
  -INDIGO-08031719142D

 12 12  0  0  0  0  0  0  0  0999 V2000
   -0.0000   -0.0000    0.0000 C   0  0  0  0  0  0  0  0  0  0  0  0
    0.8000   -1.3857    0.0000 C   0  0  0  0  0  0  0  0  0  0  0  0
    2.4000   -1.3857    0.0000 F   0  0  0  0  0  0  0  0  0  0  0  0
   -0.0000   -2.7713    0.0000 C   0  0  0  0  0  0  0  0  0  0  0  0
    0.8000   -4.1569    0.0000 F   0  0  0  0  0  0  0  0  0  0  0  0
   -1.6000   -2.7713    0.0000 C   0  0  0  0  0  0  0  0  0  0  0  0
   -2.4000   -4.1569    0.0000 F   0  0  0  0  0  0  0  0  0  0  0  0
   -2.4000   -1.3856    0.0000 C   0  0  0  0  0  0  0  0  0  0  0  0
   -4.0000   -1.3856    0.0000 F   0  0  0  0  0  0  0  0  0  0  0  0
   -1.6000   -0.0000    0.0000 C   0  0  0  0  0  0  0  0  0  0  0  0
   -2.4000    1.3856    0.0000 F   0  0  0  0  0  0  0  0  0  0  0  0
    0.8000    1.3856    0.0000 F   0  0  0  0  0  0  0  0  0  0  0  0
  1  2  1  0  0  0  0
  2  3  1  0  0  0  0
  2  4  2  0  0  0  0
  4  5  1  0  0  0  0
  4  6  1  0  0  0  0
  6  7  1  0  0  0  0
  6  8  2  0  0  0  0
  8  9  1  0  0  0  0
  8 10  1  0  0  0  0
 10  1  2  0  0  0  0
 10 11  1  0  0  0  0
  1 12  1  0  0  0  0
M  END
> <ChemID>
100398

> <source_casrn>
392-56-3

> <CAS>
392-56-3

> <SMILES>
Fc1c(F)c(F)c(F)c(F)c1F

> <NAME>
HEXAFLUOROBENZENE

> <preferred_name>
Hexafluorobenzene

> <iupac>
hexafluorobenzene

> <MPID>
98945

> <dsstox_substance_id>
DTXSID5043924

> <Canonical_QSARr>
Fc1c(F)c(F)c(F)c(F)c1F

> <InChI_Code_QSARr>
InChI=1S/C6F6/c7-1-2(8)4(10)6(12)5(11)3(1)9

> <InChI Key_QSARr>
ZQBFAOFFOQMSGJ-UHFFFAOYSA-N

> <OH>
1.71E-13

> <OH Temperature>
25.0

> <OH Data Type>
EXP

> <OH Reference>
KWOK,ESC & ATKINSON,R (1994)

> <LogOH>
-12.767003889607834

$$$$
100399
  -INDIGO-08031719142D

 14 13  0  0  0  0  0  0  0  0999 V2000
   -1.3856   -2.4000    0.0000 F   0  0  0  0  0  0  0  0  0  0  0  0
   -1.3856   -0.8000    0.0000 C   0  0  0  0  0  0  0  0  0  0  0  0
    0.0000    0.0000    0.0000 C   0  0  0  0  0  0  0  0  0  0  0  0
   -0.6123    1.4782    0.0000 H   0  0  0  0  0  0  0  0  0  0  0  0
    0.6123    1.4782    0.0000 H   0  0  0  0  0  0  0  0  0  0  0  0
    1.3856   -0.8000    0.0000 C   0  0  0  0  0  0  0  0  0  0  0  0
    1.9980   -2.2782    0.0000 F   0  0  0  0  0  0  0  0  0  0  0  0
    0.7733   -2.2782    0.0000 F   0  0  0  0  0  0  0  0  0  0  0  0
    2.7713    0.0000    0.0000 C   0  0  0  0  0  0  0  0  0  0  0  0
    4.1569    0.8000    0.0000 H   0  0  0  0  0  0  0  0  0  0  0  0
    4.1569   -0.8000    0.0000 H   0  0  0  0  0  0  0  0  0  0  0  0
    2.7713    1.6000    0.0000 H   0  0  0  0  0  0  0  0  0  0  0  0
   -2.7713   -1.6000    0.0000 F   0  0  0  0  0  0  0  0  0  0  0  0
   -2.7713    0.0000    0.0000 F   0  0  0  0  0  0  0  0  0  0  0  0
  1  2  1  0  0  0  0
  2  3  1  0  0  0  0
  3  4  1  0  0  0  0
  3  5  1  0  0  0  0
  3  6  1  0  0  0  0
  6  7  1  0  0  0  0
  6  8  1  0  0  0  0
  6  9  1  0  0  0  0
  9 10  1  0  0  0  0
  9 11  1  0  0  0  0
  9 12  1  0  0  0  0
  2 13  1  0  0  0  0
  2 14  1  0  0  0  0
M  END
> <ChemID>
100399

> <source_casrn>
406-58-6

> <CAS>
406-58-6

> <SMILES>
CC(F)(F)CC(F)(F)F

> <NAME>
HFC-365mfc

> <preferred_name>
HFC-365mfc

> <iupac>
1,1,1,3,3-pentafluorobutane

> <MPID>
98946

> <dsstox_substance_id>
DTXSID5073901

> <Canonical_QSARr>
CC(F)(F)CC(F)(F)F

> <InChI_Code_QSARr>
InChI=1S/C4H5F5/c1-3(5,6)2-4(7,8)9/h2H2,1H3

> <InChI Key_QSARr>
WZLFPVPRZGTCKP-UHFFFAOYSA-N

> <OH>
8.69E-15

> <OH Temperature>
25.0

> <OH Data Type>
EXP

> <OH Reference>
MELLOUKI,A ET AL. (1995)

> <LogOH>
-14.06098022355134

$$$$
100400
  -INDIGO-08031719142D

 15 14  0  0  0  0  0  0  0  0999 V2000
    0.0000    0.0000    0.0000 C   0  0  0  0  0  0  0  0  0  0  0  0
    1.3856    0.8000    0.0000 C   0  0  0  0  0  0  0  0  0  0  0  0
    2.7713    1.6000    0.0000 H   0  0  0  0  0  0  0  0  0  0  0  0
    2.7713    0.0000    0.0000 F   0  0  0  0  0  0  0  0  0  0  0  0
    1.3856    2.4000    0.0000 F   0  0  0  0  0  0  0  0  0  0  0  0
   -1.3857    0.8000    0.0000 O   0  0  0  0  0  0  0  0  0  0  0  0
   -2.7713    0.0000    0.0000 C   0  0  0  0  0  0  0  0  0  0  0  0
   -2.1590   -1.4782    0.0000 H   0  0  0  0  0  0  0  0  0  0  0  0
   -3.3835   -1.4782    0.0000 H   0  0  0  0  0  0  0  0  0  0  0  0
   -4.1569    0.8000    0.0000 C   0  0  0  0  0  0  0  0  0  0  0  0
   -5.5426    1.6000    0.0000 F   0  0  0  0  0  0  0  0  0  0  0  0
   -5.5426    0.0000    0.0000 F   0  0  0  0  0  0  0  0  0  0  0  0
   -4.1569    2.4000    0.0000 F   0  0  0  0  0  0  0  0  0  0  0  0
    0.6122   -1.4782    0.0000 F   0  0  0  0  0  0  0  0  0  0  0  0
   -0.6122   -1.4782    0.0000 F   0  0  0  0  0  0  0  0  0  0  0  0
  1  2  1  0  0  0  0
  2  3  1  0  0  0  0
  2  4  1  0  0  0  0
  2  5  1  0  0  0  0
  1  6  1  0  0  0  0
  6  7  1  0  0  0  0
  7  8  1  0  0  0  0
  7  9  1  0  0  0  0
  7 10  1  0  0  0  0
 10 11  1  0  0  0  0
 10 12  1  0  0  0  0
 10 13  1  0  0  0  0
  1 14  1  0  0  0  0
  1 15  1  0  0  0  0
M  END
> <ChemID>
100400

> <source_casrn>
406-78-0

> <CAS>
406-78-0

> <SMILES>
FC(F)(F)COC(F)(F)C(F)F

> <NAME>
CF3-CH2-O-CF2-CF2H

> <preferred_name>
HFE-347pcf2

> <iupac>
1,1,2,2-Tetrafluoro-1-(2,2,2-trifluoroethoxy)ethane

> <MPID>
98947

> <dsstox_substance_id>
DTXSID8074786

> <Canonical_QSARr>
FC(F)(F)COC(F)(F)C(F)F

> <InChI_Code_QSARr>
InChI=1S/C4H3F7O/c5-2(6)4(10,11)12-1-3(7,8)9/h2H,1H2

> <InChI Key_QSARr>
CWIFAKBLLXGZIC-UHFFFAOYSA-N

> <OH>
9.4E-14

> <OH Temperature>
25.0

> <OH Data Type>
EXP

> <OH Reference>
HEATHFIELD,AE ET AL. (1998)

> <LogOH>
-13.026872146400308

$$$$
100402
  -INDIGO-08031719142D

  8  7  0  0  0  0  0  0  0  0999 V2000
    0.0000    0.0000    0.0000 C   0  0  0  0  0  0  0  0  0  0  0  0
    1.6000    0.0000    0.0000 C   0  0  0  0  0  0  0  0  0  0  0  0
    3.2000    0.0000    0.0000 H   0  0  0  0  0  0  0  0  0  0  0  0
    2.4000   -1.3856    0.0000 H   0  0  0  0  0  0  0  0  0  0  0  0
    2.4000    1.3856    0.0000 H   0  0  0  0  0  0  0  0  0  0  0  0
   -1.6000   -0.0000    0.0000 F   0  0  0  0  0  0  0  0  0  0  0  0
   -0.8000   -1.3856    0.0000 F   0  0  0  0  0  0  0  0  0  0  0  0
   -0.8000    1.3856    0.0000 F   0  0  0  0  0  0  0  0  0  0  0  0
  1  2  1  0  0  0  0
  2  3  1  0  0  0  0
  2  4  1  0  0  0  0
  2  5  1  0  0  0  0
  1  6  1  0  0  0  0
  1  7  1  0  0  0  0
  1  8  1  0  0  0  0
M  END
> <ChemID>
100402

> <source_casrn>
420-46-2

> <CAS>
420-46-2

> <SMILES>
CC(F)(F)F

> <NAME>
1,1,1-TRIFLUOROETHANE

> <preferred_name>
1,1,1-trifluoroethane

> <iupac>
1,1,1-trifluoroethane

> <MPID>
98949

> <dsstox_substance_id>
DTXSID9042047

> <Canonical_QSARr>
CC(F)(F)F

> <InChI_Code_QSARr>
InChI=1S/C2H3F3/c1-2(3,4)5/h1H3

> <InChI Key_QSARr>
UJPMYEOUBPIPHQ-UHFFFAOYSA-N

> <OH>
1.7E-15

> <OH Temperature>
25.0

> <OH Data Type>
EXP

> <OH Reference>
ATKINSON,R (1989)

> <LogOH>
-14.769551078621719

$$$$
100403
  -INDIGO-08031719142D

  8  7  0  0  0  0  0  0  0  0999 V2000
    0.0000    0.0000    0.0000 C   0  0  0  0  0  0  0  0  0  0  0  0
    1.6000    0.0000    0.0000 C   0  0  0  0  0  0  0  0  0  0  0  0
    3.2000    0.0000    0.0000 H   0  0  0  0  0  0  0  0  0  0  0  0
    2.4000   -1.3856    0.0000 H   0  0  0  0  0  0  0  0  0  0  0  0
    2.4000    1.3856    0.0000 Br  0  0  0  0  0  0  0  0  0  0  0  0
   -1.6000   -0.0000    0.0000 F   0  0  0  0  0  0  0  0  0  0  0  0
   -0.8000   -1.3856    0.0000 F   0  0  0  0  0  0  0  0  0  0  0  0
   -0.8000    1.3856    0.0000 F   0  0  0  0  0  0  0  0  0  0  0  0
  1  2  1  0  0  0  0
  2  3  1  0  0  0  0
  2  4  1  0  0  0  0
  2  5  1  0  0  0  0
  1  6  1  0  0  0  0
  1  7  1  0  0  0  0
  1  8  1  0  0  0  0
M  END
> <ChemID>
100403

> <source_casrn>
421-06-7

> <CAS>
30283-91-1

> <SMILES>
FC(F)(F)CBr

> <NAME>
1,1,1-Trifluoro-2-bromoethane

> <preferred_name>
Bromotrifluoroethane

> <iupac>
2-Bromo-1,1,1-trifluoroethane

> <MPID>
98950

> <dsstox_substance_id>
DTXSID2074324

> <Canonical_QSARr>
FC(F)(F)CBr

> <InChI_Code_QSARr>
InChI=1S/C2H2BrF3/c3-1-2(4,5)6/h1H2

> <InChI Key_QSARr>
TZNJHEHAYZJBHR-UHFFFAOYSA-N

> <OH>
2.05E-14

> <OH Temperature>
25.0

> <OH Data Type>
EXP

> <OH Reference>
ORKIN,VL & KHAMAGANOV,VG (1993)

> <LogOH>
-13.688246138944235

$$$$
100404
  -INDIGO-08031719142D

  9  8  0  0  0  0  0  0  0  0999 V2000
   -0.0000    0.0000    0.0000 C   0  0  0  0  0  0  0  0  0  0  0  0
    1.3856    0.8000    0.0000 F   0  0  0  0  0  0  0  0  0  0  0  0
   -0.0000    1.6000    0.0000 F   0  0  0  0  0  0  0  0  0  0  0  0
    1.3856   -0.8000    0.0000 F   0  0  0  0  0  0  0  0  0  0  0  0
   -1.3856   -0.8000    0.0000 O   0  0  0  0  0  0  0  0  0  0  0  0
   -2.7713    0.0000    0.0000 C   0  0  0  0  0  0  0  0  0  0  0  0
   -4.1569    0.8000    0.0000 H   0  0  0  0  0  0  0  0  0  0  0  0
   -4.1569   -0.8000    0.0000 H   0  0  0  0  0  0  0  0  0  0  0  0
   -2.7713    1.6000    0.0000 H   0  0  0  0  0  0  0  0  0  0  0  0
  1  2  1  0  0  0  0
  1  3  1  0  0  0  0
  1  4  1  0  0  0  0
  1  5  1  0  0  0  0
  5  6  1  0  0  0  0
  6  7  1  0  0  0  0
  6  8  1  0  0  0  0
  6  9  1  0  0  0  0
M  END
> <ChemID>
100404

> <source_casrn>
421-14-7

> <CAS>
421-14-7

> <SMILES>
COC(F)(F)F

> <NAME>
1,1,1-Trifluoromethyl methyl ether

> <preferred_name>
Methane, trifluoromethoxy-

> <iupac>
trifluoro-methoxymethane

> <MPID>
98951

> <dsstox_substance_id>
DTXSID5073903

> <Canonical_QSARr>
COC(F)(F)F

> <InChI_Code_QSARr>
InChI=1S/C2H3F3O/c1-6-2(3,4)5/h1H3

> <InChI Key_QSARr>
JRHMNRMPVRXNOS-UHFFFAOYSA-N

> <OH>
2.14E-14

> <OH Temperature>
25.0

> <OH Data Type>
EXP

> <OH Reference>
KWOK,ESC & ATKINSON,R (1994)

> <LogOH>
-13.669586226650816

$$$$
100406
  -INDIGO-08031719142D

 12 11  0  0  0  0  0  0  0  0999 V2000
    0.0000    0.0000    0.0000 C   0  0  0  0  0  0  0  0  0  0  0  0
    1.3856    0.8000    0.0000 C   0  0  0  0  0  0  0  0  0  0  0  0
    2.7713    1.6000    0.0000 F   0  0  0  0  0  0  0  0  0  0  0  0
    2.7713    0.0000    0.0000 F   0  0  0  0  0  0  0  0  0  0  0  0
    1.3856    2.4000    0.0000 F   0  0  0  0  0  0  0  0  0  0  0  0
   -1.3856    0.8000    0.0000 C   0  0  0  0  0  0  0  0  0  0  0  0
   -0.7733    2.2782    0.0000 H   0  0  0  0  0  0  0  0  0  0  0  0
   -1.9980    2.2782    0.0000 H   0  0  0  0  0  0  0  0  0  0  0  0
   -2.7713    0.0000    0.0000 O   0  0  0  0  0  0  0  0  0  0  0  0
   -4.1569    0.8000    0.0000 H   0  0  0  0  0  0  0  0  0  0  0  0
   -0.6123   -1.4782    0.0000 F   0  0  0  0  0  0  0  0  0  0  0  0
    0.6123   -1.4782    0.0000 F   0  0  0  0  0  0  0  0  0  0  0  0
  1  2  1  0  0  0  0
  2  3  1  0  0  0  0
  2  4  1  0  0  0  0
  2  5  1  0  0  0  0
  1  6  1  0  0  0  0
  6  7  1  0  0  0  0
  6  8  1  0  0  0  0
  6  9  1  0  0  0  0
  9 10  1  0  0  0  0
  1 11  1  0  0  0  0
  1 12  1  0  0  0  0
M  END
> <ChemID>
100406

> <source_casrn>
422-05-9

> <CAS>
422-05-9

> <SMILES>
OCC(F)(F)C(F)(F)F

> <NAME>
PENTAFLUORO-1-PROPANOL

> <preferred_name>
1-Propanol, 2,2,3,3,3-pentafluoro-

> <iupac>
2,2,3,3,3-pentafluoropropan-1-ol

> <MPID>
98953

> <dsstox_substance_id>
DTXSID4059966

> <Canonical_QSARr>
OCC(F)(F)C(F)(F)F

> <InChI_Code_QSARr>
InChI=1S/C3H3F5O/c4-2(5,1-9)3(6,7)8/h9H,1H2

> <InChI Key_QSARr>
PSQZJKGXDGNDFP-UHFFFAOYSA-N

> <OH>
9.289999999999998E-14

> <OH Temperature>
25.0

> <OH Data Type>
EXP

> <OH Reference>
INOUE,G (1998)

> <LogOH>
-13.03198428600636

$$$$
100407
  -INDIGO-08031719142D

 11 10  0  0  0  0  0  0  0  0999 V2000
   -1.3856    0.8000    0.0000 C   0  0  0  0  0  0  0  0  0  0  0  0
    0.0000    0.0000    0.0000 C   0  0  0  0  0  0  0  0  0  0  0  0
    1.3856    0.8000    0.0000 C   0  0  0  0  0  0  0  0  0  0  0  0
    2.7713    1.6000    0.0000 H   0  0  0  0  0  0  0  0  0  0  0  0
    2.7713    0.0000    0.0000 Cl  0  0  0  0  0  0  0  0  0  0  0  0
    1.3856    2.4000    0.0000 Cl  0  0  0  0  0  0  0  0  0  0  0  0
   -0.6123   -1.4782    0.0000 F   0  0  0  0  0  0  0  0  0  0  0  0
    0.6123   -1.4782    0.0000 F   0  0  0  0  0  0  0  0  0  0  0  0
   -2.7713    1.6000    0.0000 F   0  0  0  0  0  0  0  0  0  0  0  0
   -2.7713    0.0000    0.0000 F   0  0  0  0  0  0  0  0  0  0  0  0
   -1.3856    2.4000    0.0000 F   0  0  0  0  0  0  0  0  0  0  0  0
  1  2  1  0  0  0  0
  2  3  1  0  0  0  0
  3  4  1  0  0  0  0
  3  5  1  0  0  0  0
  3  6  1  0  0  0  0
  2  7  1  0  0  0  0
  2  8  1  0  0  0  0
  1  9  1  0  0  0  0
  1 10  1  0  0  0  0
  1 11  1  0  0  0  0
M  END
> <ChemID>
100407

> <source_casrn>
422-56-0

> <CAS>
422-56-0

> <SMILES>
FC(F)(F)C(F)(F)C(Cl)Cl

> <NAME>
3,3-Dichloro-1,1,1,2,2-pentafluoropropane

> <preferred_name>
3,3-dichloro-1,1,1,2,2-pentafluoropropane

> <iupac>
3,3-dichloro-1,1,1,2,2-pentafluoropropane

> <MPID>
98954

> <dsstox_substance_id>
DTXSID1042027

> <Canonical_QSARr>
FC(F)(F)C(F)(F)C(Cl)Cl

> <InChI_Code_QSARr>
InChI=1S/C3HCl2F5/c4-1(5)2(6,7)3(8,9)10/h1H

> <InChI Key_QSARr>
COAUHYBSXMIJDK-UHFFFAOYSA-N

> <OH>
2.5E-14

> <OH Temperature>
25.0

> <OH Data Type>
EXP

> <OH Reference>
ATKINSON,R (1994)

> <LogOH>
-13.602059991327968

$$$$
100408
  -INDIGO-08031719142D

 10 10  0  0  0  0  0  0  0  0999 V2000
   -0.0000    0.0000    0.0000 C   0  0  0  0  0  0  0  0  0  0  0  0
    1.3857   -0.8000    0.0000 C   0  0  0  0  0  0  0  0  0  0  0  0
    2.1856    0.5857    0.0000 F   0  0  0  0  0  0  0  0  0  0  0  0
    2.7713   -1.6000    0.0000 F   0  0  0  0  0  0  0  0  0  0  0  0
    0.5857   -2.1856    0.0000 O   0  0  0  0  0  0  0  0  0  0  0  0
   -0.8000   -1.3856    0.0000 C   0  0  0  0  0  0  0  0  0  0  0  0
   -1.6000   -2.7713    0.0000 F   0  0  0  0  0  0  0  0  0  0  0  0
   -2.1856   -0.5857    0.0000 F   0  0  0  0  0  0  0  0  0  0  0  0
   -1.3856    0.8000    0.0000 F   0  0  0  0  0  0  0  0  0  0  0  0
    0.8000    1.3856    0.0000 F   0  0  0  0  0  0  0  0  0  0  0  0
  1  2  1  0  0  0  0
  2  3  1  0  0  0  0
  2  4  1  0  0  0  0
  2  5  1  0  0  0  0
  5  6  1  0  0  0  0
  6  1  1  0  0  0  0
  6  7  1  0  0  0  0
  6  8  1  0  0  0  0
  1  9  1  0  0  0  0
  1 10  1  0  0  0  0
M  END
> <ChemID>
100408

> <source_casrn>
425-82-1

> <CAS>
425-82-1

> <SMILES>
FC1(F)C(F)(F)OC1(F)F

> <NAME>
HEXAFLUORO OXETANE

> <preferred_name>
Oxetane, hexafluoro-

> <iupac>
2,2,3,3,4,4-hexafluorooxetane

> <MPID>
98955

> <dsstox_substance_id>
DTXSID5073907

> <Canonical_QSARr>
FC1(F)C(F)(F)OC1(F)F

> <InChI_Code_QSARr>
InChI=1S/C3F6O/c4-1(5)2(6,7)10-3(1,8)9

> <InChI Key_QSARr>
ILIKFPWSIPNAPS-UHFFFAOYSA-N

> <OH>
2.0E-16

> <OH Temperature>
25.0

> <OH Data Type>
EXP

> <OH Reference>
AOP Database ; <2E-16

> <LogOH>
-15.698970004336024

$$$$
100411
  -INDIGO-08031719142D

  8  7  0  0  0  0  0  0  0  0999 V2000
    0.0000    0.0000    0.0000 C   0  0  0  0  0  0  0  0  0  0  0  0
    1.6000   -0.0000    0.0000 H   0  0  0  0  0  0  0  0  0  0  0  0
   -1.6000    0.0000    0.0000 C   0  0  0  0  0  0  0  0  0  0  0  0
   -3.2000    0.0000    0.0000 H   0  0  0  0  0  0  0  0  0  0  0  0
   -2.4000   -1.3856    0.0000 H   0  0  0  0  0  0  0  0  0  0  0  0
   -2.4000    1.3856    0.0000 F   0  0  0  0  0  0  0  0  0  0  0  0
    0.8000   -1.3856    0.0000 F   0  0  0  0  0  0  0  0  0  0  0  0
    0.8000    1.3856    0.0000 F   0  0  0  0  0  0  0  0  0  0  0  0
  1  2  1  0  0  0  0
  1  3  1  0  0  0  0
  3  4  1  0  0  0  0
  3  5  1  0  0  0  0
  3  6  1  0  0  0  0
  1  7  1  0  0  0  0
  1  8  1  0  0  0  0
M  END
> <ChemID>
100411

> <source_casrn>
430-66-0

> <CAS>
430-66-0

> <SMILES>
FCC(F)F

> <NAME>
1,1,2-TRIFLUOROETHANE

> <preferred_name>
HFC-143

> <iupac>
1,1,2-TRIFLUOROETHANE

> <MPID>
98957

> <dsstox_substance_id>
DTXSID8073182

> <Canonical_QSARr>
FCC(F)F

> <InChI_Code_QSARr>
InChI=1S/C2H3F3/c3-1-2(4)5/h2H,1H2

> <InChI Key_QSARr>
WGZYQOSEVSXDNI-UHFFFAOYSA-N

> <OH>
1.83E-14

> <OH Temperature>
25.0

> <OH Data Type>
EXP

> <OH Reference>
KWOK,ESC & ATKINSON,R (1994)

> <LogOH>
-13.737548910269565

$$$$
100412
  -INDIGO-08031719142D

  7  6  0  0  0  0  0  0  0  0999 V2000
    1.6000    0.0000    0.0000 C   0  0  0  0  0  0  0  0  0  0  0  0
    2.4000    1.3856    0.0000 H   0  0  0  0  0  0  0  0  0  0  0  0
    2.4000   -1.3856    0.0000 O   0  0  0  0  0  0  0  0  0  0  0  0
    0.0000    0.0000    0.0000 C   0  0  0  0  0  0  0  0  0  0  0  0
   -1.6000    0.0000    0.0000 H   0  0  0  0  0  0  0  0  0  0  0  0
   -0.8000    1.3856    0.0000 F   0  0  0  0  0  0  0  0  0  0  0  0
   -0.8000   -1.3856    0.0000 F   0  0  0  0  0  0  0  0  0  0  0  0
  1  2  1  0  0  0  0
  1  3  2  0  0  0  0
  1  4  1  0  0  0  0
  4  5  1  0  0  0  0
  4  6  1  0  0  0  0
  4  7  1  0  0  0  0
M  END
> <ChemID>
100412

> <source_casrn>
430-69-3

> <CAS>
430-69-3

> <SMILES>
O=CC(F)F

> <NAME>
DIFLUOROACETALDEHYDE

> <preferred_name>


> <iupac>


> <MPID>
98958

> <dsstox_substance_id>
DTXSID80878683

> <Canonical_QSARr>
O=CC(F)F

> <InChI_Code_QSARr>
InChI=1S/C2H2F2O/c3-2(4)1-5/h1-2H

> <InChI Key_QSARr>
DKNMRIXYSHIIGC-UHFFFAOYSA-N

> <OH>
1.55E-12

> <OH Temperature>
25.0

> <OH Data Type>
EXP

> <OH Reference>
SCOLLARD,DJ ET AL. (1993)

> <LogOH>
-11.80966830182971

$$$$
100413
  -INDIGO-08031719142D

 12 11  0  0  0  0  0  0  0  0999 V2000
    1.3856   -0.8000    0.0000 C   0  0  0  0  0  0  0  0  0  0  0  0
    2.7713   -1.6000    0.0000 H   0  0  0  0  0  0  0  0  0  0  0  0
    2.7713    0.0000    0.0000 H   0  0  0  0  0  0  0  0  0  0  0  0
    1.3856   -2.4000    0.0000 H   0  0  0  0  0  0  0  0  0  0  0  0
    0.0000    0.0000    0.0000 C   0  0  0  0  0  0  0  0  0  0  0  0
   -1.3856   -0.8000    0.0000 C   0  0  0  0  0  0  0  0  0  0  0  0
   -2.7713    0.0000    0.0000 C   0  0  0  0  0  0  0  0  0  0  0  0
   -4.1569    0.8000    0.0000 H   0  0  0  0  0  0  0  0  0  0  0  0
   -4.1569   -0.8000    0.0000 H   0  0  0  0  0  0  0  0  0  0  0  0
   -2.7713    1.6000    0.0000 H   0  0  0  0  0  0  0  0  0  0  0  0
   -1.3856   -2.4000    0.0000 O   0  0  0  0  0  0  0  0  0  0  0  0
    0.0000    1.6000    0.0000 O   0  0  0  0  0  0  0  0  0  0  0  0
  1  2  1  0  0  0  0
  1  3  1  0  0  0  0
  1  4  1  0  0  0  0
  1  5  1  0  0  0  0
  5  6  1  0  0  0  0
  6  7  1  0  0  0  0
  7  8  1  0  0  0  0
  7  9  1  0  0  0  0
  7 10  1  0  0  0  0
  6 11  2  0  0  0  0
  5 12  2  0  0  0  0
M  END
> <ChemID>
100413

> <source_casrn>
431-03-8

> <CAS>
431-03-8

> <SMILES>
CC(=O)C(C)=O

> <NAME>
2,3-BUTANEDIONE

> <preferred_name>
2,3-Butanedione

> <iupac>
butane-2,3-dione

> <MPID>
98959

> <dsstox_substance_id>
DTXSID6021583

> <Canonical_QSARr>
CC(=O)C(C)=O

> <InChI_Code_QSARr>
InChI=1S/C4H6O2/c1-3(5)4(2)6/h1-2H3

> <InChI Key_QSARr>
QSJXEFYPDANLFS-UHFFFAOYSA-N

> <OH>
2.38E-13

> <OH Temperature>
25.0

> <OH Data Type>
EXP

> <OH Reference>
ATKINSON,R (1989)

> <LogOH>
-12.623423042943482

$$$$
100416
  -INDIGO-08031719142D

 11 10  0  0  0  0  0  0  0  0999 V2000
   -1.3856    0.8000    0.0000 C   0  0  0  0  0  0  0  0  0  0  0  0
    0.0000    0.0000    0.0000 C   0  0  0  0  0  0  0  0  0  0  0  0
   -0.6123   -1.4782    0.0000 H   0  0  0  0  0  0  0  0  0  0  0  0
    1.3856    0.8000    0.0000 C   0  0  0  0  0  0  0  0  0  0  0  0
    2.7713    1.6000    0.0000 F   0  0  0  0  0  0  0  0  0  0  0  0
    2.7713    0.0000    0.0000 F   0  0  0  0  0  0  0  0  0  0  0  0
    1.3856    2.4000    0.0000 F   0  0  0  0  0  0  0  0  0  0  0  0
    0.6123   -1.4782    0.0000 F   0  0  0  0  0  0  0  0  0  0  0  0
   -2.7713    1.6000    0.0000 F   0  0  0  0  0  0  0  0  0  0  0  0
   -2.7713    0.0000    0.0000 F   0  0  0  0  0  0  0  0  0  0  0  0
   -1.3856    2.4000    0.0000 F   0  0  0  0  0  0  0  0  0  0  0  0
  1  2  1  0  0  0  0
  2  3  1  0  0  0  0
  2  4  1  0  0  0  0
  4  5  1  0  0  0  0
  4  6  1  0  0  0  0
  4  7  1  0  0  0  0
  2  8  1  0  0  0  0
  1  9  1  0  0  0  0
  1 10  1  0  0  0  0
  1 11  1  0  0  0  0
M  END
> <ChemID>
100416

> <source_casrn>
431-89-0

> <CAS>
431-89-0

> <SMILES>
FC(C(F)(F)F)C(F)(F)F

> <NAME>
HFC-227ea (heptafluoropropane)

> <preferred_name>
1,1,1,2,3,3,3-heptafluoropropane

> <iupac>
1,1,1,2,3,3,3-heptafluoropropane

> <MPID>
98961

> <dsstox_substance_id>
DTXSID4042048

> <Canonical_QSARr>
FC(C(F)(F)F)C(F)(F)F

> <InChI_Code_QSARr>
InChI=1S/C3HF7/c4-1(2(5,6)7)3(8,9)10/h1H

> <InChI Key_QSARr>
YFMFNYKEUDLDTL-UHFFFAOYSA-N

> <OH>
1.62E-15

> <OH Temperature>
25.0

> <OH Data Type>
EXP

> <OH Reference>
ZHANG,Z ET AL. (1994)

> <LogOH>
-14.790484985457372

$$$$
100417
  -INDIGO-08031719142D

 17 17  0  0  0  0  0  0  0  0999 V2000
    3.2000    2.7713    0.0000 O   0  0  0  0  0  0  0  0  0  0  0  0
    4.8000    2.7713    0.0000 H   0  0  0  0  0  0  0  0  0  0  0  0
    2.4000    1.3856    0.0000 C   0  0  0  0  0  0  0  0  0  0  0  0
    3.2000   -0.0000    0.0000 C   0  0  0  0  0  0  0  0  0  0  0  0
    4.8000   -0.0000    0.0000 O   0  0  0  0  0  0  0  0  0  0  0  0
    5.6000   -1.3856    0.0000 H   0  0  0  0  0  0  0  0  0  0  0  0
    2.4000   -1.3856    0.0000 C   0  0  0  0  0  0  0  0  0  0  0  0
    3.2000   -2.7713    0.0000 H   0  0  0  0  0  0  0  0  0  0  0  0
    0.8000   -1.3856    0.0000 C   0  0  0  0  0  0  0  0  0  0  0  0
    0.0000   -2.7713    0.0000 H   0  0  0  0  0  0  0  0  0  0  0  0
    0.0000   -0.0000    0.0000 C   0  0  0  0  0  0  0  0  0  0  0  0
   -1.6001   -0.0000    0.0000 C   0  0  0  0  0  0  0  0  0  0  0  0
   -3.2000    0.0000    0.0000 H   0  0  0  0  0  0  0  0  0  0  0  0
   -2.4000   -1.3856    0.0000 H   0  0  0  0  0  0  0  0  0  0  0  0
   -2.4000    1.3856    0.0000 H   0  0  0  0  0  0  0  0  0  0  0  0
    0.8000    1.3856    0.0000 C   0  0  0  0  0  0  0  0  0  0  0  0
    0.0000    2.7713    0.0000 H   0  0  0  0  0  0  0  0  0  0  0  0
  1  2  1  0  0  0  0
  1  3  1  0  0  0  0
  3  4  1  0  0  0  0
  4  5  1  0  0  0  0
  5  6  1  0  0  0  0
  4  7  2  0  0  0  0
  7  8  1  0  0  0  0
  7  9  1  0  0  0  0
  9 10  1  0  0  0  0
  9 11  2  0  0  0  0
 11 12  1  0  0  0  0
 12 13  1  0  0  0  0
 12 14  1  0  0  0  0
 12 15  1  0  0  0  0
 11 16  1  0  0  0  0
 16  3  2  0  0  0  0
 16 17  1  0  0  0  0
M  END
> <ChemID>
100417

> <source_casrn>
452-86-8

> <CAS>
452-86-8

> <SMILES>
Cc1cc(O)c(O)cc1

> <NAME>
1,2-BENZENEDIOL, 4-METHYL-

> <preferred_name>
4-Methylcatechol

> <iupac>
4-methylbenzene-1,2-diol

> <MPID>
98962

> <dsstox_substance_id>
DTXSID5020861

> <Canonical_QSARr>
Cc1cc(O)c(O)cc1

> <InChI_Code_QSARr>
InChI=1S/C7H8O2/c1-5-2-3-6(8)7(9)4-5/h2-4,8-9H,1H3

> <InChI Key_QSARr>
ZBCATMYQYDCTIZ-UHFFFAOYSA-N

> <OH>
1.56E-10

> <OH Temperature>
27.0

> <OH Data Type>
EXP

> <OH Reference>
OLARIU,RI ET AL. (2000)

> <LogOH>
-9.806875401645533

$$$$
100418
  -INDIGO-08031719142D

  6  5  0  0  0  0  0  0  0  0999 V2000
    0.0000    0.0000    0.0000 C   0  0  0  0  0  0  0  0  0  0  0  0
    1.6000    0.0000    0.0000 C   0  0  0  0  0  0  0  0  0  0  0  0
    3.2000    0.0000    0.0000 H   0  0  0  0  0  0  0  0  0  0  0  0
   -1.6000    0.0000    0.0000 C   0  0  0  0  0  0  0  0  0  0  0  0
   -3.2000    0.0000    0.0000 C   0  0  0  0  0  0  0  0  0  0  0  0
   -4.8000    0.0000    0.0000 H   0  0  0  0  0  0  0  0  0  0  0  0
  1  2  3  0  0  0  0
  2  3  1  0  0  0  0
  1  4  1  0  0  0  0
  4  5  3  0  0  0  0
  5  6  1  0  0  0  0
M  END
> <ChemID>
100418

> <source_casrn>
460-12-8

> <CAS>
460-12-8

> <SMILES>
C#CC#C

> <NAME>
DIACETYLENE

> <preferred_name>
1,3-Butadiyne

> <iupac>
buta-1,3-diyne

> <MPID>
98963

> <dsstox_substance_id>
DTXSID8060036

> <Canonical_QSARr>
C#CC#C

> <InChI_Code_QSARr>
InChI=1S/C4H2/c1-3-4-2/h1-2H

> <InChI Key_QSARr>
LLCSWKVOHICRDD-UHFFFAOYSA-N

> <OH>
1.89E-11

> <OH Temperature>
25.0

> <OH Data Type>
EXP

> <OH Reference>
ATKINSON,R (1989)

> <LogOH>
-10.723538195826775

$$$$
100420
  -INDIGO-08031719142D

 11 10  0  0  0  0  0  0  0  0999 V2000
    1.3856    0.8000    0.0000 C   0  0  0  0  0  0  0  0  0  0  0  0
    2.7713    1.6000    0.0000 H   0  0  0  0  0  0  0  0  0  0  0  0
    0.0000    0.0000    0.0000 C   0  0  0  0  0  0  0  0  0  0  0  0
    0.6123   -1.4782    0.0000 H   0  0  0  0  0  0  0  0  0  0  0  0
   -0.6123   -1.4782    0.0000 H   0  0  0  0  0  0  0  0  0  0  0  0
   -1.3856    0.8000    0.0000 C   0  0  0  0  0  0  0  0  0  0  0  0
   -2.7713    1.6000    0.0000 F   0  0  0  0  0  0  0  0  0  0  0  0
   -2.7713    0.0000    0.0000 F   0  0  0  0  0  0  0  0  0  0  0  0
   -1.3856    2.4000    0.0000 F   0  0  0  0  0  0  0  0  0  0  0  0
    2.7713    0.0000    0.0000 F   0  0  0  0  0  0  0  0  0  0  0  0
    1.3856    2.4000    0.0000 F   0  0  0  0  0  0  0  0  0  0  0  0
  1  2  1  0  0  0  0
  1  3  1  0  0  0  0
  3  4  1  0  0  0  0
  3  5  1  0  0  0  0
  3  6  1  0  0  0  0
  6  7  1  0  0  0  0
  6  8  1  0  0  0  0
  6  9  1  0  0  0  0
  1 10  1  0  0  0  0
  1 11  1  0  0  0  0
M  END
> <ChemID>
100420

> <source_casrn>
460-73-1

> <CAS>
460-73-1

> <SMILES>
FC(F)CC(F)(F)F

> <NAME>
HFC-245fa

> <preferred_name>
1,1,1,3,3-Pentafluoropropane

> <iupac>
1,1,1,3,3-pentafluoropropane

> <MPID>
98965

> <dsstox_substance_id>
DTXSID6052110

> <Canonical_QSARr>
FC(F)CC(F)(F)F

> <InChI_Code_QSARr>
InChI=1S/C3H3F5/c4-2(5)1-3(6,7)8/h2H,1H2

> <InChI Key_QSARr>
MSSNHSVIGIHOJA-UHFFFAOYSA-N

> <OH>
7.280000000000002E-15

> <OH Temperature>
25.0

> <OH Data Type>
EXP

> <OH Reference>
ORKIN,VL ET AL. (1996)

> <LogOH>
-14.137868620686964

$$$$
100421
  -INDIGO-08031719142D

 12 12  0  0  0  0  0  0  0  0999 V2000
    0.8000    1.3856    0.0000 F   0  0  0  0  0  0  0  0  0  0  0  0
   -0.0000   -0.0000    0.0000 C   0  0  0  0  0  0  0  0  0  0  0  0
    0.8000   -1.3857    0.0000 C   0  0  0  0  0  0  0  0  0  0  0  0
    2.4000   -1.3857    0.0000 H   0  0  0  0  0  0  0  0  0  0  0  0
   -0.0000   -2.7713    0.0000 C   0  0  0  0  0  0  0  0  0  0  0  0
    0.8000   -4.1569    0.0000 H   0  0  0  0  0  0  0  0  0  0  0  0
   -1.6000   -2.7713    0.0000 C   0  0  0  0  0  0  0  0  0  0  0  0
   -2.4000   -4.1569    0.0000 H   0  0  0  0  0  0  0  0  0  0  0  0
   -2.4000   -1.3856    0.0000 C   0  0  0  0  0  0  0  0  0  0  0  0
   -4.0000   -1.3856    0.0000 H   0  0  0  0  0  0  0  0  0  0  0  0
   -1.6000   -0.0000    0.0000 C   0  0  0  0  0  0  0  0  0  0  0  0
   -2.4000    1.3856    0.0000 H   0  0  0  0  0  0  0  0  0  0  0  0
  1  2  1  0  0  0  0
  2  3  1  0  0  0  0
  3  4  1  0  0  0  0
  3  5  2  0  0  0  0
  5  6  1  0  0  0  0
  5  7  1  0  0  0  0
  7  8  1  0  0  0  0
  7  9  2  0  0  0  0
  9 10  1  0  0  0  0
  9 11  1  0  0  0  0
 11  2  2  0  0  0  0
 11 12  1  0  0  0  0
M  END
> <ChemID>
100421

> <source_casrn>
462-06-6

> <CAS>
462-06-6

> <SMILES>
Fc1ccccc1

> <NAME>
FLUOROBENZENE

> <preferred_name>
Fluorobenzene

> <iupac>
fluorobenzene

> <MPID>
98966

> <dsstox_substance_id>
DTXSID4025329

> <Canonical_QSARr>
Fc1ccccc1

> <InChI_Code_QSARr>
InChI=1S/C6H5F/c7-6-4-2-1-3-5-6/h1-5H

> <InChI Key_QSARr>
PYLWMHQQBFSUBP-UHFFFAOYSA-N

> <OH>
6.900000000000002E-13

> <OH Temperature>
25.0

> <OH Data Type>
EXP

> <OH Reference>
ATKINSON,R (1989)

> <LogOH>
-12.161150909262753

$$$$
100422
  -INDIGO-08031719142D

 19 18  0  0  0  0  0  0  0  0999 V2000
    1.3856    0.8000    0.0000 C   0  0  0  0  0  0  0  0  0  0  0  0
    2.7713    1.6000    0.0000 H   0  0  0  0  0  0  0  0  0  0  0  0
    2.7713    0.0000    0.0000 H   0  0  0  0  0  0  0  0  0  0  0  0
    1.3856    2.4000    0.0000 H   0  0  0  0  0  0  0  0  0  0  0  0
   -0.0000    0.0000    0.0000 C   0  0  0  0  0  0  0  0  0  0  0  0
    0.6123   -1.4782    0.0000 H   0  0  0  0  0  0  0  0  0  0  0  0
   -0.6124   -1.4782    0.0000 H   0  0  0  0  0  0  0  0  0  0  0  0
   -1.3857    0.8000    0.0000 O   0  0  0  0  0  0  0  0  0  0  0  0
   -2.7714    0.0000    0.0000 C   0  0  0  0  0  0  0  0  0  0  0  0
   -2.1590   -1.4782    0.0000 H   0  0  0  0  0  0  0  0  0  0  0  0
   -3.3835   -1.4782    0.0000 H   0  0  0  0  0  0  0  0  0  0  0  0
   -4.1569    0.8000    0.0000 O   0  0  0  0  0  0  0  0  0  0  0  0
   -5.5425    0.0000    0.0000 C   0  0  0  0  0  0  0  0  0  0  0  0
   -4.9302   -1.4782    0.0000 H   0  0  0  0  0  0  0  0  0  0  0  0
   -6.1548   -1.4782    0.0000 H   0  0  0  0  0  0  0  0  0  0  0  0
   -6.9282    0.8000    0.0000 C   0  0  0  0  0  0  0  0  0  0  0  0
   -8.3138    1.6000    0.0000 H   0  0  0  0  0  0  0  0  0  0  0  0
   -8.3138    0.0000    0.0000 H   0  0  0  0  0  0  0  0  0  0  0  0
   -6.9282    2.4000    0.0000 H   0  0  0  0  0  0  0  0  0  0  0  0
  1  2  1  0  0  0  0
  1  3  1  0  0  0  0
  1  4  1  0  0  0  0
  1  5  1  0  0  0  0
  5  6  1  0  0  0  0
  5  7  1  0  0  0  0
  5  8  1  0  0  0  0
  8  9  1  0  0  0  0
  9 10  1  0  0  0  0
  9 11  1  0  0  0  0
  9 12  1  0  0  0  0
 12 13  1  0  0  0  0
 13 14  1  0  0  0  0
 13 15  1  0  0  0  0
 13 16  1  0  0  0  0
 16 17  1  0  0  0  0
 16 18  1  0  0  0  0
 16 19  1  0  0  0  0
M  END
> <ChemID>
100422

> <source_casrn>
462-95-3

> <CAS>
462-95-3

> <SMILES>
CCOCOCC

> <NAME>
DIETHOXYMETHANE

> <preferred_name>
Diethoxymethane

> <iupac>
(ethoxymethoxy)ethane

> <MPID>
98967

> <dsstox_substance_id>
DTXSID6052112

> <Canonical_QSARr>
CCOCOCC

> <InChI_Code_QSARr>
InChI=1S/C5H12O2/c1-3-6-5-7-4-2/h3-5H2,1-2H3

> <InChI Key_QSARr>
KLKFAASOGCDTDT-UHFFFAOYSA-N

> <OH>
1.68E-11

> <OH Temperature>
25.0

> <OH Data Type>
EXP

> <OH Reference>
ATKINSON,R (1989)

> <LogOH>
-10.77469071827412

$$$$
100424
  -INDIGO-08031719142D

  5  4  0  0  0  0  0  0  0  0999 V2000
    0.0000    0.0000    0.0000 C   0  0  0  0  0  0  0  0  0  0  0  0
    0.8000    1.3856    0.0000 H   0  0  0  0  0  0  0  0  0  0  0  0
    0.8000   -1.3856    0.0000 H   0  0  0  0  0  0  0  0  0  0  0  0
   -1.6000    0.0000    0.0000 C   0  0  0  0  0  0  0  0  0  0  0  0
   -3.2000    0.0000    0.0000 O   0  0  0  0  0  0  0  0  0  0  0  0
  1  2  1  0  0  0  0
  1  3  1  0  0  0  0
  1  4  2  0  0  0  0
  4  5  2  0  0  0  0
M  END
> <ChemID>
100424

> <source_casrn>
463-51-4

> <CAS>
463-51-4

> <SMILES>
C=C=O

> <NAME>
KETENE

> <preferred_name>
Ketene

> <iupac>
ethenone

> <MPID>
98969

> <dsstox_substance_id>
DTXSID1052113

> <Canonical_QSARr>
C=C=O

> <InChI_Code_QSARr>
InChI=1S/C2H2O/c1-2-3/h1H2

> <InChI Key_QSARr>
CCGKOQOJPYTBIH-UHFFFAOYSA-N

> <OH>
1.73E-11

> <OH Temperature>
25.0

> <OH Data Type>
EXP

> <OH Reference>
ATKINSON,R (1989)

> <LogOH>
-10.761953896871196

$$$$
100425
  -INDIGO-08031719142D

 17 16  0  0  0  0  0  0  0  0999 V2000
    0.8000   -1.3856    0.0000 C   0  0  0  0  0  0  0  0  0  0  0  0
    1.6000   -2.7713    0.0000 H   0  0  0  0  0  0  0  0  0  0  0  0
   -0.0000   -2.7713    0.0000 H   0  0  0  0  0  0  0  0  0  0  0  0
    2.4000   -1.3856    0.0000 H   0  0  0  0  0  0  0  0  0  0  0  0
   -0.0000    0.0000    0.0000 C   0  0  0  0  0  0  0  0  0  0  0  0
   -0.8000    1.3856    0.0000 C   0  0  0  0  0  0  0  0  0  0  0  0
   -1.6000    2.7713    0.0000 H   0  0  0  0  0  0  0  0  0  0  0  0
   -2.4000    1.3856    0.0000 H   0  0  0  0  0  0  0  0  0  0  0  0
   -0.0000    2.7713    0.0000 H   0  0  0  0  0  0  0  0  0  0  0  0
    1.3856    0.8000    0.0000 C   0  0  0  0  0  0  0  0  0  0  0  0
    2.7713    1.6000    0.0000 H   0  0  0  0  0  0  0  0  0  0  0  0
    2.7713    0.0000    0.0000 H   0  0  0  0  0  0  0  0  0  0  0  0
    1.3856    2.4000    0.0000 H   0  0  0  0  0  0  0  0  0  0  0  0
   -1.3856   -0.8000    0.0000 C   0  0  0  0  0  0  0  0  0  0  0  0
   -2.7713   -1.6000    0.0000 H   0  0  0  0  0  0  0  0  0  0  0  0
   -1.3856   -2.4000    0.0000 H   0  0  0  0  0  0  0  0  0  0  0  0
   -2.7713    0.0000    0.0000 H   0  0  0  0  0  0  0  0  0  0  0  0
  1  2  1  0  0  0  0
  1  3  1  0  0  0  0
  1  4  1  0  0  0  0
  1  5  1  0  0  0  0
  5  6  1  0  0  0  0
  6  7  1  0  0  0  0
  6  8  1  0  0  0  0
  6  9  1  0  0  0  0
  5 10  1  0  0  0  0
 10 11  1  0  0  0  0
 10 12  1  0  0  0  0
 10 13  1  0  0  0  0
  5 14  1  0  0  0  0
 14 15  1  0  0  0  0
 14 16  1  0  0  0  0
 14 17  1  0  0  0  0
M  END
> <ChemID>
100425

> <source_casrn>
463-82-1

> <CAS>
463-82-1

> <SMILES>
CC(C)(C)C

> <NAME>
2,2-DIMETHYLPROPANE

> <preferred_name>
Propane, 2,2-dimethyl-

> <iupac>
2,2-dimethylpropane

> <MPID>
98970

> <dsstox_substance_id>
DTXSID6029179

> <Canonical_QSARr>
CC(C)(C)C

> <InChI_Code_QSARr>
InChI=1S/C5H12/c1-5(2,3)4/h1-4H3

> <InChI Key_QSARr>
CRSOQBOWXPBRES-UHFFFAOYSA-N

> <OH>
8.490000000000001E-13

> <OH Temperature>
25.0

> <OH Data Type>
EXP

> <OH Reference>
ATKINSON,R (1989)

> <LogOH>
-12.07109230975603

$$$$
100426
  -INDIGO-08031719142D

 23 22  0  0  0  0  0  0  0  0999 V2000
   -0.0000   -0.0000    0.0000 C   0  0  0  0  0  0  0  0  0  0  0  0
    1.3856    0.8000    0.0000 C   0  0  0  0  0  0  0  0  0  0  0  0
    0.1600    1.8284    0.0000 H   0  0  0  0  0  0  0  0  0  0  0  0
    2.1856    2.1857    0.0000 C   0  0  0  0  0  0  0  0  0  0  0  0
    2.9857    3.5713    0.0000 H   0  0  0  0  0  0  0  0  0  0  0  0
    1.3856    3.5713    0.0000 H   0  0  0  0  0  0  0  0  0  0  0  0
    3.7856    2.1857    0.0000 H   0  0  0  0  0  0  0  0  0  0  0  0
    2.6113   -0.2284    0.0000 C   0  0  0  0  0  0  0  0  0  0  0  0
    4.1148    0.3188    0.0000 H   0  0  0  0  0  0  0  0  0  0  0  0
    3.8370   -1.2569    0.0000 H   0  0  0  0  0  0  0  0  0  0  0  0
    2.8891    1.3472    0.0000 H   0  0  0  0  0  0  0  0  0  0  0  0
   -1.3857   -0.8000    0.0000 C   0  0  0  0  0  0  0  0  0  0  0  0
   -2.7713   -1.6000    0.0000 H   0  0  0  0  0  0  0  0  0  0  0  0
   -2.7713   -0.0000    0.0000 H   0  0  0  0  0  0  0  0  0  0  0  0
   -1.3857   -2.4000    0.0000 H   0  0  0  0  0  0  0  0  0  0  0  0
   -0.8000    1.3857    0.0000 C   0  0  0  0  0  0  0  0  0  0  0  0
   -1.6000    2.7713    0.0000 H   0  0  0  0  0  0  0  0  0  0  0  0
   -2.4001    1.3857    0.0000 H   0  0  0  0  0  0  0  0  0  0  0  0
   -0.2527    2.8892    0.0000 H   0  0  0  0  0  0  0  0  0  0  0  0
    0.8000   -1.3857    0.0000 C   0  0  0  0  0  0  0  0  0  0  0  0
    1.6000   -2.7713    0.0000 H   0  0  0  0  0  0  0  0  0  0  0  0
   -0.0000   -2.7713    0.0000 H   0  0  0  0  0  0  0  0  0  0  0  0
    2.4000   -1.3857    0.0000 H   0  0  0  0  0  0  0  0  0  0  0  0
  1  2  1  0  0  0  0
  2  3  1  0  0  0  0
  2  4  1  0  0  0  0
  4  5  1  0  0  0  0
  4  6  1  0  0  0  0
  4  7  1  0  0  0  0
  2  8  1  0  0  0  0
  8  9  1  0  0  0  0
  8 10  1  0  0  0  0
  8 11  1  0  0  0  0
  1 12  1  0  0  0  0
 12 13  1  0  0  0  0
 12 14  1  0  0  0  0
 12 15  1  0  0  0  0
  1 16  1  0  0  0  0
 16 17  1  0  0  0  0
 16 18  1  0  0  0  0
 16 19  1  0  0  0  0
  1 20  1  0  0  0  0
 20 21  1  0  0  0  0
 20 22  1  0  0  0  0
 20 23  1  0  0  0  0
M  END
> <ChemID>
100426

> <source_casrn>
464-06-2

> <CAS>
464-06-2

> <SMILES>
CC(C)C(C)(C)C

> <NAME>
2,2,3-TRIMETHYLBUTANE

> <preferred_name>
2,2,3-Trimethylbutane

> <iupac>
2,2,3-Trimethylbutane

> <MPID>
98971

> <dsstox_substance_id>
DTXSID7060047

> <Canonical_QSARr>
CC(C)C(C)(C)C

> <InChI_Code_QSARr>
InChI=1S/C7H16/c1-6(2)7(3,4)5/h6H,1-5H3

> <InChI Key_QSARr>
ZISSAWUMDACLOM-UHFFFAOYSA-N

> <OH>
4.23E-12

> <OH Temperature>
25.0

> <OH Data Type>
EXP

> <OH Reference>
ATKINSON,R (1989)

> <LogOH>
-11.373659632624973

$$$$
100428
  -INDIGO-08031719142D

 29 30  0  0  0  0  0  0  0  0999 V2000
    2.2369    0.5256    0.0000 C   0  0  0  0  0  0  0  0  0  0  0  0
    3.8356    0.5918    0.0000 H   0  0  0  0  0  0  0  0  0  0  0  0
    2.5473   -1.0441    0.0000 H   0  0  0  0  0  0  0  0  0  0  0  0
    1.1976   -0.0745    0.0000 C   0  0  0  0  0  0  0  0  0  0  0  0
    0.1194   -1.2565    0.0000 H   0  0  0  0  0  0  0  0  0  0  0  0
    0.9590   -0.8980    0.0000 H   0  0  0  0  0  0  0  0  0  0  0  0
   -0.0000    0.0000    0.0000 C   0  0  0  0  0  0  0  0  0  0  0  0
   -1.3857   -0.8000    0.0000 H   0  0  0  0  0  0  0  0  0  0  0  0
   -0.0000    1.6000    0.0000 C   0  0  0  0  0  0  0  0  0  0  0  0
    1.3856    2.4000    0.0000 O   0  0  0  0  0  0  0  0  0  0  0  0
    2.7713    1.6000    0.0000 C   0  0  0  0  0  0  0  0  0  0  0  0
    2.7713    0.0000    0.0000 C   0  0  0  0  0  0  0  0  0  0  0  0
    3.3185   -1.5035    0.0000 H   0  0  0  0  0  0  0  0  0  0  0  0
    4.3470   -0.2778    0.0000 H   0  0  0  0  0  0  0  0  0  0  0  0
    1.3856   -0.8000    0.0000 C   0  0  0  0  0  0  0  0  0  0  0  0
    1.4428   -1.6556    0.0000 H   0  0  0  0  0  0  0  0  0  0  0  0
    2.4141   -2.0257    0.0000 H   0  0  0  0  0  0  0  0  0  0  0  0
    4.1569    2.4000    0.0000 C   0  0  0  0  0  0  0  0  0  0  0  0
    5.5426    3.2000    0.0000 H   0  0  0  0  0  0  0  0  0  0  0  0
    4.1569    4.0000    0.0000 H   0  0  0  0  0  0  0  0  0  0  0  0
    5.5426    1.6000    0.0000 H   0  0  0  0  0  0  0  0  0  0  0  0
   -0.5472    3.1035    0.0000 C   0  0  0  0  0  0  0  0  0  0  0  0
   -1.0945    4.6070    0.0000 H   0  0  0  0  0  0  0  0  0  0  0  0
   -2.1229    3.3814    0.0000 H   0  0  0  0  0  0  0  0  0  0  0  0
    0.4813    4.3292    0.0000 H   0  0  0  0  0  0  0  0  0  0  0  0
   -1.5756    1.3222    0.0000 C   0  0  0  0  0  0  0  0  0  0  0  0
   -3.1514    1.0443    0.0000 H   0  0  0  0  0  0  0  0  0  0  0  0
   -2.6042    2.5478    0.0000 H   0  0  0  0  0  0  0  0  0  0  0  0
   -2.1229   -0.1814    0.0000 H   0  0  0  0  0  0  0  0  0  0  0  0
  1  2  1  0  0  0  0
  1  3  1  0  0  0  0
  1  4  1  0  0  0  0
  4  5  1  0  0  0  0
  4  6  1  0  0  0  0
  4  7  1  0  0  0  0
  7  8  1  0  0  0  0
  7  9  1  0  0  0  0
  9 10  1  0  0  0  0
 10 11  1  0  0  0  0
 11  1  1  0  0  0  0
 11 12  1  0  0  0  0
 12 13  1  0  0  0  0
 12 14  1  0  0  0  0
 12 15  1  0  0  0  0
 15  7  1  0  0  0  0
 15 16  1  0  0  0  0
 15 17  1  0  0  0  0
 11 18  1  0  0  0  0
 18 19  1  0  0  0  0
 18 20  1  0  0  0  0
 18 21  1  0  0  0  0
  9 22  1  0  0  0  0
 22 23  1  0  0  0  0
 22 24  1  0  0  0  0
 22 25  1  0  0  0  0
  9 26  1  0  0  0  0
 26 27  1  0  0  0  0
 26 28  1  0  0  0  0
 26 29  1  0  0  0  0
M  END
> <ChemID>
100428

> <source_casrn>
470-82-6

> <CAS>
470-82-6

> <SMILES>
CC1(C)OC2(C)CCC1CC2

> <NAME>
1,8-CINEOLE

> <preferred_name>
1,8-Cineol

> <iupac>
1,3,3-trimethyl-2-oxabicyclo[2.2.2]octane

> <MPID>
98973

> <dsstox_substance_id>
DTXSID4020616

> <Canonical_QSARr>
CC1(C)OC2(C)CCC1CC2

> <InChI_Code_QSARr>
InChI=1S/C10H18O/c1-9(2)8-4-6-10(3,11-9)7-5-8/h8H,4-7H2,1-3H3

> <InChI Key_QSARr>
WEEGYLXZBRQIMU-UHFFFAOYSA-N

> <OH>
1.11E-11

> <OH Temperature>
25.0

> <OH Data Type>
EXP

> <OH Reference>
CORCHNOY,SB & ATKINSON,R (1990)

> <LogOH>
-10.954677021213358

$$$$
100429
  -INDIGO-08031719142D

 39 41  0  0  0  0  0  0  0  0999 V2000
   -2.5746   -0.2707    0.0000 C   0  0  0  0  0  0  0  0  0  0  0  0
   -2.2420    1.2944    0.0000 C   0  0  0  0  0  0  0  0  0  0  0  0
   -3.8188    1.5662    0.0000 C   0  0  0  0  0  0  0  0  0  0  0  0
   -5.3955    1.8378    0.0000 H   0  0  0  0  0  0  0  0  0  0  0  0
   -4.3719    3.0675    0.0000 H   0  0  0  0  0  0  0  0  0  0  0  0
   -4.8424    0.3365    0.0000 H   0  0  0  0  0  0  0  0  0  0  0  0
   -0.6507    1.4617    0.0000 C   0  0  0  0  0  0  0  0  0  0  0  0
   -0.1520    1.5043    0.0000 H   0  0  0  0  0  0  0  0  0  0  0  0
   -0.0000    0.0000    0.0000 C   0  0  0  0  0  0  0  0  0  0  0  0
    0.4198    0.2727    0.0000 H   0  0  0  0  0  0  0  0  0  0  0  0
    1.5221    1.1703    0.0000 C   0  0  0  0  0  0  0  0  0  0  0  0
    1.3956    3.0861    0.0000 C   0  0  0  0  0  0  0  0  0  0  0  0
    1.9097    4.6013    0.0000 H   0  0  0  0  0  0  0  0  0  0  0  0
    2.9820    2.8778    0.0000 H   0  0  0  0  0  0  0  0  0  0  0  0
   -0.2671    4.0461    0.0000 C   0  0  0  0  0  0  0  0  0  0  0  0
   -1.2408    5.3158    0.0000 H   0  0  0  0  0  0  0  0  0  0  0  0
    0.7880    5.2489    0.0000 H   0  0  0  0  0  0  0  0  0  0  0  0
   -1.9896    3.1977    0.0000 C   0  0  0  0  0  0  0  0  0  0  0  0
   -3.5862    3.0943    0.0000 H   0  0  0  0  0  0  0  0  0  0  0  0
   -2.4027    4.7435    0.0000 H   0  0  0  0  0  0  0  0  0  0  0  0
    3.0674    1.5853    0.0000 C   0  0  0  0  0  0  0  0  0  0  0  0
    4.6125    2.0005    0.0000 H   0  0  0  0  0  0  0  0  0  0  0  0
    4.1994    0.4548    0.0000 H   0  0  0  0  0  0  0  0  0  0  0  0
    3.4805    3.1311    0.0000 H   0  0  0  0  0  0  0  0  0  0  0  0
    2.2310   -0.2641    0.0000 C   0  0  0  0  0  0  0  0  0  0  0  0
    2.9397   -1.6986    0.0000 H   0  0  0  0  0  0  0  0  0  0  0  0
    3.8276   -0.3675    0.0000 H   0  0  0  0  0  0  0  0  0  0  0  0
    1.9935   -1.0706    0.0000 H   0  0  0  0  0  0  0  0  0  0  0  0
   -1.1890   -1.0706    0.0000 C   0  0  0  0  0  0  0  0  0  0  0  0
   -1.5217   -2.6356    0.0000 H   0  0  0  0  0  0  0  0  0  0  0  0
    0.4022   -0.9034    0.0000 C   0  0  0  0  0  0  0  0  0  0  0  0
    1.0795   -1.4013    0.0000 H   0  0  0  0  0  0  0  0  0  0  0  0
    0.4022   -2.5034    0.0000 H   0  0  0  0  0  0  0  0  0  0  0  0
    0.7348    0.6617    0.0000 C   0  0  0  0  0  0  0  0  0  0  0  0
    1.3857    2.1233    0.0000 H   0  0  0  0  0  0  0  0  0  0  0  0
    2.3192    0.4390    0.0000 H   0  0  0  0  0  0  0  0  0  0  0  0
   -4.0364   -0.9214    0.0000 C   0  0  0  0  0  0  0  0  0  0  0  0
   -5.3308    0.0191    0.0000 H   0  0  0  0  0  0  0  0  0  0  0  0
   -4.2036   -2.5126    0.0000 H   0  0  0  0  0  0  0  0  0  0  0  0
  1  2  1  0  0  0  0
  2  3  1  0  0  0  0
  3  4  1  0  0  0  0
  3  5  1  0  0  0  0
  3  6  1  0  0  0  0
  2  7  1  0  0  0  0
  7  8  1  0  0  0  0
  7  9  1  0  0  0  0
  9 10  1  0  0  0  0
  9 11  1  0  0  0  0
 11 12  1  0  0  0  0
 12 13  1  0  0  0  0
 12 14  1  0  0  0  0
 12 15  1  0  0  0  0
 15 16  1  0  0  0  0
 15 17  1  0  0  0  0
 15 18  1  0  0  0  0
 18  2  1  0  0  0  0
 18 19  1  0  0  0  0
 18 20  1  0  0  0  0
 11 21  1  0  0  0  0
 21 22  1  0  0  0  0
 21 23  1  0  0  0  0
 21 24  1  0  0  0  0
 11 25  1  0  0  0  0
 25 26  1  0  0  0  0
 25 27  1  0  0  0  0
 25 28  1  0  0  0  0
  9 29  1  0  0  0  0
 29  1  1  0  0  0  0
 29 30  1  0  0  0  0
 29 31  1  0  0  0  0
 31 32  1  0  0  0  0
 31 33  1  0  0  0  0
 31 34  1  0  0  0  0
 34  7  1  0  0  0  0
 34 35  1  0  0  0  0
 34 36  1  0  0  0  0
  1 37  2  0  0  0  0
 37 38  1  0  0  0  0
 37 39  1  0  0  0  0
M  END
> <ChemID>
100429

> <source_casrn>
475-20-7

> <CAS>
475-20-7

> <SMILES>
CC1(C)CCC[C@@]2(C)[C@@H]3CC[C@@H]([C@H]13)C2=C

> <NAME>
LONGIFOLENE

> <preferred_name>
Longifolene

> <iupac>
(1S,3aR,4S,8aS)-4,8,8-trimethyl-9-methylidenedecahydro-1,4-methanoazulene

> <MPID>
98974

> <dsstox_substance_id>
DTXSID9047045

> <Canonical_QSARr>
CC1(C)CCCC2(C)C3CCC(C13)C2=C

> <InChI_Code_QSARr>
InChI=1S/C15H24/c1-10-11-6-7-12-13(11)14(2,3)8-5-9-15(10,12)4/h11-13H,1,5-9H2,2-4H3

> <InChI Key_QSARr>
PDSNLYSELAIEBU-UHFFFAOYSA-N

> <OH>
4.700000000000001E-11

> <OH Temperature>
23.0

> <OH Data Type>
EXP

> <OH Reference>
SHU,Y & ATKINSON,R (1995)

> <LogOH>
-10.327902142064286

$$$$
100430
  -INDIGO-08031719142D

 17 17  0  0  0  0  0  0  0  0999 V2000
   -0.8001    1.3856    0.0000 C   0  0  0  0  0  0  0  0  0  0  0  0
    0.0000    0.0000    0.0000 C   0  0  0  0  0  0  0  0  0  0  0  0
    1.6000    0.0000    0.0000 C   0  0  0  0  0  0  0  0  0  0  0  0
    3.2000    0.0000    0.0000 H   0  0  0  0  0  0  0  0  0  0  0  0
    2.4001   -1.3856    0.0000 H   0  0  0  0  0  0  0  0  0  0  0  0
    2.4001    1.3856    0.0000 H   0  0  0  0  0  0  0  0  0  0  0  0
   -0.7999   -1.3856    0.0000 C   0  0  0  0  0  0  0  0  0  0  0  0
    0.0000   -2.7713    0.0000 H   0  0  0  0  0  0  0  0  0  0  0  0
   -2.4001   -1.3856    0.0000 C   0  0  0  0  0  0  0  0  0  0  0  0
   -3.2000   -2.7713    0.0000 H   0  0  0  0  0  0  0  0  0  0  0  0
   -3.2000    0.0000    0.0000 C   0  0  0  0  0  0  0  0  0  0  0  0
   -4.8000    0.0000    0.0000 H   0  0  0  0  0  0  0  0  0  0  0  0
   -2.4001    1.3856    0.0000 C   0  0  0  0  0  0  0  0  0  0  0  0
   -3.2000    2.7713    0.0000 O   0  0  0  0  0  0  0  0  0  0  0  0
   -4.8000    2.7713    0.0000 H   0  0  0  0  0  0  0  0  0  0  0  0
    0.0000    2.7713    0.0000 O   0  0  0  0  0  0  0  0  0  0  0  0
   -0.8001    4.1569    0.0000 H   0  0  0  0  0  0  0  0  0  0  0  0
  1  2  1  0  0  0  0
  2  3  1  0  0  0  0
  3  4  1  0  0  0  0
  3  5  1  0  0  0  0
  3  6  1  0  0  0  0
  2  7  2  0  0  0  0
  7  8  1  0  0  0  0
  7  9  1  0  0  0  0
  9 10  1  0  0  0  0
  9 11  2  0  0  0  0
 11 12  1  0  0  0  0
 11 13  1  0  0  0  0
 13  1  2  0  0  0  0
 13 14  1  0  0  0  0
 14 15  1  0  0  0  0
  1 16  1  0  0  0  0
 16 17  1  0  0  0  0
M  END
> <ChemID>
100430

> <source_casrn>
488-17-5

> <CAS>
488-17-5

> <SMILES>
Cc1cccc(O)c1O

> <NAME>
1,2-Benzenediol, 3-methyl-

> <preferred_name>
1,2-Benzenediol, 3-methyl-

> <iupac>
3-methylbenzene-1,2-diol

> <MPID>
98975

> <dsstox_substance_id>
DTXSID9060071

> <Canonical_QSARr>
Cc1cccc(O)c1O

> <InChI_Code_QSARr>
InChI=1S/C7H8O2/c1-5-3-2-4-6(8)7(5)9/h2-4,8-9H,1H3

> <InChI Key_QSARr>
PGSWEKYNAOWQDF-UHFFFAOYSA-N

> <OH>
2.05E-10

> <OH Temperature>
27.0

> <OH Data Type>
EXP

> <OH Reference>
OLARIU,RI ET AL. (2000)

> <LogOH>
-9.688246138944228

$$$$
100433
  -INDIGO-08031719142D

 18 19  0  0  0  0  0  0  0  0999 V2000
    2.7713   -0.0000    0.0000 C   0  0  0  0  0  0  0  0  0  0  0  0
    4.1569    0.8000    0.0000 C   0  0  0  0  0  0  0  0  0  0  0  0
    4.1569    2.4000    0.0000 H   0  0  0  0  0  0  0  0  0  0  0  0
    5.5426   -0.0000    0.0000 C   0  0  0  0  0  0  0  0  0  0  0  0
    6.9282    0.8000    0.0000 H   0  0  0  0  0  0  0  0  0  0  0  0
    5.5426   -1.6000    0.0000 C   0  0  0  0  0  0  0  0  0  0  0  0
    6.9282   -2.4000    0.0000 H   0  0  0  0  0  0  0  0  0  0  0  0
    4.1569   -2.4000    0.0000 C   0  0  0  0  0  0  0  0  0  0  0  0
    4.1569   -4.0000    0.0000 H   0  0  0  0  0  0  0  0  0  0  0  0
    2.7713   -1.6000    0.0000 C   0  0  0  0  0  0  0  0  0  0  0  0
    1.3856   -2.4000    0.0000 O   0  0  0  0  0  0  0  0  0  0  0  0
    0.0000   -1.6000    0.0000 C   0  0  0  0  0  0  0  0  0  0  0  0
   -0.5472   -3.1035    0.0000 H   0  0  0  0  0  0  0  0  0  0  0  0
   -1.5757   -1.3221    0.0000 H   0  0  0  0  0  0  0  0  0  0  0  0
    0.0000   -0.0000    0.0000 C   0  0  0  0  0  0  0  0  0  0  0  0
   -1.5757   -0.2779    0.0000 H   0  0  0  0  0  0  0  0  0  0  0  0
   -0.5472    1.5035    0.0000 H   0  0  0  0  0  0  0  0  0  0  0  0
    1.3856    0.8000    0.0000 O   0  0  0  0  0  0  0  0  0  0  0  0
  1  2  1  0  0  0  0
  2  3  1  0  0  0  0
  2  4  2  0  0  0  0
  4  5  1  0  0  0  0
  4  6  1  0  0  0  0
  6  7  1  0  0  0  0
  6  8  2  0  0  0  0
  8  9  1  0  0  0  0
  8 10  1  0  0  0  0
 10  1  2  0  0  0  0
 10 11  1  0  0  0  0
 11 12  1  0  0  0  0
 12 13  1  0  0  0  0
 12 14  1  0  0  0  0
 12 15  1  0  0  0  0
 15 16  1  0  0  0  0
 15 17  1  0  0  0  0
 15 18  1  0  0  0  0
 18  1  1  0  0  0  0
M  END
> <ChemID>
100433

> <source_casrn>
493-09-4

> <CAS>
493-09-4

> <SMILES>
C1COc2ccccc2O1

> <NAME>
1,4-BENZODIOXAN

> <preferred_name>
1,4-Benzodioxin, 2,3-dihydro-

> <iupac>
2,3-dihydro-1,4-benzodioxine

> <MPID>
98978

> <dsstox_substance_id>
DTXSID8075419

> <Canonical_QSARr>
C1COc2ccccc2O1

> <InChI_Code_QSARr>
InChI=1S/C8H8O2/c1-2-4-8-7(3-1)9-5-6-10-8/h1-4H,5-6H2

> <InChI Key_QSARr>
BNBQRQQYDMDJAH-UHFFFAOYSA-N

> <OH>
2.519999999999999E-11

> <OH Temperature>
23.0

> <OH Data Type>
EXP

> <OH Reference>
ATKINSON,R ET AL. (1992A)

> <LogOH>
-10.598599459218468

$$$$
100434
  -INDIGO-08031719142D

 19 20  0  0  0  0  0  0  0  0999 V2000
    2.4621    0.8000    0.0000 C   0  0  0  0  0  0  0  0  0  0  0  0
    3.8478    1.6000    0.0000 C   0  0  0  0  0  0  0  0  0  0  0  0
    3.8478    3.2000    0.0000 H   0  0  0  0  0  0  0  0  0  0  0  0
    5.2334    0.8000    0.0000 C   0  0  0  0  0  0  0  0  0  0  0  0
    6.6191    1.6000    0.0000 H   0  0  0  0  0  0  0  0  0  0  0  0
    5.2334   -0.8000    0.0000 C   0  0  0  0  0  0  0  0  0  0  0  0
    6.6191   -1.6000    0.0000 H   0  0  0  0  0  0  0  0  0  0  0  0
    3.8478   -1.6000    0.0000 C   0  0  0  0  0  0  0  0  0  0  0  0
    3.8478   -3.2000    0.0000 H   0  0  0  0  0  0  0  0  0  0  0  0
    2.4621   -0.8000    0.0000 C   0  0  0  0  0  0  0  0  0  0  0  0
    0.9404   -1.2944    0.0000 C   0  0  0  0  0  0  0  0  0  0  0  0
    1.5912   -2.7561    0.0000 H   0  0  0  0  0  0  0  0  0  0  0  0
   -0.4452   -2.0944    0.0000 H   0  0  0  0  0  0  0  0  0  0  0  0
    0.0000    0.0000    0.0000 C   0  0  0  0  0  0  0  0  0  0  0  0
   -1.1890   -1.0706    0.0000 H   0  0  0  0  0  0  0  0  0  0  0  0
   -1.1890    1.0706    0.0000 H   0  0  0  0  0  0  0  0  0  0  0  0
    0.9404    1.2944    0.0000 C   0  0  0  0  0  0  0  0  0  0  0  0
   -0.4452    2.0944    0.0000 H   0  0  0  0  0  0  0  0  0  0  0  0
    1.5912    2.7561    0.0000 H   0  0  0  0  0  0  0  0  0  0  0  0
  1  2  1  0  0  0  0
  2  3  1  0  0  0  0
  2  4  2  0  0  0  0
  4  5  1  0  0  0  0
  4  6  1  0  0  0  0
  6  7  1  0  0  0  0
  6  8  2  0  0  0  0
  8  9  1  0  0  0  0
  8 10  1  0  0  0  0
 10  1  2  0  0  0  0
 10 11  1  0  0  0  0
 11 12  1  0  0  0  0
 11 13  1  0  0  0  0
 11 14  1  0  0  0  0
 14 15  1  0  0  0  0
 14 16  1  0  0  0  0
 14 17  1  0  0  0  0
 17  1  1  0  0  0  0
 17 18  1  0  0  0  0
 17 19  1  0  0  0  0
M  END
> <ChemID>
100434

> <source_casrn>
496-11-7

> <CAS>
496-11-7

> <SMILES>
C1CCc2ccccc21

> <NAME>
INDANE

> <preferred_name>
Indan

> <iupac>
indane

> <MPID>
98979

> <dsstox_substance_id>
DTXSID4052132

> <Canonical_QSARr>
C1CCc2ccccc21

> <InChI_Code_QSARr>
InChI=1S/C9H10/c1-2-5-9-7-3-6-8(9)4-1/h1-2,4-5H,3,6-7H2

> <InChI Key_QSARr>
PQNFLJBBNBOBRQ-UHFFFAOYSA-N

> <OH>
9.2E-12

> <OH Temperature>
25.0

> <OH Data Type>
EXP

> <OH Reference>
ATKINSON,R (1989)

> <LogOH>
-11.036212172654464

$$$$
100435
  -INDIGO-08031719142D

 17 18  0  0  0  0  0  0  0  0999 V2000
    0.0000   -0.0000    0.0000 C   0  0  0  0  0  0  0  0  0  0  0  0
    1.3857    0.8000    0.0000 H   0  0  0  0  0  0  0  0  0  0  0  0
   -0.6507    1.4617    0.0000 H   0  0  0  0  0  0  0  0  0  0  0  0
    0.9404   -1.2944    0.0000 C   0  0  0  0  0  0  0  0  0  0  0  0
    2.1295   -0.2239    0.0000 H   0  0  0  0  0  0  0  0  0  0  0  0
    2.1295   -2.3650    0.0000 H   0  0  0  0  0  0  0  0  0  0  0  0
    0.0000   -2.5888    0.0000 O   0  0  0  0  0  0  0  0  0  0  0  0
   -1.5217   -2.0944    0.0000 C   0  0  0  0  0  0  0  0  0  0  0  0
   -1.5217   -0.4945    0.0000 C   0  0  0  0  0  0  0  0  0  0  0  0
   -2.9073    0.3055    0.0000 C   0  0  0  0  0  0  0  0  0  0  0  0
   -2.9073    1.9056    0.0000 H   0  0  0  0  0  0  0  0  0  0  0  0
   -4.2930   -0.4945    0.0000 C   0  0  0  0  0  0  0  0  0  0  0  0
   -5.6786    0.3055    0.0000 H   0  0  0  0  0  0  0  0  0  0  0  0
   -4.2930   -2.0944    0.0000 C   0  0  0  0  0  0  0  0  0  0  0  0
   -5.6786   -2.8944    0.0000 H   0  0  0  0  0  0  0  0  0  0  0  0
   -2.9073   -2.8944    0.0000 C   0  0  0  0  0  0  0  0  0  0  0  0
   -2.9073   -4.4944    0.0000 H   0  0  0  0  0  0  0  0  0  0  0  0
  1  2  1  0  0  0  0
  1  3  1  0  0  0  0
  1  4  1  0  0  0  0
  4  5  1  0  0  0  0
  4  6  1  0  0  0  0
  4  7  1  0  0  0  0
  7  8  1  0  0  0  0
  8  9  1  0  0  0  0
  9  1  1  0  0  0  0
  9 10  2  0  0  0  0
 10 11  1  0  0  0  0
 10 12  1  0  0  0  0
 12 13  1  0  0  0  0
 12 14  2  0  0  0  0
 14 15  1  0  0  0  0
 14 16  1  0  0  0  0
 16  8  2  0  0  0  0
 16 17  1  0  0  0  0
M  END
> <ChemID>
100435

> <source_casrn>
496-16-2

> <CAS>
496-16-2

> <SMILES>
C1COc2ccccc21

> <NAME>
2,3-DIHYDROBENZOFURAN

> <preferred_name>
2,3-Dihydrobenzofuran

> <iupac>
2,3-dihydro-1-benzofuran

> <MPID>
98980

> <dsstox_substance_id>
DTXSID2022040

> <Canonical_QSARr>
C1COc2ccccc21

> <InChI_Code_QSARr>
InChI=1S/C8H8O/c1-2-4-8-7(3-1)5-6-9-8/h1-4H,5-6H2

> <InChI Key_QSARr>
HBEDSQVIWPRPAY-UHFFFAOYSA-N

> <OH>
3.66E-11

> <OH Temperature>
25.0

> <OH Data Type>
EXP

> <OH Reference>
ATKINSON,R (1989)

> <LogOH>
-10.436518914605577

$$$$
100437
  -INDIGO-08031719142D

 14 14  0  0  0  0  0  0  0  0999 V2000
   -0.0000    0.0000    0.0000 C   0  0  0  0  0  0  0  0  0  0  0  0
    0.6508    1.4617    0.0000 H   0  0  0  0  0  0  0  0  0  0  0  0
   -0.3326   -1.5650    0.0000 O   0  0  0  0  0  0  0  0  0  0  0  0
   -1.9239   -1.7323    0.0000 C   0  0  0  0  0  0  0  0  0  0  0  0
   -1.5912   -3.2973    0.0000 H   0  0  0  0  0  0  0  0  0  0  0  0
   -3.4456   -2.2267    0.0000 H   0  0  0  0  0  0  0  0  0  0  0  0
   -2.5746   -0.2706    0.0000 C   0  0  0  0  0  0  0  0  0  0  0  0
   -3.9603   -1.0706    0.0000 H   0  0  0  0  0  0  0  0  0  0  0  0
   -3.5151    1.0238    0.0000 H   0  0  0  0  0  0  0  0  0  0  0  0
   -1.3856    0.8000    0.0000 O   0  0  0  0  0  0  0  0  0  0  0  0
    1.5217   -0.4944    0.0000 C   0  0  0  0  0  0  0  0  0  0  0  0
    3.0434   -0.9889    0.0000 H   0  0  0  0  0  0  0  0  0  0  0  0
    2.7107    0.5762    0.0000 H   0  0  0  0  0  0  0  0  0  0  0  0
    1.8544   -2.0595    0.0000 H   0  0  0  0  0  0  0  0  0  0  0  0
  1  2  1  0  0  0  0
  1  3  1  0  0  0  0
  3  4  1  0  0  0  0
  4  5  1  0  0  0  0
  4  6  1  0  0  0  0
  4  7  1  0  0  0  0
  7  8  1  0  0  0  0
  7  9  1  0  0  0  0
  7 10  1  0  0  0  0
 10  1  1  0  0  0  0
  1 11  1  0  0  0  0
 11 12  1  0  0  0  0
 11 13  1  0  0  0  0
 11 14  1  0  0  0  0
M  END
> <ChemID>
100437

> <source_casrn>
497-26-7

> <CAS>
497-26-7

> <SMILES>
CC1OCCO1

> <NAME>
1,3-Dioxolane, 2-methyl-

> <preferred_name>
2-Methyl-1,3-dioxolane

> <iupac>
2-Methyl-1,3-dioxolane

> <MPID>
98981

> <dsstox_substance_id>
DTXSID7060095

> <Canonical_QSARr>
CC1OCCO1

> <InChI_Code_QSARr>
InChI=1S/C4H8O2/c1-4-5-2-3-6-4/h4H,2-3H2,1H3

> <InChI Key_QSARr>
HTWIZMNMTWYQRN-UHFFFAOYSA-N

> <OH>
9.400000000000001E-12

> <OH Temperature>
25.0

> <OH Data Type>
EXP

> <OH Reference>
STEMMLER,K ET AL. (1996)

> <LogOH>
-11.026872146400306

$$$$
100438
  -INDIGO-08031719142D

 11 11  0  0  0  0  0  0  0  0999 V2000
   -1.7322    1.9239    0.0000 O   0  0  0  0  0  0  0  0  0  0  0  0
   -0.1673    1.5912    0.0000 C   0  0  0  0  0  0  0  0  0  0  0  0
    1.0218    2.6618    0.0000 H   0  0  0  0  0  0  0  0  0  0  0  0
    0.0000   -0.0000    0.0000 C   0  0  0  0  0  0  0  0  0  0  0  0
    1.3856   -0.8000    0.0000 C   0  0  0  0  0  0  0  0  0  0  0  0
    2.7713   -0.0000    0.0000 H   0  0  0  0  0  0  0  0  0  0  0  0
    1.3856   -2.4000    0.0000 O   0  0  0  0  0  0  0  0  0  0  0  0
   -1.4617   -0.6508    0.0000 C   0  0  0  0  0  0  0  0  0  0  0  0
   -1.7943   -2.2158    0.0000 H   0  0  0  0  0  0  0  0  0  0  0  0
   -2.5322    0.5382    0.0000 C   0  0  0  0  0  0  0  0  0  0  0  0
   -4.1235    0.3710    0.0000 H   0  0  0  0  0  0  0  0  0  0  0  0
  1  2  1  0  0  0  0
  2  3  1  0  0  0  0
  2  4  2  0  0  0  0
  4  5  1  0  0  0  0
  5  6  1  0  0  0  0
  5  7  2  0  0  0  0
  4  8  1  0  0  0  0
  8  9  1  0  0  0  0
  8 10  2  0  0  0  0
 10  1  1  0  0  0  0
 10 11  1  0  0  0  0
M  END
> <ChemID>
100438

> <source_casrn>
498-60-2

> <CAS>
498-60-2

> <SMILES>
O=Cc1cocc1

> <NAME>
FURAN-3-CARBOXALDEHYDE

> <preferred_name>
3-Furaldehyde

> <iupac>
furan-3-carbaldehyde

> <MPID>
98982

> <dsstox_substance_id>
DTXSID40198076

> <Canonical_QSARr>
O=Cc1cocc1

> <InChI_Code_QSARr>
InChI=1S/C5H4O2/c6-3-5-1-2-7-4-5/h1-4H

> <InChI Key_QSARr>
AZVSIHIBYRHSLB-UHFFFAOYSA-N

> <OH>
4.850000000000001E-11

> <OH Temperature>
27.0

> <OH Data Type>
EXP

> <OH Reference>
BIERBACH,A ET AL. (1995)

> <LogOH>
-10.31425826139773

$$$$
100439
  -INDIGO-08031719142D

 17 18  0  0  0  0  0  0  0  0999 V2000
    0.0000    0.0000    0.0000 C   0  0  0  0  0  0  0  0  0  0  0  0
    1.4382   -0.7011    0.0000 H   0  0  0  0  0  0  0  0  0  0  0  0
    1.2293    1.0240    0.0000 C   0  0  0  0  0  0  0  0  0  0  0  0
    1.7855    2.5243    0.0000 H   0  0  0  0  0  0  0  0  0  0  0  0
    2.5356    0.1000    0.0000 H   0  0  0  0  0  0  0  0  0  0  0  0
   -0.2732    1.1663    0.0000 C   0  0  0  0  0  0  0  0  0  0  0  0
   -1.4923    2.2024    0.0000 H   0  0  0  0  0  0  0  0  0  0  0  0
    0.3490    2.6403    0.0000 H   0  0  0  0  0  0  0  0  0  0  0  0
   -1.7194    0.2568    0.0000 C   0  0  0  0  0  0  0  0  0  0  0  0
   -3.1870   -0.3805    0.0000 H   0  0  0  0  0  0  0  0  0  0  0  0
   -2.8096    1.3184    0.0000 C   0  0  0  0  0  0  0  0  0  0  0  0
   -4.2917    0.7157    0.0000 H   0  0  0  0  0  0  0  0  0  0  0  0
   -2.7675    2.9179    0.0000 H   0  0  0  0  0  0  0  0  0  0  0  0
   -1.6861   -1.3522    0.0000 C   0  0  0  0  0  0  0  0  0  0  0  0
   -2.8395   -2.4611    0.0000 H   0  0  0  0  0  0  0  0  0  0  0  0
   -0.0449   -1.4507    0.0000 C   0  0  0  0  0  0  0  0  0  0  0  0
    1.0339   -2.6323    0.0000 H   0  0  0  0  0  0  0  0  0  0  0  0
  1  2  1  0  0  0  0
  1  3  1  0  0  0  0
  3  4  1  0  0  0  0
  3  5  1  0  0  0  0
  3  6  1  0  0  0  0
  6  7  1  0  0  0  0
  6  8  1  0  0  0  0
  6  9  1  0  0  0  0
  9 10  1  0  0  0  0
  9 11  1  0  0  0  0
 11  1  1  0  0  0  0
 11 12  1  0  0  0  0
 11 13  1  0  0  0  0
  9 14  1  0  0  0  0
 14 15  1  0  0  0  0
 14 16  2  0  0  0  0
 16  1  1  0  0  0  0
 16 17  1  0  0  0  0
M  END
> <ChemID>
100439

> <source_casrn>
498-66-8

> <CAS>
498-66-8

> <SMILES>
C1C2CCC1C=C2

> <NAME>
BICYCLO[2.2.1]-2-HEPTENE

> <preferred_name>
Norbornylene

> <iupac>
bicyclo[2.2.1]hept-2-ene

> <MPID>
98983

> <dsstox_substance_id>
DTXSID2022042

> <Canonical_QSARr>
C1C2CCC1C=C2

> <InChI_Code_QSARr>
InChI=1S/C7H10/c1-2-7-4-3-6(1)5-7/h1-2,6-7H,3-5H2

> <InChI Key_QSARr>
JFNLZVQOOSMTJK-UHFFFAOYSA-N

> <OH>
4.930000000000001E-11

> <OH Temperature>
25.0

> <OH Data Type>
EXP

> <OH Reference>
ATKINSON,R (1989)

> <LogOH>
-10.307153080722768

$$$$
100441
  -INDIGO-08031719142D

 10  9  0  0  0  0  0  0  0  0999 V2000
    1.6000   -0.0000    0.0000 C   0  0  0  0  0  0  0  0  0  0  0  0
    3.2000    0.0000    0.0000 C   0  0  0  0  0  0  0  0  0  0  0  0
    4.8000    0.0000    0.0000 C   0  0  0  0  0  0  0  0  0  0  0  0
    6.4000    0.0000    0.0000 H   0  0  0  0  0  0  0  0  0  0  0  0
    5.6001    1.3856    0.0000 H   0  0  0  0  0  0  0  0  0  0  0  0
    5.6001   -1.3856    0.0000 H   0  0  0  0  0  0  0  0  0  0  0  0
    0.0000   -0.0000    0.0000 C   0  0  0  0  0  0  0  0  0  0  0  0
   -1.6000   -0.0000    0.0000 H   0  0  0  0  0  0  0  0  0  0  0  0
   -0.8001    1.3856    0.0000 H   0  0  0  0  0  0  0  0  0  0  0  0
   -0.8001   -1.3856    0.0000 H   0  0  0  0  0  0  0  0  0  0  0  0
  1  2  3  0  0  0  0
  2  3  1  0  0  0  0
  3  4  1  0  0  0  0
  3  5  1  0  0  0  0
  3  6  1  0  0  0  0
  1  7  1  0  0  0  0
  7  8  1  0  0  0  0
  7  9  1  0  0  0  0
  7 10  1  0  0  0  0
M  END
> <ChemID>
100441

> <source_casrn>
503-17-3

> <CAS>
503-17-3

> <SMILES>
CC#CC

> <NAME>
2-BUTYNE

> <preferred_name>
2-Butyne

> <iupac>
but-2-yne

> <MPID>
98985

> <dsstox_substance_id>
DTXSID3060116

> <Canonical_QSARr>
CC#CC

> <InChI_Code_QSARr>
InChI=1S/C4H6/c1-3-4-2/h1-2H3

> <InChI Key_QSARr>
XNMQEEKYCVKGBD-UHFFFAOYSA-N

> <OH>
2.74E-11

> <OH Temperature>
25.0

> <OH Data Type>
EXP

> <OH Reference>
ATKINSON,R (1989)

> <LogOH>
-10.5622494371796

$$$$
100442
  -INDIGO-08031719142D

 10 10  0  0  0  0  0  0  0  0999 V2000
   -0.0000    0.0000    0.0000 C   0  0  0  0  0  0  0  0  0  0  0  0
    0.8000    1.3856    0.0000 H   0  0  0  0  0  0  0  0  0  0  0  0
   -1.3856    0.8000    0.0000 H   0  0  0  0  0  0  0  0  0  0  0  0
    1.3857   -0.8000    0.0000 C   0  0  0  0  0  0  0  0  0  0  0  0
    2.1856    0.5857    0.0000 H   0  0  0  0  0  0  0  0  0  0  0  0
    2.7713   -1.6000    0.0000 H   0  0  0  0  0  0  0  0  0  0  0  0
    0.5857   -2.1856    0.0000 O   0  0  0  0  0  0  0  0  0  0  0  0
   -0.8000   -1.3856    0.0000 C   0  0  0  0  0  0  0  0  0  0  0  0
   -1.6000   -2.7713    0.0000 H   0  0  0  0  0  0  0  0  0  0  0  0
   -2.1856   -0.5857    0.0000 H   0  0  0  0  0  0  0  0  0  0  0  0
  1  2  1  0  0  0  0
  1  3  1  0  0  0  0
  1  4  1  0  0  0  0
  4  5  1  0  0  0  0
  4  6  1  0  0  0  0
  4  7  1  0  0  0  0
  7  8  1  0  0  0  0
  8  1  1  0  0  0  0
  8  9  1  0  0  0  0
  8 10  1  0  0  0  0
M  END
> <ChemID>
100442

> <source_casrn>
503-30-0

> <CAS>
503-30-0

> <SMILES>
C1CCO1

> <NAME>
TRIMETHYLENEOXIDE

> <preferred_name>
1,3-Propylene oxide

> <iupac>
oxetane

> <MPID>
98986

> <dsstox_substance_id>
DTXSID8025969

> <Canonical_QSARr>
C1CCO1

> <InChI_Code_QSARr>
InChI=1S/C3H6O/c1-2-4-3-1/h1-3H2

> <InChI Key_QSARr>
AHHWIHXENZJRFG-UHFFFAOYSA-N

> <OH>
1.03E-11

> <OH Temperature>
25.0

> <OH Data Type>
EXP

> <OH Reference>
ATKINSON,R (1989)

> <LogOH>
-10.987162775294845

$$$$
100443
  -INDIGO-08031719142D

 14 14  0  0  0  0  0  0  0  0999 V2000
    0.0000   -0.0000    0.0000 C   0  0  0  0  0  0  0  0  0  0  0  0
    0.5472    1.5035    0.0000 H   0  0  0  0  0  0  0  0  0  0  0  0
    1.5757   -0.2779    0.0000 H   0  0  0  0  0  0  0  0  0  0  0  0
   -1.3857    0.8000    0.0000 C   0  0  0  0  0  0  0  0  0  0  0  0
   -0.3571    2.0257    0.0000 H   0  0  0  0  0  0  0  0  0  0  0  0
   -2.4141    2.0257    0.0000 H   0  0  0  0  0  0  0  0  0  0  0  0
   -2.7713   -0.0000    0.0000 O   0  0  0  0  0  0  0  0  0  0  0  0
   -2.7713   -1.6000    0.0000 C   0  0  0  0  0  0  0  0  0  0  0  0
   -4.3470   -1.3222    0.0000 H   0  0  0  0  0  0  0  0  0  0  0  0
   -3.3185   -3.1035    0.0000 H   0  0  0  0  0  0  0  0  0  0  0  0
   -1.3856   -2.4000    0.0000 O   0  0  0  0  0  0  0  0  0  0  0  0
    0.0000   -1.6000    0.0000 C   0  0  0  0  0  0  0  0  0  0  0  0
    0.5472   -3.1035    0.0000 H   0  0  0  0  0  0  0  0  0  0  0  0
    1.5757   -1.3222    0.0000 H   0  0  0  0  0  0  0  0  0  0  0  0
  1  2  1  0  0  0  0
  1  3  1  0  0  0  0
  1  4  1  0  0  0  0
  4  5  1  0  0  0  0
  4  6  1  0  0  0  0
  4  7  1  0  0  0  0
  7  8  1  0  0  0  0
  8  9  1  0  0  0  0
  8 10  1  0  0  0  0
  8 11  1  0  0  0  0
 11 12  1  0  0  0  0
 12  1  1  0  0  0  0
 12 13  1  0  0  0  0
 12 14  1  0  0  0  0
M  END
> <ChemID>
100443

> <source_casrn>
505-22-6

> <CAS>
505-22-6

> <SMILES>
C1OCCCO1

> <NAME>
1,3-DIOXANE

> <preferred_name>
1,3-Dioxane

> <iupac>
1,3-dioxane

> <MPID>
98987

> <dsstox_substance_id>
DTXSID3025174

> <Canonical_QSARr>
C1OCCCO1

> <InChI_Code_QSARr>
InChI=1S/C4H8O2/c1-2-5-4-6-3-1/h1-4H2

> <InChI Key_QSARr>
VDFVNEFVBPFDSB-UHFFFAOYSA-N

> <OH>
9.15E-12

> <OH Temperature>
25.0

> <OH Data Type>
EXP

> <OH Reference>
ATKINSON,R (1989)

> <LogOH>
-11.038578905933543

$$$$
100445
  -INDIGO-08031719142D

 11 10  0  0  0  0  0  0  0  0999 V2000
   -1.3856    0.8000    0.0000 C   0  0  0  0  0  0  0  0  0  0  0  0
    0.0000    0.0000    0.0000 C   0  0  0  0  0  0  0  0  0  0  0  0
    1.3856    0.8000    0.0000 C   0  0  0  0  0  0  0  0  0  0  0  0
    2.7713    1.6000    0.0000 H   0  0  0  0  0  0  0  0  0  0  0  0
    2.7713    0.0000    0.0000 Cl  0  0  0  0  0  0  0  0  0  0  0  0
    1.3856    2.4000    0.0000 F   0  0  0  0  0  0  0  0  0  0  0  0
   -0.6123   -1.4782    0.0000 F   0  0  0  0  0  0  0  0  0  0  0  0
    0.6123   -1.4782    0.0000 F   0  0  0  0  0  0  0  0  0  0  0  0
   -2.7713    1.6000    0.0000 Cl  0  0  0  0  0  0  0  0  0  0  0  0
   -2.7713    0.0000    0.0000 F   0  0  0  0  0  0  0  0  0  0  0  0
   -1.3856    2.4000    0.0000 F   0  0  0  0  0  0  0  0  0  0  0  0
  1  2  1  0  0  0  0
  2  3  1  0  0  0  0
  3  4  1  0  0  0  0
  3  5  1  0  0  0  0
  3  6  1  0  0  0  0
  2  7  1  0  0  0  0
  2  8  1  0  0  0  0
  1  9  1  0  0  0  0
  1 10  1  0  0  0  0
  1 11  1  0  0  0  0
M  END
> <ChemID>
100445

> <source_casrn>
507-55-1

> <CAS>
507-55-1

> <SMILES>
FC(F)(Cl)C(F)(F)C(F)Cl

> <NAME>
1,3-DICHLORO-1,2,2,3,3-PENTAFLUOROPROPANE

> <preferred_name>
1,3-dichloro-1,1,2,2,3-pentafluoropropane

> <iupac>
1,3-dichloro-1,1,2,2,3-pentafluoropropane

> <MPID>
98989

> <dsstox_substance_id>
DTXSID6042028

> <Canonical_QSARr>
FC(F)(Cl)C(F)(F)C(F)Cl

> <InChI_Code_QSARr>
InChI=1S/C3HCl2F5/c4-1(6)2(7,8)3(5,9)10/h1H

> <InChI Key_QSARr>
UJIGKESMIPTWJH-UHFFFAOYSA-N

> <OH>
8.850000000000001E-15

> <OH Temperature>
22.0

> <OH Data Type>
EXP

> <OH Reference>
ATKINSON,R (1994)

> <LogOH>
-14.053056729302195

$$$$
100446
  -INDIGO-08031719142D

 26 28  0  0  0  0  0  0  0  0999 V2000
    0.0000    0.0000    0.0000 C   0  0  0  0  0  0  0  0  0  0  0  0
   -1.5650   -0.3326    0.0000 C   0  0  0  0  0  0  0  0  0  0  0  0
   -1.7323    1.2585    0.0000 C   0  0  0  0  0  0  0  0  0  0  0  0
   -1.8996    2.8498    0.0000 H   0  0  0  0  0  0  0  0  0  0  0  0
   -3.1939    1.9094    0.0000 H   0  0  0  0  0  0  0  0  0  0  0  0
   -2.5522    1.0891    0.0000 H   0  0  0  0  0  0  0  0  0  0  0  0
   -3.1408   -0.6105    0.0000 C   0  0  0  0  0  0  0  0  0  0  0  0
   -4.7164   -0.8884    0.0000 H   0  0  0  0  0  0  0  0  0  0  0  0
   -3.6879   -2.1140    0.0000 H   0  0  0  0  0  0  0  0  0  0  0  0
   -4.1692    0.6152    0.0000 H   0  0  0  0  0  0  0  0  0  0  0  0
   -1.7323   -1.9239    0.0000 C   0  0  0  0  0  0  0  0  0  0  0  0
   -3.1180   -2.7239    0.0000 H   0  0  0  0  0  0  0  0  0  0  0  0
   -0.2706   -2.5747    0.0000 C   0  0  0  0  0  0  0  0  0  0  0  0
   -1.0706   -3.9603    0.0000 H   0  0  0  0  0  0  0  0  0  0  0  0
    1.0238   -3.5151    0.0000 H   0  0  0  0  0  0  0  0  0  0  0  0
    0.8000   -1.3856    0.0000 C   0  0  0  0  0  0  0  0  0  0  0  0
    2.0944   -2.3261    0.0000 H   0  0  0  0  0  0  0  0  0  0  0  0
    1.6000    0.0000    0.0000 C   0  0  0  0  0  0  0  0  0  0  0  0
    3.0750    0.6201    0.0000 H   0  0  0  0  0  0  0  0  0  0  0  0
   -1.0082    0.6696    0.0000 C   0  0  0  0  0  0  0  0  0  0  0  0
   -0.5994    2.2164    0.0000 H   0  0  0  0  0  0  0  0  0  0  0  0
   -1.8329    0.5259    0.0000 H   0  0  0  0  0  0  0  0  0  0  0  0
    1.3857   -0.8000    0.0000 C   0  0  0  0  0  0  0  0  0  0  0  0
    2.7713   -1.6000    0.0000 H   0  0  0  0  0  0  0  0  0  0  0  0
    2.8891   -0.2528    0.0000 H   0  0  0  0  0  0  0  0  0  0  0  0
    1.3857    0.8000    0.0000 H   0  0  0  0  0  0  0  0  0  0  0  0
  1  2  1  0  0  0  0
  2  3  1  0  0  0  0
  3  4  1  0  0  0  0
  3  5  1  0  0  0  0
  3  6  1  0  0  0  0
  2  7  1  0  0  0  0
  7  8  1  0  0  0  0
  7  9  1  0  0  0  0
  7 10  1  0  0  0  0
  2 11  1  0  0  0  0
 11 12  1  0  0  0  0
 11 13  1  0  0  0  0
 13 14  1  0  0  0  0
 13 15  1  0  0  0  0
 13 16  1  0  0  0  0
 16  1  1  0  0  0  0
 16 17  1  0  0  0  0
 16 18  1  0  0  0  0
 18  1  1  0  0  0  0
 18 19  1  0  0  0  0
 18 20  1  0  0  0  0
 20 11  1  0  0  0  0
 20 21  1  0  0  0  0
 20 22  1  0  0  0  0
  1 23  1  0  0  0  0
 23 24  1  0  0  0  0
 23 25  1  0  0  0  0
 23 26  1  0  0  0  0
M  END
> <ChemID>
100446

> <source_casrn>
508-32-7

> <CAS>
508-32-7

> <SMILES>
CC1(C)C2CC3C(C2)C13C

> <NAME>
Tricyclene

> <preferred_name>
1,7,7-Trimethyltricyclo[2.2.1.02,6]heptane

> <iupac>
C10H16

> <MPID>
98990

> <dsstox_substance_id>
DTXSID90858714

> <Canonical_QSARr>
CC1(C)C2CC3C(C2)C13C

> <InChI_Code_QSARr>
InChI=1S/C10H16/c1-9(2)6-4-7-8(5-6)10(7,9)3/h6-8H,4-5H2,1-3H3

> <InChI Key_QSARr>
RRBYUSWBLVXTQN-UHFFFAOYSA-N

> <OH>
2.86E-12

> <OH Temperature>
23.0

> <OH Data Type>
EXP

> <OH Reference>
ATKINSON,R (1994)

> <LogOH>
-11.543633966870962

$$$$
100447
  -INDIGO-08031719142D

 15 14  0  0  0  0  0  0  0  0999 V2000
    1.3856    0.8000    0.0000 C   0  0  0  0  0  0  0  0  0  0  0  0
    2.7713    1.6000    0.0000 H   0  0  0  0  0  0  0  0  0  0  0  0
    2.7713    0.0000    0.0000 F   0  0  0  0  0  0  0  0  0  0  0  0
    0.0000    0.0000    0.0000 C   0  0  0  0  0  0  0  0  0  0  0  0
    0.6122   -1.4782    0.0000 F   0  0  0  0  0  0  0  0  0  0  0  0
   -0.6122   -1.4782    0.0000 F   0  0  0  0  0  0  0  0  0  0  0  0
   -1.3857    0.8000    0.0000 O   0  0  0  0  0  0  0  0  0  0  0  0
   -2.7713    0.0000    0.0000 C   0  0  0  0  0  0  0  0  0  0  0  0
   -2.1590   -1.4782    0.0000 H   0  0  0  0  0  0  0  0  0  0  0  0
   -3.3835   -1.4782    0.0000 H   0  0  0  0  0  0  0  0  0  0  0  0
   -4.1569    0.8000    0.0000 C   0  0  0  0  0  0  0  0  0  0  0  0
   -5.5426    1.6000    0.0000 H   0  0  0  0  0  0  0  0  0  0  0  0
   -5.5426    0.0000    0.0000 H   0  0  0  0  0  0  0  0  0  0  0  0
   -4.1569    2.4000    0.0000 H   0  0  0  0  0  0  0  0  0  0  0  0
    1.3856    2.4000    0.0000 F   0  0  0  0  0  0  0  0  0  0  0  0
  1  2  1  0  0  0  0
  1  3  1  0  0  0  0
  1  4  1  0  0  0  0
  4  5  1  0  0  0  0
  4  6  1  0  0  0  0
  4  7  1  0  0  0  0
  7  8  1  0  0  0  0
  8  9  1  0  0  0  0
  8 10  1  0  0  0  0
  8 11  1  0  0  0  0
 11 12  1  0  0  0  0
 11 13  1  0  0  0  0
 11 14  1  0  0  0  0
  1 15  1  0  0  0  0
M  END
> <ChemID>
100447

> <source_casrn>
512-51-6

> <CAS>
512-51-6

> <SMILES>
CCOC(F)(F)C(F)F

> <NAME>
ETHYL 1,1,2,2-TETRAFLUOROETHYL ETHER

> <preferred_name>
Ethane, 1-ethoxy-1,1,2,2-tetrafluoro-

> <iupac>
1-Ethoxy-1,1,2,2-tetrafluoroethane

> <MPID>
98991

> <dsstox_substance_id>
DTXSID4075249

> <Canonical_QSARr>
CCOC(F)(F)C(F)F

> <InChI_Code_QSARr>
InChI=1S/C4H6F4O/c1-2-9-4(7,8)3(5)6/h3H,2H2,1H3

> <InChI Key_QSARr>
HBRLMDFVVMYNFH-UHFFFAOYSA-N

> <OH>
2.24E-13

> <OH Temperature>
25.0

> <OH Data Type>
EXP

> <OH Reference>
TOKUHASHI,K ET AL. (1999A)

> <LogOH>
-12.649751981665817

$$$$
100450
  -INDIGO-08031719142D

 15 14  0  0  0  0  0  0  0  0999 V2000
    0.8000   -1.3856    0.0000 C   0  0  0  0  0  0  0  0  0  0  0  0
    1.6000   -2.7713    0.0000 H   0  0  0  0  0  0  0  0  0  0  0  0
   -0.0000   -2.7713    0.0000 H   0  0  0  0  0  0  0  0  0  0  0  0
    2.4000   -1.3856    0.0000 H   0  0  0  0  0  0  0  0  0  0  0  0
   -0.0000    0.0000    0.0000 C   0  0  0  0  0  0  0  0  0  0  0  0
   -1.6000    0.0000    0.0000 C   0  0  0  0  0  0  0  0  0  0  0  0
   -2.4000   -1.3856    0.0000 H   0  0  0  0  0  0  0  0  0  0  0  0
   -2.4000    1.3856    0.0000 C   0  0  0  0  0  0  0  0  0  0  0  0
   -3.2000    2.7713    0.0000 H   0  0  0  0  0  0  0  0  0  0  0  0
   -4.0000    1.3856    0.0000 H   0  0  0  0  0  0  0  0  0  0  0  0
   -1.6000    2.7713    0.0000 H   0  0  0  0  0  0  0  0  0  0  0  0
    0.8000    1.3856    0.0000 C   0  0  0  0  0  0  0  0  0  0  0  0
    1.6000    2.7713    0.0000 H   0  0  0  0  0  0  0  0  0  0  0  0
    2.4000    1.3856    0.0000 H   0  0  0  0  0  0  0  0  0  0  0  0
   -0.0000    2.7713    0.0000 H   0  0  0  0  0  0  0  0  0  0  0  0
  1  2  1  0  0  0  0
  1  3  1  0  0  0  0
  1  4  1  0  0  0  0
  1  5  1  0  0  0  0
  5  6  2  0  0  0  0
  6  7  1  0  0  0  0
  6  8  1  0  0  0  0
  8  9  1  0  0  0  0
  8 10  1  0  0  0  0
  8 11  1  0  0  0  0
  5 12  1  0  0  0  0
 12 13  1  0  0  0  0
 12 14  1  0  0  0  0
 12 15  1  0  0  0  0
M  END
> <ChemID>
100450

> <source_casrn>
513-35-9

> <CAS>
513-35-9

> <SMILES>
CC=C(C)C

> <NAME>
2-METHYL-2-BUTENE

> <preferred_name>
2-Methyl-2-butene

> <iupac>
2-methylbut-2-ene

> <MPID>
98993

> <dsstox_substance_id>
DTXSID8027165

> <Canonical_QSARr>
CC=C(C)C

> <InChI_Code_QSARr>
InChI=1S/C5H10/c1-4-5(2)3/h4H,1-3H3

> <InChI Key_QSARr>
BKOOMYPCSUNDGP-UHFFFAOYSA-N

> <OH>
8.689999999999999E-11

> <OH Temperature>
25.0

> <OH Data Type>
EXP

> <OH Reference>
ATKINSON,R (1989)

> <LogOH>
-10.060980223551331

$$$$
100451
  -INDIGO-08031719142D

 15 14  0  0  0  0  0  0  0  0999 V2000
    0.0000    0.0000    0.0000 C   0  0  0  0  0  0  0  0  0  0  0  0
    0.0000   -1.6000    0.0000 H   0  0  0  0  0  0  0  0  0  0  0  0
    1.6000    0.0000    0.0000 C   0  0  0  0  0  0  0  0  0  0  0  0
    1.8089   -1.5863    0.0000 H   0  0  0  0  0  0  0  0  0  0  0  0
    2.8694   -0.9740    0.0000 H   0  0  0  0  0  0  0  0  0  0  0  0
    2.4000    1.3856    0.0000 S   0  0  0  0  0  0  0  0  0  0  0  0
    4.0000    1.3856    0.0000 H   0  0  0  0  0  0  0  0  0  0  0  0
   -1.6000    0.0000    0.0000 C   0  0  0  0  0  0  0  0  0  0  0  0
   -3.2000    0.0000    0.0000 H   0  0  0  0  0  0  0  0  0  0  0  0
   -2.4000   -1.3856    0.0000 H   0  0  0  0  0  0  0  0  0  0  0  0
   -2.4000    1.3856    0.0000 H   0  0  0  0  0  0  0  0  0  0  0  0
    0.0000    1.6000    0.0000 C   0  0  0  0  0  0  0  0  0  0  0  0
    0.0000    3.2000    0.0000 H   0  0  0  0  0  0  0  0  0  0  0  0
    1.3857    2.4000    0.0000 H   0  0  0  0  0  0  0  0  0  0  0  0
   -1.3857    2.4000    0.0000 H   0  0  0  0  0  0  0  0  0  0  0  0
  1  2  1  0  0  0  0
  1  3  1  0  0  0  0
  3  4  1  0  0  0  0
  3  5  1  0  0  0  0
  3  6  1  0  0  0  0
  6  7  1  0  0  0  0
  1  8  1  0  0  0  0
  8  9  1  0  0  0  0
  8 10  1  0  0  0  0
  8 11  1  0  0  0  0
  1 12  1  0  0  0  0
 12 13  1  0  0  0  0
 12 14  1  0  0  0  0
 12 15  1  0  0  0  0
M  END
> <ChemID>
100451

> <source_casrn>
513-44-0

> <CAS>
513-44-0

> <SMILES>
CC(C)CS

> <NAME>
2-METHYL-1-PROPANETHIOL

> <preferred_name>
1-Propanethiol, 2-methyl-

> <iupac>
2-Methylpropane-1-thiol

> <MPID>
98994

> <dsstox_substance_id>
DTXSID9060156

> <Canonical_QSARr>
CC(C)CS

> <InChI_Code_QSARr>
InChI=1S/C4H10S/c1-4(2)3-5/h4-5H,3H2,1-2H3

> <InChI Key_QSARr>
BDFAOUQQXJIZDG-UHFFFAOYSA-N

> <OH>
4.499999999999999E-11

> <OH Temperature>
25.0

> <OH Data Type>
EXP

> <OH Reference>
ATKINSON,R (1989)

> <LogOH>
-10.346787486224644

$$$$
100452
  -INDIGO-08031719142D

 15 14  0  0  0  0  0  0  0  0999 V2000
    1.3856   -0.8000    0.0000 C   0  0  0  0  0  0  0  0  0  0  0  0
    2.7713   -1.6000    0.0000 H   0  0  0  0  0  0  0  0  0  0  0  0
    2.7713    0.0000    0.0000 H   0  0  0  0  0  0  0  0  0  0  0  0
    1.3856   -2.4000    0.0000 H   0  0  0  0  0  0  0  0  0  0  0  0
    0.0000    0.0000    0.0000 C   0  0  0  0  0  0  0  0  0  0  0  0
   -0.8000   -1.3856    0.0000 H   0  0  0  0  0  0  0  0  0  0  0  0
   -1.3856    0.8000    0.0000 C   0  0  0  0  0  0  0  0  0  0  0  0
   -0.7733    2.2782    0.0000 H   0  0  0  0  0  0  0  0  0  0  0  0
   -1.9980    2.2782    0.0000 H   0  0  0  0  0  0  0  0  0  0  0  0
   -2.7713    0.0000    0.0000 C   0  0  0  0  0  0  0  0  0  0  0  0
   -4.1569   -0.8000    0.0000 H   0  0  0  0  0  0  0  0  0  0  0  0
   -4.1569    0.8000    0.0000 H   0  0  0  0  0  0  0  0  0  0  0  0
   -2.7713   -1.6000    0.0000 H   0  0  0  0  0  0  0  0  0  0  0  0
    0.8000    1.3856    0.0000 S   0  0  0  0  0  0  0  0  0  0  0  0
    2.4000    1.3856    0.0000 H   0  0  0  0  0  0  0  0  0  0  0  0
  1  2  1  0  0  0  0
  1  3  1  0  0  0  0
  1  4  1  0  0  0  0
  1  5  1  0  0  0  0
  5  6  1  0  0  0  0
  5  7  1  0  0  0  0
  7  8  1  0  0  0  0
  7  9  1  0  0  0  0
  7 10  1  0  0  0  0
 10 11  1  0  0  0  0
 10 12  1  0  0  0  0
 10 13  1  0  0  0  0
  5 14  1  0  0  0  0
 14 15  1  0  0  0  0
M  END
> <ChemID>
100452

> <source_casrn>
513-53-1

> <CAS>
513-53-1

> <SMILES>
CCC(C)S

> <NAME>
2-BUTANETHIOL

> <preferred_name>
2-Butanethiol

> <iupac>
butane-2-thiol

> <MPID>
98995

> <dsstox_substance_id>
DTXSID1041396

> <Canonical_QSARr>
CCC(C)S

> <InChI_Code_QSARr>
InChI=1S/C4H10S/c1-3-4(2)5/h4-5H,3H2,1-2H3

> <InChI Key_QSARr>
LOCHFZBWPCLPAN-UHFFFAOYSA-N

> <OH>
4.000000000000001E-11

> <OH Temperature>
25.0

> <OH Data Type>
EXP

> <OH Reference>
ATKINSON,R (1989)

> <LogOH>
-10.39794000867203

$$$$
100454
  -INDIGO-08031719142D

 14 13  0  0  0  0  0  0  0  0999 V2000
    0.0000    0.0000    0.0000 C   0  0  0  0  0  0  0  0  0  0  0  0
    0.0000   -1.6000    0.0000 H   0  0  0  0  0  0  0  0  0  0  0  0
   -1.6000    0.0000    0.0000 C   0  0  0  0  0  0  0  0  0  0  0  0
   -3.2000    0.0000    0.0000 H   0  0  0  0  0  0  0  0  0  0  0  0
   -2.4000   -1.3856    0.0000 H   0  0  0  0  0  0  0  0  0  0  0  0
   -2.4000    1.3856    0.0000 H   0  0  0  0  0  0  0  0  0  0  0  0
    0.0000    1.6000    0.0000 O   0  0  0  0  0  0  0  0  0  0  0  0
    1.3857    2.4000    0.0000 H   0  0  0  0  0  0  0  0  0  0  0  0
    1.6000    0.0000    0.0000 C   0  0  0  0  0  0  0  0  0  0  0  0
    2.4000   -1.3856    0.0000 C   0  0  0  0  0  0  0  0  0  0  0  0
    3.2000   -2.7713    0.0000 H   0  0  0  0  0  0  0  0  0  0  0  0
    4.0000   -1.3856    0.0000 H   0  0  0  0  0  0  0  0  0  0  0  0
    1.6000   -2.7713    0.0000 H   0  0  0  0  0  0  0  0  0  0  0  0
    2.4000    1.3856    0.0000 O   0  0  0  0  0  0  0  0  0  0  0  0
  1  2  1  0  0  0  0
  1  3  1  0  0  0  0
  3  4  1  0  0  0  0
  3  5  1  0  0  0  0
  3  6  1  0  0  0  0
  1  7  1  0  0  0  0
  7  8  1  0  0  0  0
  1  9  1  0  0  0  0
  9 10  1  0  0  0  0
 10 11  1  0  0  0  0
 10 12  1  0  0  0  0
 10 13  1  0  0  0  0
  9 14  2  0  0  0  0
M  END
> <ChemID>
100454

> <source_casrn>
513-86-0

> <CAS>
513-86-0

> <SMILES>
CC(O)C(C)=O

> <NAME>
ACETOIN

> <preferred_name>
Acetoin

> <iupac>
3-hydroxybutan-2-one

> <MPID>
98997

> <dsstox_substance_id>
DTXSID0024399

> <Canonical_QSARr>
CC(O)C(C)=O

> <InChI_Code_QSARr>
InChI=1S/C4H8O2/c1-3(5)4(2)6/h3,5H,1-2H3

> <InChI Key_QSARr>
ROWKJAVDOGWPAT-UHFFFAOYSA-N

> <OH>
1.03E-11

> <OH Temperature>
23.0

> <OH Data Type>
EXP

> <OH Reference>
ASCHMANN,SM ET AL. (2000)

> <LogOH>
-10.987162775294845

$$$$
100455
  -INDIGO-08031719142D

 21 21  0  0  0  0  0  0  0  0999 V2000
    1.5999    0.0000    0.0000 C   0  0  0  0  0  0  0  0  0  0  0  0
    2.4000   -1.3856    0.0000 C   0  0  0  0  0  0  0  0  0  0  0  0
    4.0000   -1.3856    0.0000 H   0  0  0  0  0  0  0  0  0  0  0  0
    1.6001   -2.7713    0.0000 C   0  0  0  0  0  0  0  0  0  0  0  0
    2.4000   -4.1569    0.0000 H   0  0  0  0  0  0  0  0  0  0  0  0
   -0.0001   -2.7713    0.0000 C   0  0  0  0  0  0  0  0  0  0  0  0
   -0.8000   -4.1569    0.0000 H   0  0  0  0  0  0  0  0  0  0  0  0
   -0.8000   -1.3856    0.0000 C   0  0  0  0  0  0  0  0  0  0  0  0
   -2.4000   -1.3856    0.0000 C   0  0  0  0  0  0  0  0  0  0  0  0
   -4.0000   -1.3856    0.0000 H   0  0  0  0  0  0  0  0  0  0  0  0
   -3.2001   -2.7713    0.0000 H   0  0  0  0  0  0  0  0  0  0  0  0
   -3.2001    0.0000    0.0000 H   0  0  0  0  0  0  0  0  0  0  0  0
   -0.0001    0.0000    0.0000 C   0  0  0  0  0  0  0  0  0  0  0  0
   -0.8000    1.3856    0.0000 C   0  0  0  0  0  0  0  0  0  0  0  0
   -1.5999    2.7713    0.0000 H   0  0  0  0  0  0  0  0  0  0  0  0
   -2.4000    1.3856    0.0000 H   0  0  0  0  0  0  0  0  0  0  0  0
    0.0001    2.7713    0.0000 H   0  0  0  0  0  0  0  0  0  0  0  0
    2.4000    1.3856    0.0000 C   0  0  0  0  0  0  0  0  0  0  0  0
    3.1999    2.7713    0.0000 H   0  0  0  0  0  0  0  0  0  0  0  0
    4.0000    1.3856    0.0000 H   0  0  0  0  0  0  0  0  0  0  0  0
    1.5999    2.7713    0.0000 H   0  0  0  0  0  0  0  0  0  0  0  0
  1  2  1  0  0  0  0
  2  3  1  0  0  0  0
  2  4  2  0  0  0  0
  4  5  1  0  0  0  0
  4  6  1  0  0  0  0
  6  7  1  0  0  0  0
  6  8  2  0  0  0  0
  8  9  1  0  0  0  0
  9 10  1  0  0  0  0
  9 11  1  0  0  0  0
  9 12  1  0  0  0  0
  8 13  1  0  0  0  0
 13  1  2  0  0  0  0
 13 14  1  0  0  0  0
 14 15  1  0  0  0  0
 14 16  1  0  0  0  0
 14 17  1  0  0  0  0
  1 18  1  0  0  0  0
 18 19  1  0  0  0  0
 18 20  1  0  0  0  0
 18 21  1  0  0  0  0
M  END
> <ChemID>
100455

> <source_casrn>
526-73-8

> <CAS>
526-73-8

> <SMILES>
Cc1c(C)cccc1C

> <NAME>
1,2,3-TRIMETHYLBENZENE

> <preferred_name>
1,2,3-Trimethylbenzene

> <iupac>
1,2,3-trimethylbenzene

> <MPID>
98998

> <dsstox_substance_id>
DTXSID8047769

> <Canonical_QSARr>
Cc1c(C)cccc1C

> <InChI_Code_QSARr>
InChI=1S/C9H12/c1-7-5-4-6-8(2)9(7)3/h4-6H,1-3H3

> <InChI Key_QSARr>
FYGHSUNMUKGBRK-UHFFFAOYSA-N

> <OH>
3.269999999999999E-11

> <OH Temperature>
25.0

> <OH Data Type>
EXP

> <OH Reference>
ATKINSON,R (1989)

> <LogOH>
-10.485452247339694

$$$$
100456
  -INDIGO-08031719142D

 19 19  0  0  0  0  0  0  0  0999 V2000
    0.8000    1.3856    0.0000 C   0  0  0  0  0  0  0  0  0  0  0  0
    1.5999    2.7713    0.0000 H   0  0  0  0  0  0  0  0  0  0  0  0
   -0.0001    2.7713    0.0000 H   0  0  0  0  0  0  0  0  0  0  0  0
    2.4000    1.3856    0.0000 H   0  0  0  0  0  0  0  0  0  0  0  0
   -0.0001    0.0000    0.0000 C   0  0  0  0  0  0  0  0  0  0  0  0
    0.8000   -1.3856    0.0000 C   0  0  0  0  0  0  0  0  0  0  0  0
    2.4000   -1.3856    0.0000 C   0  0  0  0  0  0  0  0  0  0  0  0
    4.0000   -1.3856    0.0000 H   0  0  0  0  0  0  0  0  0  0  0  0
    3.2001   -2.7713    0.0000 H   0  0  0  0  0  0  0  0  0  0  0  0
    3.2001    0.0000    0.0000 H   0  0  0  0  0  0  0  0  0  0  0  0
   -0.0001   -2.7713    0.0000 C   0  0  0  0  0  0  0  0  0  0  0  0
    0.8000   -4.1569    0.0000 H   0  0  0  0  0  0  0  0  0  0  0  0
   -1.6001   -2.7713    0.0000 C   0  0  0  0  0  0  0  0  0  0  0  0
   -2.4000   -4.1569    0.0000 H   0  0  0  0  0  0  0  0  0  0  0  0
   -2.4000   -1.3856    0.0000 C   0  0  0  0  0  0  0  0  0  0  0  0
   -4.0000   -1.3856    0.0000 H   0  0  0  0  0  0  0  0  0  0  0  0
   -1.6001    0.0000    0.0000 C   0  0  0  0  0  0  0  0  0  0  0  0
   -2.4000    1.3856    0.0000 O   0  0  0  0  0  0  0  0  0  0  0  0
   -4.0000    1.3856    0.0000 H   0  0  0  0  0  0  0  0  0  0  0  0
  1  2  1  0  0  0  0
  1  3  1  0  0  0  0
  1  4  1  0  0  0  0
  1  5  1  0  0  0  0
  5  6  1  0  0  0  0
  6  7  1  0  0  0  0
  7  8  1  0  0  0  0
  7  9  1  0  0  0  0
  7 10  1  0  0  0  0
  6 11  2  0  0  0  0
 11 12  1  0  0  0  0
 11 13  1  0  0  0  0
 13 14  1  0  0  0  0
 13 15  2  0  0  0  0
 15 16  1  0  0  0  0
 15 17  1  0  0  0  0
 17  5  2  0  0  0  0
 17 18  1  0  0  0  0
 18 19  1  0  0  0  0
M  END
> <ChemID>
100456

> <source_casrn>
526-75-0

> <CAS>
526-75-0

> <SMILES>
Cc1cccc(O)c1C

> <NAME>
2,3-DIMETHYLPHENOL

> <preferred_name>
2,3-Dimethylphenol

> <iupac>
2,3-dimethylphenol

> <MPID>
98999

> <dsstox_substance_id>
DTXSID6025143

> <Canonical_QSARr>
Cc1cccc(O)c1C

> <InChI_Code_QSARr>
InChI=1S/C8H10O/c1-6-4-3-5-8(9)7(6)2/h3-5,9H,1-2H3

> <InChI Key_QSARr>
QWBBPBRQALCEIZ-UHFFFAOYSA-N

> <OH>
8.020000000000003E-11

> <OH Temperature>
25.0

> <OH Data Type>
EXP

> <OH Reference>
KWOK,ESC & ATKINSON,R (1994)

> <LogOH>
-10.095825631715844

$$$$
100458
  -INDIGO-08031719142D

 12 12  0  0  0  0  0  0  0  0999 V2000
    1.5912    0.1672    0.0000 C   0  0  0  0  0  0  0  0  0  0  0  0
    3.1825    0.3345    0.0000 H   0  0  0  0  0  0  0  0  0  0  0  0
    2.5316   -1.1271    0.0000 H   0  0  0  0  0  0  0  0  0  0  0  0
    2.2420    1.6289    0.0000 H   0  0  0  0  0  0  0  0  0  0  0  0
    0.0001    0.0000    0.0000 C   0  0  0  0  0  0  0  0  0  0  0  0
   -1.0706    1.1891    0.0000 C   0  0  0  0  0  0  0  0  0  0  0  0
   -0.7380    2.7541    0.0000 H   0  0  0  0  0  0  0  0  0  0  0  0
   -2.5323    0.5383    0.0000 C   0  0  0  0  0  0  0  0  0  0  0  0
   -3.9179    1.3382    0.0000 H   0  0  0  0  0  0  0  0  0  0  0  0
   -2.3650   -1.0530    0.0000 C   0  0  0  0  0  0  0  0  0  0  0  0
   -3.5541   -2.1236    0.0000 H   0  0  0  0  0  0  0  0  0  0  0  0
   -0.8000   -1.3856    0.0000 O   0  0  0  0  0  0  0  0  0  0  0  0
  1  2  1  0  0  0  0
  1  3  1  0  0  0  0
  1  4  1  0  0  0  0
  1  5  1  0  0  0  0
  5  6  2  0  0  0  0
  6  7  1  0  0  0  0
  6  8  1  0  0  0  0
  8  9  1  0  0  0  0
  8 10  2  0  0  0  0
 10 11  1  0  0  0  0
 10 12  1  0  0  0  0
 12  5  1  0  0  0  0
M  END
> <ChemID>
100458

> <source_casrn>
534-22-5

> <CAS>
534-22-5

> <SMILES>
Cc1ccco1

> <NAME>
2-METHYLFURAN

> <preferred_name>
2-Methylfuran

> <iupac>
2-methylfuran

> <MPID>
99001

> <dsstox_substance_id>
DTXSID9025611

> <Canonical_QSARr>
Cc1ccco1

> <InChI_Code_QSARr>
InChI=1S/C5H6O/c1-5-3-2-4-6-5/h2-4H,1H3

> <InChI Key_QSARr>
VQKFNUFAXTZWDK-UHFFFAOYSA-N

> <OH>
6.19E-11

> <OH Temperature>
27.0

> <OH Data Type>
EXP

> <OH Reference>
BIERBACH,A ET AL. (1992)

> <LogOH>
-10.208309350979881

$$$$
100459
  -INDIGO-08031719142D

 11 10  0  0  0  0  0  0  0  0999 V2000
    1.3856    0.8000    0.0000 C   0  0  0  0  0  0  0  0  0  0  0  0
    2.7713    1.6000    0.0000 H   0  0  0  0  0  0  0  0  0  0  0  0
    2.7713    0.0000    0.0000 H   0  0  0  0  0  0  0  0  0  0  0  0
    0.0000    0.0000    0.0000 C   0  0  0  0  0  0  0  0  0  0  0  0
    0.6123   -1.4782    0.0000 H   0  0  0  0  0  0  0  0  0  0  0  0
   -0.6123   -1.4782    0.0000 H   0  0  0  0  0  0  0  0  0  0  0  0
   -1.3856    0.8000    0.0000 C   0  0  0  0  0  0  0  0  0  0  0  0
   -2.7713    1.6000    0.0000 H   0  0  0  0  0  0  0  0  0  0  0  0
   -2.7713    0.0000    0.0000 H   0  0  0  0  0  0  0  0  0  0  0  0
   -1.3856    2.4000    0.0000 H   0  0  0  0  0  0  0  0  0  0  0  0
    1.3856    2.4000    0.0000 Cl  0  0  0  0  0  0  0  0  0  0  0  0
  1  2  1  0  0  0  0
  1  3  1  0  0  0  0
  1  4  1  0  0  0  0
  4  5  1  0  0  0  0
  4  6  1  0  0  0  0
  4  7  1  0  0  0  0
  7  8  1  0  0  0  0
  7  9  1  0  0  0  0
  7 10  1  0  0  0  0
  1 11  1  0  0  0  0
M  END
> <ChemID>
100459

> <source_casrn>
540-54-5

> <CAS>
540-54-5

> <SMILES>
CCCCl

> <NAME>
1-CHLOROPROPANE

> <preferred_name>
1-Chloropropane

> <iupac>
1-chloropropane

> <MPID>
99002

> <dsstox_substance_id>
DTXSID3051462

> <Canonical_QSARr>
CCCCl

> <InChI_Code_QSARr>
InChI=1S/C3H7Cl/c1-2-3-4/h2-3H2,1H3

> <InChI Key_QSARr>
SNMVRZFUUCLYTO-UHFFFAOYSA-N

> <OH>
1.12E-12

> <OH Temperature>
25.0

> <OH Data Type>
EXP

> <OH Reference>
DONAGHY,T ET AL. (1993)

> <LogOH>
-11.950781977329799

$$$$
100460
  -INDIGO-08031719142D

 26 25  0  0  0  0  0  0  0  0999 V2000
    0.0000    0.0000    0.0000 C   0  0  0  0  0  0  0  0  0  0  0  0
    1.3857   -0.8000    0.0000 C   0  0  0  0  0  0  0  0  0  0  0  0
    1.9979   -2.2782    0.0000 H   0  0  0  0  0  0  0  0  0  0  0  0
    0.7733   -2.2782    0.0000 H   0  0  0  0  0  0  0  0  0  0  0  0
    2.7713    0.0000    0.0000 C   0  0  0  0  0  0  0  0  0  0  0  0
    1.9713    1.3857    0.0000 H   0  0  0  0  0  0  0  0  0  0  0  0
    4.1570    0.8000    0.0000 C   0  0  0  0  0  0  0  0  0  0  0  0
    5.5426    1.6000    0.0000 H   0  0  0  0  0  0  0  0  0  0  0  0
    5.5426    0.0000    0.0000 H   0  0  0  0  0  0  0  0  0  0  0  0
    4.1570    2.4000    0.0000 H   0  0  0  0  0  0  0  0  0  0  0  0
    3.5713   -1.3857    0.0000 C   0  0  0  0  0  0  0  0  0  0  0  0
    4.3713   -2.7713    0.0000 H   0  0  0  0  0  0  0  0  0  0  0  0
    3.0240   -2.8891    0.0000 H   0  0  0  0  0  0  0  0  0  0  0  0
    5.1712   -1.3857    0.0000 H   0  0  0  0  0  0  0  0  0  0  0  0
   -1.3856    0.8000    0.0000 C   0  0  0  0  0  0  0  0  0  0  0  0
   -2.7713    1.6000    0.0000 H   0  0  0  0  0  0  0  0  0  0  0  0
   -2.7713    0.0000    0.0000 H   0  0  0  0  0  0  0  0  0  0  0  0
   -1.6635    2.3757    0.0000 H   0  0  0  0  0  0  0  0  0  0  0  0
    0.8000    1.3857    0.0000 C   0  0  0  0  0  0  0  0  0  0  0  0
    1.8284    2.6113    0.0000 H   0  0  0  0  0  0  0  0  0  0  0  0
    0.2527    2.8891    0.0000 H   0  0  0  0  0  0  0  0  0  0  0  0
   -0.7756    1.6635    0.0000 H   0  0  0  0  0  0  0  0  0  0  0  0
   -0.8000   -1.3857    0.0000 C   0  0  0  0  0  0  0  0  0  0  0  0
   -1.6000   -2.7713    0.0000 H   0  0  0  0  0  0  0  0  0  0  0  0
   -0.2527   -2.8891    0.0000 H   0  0  0  0  0  0  0  0  0  0  0  0
   -2.4000   -1.3857    0.0000 H   0  0  0  0  0  0  0  0  0  0  0  0
  1  2  1  0  0  0  0
  2  3  1  0  0  0  0
  2  4  1  0  0  0  0
  2  5  1  0  0  0  0
  5  6  1  0  0  0  0
  5  7  1  0  0  0  0
  7  8  1  0  0  0  0
  7  9  1  0  0  0  0
  7 10  1  0  0  0  0
  5 11  1  0  0  0  0
 11 12  1  0  0  0  0
 11 13  1  0  0  0  0
 11 14  1  0  0  0  0
  1 15  1  0  0  0  0
 15 16  1  0  0  0  0
 15 17  1  0  0  0  0
 15 18  1  0  0  0  0
  1 19  1  0  0  0  0
 19 20  1  0  0  0  0
 19 21  1  0  0  0  0
 19 22  1  0  0  0  0
  1 23  1  0  0  0  0
 23 24  1  0  0  0  0
 23 25  1  0  0  0  0
 23 26  1  0  0  0  0
M  END
> <ChemID>
100460

> <source_casrn>
540-84-1

> <CAS>
540-84-1

> <SMILES>
CC(C)CC(C)(C)C

> <NAME>
2,2,4-TRIMETHYLPENTANE

> <preferred_name>
2,2,4-Trimethylpentane

> <iupac>
2,2,4-trimethylpentane

> <MPID>
99003

> <dsstox_substance_id>
DTXSID7024370

> <Canonical_QSARr>
CC(C)CC(C)(C)C

> <InChI_Code_QSARr>
InChI=1S/C8H18/c1-7(2)6-8(3,4)5/h7H,6H2,1-5H3

> <InChI Key_QSARr>
NHTMVDHEPJAVLT-UHFFFAOYSA-N

> <OH>
3.68E-12

> <OH Temperature>
25.0

> <OH Data Type>
EXP

> <OH Reference>
ATKINSON,R (1989)

> <LogOH>
-11.434152181326477

$$$$
100462
  -INDIGO-08031719142D

 50 50  0  0  0  0  0  0  0  0999 V2000
    1.3856    0.8000    0.0000 O   0  0  0  0  0  0  0  0  0  0  0  0
    2.0365    2.2616    0.0000 Si  0  0  0  0  0  0  0  0  0  0  0  0
    3.2255    1.1910    0.0000 C   0  0  0  0  0  0  0  0  0  0  0  0
    4.4144    0.1204    0.0000 H   0  0  0  0  0  0  0  0  0  0  0  0
    4.7471    1.6855    0.0000 H   0  0  0  0  0  0  0  0  0  0  0  0
    2.8928   -0.3739    0.0000 H   0  0  0  0  0  0  0  0  0  0  0  0
    3.4221    3.0617    0.0000 C   0  0  0  0  0  0  0  0  0  0  0  0
    4.8077    3.8617    0.0000 H   0  0  0  0  0  0  0  0  0  0  0  0
    4.9256    2.5145    0.0000 H   0  0  0  0  0  0  0  0  0  0  0  0
    3.4221    4.6616    0.0000 H   0  0  0  0  0  0  0  0  0  0  0  0
    1.7038    3.8267    0.0000 O   0  0  0  0  0  0  0  0  0  0  0  0
    0.5147    4.8973    0.0000 Si  0  0  0  0  0  0  0  0  0  0  0  0
    2.0182    5.4445    0.0000 C   0  0  0  0  0  0  0  0  0  0  0  0
    2.5654    6.9481    0.0000 H   0  0  0  0  0  0  0  0  0  0  0  0
    3.5939    5.7223    0.0000 H   0  0  0  0  0  0  0  0  0  0  0  0
    0.9897    6.6703    0.0000 H   0  0  0  0  0  0  0  0  0  0  0  0
   -0.0846    6.3808    0.0000 C   0  0  0  0  0  0  0  0  0  0  0  0
   -0.6841    7.8643    0.0000 H   0  0  0  0  0  0  0  0  0  0  0  0
    0.9004    7.6416    0.0000 H   0  0  0  0  0  0  0  0  0  0  0  0
   -1.6691    6.6035    0.0000 H   0  0  0  0  0  0  0  0  0  0  0  0
   -1.0766    5.0645    0.0000 O   0  0  0  0  0  0  0  0  0  0  0  0
   -2.4622    4.2646    0.0000 Si  0  0  0  0  0  0  0  0  0  0  0  0
   -2.5180    5.8636    0.0000 C   0  0  0  0  0  0  0  0  0  0  0  0
   -3.7787    6.8487    0.0000 H   0  0  0  0  0  0  0  0  0  0  0  0
   -2.2953    7.4480    0.0000 H   0  0  0  0  0  0  0  0  0  0  0  0
   -4.0015    5.2641    0.0000 H   0  0  0  0  0  0  0  0  0  0  0  0
   -4.0534    4.4318    0.0000 C   0  0  0  0  0  0  0  0  0  0  0  0
   -5.6445    4.5990    0.0000 H   0  0  0  0  0  0  0  0  0  0  0  0
   -4.9939    3.1374    0.0000 H   0  0  0  0  0  0  0  0  0  0  0  0
   -4.7042    5.8934    0.0000 H   0  0  0  0  0  0  0  0  0  0  0  0
   -3.1129    2.8028    0.0000 O   0  0  0  0  0  0  0  0  0  0  0  0
   -2.7802    1.2379    0.0000 Si  0  0  0  0  0  0  0  0  0  0  0  0
   -4.3182    1.6789    0.0000 C   0  0  0  0  0  0  0  0  0  0  0  0
   -5.6447    0.7841    0.0000 H   0  0  0  0  0  0  0  0  0  0  0  0
   -5.7564    2.3803    0.0000 H   0  0  0  0  0  0  0  0  0  0  0  0
   -4.2068    0.0828    0.0000 H   0  0  0  0  0  0  0  0  0  0  0  0
   -3.4311   -0.2239    0.0000 C   0  0  0  0  0  0  0  0  0  0  0  0
   -4.0819   -1.6855    0.0000 H   0  0  0  0  0  0  0  0  0  0  0  0
   -2.4906   -1.5183    0.0000 H   0  0  0  0  0  0  0  0  0  0  0  0
   -5.0222   -0.3911    0.0000 H   0  0  0  0  0  0  0  0  0  0  0  0
   -1.5912    0.1673    0.0000 O   0  0  0  0  0  0  0  0  0  0  0  0
    0.0000   -0.0001    0.0000 Si  0  0  0  0  0  0  0  0  0  0  0  0
   -0.8947   -1.3264    0.0000 C   0  0  0  0  0  0  0  0  0  0  0  0
   -0.1933   -2.7645    0.0000 H   0  0  0  0  0  0  0  0  0  0  0  0
   -1.7894   -2.6529    0.0000 H   0  0  0  0  0  0  0  0  0  0  0  0
   -0.0559   -1.5991    0.0000 H   0  0  0  0  0  0  0  0  0  0  0  0
    1.3569   -0.8478    0.0000 C   0  0  0  0  0  0  0  0  0  0  0  0
    2.7137   -1.6957    0.0000 H   0  0  0  0  0  0  0  0  0  0  0  0
    1.3010   -2.4470    0.0000 H   0  0  0  0  0  0  0  0  0  0  0  0
    0.7014   -1.4380    0.0000 H   0  0  0  0  0  0  0  0  0  0  0  0
  1  2  1  0  0  0  0
  2  3  1  0  0  0  0
  3  4  1  0  0  0  0
  3  5  1  0  0  0  0
  3  6  1  0  0  0  0
  2  7  1  0  0  0  0
  7  8  1  0  0  0  0
  7  9  1  0  0  0  0
  7 10  1  0  0  0  0
  2 11  1  0  0  0  0
 11 12  1  0  0  0  0
 12 13  1  0  0  0  0
 13 14  1  0  0  0  0
 13 15  1  0  0  0  0
 13 16  1  0  0  0  0
 12 17  1  0  0  0  0
 17 18  1  0  0  0  0
 17 19  1  0  0  0  0
 17 20  1  0  0  0  0
 12 21  1  0  0  0  0
 21 22  1  0  0  0  0
 22 23  1  0  0  0  0
 23 24  1  0  0  0  0
 23 25  1  0  0  0  0
 23 26  1  0  0  0  0
 22 27  1  0  0  0  0
 27 28  1  0  0  0  0
 27 29  1  0  0  0  0
 27 30  1  0  0  0  0
 22 31  1  0  0  0  0
 31 32  1  0  0  0  0
 32 33  1  0  0  0  0
 33 34  1  0  0  0  0
 33 35  1  0  0  0  0
 33 36  1  0  0  0  0
 32 37  1  0  0  0  0
 37 38  1  0  0  0  0
 37 39  1  0  0  0  0
 37 40  1  0  0  0  0
 32 41  1  0  0  0  0
 41 42  1  0  0  0  0
 42  1  1  0  0  0  0
 42 43  1  0  0  0  0
 43 44  1  0  0  0  0
 43 45  1  0  0  0  0
 43 46  1  0  0  0  0
 42 47  1  0  0  0  0
 47 48  1  0  0  0  0
 47 49  1  0  0  0  0
 47 50  1  0  0  0  0
M  END
> <ChemID>
100462

> <source_casrn>
541-02-6

> <CAS>
541-02-6

> <SMILES>
C[Si]1(C)O[Si](C)(C)O[Si](C)(C)O[Si](C)(C)O[Si](C)(C)O1

> <NAME>
DECAMETHYLCYCLOPENTASILOXANE

> <preferred_name>
Decamethylcyclopentasiloxane

> <iupac>
2,2,4,4,6,6,8,8,10,10-decamethyl-1,3,5,7,9,2,4,6,8,10-pentoxapentasilecane

> <MPID>
99005

> <dsstox_substance_id>
DTXSID1027184

> <Canonical_QSARr>
C[Si]1(C)O[Si](C)(C)O[Si](C)(C)O[Si](C)(C)O[Si](C)(C)O1

> <InChI_Code_QSARr>
InChI=1S/C10H30O5Si5/c1-16(2)11-17(3,4)13-19(7,8)15-20(9,10)14-18(5,6)12-16/h1-10H3

> <InChI Key_QSARr>
XMSXQFUHVRWGNA-UHFFFAOYSA-N

> <OH>
1.55E-12

> <OH Temperature>
25.0

> <OH Data Type>
EXP

> <OH Reference>
ATKINSON,R (1991)

> <LogOH>
-11.80966830182971

$$$$
100463
  -INDIGO-08031719142D

 30 30  0  0  0  0  0  0  0  0999 V2000
    0.0000    1.6000    0.0000 O   0  0  0  0  0  0  0  0  0  0  0  0
   -1.3856    2.4000    0.0000 Si  0  0  0  0  0  0  0  0  0  0  0  0
   -0.3572    3.6257    0.0000 C   0  0  0  0  0  0  0  0  0  0  0  0
    0.6713    4.8513    0.0000 H   0  0  0  0  0  0  0  0  0  0  0  0
   -0.9044    5.1292    0.0000 H   0  0  0  0  0  0  0  0  0  0  0  0
    1.2185    3.3479    0.0000 H   0  0  0  0  0  0  0  0  0  0  0  0
   -2.4141    3.6257    0.0000 C   0  0  0  0  0  0  0  0  0  0  0  0
   -3.4426    4.8513    0.0000 H   0  0  0  0  0  0  0  0  0  0  0  0
   -3.9897    3.3479    0.0000 H   0  0  0  0  0  0  0  0  0  0  0  0
   -1.8669    5.1292    0.0000 H   0  0  0  0  0  0  0  0  0  0  0  0
   -2.7713    1.6000    0.0000 O   0  0  0  0  0  0  0  0  0  0  0  0
   -2.7713    0.0000    0.0000 Si  0  0  0  0  0  0  0  0  0  0  0  0
   -4.3470    0.2779    0.0000 C   0  0  0  0  0  0  0  0  0  0  0  0
   -5.9227    0.5557    0.0000 H   0  0  0  0  0  0  0  0  0  0  0  0
   -5.3755   -0.9479    0.0000 H   0  0  0  0  0  0  0  0  0  0  0  0
   -4.8942    1.7813    0.0000 H   0  0  0  0  0  0  0  0  0  0  0  0
   -3.3185   -1.5036    0.0000 C   0  0  0  0  0  0  0  0  0  0  0  0
   -3.8657   -3.0070    0.0000 H   0  0  0  0  0  0  0  0  0  0  0  0
   -2.2900   -2.7292    0.0000 H   0  0  0  0  0  0  0  0  0  0  0  0
   -4.8942   -1.7814    0.0000 H   0  0  0  0  0  0  0  0  0  0  0  0
   -1.3856   -0.8000    0.0000 O   0  0  0  0  0  0  0  0  0  0  0  0
    0.0000    0.0000    0.0000 Si  0  0  0  0  0  0  0  0  0  0  0  0
    0.5472   -1.5036    0.0000 C   0  0  0  0  0  0  0  0  0  0  0  0
    1.0944   -3.0070    0.0000 H   0  0  0  0  0  0  0  0  0  0  0  0
    2.1229   -1.7814    0.0000 H   0  0  0  0  0  0  0  0  0  0  0  0
   -0.4813   -2.7292    0.0000 H   0  0  0  0  0  0  0  0  0  0  0  0
    1.5757    0.2779    0.0000 C   0  0  0  0  0  0  0  0  0  0  0  0
    3.1514    0.5557    0.0000 H   0  0  0  0  0  0  0  0  0  0  0  0
    2.1229    1.7813    0.0000 H   0  0  0  0  0  0  0  0  0  0  0  0
    2.6042   -0.9479    0.0000 H   0  0  0  0  0  0  0  0  0  0  0  0
  1  2  1  0  0  0  0
  2  3  1  0  0  0  0
  3  4  1  0  0  0  0
  3  5  1  0  0  0  0
  3  6  1  0  0  0  0
  2  7  1  0  0  0  0
  7  8  1  0  0  0  0
  7  9  1  0  0  0  0
  7 10  1  0  0  0  0
  2 11  1  0  0  0  0
 11 12  1  0  0  0  0
 12 13  1  0  0  0  0
 13 14  1  0  0  0  0
 13 15  1  0  0  0  0
 13 16  1  0  0  0  0
 12 17  1  0  0  0  0
 17 18  1  0  0  0  0
 17 19  1  0  0  0  0
 17 20  1  0  0  0  0
 12 21  1  0  0  0  0
 21 22  1  0  0  0  0
 22  1  1  0  0  0  0
 22 23  1  0  0  0  0
 23 24  1  0  0  0  0
 23 25  1  0  0  0  0
 23 26  1  0  0  0  0
 22 27  1  0  0  0  0
 27 28  1  0  0  0  0
 27 29  1  0  0  0  0
 27 30  1  0  0  0  0
M  END
> <ChemID>
100463

> <source_casrn>
541-05-9

> <CAS>
541-05-9

> <SMILES>
C[Si]1(C)O[Si](C)(C)O[Si](C)(C)O1

> <NAME>
HEXAMETHYLCYCLOTRISILOXANE

> <preferred_name>
Hexamethylcyclotrisiloxane

> <iupac>
2,2,4,4,6,6-hexamethyl-1,3,5,2,4,6-trioxatrisilinane

> <MPID>
99006

> <dsstox_substance_id>
DTXSID6027185

> <Canonical_QSARr>
C[Si]1(C)O[Si](C)(C)O[Si](C)(C)O1

> <InChI_Code_QSARr>
InChI=1S/C6H18O3Si3/c1-10(2)7-11(3,4)9-12(5,6)8-10/h1-6H3

> <InChI Key_QSARr>
HTDJPCNNEPUOOQ-UHFFFAOYSA-N

> <OH>
5.2E-13

> <OH Temperature>
24.0

> <OH Data Type>
EXP

> <OH Reference>
ATKINSON,R (1991)

> <LogOH>
-12.283996656365193

$$$$
100464
  -INDIGO-08031719142D

 12 12  0  0  0  0  0  0  0  0999 V2000
    0.8000    1.3856    0.0000 Cl  0  0  0  0  0  0  0  0  0  0  0  0
   -0.0000   -0.0000    0.0000 C   0  0  0  0  0  0  0  0  0  0  0  0
    0.8000   -1.3857    0.0000 C   0  0  0  0  0  0  0  0  0  0  0  0
    2.4000   -1.3857    0.0000 H   0  0  0  0  0  0  0  0  0  0  0  0
   -0.0000   -2.7713    0.0000 C   0  0  0  0  0  0  0  0  0  0  0  0
    0.8000   -4.1569    0.0000 Cl  0  0  0  0  0  0  0  0  0  0  0  0
   -1.6000   -2.7713    0.0000 C   0  0  0  0  0  0  0  0  0  0  0  0
   -2.4000   -4.1569    0.0000 H   0  0  0  0  0  0  0  0  0  0  0  0
   -2.4000   -1.3856    0.0000 C   0  0  0  0  0  0  0  0  0  0  0  0
   -4.0000   -1.3856    0.0000 H   0  0  0  0  0  0  0  0  0  0  0  0
   -1.6000   -0.0000    0.0000 C   0  0  0  0  0  0  0  0  0  0  0  0
   -2.4000    1.3856    0.0000 H   0  0  0  0  0  0  0  0  0  0  0  0
  1  2  1  0  0  0  0
  2  3  1  0  0  0  0
  3  4  1  0  0  0  0
  3  5  2  0  0  0  0
  5  6  1  0  0  0  0
  5  7  1  0  0  0  0
  7  8  1  0  0  0  0
  7  9  2  0  0  0  0
  9 10  1  0  0  0  0
  9 11  1  0  0  0  0
 11  2  2  0  0  0  0
 11 12  1  0  0  0  0
M  END
> <ChemID>
100464

> <source_casrn>
541-73-1

> <CAS>
541-73-1

> <SMILES>
Clc1cc(Cl)ccc1

> <NAME>
3-DICHLOROBENZENE

> <preferred_name>
1,3-Dichlorobenzene

> <iupac>
1,3-dichlorobenzene

> <MPID>
99007

> <dsstox_substance_id>
DTXSID6022056

> <Canonical_QSARr>
Clc1cc(Cl)ccc1

> <InChI_Code_QSARr>
InChI=1S/C6H4Cl2/c7-5-2-1-3-6(8)4-5/h1-4H

> <InChI Key_QSARr>
ZPQOPVIELGIULI-UHFFFAOYSA-N

> <OH>
7.199999999999999E-13

> <OH Temperature>
25.0

> <OH Data Type>
EXP

> <OH Reference>
ATKINSON,R (1989)

> <LogOH>
-12.142667503568736

$$$$
100466
  -INDIGO-08031719142D

 17 16  0  0  0  0  0  0  0  0999 V2000
    2.7713   -0.0000    0.0000 C   0  0  0  0  0  0  0  0  0  0  0  0
    4.1569   -0.8000    0.0000 H   0  0  0  0  0  0  0  0  0  0  0  0
    4.1569    0.8000    0.0000 H   0  0  0  0  0  0  0  0  0  0  0  0
    1.3856    0.8000    0.0000 C   0  0  0  0  0  0  0  0  0  0  0  0
    0.7734    2.2782    0.0000 H   0  0  0  0  0  0  0  0  0  0  0  0
    1.9979    2.2782    0.0000 H   0  0  0  0  0  0  0  0  0  0  0  0
    0.0001   -0.0000    0.0000 C   0  0  0  0  0  0  0  0  0  0  0  0
    0.6123   -1.4782    0.0000 H   0  0  0  0  0  0  0  0  0  0  0  0
   -0.6123   -1.4782    0.0000 H   0  0  0  0  0  0  0  0  0  0  0  0
   -1.3856    0.8000    0.0000 C   0  0  0  0  0  0  0  0  0  0  0  0
   -1.9979    2.2782    0.0000 H   0  0  0  0  0  0  0  0  0  0  0  0
   -0.7734    2.2782    0.0000 H   0  0  0  0  0  0  0  0  0  0  0  0
   -2.7713   -0.0000    0.0000 C   0  0  0  0  0  0  0  0  0  0  0  0
   -4.1569   -0.8000    0.0000 H   0  0  0  0  0  0  0  0  0  0  0  0
   -4.1569    0.8000    0.0000 H   0  0  0  0  0  0  0  0  0  0  0  0
   -2.7713   -1.6000    0.0000 H   0  0  0  0  0  0  0  0  0  0  0  0
    2.7713   -1.6000    0.0000 Cl  0  0  0  0  0  0  0  0  0  0  0  0
  1  2  1  0  0  0  0
  1  3  1  0  0  0  0
  1  4  1  0  0  0  0
  4  5  1  0  0  0  0
  4  6  1  0  0  0  0
  4  7  1  0  0  0  0
  7  8  1  0  0  0  0
  7  9  1  0  0  0  0
  7 10  1  0  0  0  0
 10 11  1  0  0  0  0
 10 12  1  0  0  0  0
 10 13  1  0  0  0  0
 13 14  1  0  0  0  0
 13 15  1  0  0  0  0
 13 16  1  0  0  0  0
  1 17  1  0  0  0  0
M  END
> <ChemID>
100466

> <source_casrn>
543-59-9

> <CAS>
543-59-9

> <SMILES>
CCCCCCl

> <NAME>
1-CHLOROPENTANE

> <preferred_name>


> <iupac>


> <MPID>
99009

> <dsstox_substance_id>
DTXSID40870603

> <Canonical_QSARr>
CCCCCCl

> <InChI_Code_QSARr>
InChI=1S/C5H11Cl/c1-2-3-4-5-6/h2-5H2,1H3

> <InChI Key_QSARr>
SQCZQTSHSZLZIQ-UHFFFAOYSA-N

> <OH>
3.36E-12

> <OH Temperature>
22.0

> <OH Data Type>
EXP

> <OH Reference>
MARKERT,R & NIELSON,OJ (1992A)

> <LogOH>
-11.47366072261014

$$$$
100468
  -INDIGO-08031719142D

 20 19  0  0  0  0  0  0  0  0999 V2000
    0.0001    0.0000    0.0000 C   0  0  0  0  0  0  0  0  0  0  0  0
    0.6124    1.4782    0.0000 H   0  0  0  0  0  0  0  0  0  0  0  0
   -0.6122    1.4782    0.0000 H   0  0  0  0  0  0  0  0  0  0  0  0
   -1.3857   -0.8000    0.0000 C   0  0  0  0  0  0  0  0  0  0  0  0
   -1.9980   -2.2782    0.0000 H   0  0  0  0  0  0  0  0  0  0  0  0
   -0.7734   -2.2782    0.0000 H   0  0  0  0  0  0  0  0  0  0  0  0
   -2.7713    0.0000    0.0000 C   0  0  0  0  0  0  0  0  0  0  0  0
   -2.1590    1.4782    0.0000 H   0  0  0  0  0  0  0  0  0  0  0  0
   -3.3836    1.4782    0.0000 H   0  0  0  0  0  0  0  0  0  0  0  0
   -4.1569   -0.8000    0.0000 C   0  0  0  0  0  0  0  0  0  0  0  0
   -5.5426   -1.6000    0.0000 H   0  0  0  0  0  0  0  0  0  0  0  0
   -5.5426    0.0000    0.0000 H   0  0  0  0  0  0  0  0  0  0  0  0
   -4.1569   -2.4000    0.0000 H   0  0  0  0  0  0  0  0  0  0  0  0
    1.3857   -0.8000    0.0000 C   0  0  0  0  0  0  0  0  0  0  0  0
    0.7734   -2.2782    0.0000 H   0  0  0  0  0  0  0  0  0  0  0  0
    1.9980   -2.2782    0.0000 H   0  0  0  0  0  0  0  0  0  0  0  0
    2.7713    0.0000    0.0000 C   0  0  0  0  0  0  0  0  0  0  0  0
    4.1569    0.8000    0.0000 H   0  0  0  0  0  0  0  0  0  0  0  0
    4.1569   -0.8000    0.0000 H   0  0  0  0  0  0  0  0  0  0  0  0
    2.7713    1.6000    0.0000 Cl  0  0  0  0  0  0  0  0  0  0  0  0
  1  2  1  0  0  0  0
  1  3  1  0  0  0  0
  1  4  1  0  0  0  0
  4  5  1  0  0  0  0
  4  6  1  0  0  0  0
  4  7  1  0  0  0  0
  7  8  1  0  0  0  0
  7  9  1  0  0  0  0
  7 10  1  0  0  0  0
 10 11  1  0  0  0  0
 10 12  1  0  0  0  0
 10 13  1  0  0  0  0
  1 14  1  0  0  0  0
 14 15  1  0  0  0  0
 14 16  1  0  0  0  0
 14 17  1  0  0  0  0
 17 18  1  0  0  0  0
 17 19  1  0  0  0  0
 17 20  1  0  0  0  0
M  END
> <ChemID>
100468

> <source_casrn>
544-10-5

> <CAS>
544-10-5

> <SMILES>
CCCCCCCl

> <NAME>
1-CHLOROHEXANE

> <preferred_name>
1-Chlorohexane

> <iupac>
1-CHLOROHEXANE

> <MPID>
99010

> <dsstox_substance_id>
DTXSID1060265

> <Canonical_QSARr>
CCCCCCCl

> <InChI_Code_QSARr>
InChI=1S/C6H13Cl/c1-2-3-4-5-6-7/h2-6H2,1H3

> <InChI Key_QSARr>
MLRVZFYXUZQSRU-UHFFFAOYSA-N

> <OH>
3.800000000000001E-12

> <OH Temperature>
25.0

> <OH Data Type>
EXP

> <OH Reference>
MARKERT,F & NIELSEN,OJ (1992)

> <LogOH>
-11.420216403383186

$$$$
100469
  -INDIGO-08031719142D

 16 15  0  0  0  0  0  0  0  0999 V2000
    2.7713   -0.0000    0.0000 C   0  0  0  0  0  0  0  0  0  0  0  0
    4.1569   -0.8000    0.0000 H   0  0  0  0  0  0  0  0  0  0  0  0
    4.1569    0.8000    0.0000 H   0  0  0  0  0  0  0  0  0  0  0  0
    2.7713   -1.6000    0.0000 H   0  0  0  0  0  0  0  0  0  0  0  0
    1.3857    0.8000    0.0000 C   0  0  0  0  0  0  0  0  0  0  0  0
    0.7734    2.2782    0.0000 H   0  0  0  0  0  0  0  0  0  0  0  0
    1.9980    2.2782    0.0000 H   0  0  0  0  0  0  0  0  0  0  0  0
    0.0001   -0.0000    0.0000 C   0  0  0  0  0  0  0  0  0  0  0  0
    0.6124   -1.4782    0.0000 H   0  0  0  0  0  0  0  0  0  0  0  0
   -0.6122   -1.4782    0.0000 H   0  0  0  0  0  0  0  0  0  0  0  0
   -1.3857    0.8000    0.0000 C   0  0  0  0  0  0  0  0  0  0  0  0
   -1.9980    2.2782    0.0000 H   0  0  0  0  0  0  0  0  0  0  0  0
   -0.7734    2.2782    0.0000 H   0  0  0  0  0  0  0  0  0  0  0  0
   -2.7713   -0.0000    0.0000 O   0  0  0  0  0  0  0  0  0  0  0  0
   -4.1569    0.8000    0.0000 N   0  0  0  0  0  0  0  0  0  0  0  0
   -5.5426   -0.0000    0.0000 O   0  0  0  0  0  0  0  0  0  0  0  0
  1  2  1  0  0  0  0
  1  3  1  0  0  0  0
  1  4  1  0  0  0  0
  1  5  1  0  0  0  0
  5  6  1  0  0  0  0
  5  7  1  0  0  0  0
  5  8  1  0  0  0  0
  8  9  1  0  0  0  0
  8 10  1  0  0  0  0
  8 11  1  0  0  0  0
 11 12  1  0  0  0  0
 11 13  1  0  0  0  0
 11 14  1  0  0  0  0
 14 15  1  0  0  0  0
 15 16  2  0  0  0  0
M  END
> <ChemID>
100469

> <source_casrn>
544-16-1

> <CAS>
544-16-1

> <SMILES>
CCCCON=O

> <NAME>
1-BUTYLNITRITE

> <preferred_name>
N-Butylnitrite

> <iupac>
butyl nitrite

> <MPID>
99011

> <dsstox_substance_id>
DTXSID8049418

> <Canonical_QSARr>
CCCCON=O

> <InChI_Code_QSARr>
InChI=1S/C4H9NO2/c1-2-3-4-7-5-6/h2-4H2,1H3

> <InChI Key_QSARr>
JQJPBYFTQAANLE-UHFFFAOYSA-N

> <OH>
2.72E-12

> <OH Temperature>
25.0

> <OH Data Type>
EXP

> <OH Reference>
ATKINSON,R (1994)

> <LogOH>
-11.565431095965783

$$$$
100471
  -INDIGO-08031719142D

 27 26  0  0  0  0  0  0  0  0999 V2000
    2.7714   -0.0000    0.0000 C   0  0  0  0  0  0  0  0  0  0  0  0
    4.1569   -0.8000    0.0000 H   0  0  0  0  0  0  0  0  0  0  0  0
    4.1569    0.8000    0.0000 H   0  0  0  0  0  0  0  0  0  0  0  0
    2.7714   -1.6000    0.0000 H   0  0  0  0  0  0  0  0  0  0  0  0
    1.3856    0.8000    0.0000 C   0  0  0  0  0  0  0  0  0  0  0  0
    0.7733    2.2782    0.0000 H   0  0  0  0  0  0  0  0  0  0  0  0
    1.9980    2.2782    0.0000 H   0  0  0  0  0  0  0  0  0  0  0  0
    0.0001   -0.0000    0.0000 C   0  0  0  0  0  0  0  0  0  0  0  0
    0.6122   -1.4782    0.0000 H   0  0  0  0  0  0  0  0  0  0  0  0
   -0.6122   -1.4782    0.0000 H   0  0  0  0  0  0  0  0  0  0  0  0
   -1.3856    0.8000    0.0000 C   0  0  0  0  0  0  0  0  0  0  0  0
   -1.9980    2.2782    0.0000 H   0  0  0  0  0  0  0  0  0  0  0  0
   -0.7733    2.2782    0.0000 H   0  0  0  0  0  0  0  0  0  0  0  0
   -2.7712   -0.0000    0.0000 S   0  0  0  0  0  0  0  0  0  0  0  0
   -4.1569    0.8000    0.0000 C   0  0  0  0  0  0  0  0  0  0  0  0
   -4.7692    2.2782    0.0000 H   0  0  0  0  0  0  0  0  0  0  0  0
   -3.5446    2.2782    0.0000 H   0  0  0  0  0  0  0  0  0  0  0  0
   -5.5425   -0.0000    0.0000 C   0  0  0  0  0  0  0  0  0  0  0  0
   -4.9304   -1.4782    0.0000 H   0  0  0  0  0  0  0  0  0  0  0  0
   -6.1548   -1.4782    0.0000 H   0  0  0  0  0  0  0  0  0  0  0  0
   -6.9282    0.8000    0.0000 C   0  0  0  0  0  0  0  0  0  0  0  0
   -7.5405    2.2782    0.0000 H   0  0  0  0  0  0  0  0  0  0  0  0
   -6.3159    2.2782    0.0000 H   0  0  0  0  0  0  0  0  0  0  0  0
   -8.3137   -0.0000    0.0000 C   0  0  0  0  0  0  0  0  0  0  0  0
   -9.6995   -0.8000    0.0000 H   0  0  0  0  0  0  0  0  0  0  0  0
   -9.6995    0.8000    0.0000 H   0  0  0  0  0  0  0  0  0  0  0  0
   -8.3137   -1.6000    0.0000 H   0  0  0  0  0  0  0  0  0  0  0  0
  1  2  1  0  0  0  0
  1  3  1  0  0  0  0
  1  4  1  0  0  0  0
  1  5  1  0  0  0  0
  5  6  1  0  0  0  0
  5  7  1  0  0  0  0
  5  8  1  0  0  0  0
  8  9  1  0  0  0  0
  8 10  1  0  0  0  0
  8 11  1  0  0  0  0
 11 12  1  0  0  0  0
 11 13  1  0  0  0  0
 11 14  1  0  0  0  0
 14 15  1  0  0  0  0
 15 16  1  0  0  0  0
 15 17  1  0  0  0  0
 15 18  1  0  0  0  0
 18 19  1  0  0  0  0
 18 20  1  0  0  0  0
 18 21  1  0  0  0  0
 21 22  1  0  0  0  0
 21 23  1  0  0  0  0
 21 24  1  0  0  0  0
 24 25  1  0  0  0  0
 24 26  1  0  0  0  0
 24 27  1  0  0  0  0
M  END
> <ChemID>
100471

> <source_casrn>
544-40-1

> <CAS>
544-40-1

> <SMILES>
CCCCSCCCC

> <NAME>
Di-n-butyl sulfide

> <preferred_name>
Dibutyl sulfide

> <iupac>
1-(butylsulfanyl)butane

> <MPID>
99013

> <dsstox_substance_id>
DTXSID6022058

> <Canonical_QSARr>
CCCCSCCCC

> <InChI_Code_QSARr>
InChI=1S/C8H18S/c1-3-5-7-9-8-6-4-2/h3-8H2,1-2H3

> <InChI Key_QSARr>
HTIRHQRTDBPHNZ-UHFFFAOYSA-N

> <OH>
3.740000000000001E-11

> <OH Temperature>
22.0

> <OH Data Type>
EXP

> <OH Reference>
ATKINSON,R (1994)

> <LogOH>
-10.427128397799535

$$$$
100472
  -INDIGO-08031719142D

 50 49  0  0  0  0  0  0  0  0999 V2000
    9.6995   -0.8000    0.0000 C   0  0  0  0  0  0  0  0  0  0  0  0
   11.0851   -1.6000    0.0000 H   0  0  0  0  0  0  0  0  0  0  0  0
   11.0851    0.0000    0.0000 H   0  0  0  0  0  0  0  0  0  0  0  0
    9.6995   -2.4000    0.0000 H   0  0  0  0  0  0  0  0  0  0  0  0
    8.3138    0.0000    0.0000 C   0  0  0  0  0  0  0  0  0  0  0  0
    8.9260    1.4782    0.0000 H   0  0  0  0  0  0  0  0  0  0  0  0
    7.7017    1.4782    0.0000 H   0  0  0  0  0  0  0  0  0  0  0  0
    6.9282   -0.8000    0.0000 C   0  0  0  0  0  0  0  0  0  0  0  0
    6.3161   -2.2782    0.0000 H   0  0  0  0  0  0  0  0  0  0  0  0
    7.5403   -2.2782    0.0000 H   0  0  0  0  0  0  0  0  0  0  0  0
    5.5426    0.0000    0.0000 C   0  0  0  0  0  0  0  0  0  0  0  0
    6.1547    1.4782    0.0000 H   0  0  0  0  0  0  0  0  0  0  0  0
    4.9304    1.4782    0.0000 H   0  0  0  0  0  0  0  0  0  0  0  0
    4.1569   -0.8000    0.0000 C   0  0  0  0  0  0  0  0  0  0  0  0
    3.5448   -2.2782    0.0000 H   0  0  0  0  0  0  0  0  0  0  0  0
    4.7690   -2.2782    0.0000 H   0  0  0  0  0  0  0  0  0  0  0  0
    2.7713    0.0000    0.0000 C   0  0  0  0  0  0  0  0  0  0  0  0
    3.3834    1.4782    0.0000 H   0  0  0  0  0  0  0  0  0  0  0  0
    2.1592    1.4782    0.0000 H   0  0  0  0  0  0  0  0  0  0  0  0
    1.3856   -0.8000    0.0000 C   0  0  0  0  0  0  0  0  0  0  0  0
    0.7735   -2.2782    0.0000 H   0  0  0  0  0  0  0  0  0  0  0  0
    1.9978   -2.2782    0.0000 H   0  0  0  0  0  0  0  0  0  0  0  0
    0.0000    0.0000    0.0000 C   0  0  0  0  0  0  0  0  0  0  0  0
    0.6121    1.4782    0.0000 H   0  0  0  0  0  0  0  0  0  0  0  0
   -0.6121    1.4782    0.0000 H   0  0  0  0  0  0  0  0  0  0  0  0
   -1.3856   -0.8000    0.0000 C   0  0  0  0  0  0  0  0  0  0  0  0
   -1.9978   -2.2782    0.0000 H   0  0  0  0  0  0  0  0  0  0  0  0
   -0.7735   -2.2782    0.0000 H   0  0  0  0  0  0  0  0  0  0  0  0
   -2.7713    0.0000    0.0000 C   0  0  0  0  0  0  0  0  0  0  0  0
   -2.1592    1.4782    0.0000 H   0  0  0  0  0  0  0  0  0  0  0  0
   -3.3834    1.4782    0.0000 H   0  0  0  0  0  0  0  0  0  0  0  0
   -4.1569   -0.8000    0.0000 C   0  0  0  0  0  0  0  0  0  0  0  0
   -4.7690   -2.2782    0.0000 H   0  0  0  0  0  0  0  0  0  0  0  0
   -3.5448   -2.2782    0.0000 H   0  0  0  0  0  0  0  0  0  0  0  0
   -5.5426    0.0000    0.0000 C   0  0  0  0  0  0  0  0  0  0  0  0
   -4.9304    1.4782    0.0000 H   0  0  0  0  0  0  0  0  0  0  0  0
   -6.1547    1.4782    0.0000 H   0  0  0  0  0  0  0  0  0  0  0  0
   -6.9282   -0.8000    0.0000 C   0  0  0  0  0  0  0  0  0  0  0  0
   -7.5403   -2.2782    0.0000 H   0  0  0  0  0  0  0  0  0  0  0  0
   -6.3161   -2.2782    0.0000 H   0  0  0  0  0  0  0  0  0  0  0  0
   -8.3138    0.0000    0.0000 C   0  0  0  0  0  0  0  0  0  0  0  0
   -7.7017    1.4782    0.0000 H   0  0  0  0  0  0  0  0  0  0  0  0
   -8.9260    1.4782    0.0000 H   0  0  0  0  0  0  0  0  0  0  0  0
   -9.6995   -0.8000    0.0000 C   0  0  0  0  0  0  0  0  0  0  0  0
  -10.3116   -2.2782    0.0000 H   0  0  0  0  0  0  0  0  0  0  0  0
   -9.0874   -2.2782    0.0000 H   0  0  0  0  0  0  0  0  0  0  0  0
  -11.0851    0.0000    0.0000 C   0  0  0  0  0  0  0  0  0  0  0  0
  -12.4708    0.8000    0.0000 H   0  0  0  0  0  0  0  0  0  0  0  0
  -12.4708   -0.8000    0.0000 H   0  0  0  0  0  0  0  0  0  0  0  0
  -11.0851    1.6000    0.0000 H   0  0  0  0  0  0  0  0  0  0  0  0
  1  2  1  0  0  0  0
  1  3  1  0  0  0  0
  1  4  1  0  0  0  0
  1  5  1  0  0  0  0
  5  6  1  0  0  0  0
  5  7  1  0  0  0  0
  5  8  1  0  0  0  0
  8  9  1  0  0  0  0
  8 10  1  0  0  0  0
  8 11  1  0  0  0  0
 11 12  1  0  0  0  0
 11 13  1  0  0  0  0
 11 14  1  0  0  0  0
 14 15  1  0  0  0  0
 14 16  1  0  0  0  0
 14 17  1  0  0  0  0
 17 18  1  0  0  0  0
 17 19  1  0  0  0  0
 17 20  1  0  0  0  0
 20 21  1  0  0  0  0
 20 22  1  0  0  0  0
 20 23  1  0  0  0  0
 23 24  1  0  0  0  0
 23 25  1  0  0  0  0
 23 26  1  0  0  0  0
 26 27  1  0  0  0  0
 26 28  1  0  0  0  0
 26 29  1  0  0  0  0
 29 30  1  0  0  0  0
 29 31  1  0  0  0  0
 29 32  1  0  0  0  0
 32 33  1  0  0  0  0
 32 34  1  0  0  0  0
 32 35  1  0  0  0  0
 35 36  1  0  0  0  0
 35 37  1  0  0  0  0
 35 38  1  0  0  0  0
 38 39  1  0  0  0  0
 38 40  1  0  0  0  0
 38 41  1  0  0  0  0
 41 42  1  0  0  0  0
 41 43  1  0  0  0  0
 41 44  1  0  0  0  0
 44 45  1  0  0  0  0
 44 46  1  0  0  0  0
 44 47  1  0  0  0  0
 47 48  1  0  0  0  0
 47 49  1  0  0  0  0
 47 50  1  0  0  0  0
M  END
> <ChemID>
100472

> <source_casrn>
544-76-3

> <CAS>
544-76-3

> <SMILES>
CCCCCCCCCCCCCCCC

> <NAME>
N-HEXADECANE

> <preferred_name>
Hexadecane

> <iupac>
hexadecane

> <MPID>
99014

> <dsstox_substance_id>
DTXSID0027195

> <Canonical_QSARr>
CCCCCCCCCCCCCCCC

> <InChI_Code_QSARr>
InChI=1S/C16H34/c1-3-5-7-9-11-13-15-16-14-12-10-8-6-4-2/h3-16H2,1-2H3

> <InChI Key_QSARr>
DCAYPVUWAIABOU-UHFFFAOYSA-N

> <OH>
2.49E-11

> <OH Temperature>
25.0

> <OH Data Type>
EXP

> <OH Reference>
ATKINSON,R (1989)

> <LogOH>
-10.603800652904269

$$$$
100473
  -INDIGO-08031719142D

 15 14  0  0  0  0  0  0  0  0999 V2000
   -1.6000    0.0000    0.0000 C   0  0  0  0  0  0  0  0  0  0  0  0
   -0.0000    0.0000    0.0000 C   0  0  0  0  0  0  0  0  0  0  0  0
   -0.0000   -1.6000    0.0000 H   0  0  0  0  0  0  0  0  0  0  0  0
    1.6001    0.0000    0.0000 C   0  0  0  0  0  0  0  0  0  0  0  0
    3.2000    0.0000    0.0000 H   0  0  0  0  0  0  0  0  0  0  0  0
    2.4000   -1.3856    0.0000 H   0  0  0  0  0  0  0  0  0  0  0  0
    2.4000    1.3856    0.0000 H   0  0  0  0  0  0  0  0  0  0  0  0
   -0.0000    1.6000    0.0000 O   0  0  0  0  0  0  0  0  0  0  0  0
   -1.3856    2.4000    0.0000 H   0  0  0  0  0  0  0  0  0  0  0  0
   -2.4000   -1.3856    0.0000 O   0  0  0  0  0  0  0  0  0  0  0  0
   -4.0001   -1.3856    0.0000 C   0  0  0  0  0  0  0  0  0  0  0  0
   -5.6000   -1.3856    0.0000 H   0  0  0  0  0  0  0  0  0  0  0  0
   -4.8000   -2.7713    0.0000 H   0  0  0  0  0  0  0  0  0  0  0  0
   -4.8000    0.0000    0.0000 H   0  0  0  0  0  0  0  0  0  0  0  0
   -2.4000    1.3856    0.0000 O   0  0  0  0  0  0  0  0  0  0  0  0
  1  2  1  0  0  0  0
  2  3  1  0  0  0  0
  2  4  1  0  0  0  0
  4  5  1  0  0  0  0
  4  6  1  0  0  0  0
  4  7  1  0  0  0  0
  2  8  1  0  0  0  0
  8  9  1  0  0  0  0
  1 10  1  0  0  0  0
 10 11  1  0  0  0  0
 11 12  1  0  0  0  0
 11 13  1  0  0  0  0
 11 14  1  0  0  0  0
  1 15  2  0  0  0  0
M  END
> <ChemID>
100473

> <source_casrn>
547-64-8

> <CAS>
547-64-8

> <SMILES>
COC(=O)C(C)O

> <NAME>
2-HYDROXYPROPANOIC ACID, METHYL ESTER

> <preferred_name>
Methyl 2-hydroxypropanoate

> <iupac>
methyl 2-hydroxypropanoate

> <MPID>
99015

> <dsstox_substance_id>
DTXSID0027197

> <Canonical_QSARr>
COC(=O)C(C)O

> <InChI_Code_QSARr>
InChI=1S/C4H8O3/c1-3(5)4(6)7-2/h3,5H,1-2H3

> <InChI Key_QSARr>
LPEKGGXMPWTOCB-UHFFFAOYSA-N

> <OH>
2.8E-12

> <OH Temperature>
25.0

> <OH Data Type>
EXP

> <OH Reference>
KWOK,ESC ET AL. (1996)

> <LogOH>
-11.552841968657784

$$$$
100475
  -INDIGO-08031719142D

 14 13  0  0  0  0  0  0  0  0999 V2000
   -1.3857    0.8000    0.0000 C   0  0  0  0  0  0  0  0  0  0  0  0
    0.0000    0.0000    0.0000 C   0  0  0  0  0  0  0  0  0  0  0  0
    0.6122   -1.4782    0.0000 H   0  0  0  0  0  0  0  0  0  0  0  0
   -0.6122   -1.4782    0.0000 H   0  0  0  0  0  0  0  0  0  0  0  0
    1.3856    0.8000    0.0000 C   0  0  0  0  0  0  0  0  0  0  0  0
    2.7713    1.6000    0.0000 H   0  0  0  0  0  0  0  0  0  0  0  0
    2.7713    0.0000    0.0000 H   0  0  0  0  0  0  0  0  0  0  0  0
    1.3856    2.4000    0.0000 H   0  0  0  0  0  0  0  0  0  0  0  0
   -2.7713    0.0000    0.0000 O   0  0  0  0  0  0  0  0  0  0  0  0
   -4.1569    0.8000    0.0000 C   0  0  0  0  0  0  0  0  0  0  0  0
   -5.5426    1.6000    0.0000 H   0  0  0  0  0  0  0  0  0  0  0  0
   -5.5426    0.0000    0.0000 H   0  0  0  0  0  0  0  0  0  0  0  0
   -4.1569    2.4000    0.0000 H   0  0  0  0  0  0  0  0  0  0  0  0
   -1.3857    2.4000    0.0000 O   0  0  0  0  0  0  0  0  0  0  0  0
  1  2  1  0  0  0  0
  2  3  1  0  0  0  0
  2  4  1  0  0  0  0
  2  5  1  0  0  0  0
  5  6  1  0  0  0  0
  5  7  1  0  0  0  0
  5  8  1  0  0  0  0
  1  9  1  0  0  0  0
  9 10  1  0  0  0  0
 10 11  1  0  0  0  0
 10 12  1  0  0  0  0
 10 13  1  0  0  0  0
  1 14  2  0  0  0  0
M  END
> <ChemID>
100475

> <source_casrn>
554-12-1

> <CAS>
554-12-1

> <SMILES>
CCC(=O)OC

> <NAME>
METHYL PROPIONATE

> <preferred_name>
Methyl propanoate

> <iupac>
methyl propanoate

> <MPID>
99017

> <dsstox_substance_id>
DTXSID7027201

> <Canonical_QSARr>
CCC(=O)OC

> <InChI_Code_QSARr>
InChI=1S/C4H8O2/c1-3-4(5)6-2/h3H2,1-2H3

> <InChI Key_QSARr>
RJUFJBKOKNCXHH-UHFFFAOYSA-N

> <OH>
1.0E-12

> <OH Temperature>
25.0

> <OH Data Type>
EXP

> <OH Reference>
ATKINSON,R (1989)

> <LogOH>
-11.999999999999979

$$$$
100477
  -INDIGO-08031719142D

 26 26  0  0  0  0  0  0  0  0999 V2000
   -0.0001    0.0000    0.0000 C   0  0  0  0  0  0  0  0  0  0  0  0
    1.2257    1.0284    0.0000 H   0  0  0  0  0  0  0  0  0  0  0  0
   -0.8000    1.3856    0.0000 C   0  0  0  0  0  0  0  0  0  0  0  0
    0.7036    1.9329    0.0000 H   0  0  0  0  0  0  0  0  0  0  0  0
   -1.0778    2.9613    0.0000 H   0  0  0  0  0  0  0  0  0  0  0  0
   -2.4000    1.3856    0.0000 C   0  0  0  0  0  0  0  0  0  0  0  0
   -2.1221    2.9613    0.0000 H   0  0  0  0  0  0  0  0  0  0  0  0
   -3.9035    1.9329    0.0000 H   0  0  0  0  0  0  0  0  0  0  0  0
   -3.2000    0.0000    0.0000 C   0  0  0  0  0  0  0  0  0  0  0  0
   -4.8000    0.0000    0.0000 C   0  0  0  0  0  0  0  0  0  0  0  0
   -5.6000   -1.3856    0.0000 H   0  0  0  0  0  0  0  0  0  0  0  0
   -5.6000    1.3856    0.0000 H   0  0  0  0  0  0  0  0  0  0  0  0
   -2.4000   -1.3856    0.0000 C   0  0  0  0  0  0  0  0  0  0  0  0
   -3.2000   -2.7712    0.0000 H   0  0  0  0  0  0  0  0  0  0  0  0
   -0.8000   -1.3856    0.0000 C   0  0  0  0  0  0  0  0  0  0  0  0
   -0.5222   -2.9613    0.0000 H   0  0  0  0  0  0  0  0  0  0  0  0
    1.2257   -1.0284    0.0000 C   0  0  0  0  0  0  0  0  0  0  0  0
   -0.0001   -2.0570    0.0000 H   0  0  0  0  0  0  0  0  0  0  0  0
    2.2541   -2.2541    0.0000 C   0  0  0  0  0  0  0  0  0  0  0  0
    3.2826   -3.4798    0.0000 H   0  0  0  0  0  0  0  0  0  0  0  0
    3.8298   -1.9763    0.0000 H   0  0  0  0  0  0  0  0  0  0  0  0
    1.7069   -3.7576    0.0000 H   0  0  0  0  0  0  0  0  0  0  0  0
    2.4514    0.0000    0.0000 C   0  0  0  0  0  0  0  0  0  0  0  0
    3.6770    1.0284    0.0000 H   0  0  0  0  0  0  0  0  0  0  0  0
    2.1735    1.5757    0.0000 H   0  0  0  0  0  0  0  0  0  0  0  0
    3.9548   -0.5473    0.0000 H   0  0  0  0  0  0  0  0  0  0  0  0
  1  2  1  0  0  0  0
  1  3  1  0  0  0  0
  3  4  1  0  0  0  0
  3  5  1  0  0  0  0
  3  6  1  0  0  0  0
  6  7  1  0  0  0  0
  6  8  1  0  0  0  0
  6  9  1  0  0  0  0
  9 10  2  0  0  0  0
 10 11  1  0  0  0  0
 10 12  1  0  0  0  0
  9 13  1  0  0  0  0
 13 14  1  0  0  0  0
 13 15  2  0  0  0  0
 15  1  1  0  0  0  0
 15 16  1  0  0  0  0
  1 17  1  0  0  0  0
 17 18  1  0  0  0  0
 17 19  1  0  0  0  0
 19 20  1  0  0  0  0
 19 21  1  0  0  0  0
 19 22  1  0  0  0  0
 17 23  1  0  0  0  0
 23 24  1  0  0  0  0
 23 25  1  0  0  0  0
 23 26  1  0  0  0  0
M  END
> <ChemID>
100477

> <source_casrn>
555-10-2

> <CAS>
555-10-2

> <SMILES>
CC(C)C1CCC(=C)C=C1

> <NAME>
BETA-PHELLANDRENE

> <preferred_name>
3-Methylidene-6-(propan-2-yl)cyclohexene

> <iupac>
3-isopropyl-6-methylenecyclohexene

> <MPID>
99018

> <dsstox_substance_id>
DTXSID4052215

> <Canonical_QSARr>
CC(C)C1CCC(=C)C=C1

> <InChI_Code_QSARr>
InChI=1S/C10H16/c1-8(2)10-6-4-9(3)5-7-10/h4,6,8,10H,3,5,7H2,1-2H3

> <InChI Key_QSARr>
LFJQCDVYDGGFCH-UHFFFAOYSA-N

> <OH>
1.68E-10

> <OH Temperature>
25.0

> <OH Data Type>
EXP

> <OH Reference>
ATKINSON,R (1989)

> <LogOH>
-9.774690718274142

$$$$
100481
  -INDIGO-08031719142D

  8  7  0  0  0  0  0  0  0  0999 V2000
    0.0000    0.0000    0.0000 C   0  0  0  0  0  0  0  0  0  0  0  0
    1.6000   -0.0000    0.0000 H   0  0  0  0  0  0  0  0  0  0  0  0
   -1.6000    0.0000    0.0000 C   0  0  0  0  0  0  0  0  0  0  0  0
   -3.2000    0.0000    0.0000 H   0  0  0  0  0  0  0  0  0  0  0  0
   -2.4000   -1.3856    0.0000 H   0  0  0  0  0  0  0  0  0  0  0  0
   -2.4000    1.3856    0.0000 H   0  0  0  0  0  0  0  0  0  0  0  0
    0.8000   -1.3856    0.0000 Br  0  0  0  0  0  0  0  0  0  0  0  0
    0.8000    1.3856    0.0000 Br  0  0  0  0  0  0  0  0  0  0  0  0
  1  2  1  0  0  0  0
  1  3  1  0  0  0  0
  3  4  1  0  0  0  0
  3  5  1  0  0  0  0
  3  6  1  0  0  0  0
  1  7  1  0  0  0  0
  1  8  1  0  0  0  0
M  END
> <ChemID>
100481

> <source_casrn>
557-91-5

> <CAS>
557-91-5

> <SMILES>
CC(Br)Br

> <NAME>
1,1-DIBROMOETHANE

> <preferred_name>
Ethylidene bromide

> <iupac>
1,1-DIBROMOETHANE

> <MPID>
99020

> <dsstox_substance_id>
DTXSID3060324

> <Canonical_QSARr>
CC(Br)Br

> <InChI_Code_QSARr>
InChI=1S/C2H4Br2/c1-2(3)4/h2H,1H3

> <InChI Key_QSARr>
APQIUTYORBAGEZ-UHFFFAOYSA-N

> <OH>
2.500000000000001E-13

> <OH Temperature>
25.0

> <OH Data Type>
EXP

> <OH Reference>
TOSATO,ML ET AL. (1991)

> <LogOH>
-12.602059991327945

$$$$
100482
  -INDIGO-08031719142D

 18 17  0  0  0  0  0  0  0  0999 V2000
    2.9613   -0.5222    0.0000 C   0  0  0  0  0  0  0  0  0  0  0  0
    3.9898   -1.7479    0.0000 H   0  0  0  0  0  0  0  0  0  0  0  0
    3.5085    0.9814    0.0000 H   0  0  0  0  0  0  0  0  0  0  0  0
    1.3856   -0.8000    0.0000 C   0  0  0  0  0  0  0  0  0  0  0  0
    1.3856   -2.4000    0.0000 H   0  0  0  0  0  0  0  0  0  0  0  0
    0.0000    0.0000    0.0000 C   0  0  0  0  0  0  0  0  0  0  0  0
    0.8000    1.3856    0.0000 C   0  0  0  0  0  0  0  0  0  0  0  0
    1.6000    2.7713    0.0000 H   0  0  0  0  0  0  0  0  0  0  0  0
    0.0000    2.7713    0.0000 H   0  0  0  0  0  0  0  0  0  0  0  0
    2.4000    1.3856    0.0000 H   0  0  0  0  0  0  0  0  0  0  0  0
   -1.3856    0.8000    0.0000 C   0  0  0  0  0  0  0  0  0  0  0  0
   -2.7713    1.6000    0.0000 H   0  0  0  0  0  0  0  0  0  0  0  0
   -2.7713    0.0000    0.0000 H   0  0  0  0  0  0  0  0  0  0  0  0
   -1.3856    2.4000    0.0000 H   0  0  0  0  0  0  0  0  0  0  0  0
   -0.8000   -1.3856    0.0000 C   0  0  0  0  0  0  0  0  0  0  0  0
   -1.6000   -2.7713    0.0000 H   0  0  0  0  0  0  0  0  0  0  0  0
    0.0000   -2.7713    0.0000 H   0  0  0  0  0  0  0  0  0  0  0  0
   -2.4000   -1.3856    0.0000 H   0  0  0  0  0  0  0  0  0  0  0  0
  1  2  1  0  0  0  0
  1  3  1  0  0  0  0
  1  4  2  0  0  0  0
  4  5  1  0  0  0  0
  4  6  1  0  0  0  0
  6  7  1  0  0  0  0
  7  8  1  0  0  0  0
  7  9  1  0  0  0  0
  7 10  1  0  0  0  0
  6 11  1  0  0  0  0
 11 12  1  0  0  0  0
 11 13  1  0  0  0  0
 11 14  1  0  0  0  0
  6 15  1  0  0  0  0
 15 16  1  0  0  0  0
 15 17  1  0  0  0  0
 15 18  1  0  0  0  0
M  END
> <ChemID>
100482

> <source_casrn>
558-37-2

> <CAS>
558-37-2

> <SMILES>
CC(C)(C)C=C

> <NAME>
3,3-DIMETHYL-1-BUTENE

> <preferred_name>
3,3-Dimethyl-1-butene

> <iupac>
3,3-dimethylbut-1-ene

> <MPID>
99021

> <dsstox_substance_id>
DTXSID1027211

> <Canonical_QSARr>
CC(C)(C)C=C

> <InChI_Code_QSARr>
InChI=1S/C6H12/c1-5-6(2,3)4/h5H,1H2,2-4H3

> <InChI Key_QSARr>
PKXHXOTZMFCXSH-UHFFFAOYSA-N

> <OH>
2.839999999999998E-11

> <OH Temperature>
25.0

> <OH Data Type>
EXP

> <OH Reference>
ATKINSON,R (1989)

> <LogOH>
-10.546681659952966

$$$$
100484
  -INDIGO-08031719142D

 15 14  0  0  0  0  0  0  0  0999 V2000
    1.3856    2.4000    0.0000 C   0  0  0  0  0  0  0  0  0  0  0  0
    2.7713    3.2000    0.0000 H   0  0  0  0  0  0  0  0  0  0  0  0
    0.0000    3.2000    0.0000 H   0  0  0  0  0  0  0  0  0  0  0  0
    1.3856    0.8000    0.0000 C   0  0  0  0  0  0  0  0  0  0  0  0
    0.0000    0.0000    0.0000 C   0  0  0  0  0  0  0  0  0  0  0  0
    0.6123   -1.4782    0.0000 H   0  0  0  0  0  0  0  0  0  0  0  0
   -0.6123   -1.4782    0.0000 H   0  0  0  0  0  0  0  0  0  0  0  0
   -1.3856    0.8000    0.0000 C   0  0  0  0  0  0  0  0  0  0  0  0
   -2.7713    1.6000    0.0000 H   0  0  0  0  0  0  0  0  0  0  0  0
   -2.7713    0.0000    0.0000 H   0  0  0  0  0  0  0  0  0  0  0  0
   -1.3856    2.4000    0.0000 H   0  0  0  0  0  0  0  0  0  0  0  0
    2.7713    0.0000    0.0000 C   0  0  0  0  0  0  0  0  0  0  0  0
    4.1569   -0.8000    0.0000 H   0  0  0  0  0  0  0  0  0  0  0  0
    4.1569    0.8000    0.0000 H   0  0  0  0  0  0  0  0  0  0  0  0
    2.7713   -1.6000    0.0000 H   0  0  0  0  0  0  0  0  0  0  0  0
  1  2  1  0  0  0  0
  1  3  1  0  0  0  0
  1  4  2  0  0  0  0
  4  5  1  0  0  0  0
  5  6  1  0  0  0  0
  5  7  1  0  0  0  0
  5  8  1  0  0  0  0
  8  9  1  0  0  0  0
  8 10  1  0  0  0  0
  8 11  1  0  0  0  0
  4 12  1  0  0  0  0
 12 13  1  0  0  0  0
 12 14  1  0  0  0  0
 12 15  1  0  0  0  0
M  END
> <ChemID>
100484

> <source_casrn>
563-46-2

> <CAS>
563-46-2

> <SMILES>
CCC(C)=C

> <NAME>
2-METHYL-1-BUTENE

> <preferred_name>
2-Methylbutene

> <iupac>
2-methylbut-1-ene

> <MPID>
99023

> <dsstox_substance_id>
DTXSID3052224

> <Canonical_QSARr>
CCC(C)=C

> <InChI_Code_QSARr>
InChI=1S/C5H10/c1-4-5(2)3/h2,4H2,1,3H3

> <InChI Key_QSARr>
MHNNAWXXUZQSNM-UHFFFAOYSA-N

> <OH>
6.1E-11

> <OH Temperature>
25.0

> <OH Data Type>
EXP

> <OH Reference>
KWOK,ESC & ATKINSON,R (1994)

> <LogOH>
-10.214670164989217

$$$$
100485
  -INDIGO-08031719142D

 18 17  0  0  0  0  0  0  0  0999 V2000
    0.0000    0.0000    0.0000 C   0  0  0  0  0  0  0  0  0  0  0  0
    1.6000    0.0000    0.0000 C   0  0  0  0  0  0  0  0  0  0  0  0
    2.4000    1.3856    0.0000 C   0  0  0  0  0  0  0  0  0  0  0  0
    3.2000    2.7713    0.0000 H   0  0  0  0  0  0  0  0  0  0  0  0
    4.0000    1.3856    0.0000 H   0  0  0  0  0  0  0  0  0  0  0  0
    1.6000    2.7713    0.0000 H   0  0  0  0  0  0  0  0  0  0  0  0
    2.4000   -1.3856    0.0000 C   0  0  0  0  0  0  0  0  0  0  0  0
    3.2000   -2.7713    0.0000 H   0  0  0  0  0  0  0  0  0  0  0  0
    4.0000   -1.3856    0.0000 H   0  0  0  0  0  0  0  0  0  0  0  0
    1.6000   -2.7713    0.0000 H   0  0  0  0  0  0  0  0  0  0  0  0
   -0.8000    1.3856    0.0000 C   0  0  0  0  0  0  0  0  0  0  0  0
   -1.6000    2.7713    0.0000 H   0  0  0  0  0  0  0  0  0  0  0  0
   -2.4000    1.3856    0.0000 H   0  0  0  0  0  0  0  0  0  0  0  0
    0.0000    2.7713    0.0000 H   0  0  0  0  0  0  0  0  0  0  0  0
   -0.8000   -1.3856    0.0000 C   0  0  0  0  0  0  0  0  0  0  0  0
   -1.6000   -2.7713    0.0000 H   0  0  0  0  0  0  0  0  0  0  0  0
   -2.4000   -1.3856    0.0000 H   0  0  0  0  0  0  0  0  0  0  0  0
    0.0000   -2.7713    0.0000 H   0  0  0  0  0  0  0  0  0  0  0  0
  1  2  2  0  0  0  0
  2  3  1  0  0  0  0
  3  4  1  0  0  0  0
  3  5  1  0  0  0  0
  3  6  1  0  0  0  0
  2  7  1  0  0  0  0
  7  8  1  0  0  0  0
  7  9  1  0  0  0  0
  7 10  1  0  0  0  0
  1 11  1  0  0  0  0
 11 12  1  0  0  0  0
 11 13  1  0  0  0  0
 11 14  1  0  0  0  0
  1 15  1  0  0  0  0
 15 16  1  0  0  0  0
 15 17  1  0  0  0  0
 15 18  1  0  0  0  0
M  END
> <ChemID>
100485

> <source_casrn>
563-79-1

> <CAS>
563-79-1

> <SMILES>
CC(C)=C(C)C

> <NAME>
2,3-DIMETHYL-2-BUTENE

> <preferred_name>
2-Butene, 2,3-dimethyl-

> <iupac>
2,3-Dimethylbut-2-ene

> <MPID>
99024

> <dsstox_substance_id>
DTXSID2060339

> <Canonical_QSARr>
CC(C)=C(C)C

> <InChI_Code_QSARr>
InChI=1S/C6H12/c1-5(2)6(3)4/h1-4H3

> <InChI Key_QSARr>
WGLLSSPDPJPLOR-UHFFFAOYSA-N

> <OH>
1.1E-10

> <OH Temperature>
25.0

> <OH Data Type>
EXP

> <OH Reference>
ATKINSON,R (1989)

> <LogOH>
-9.95860731484176

$$$$
100486
  -INDIGO-08031719142D

 16 15  0  0  0  0  0  0  0  0999 V2000
    2.7713    0.0000    0.0000 C   0  0  0  0  0  0  0  0  0  0  0  0
    4.1569   -0.8000    0.0000 H   0  0  0  0  0  0  0  0  0  0  0  0
    4.1569    0.8000    0.0000 H   0  0  0  0  0  0  0  0  0  0  0  0
    2.7713   -1.6000    0.0000 H   0  0  0  0  0  0  0  0  0  0  0  0
    1.3856    0.8000    0.0000 C   0  0  0  0  0  0  0  0  0  0  0  0
    1.3856    2.4000    0.0000 O   0  0  0  0  0  0  0  0  0  0  0  0
    0.0000    0.0000    0.0000 C   0  0  0  0  0  0  0  0  0  0  0  0
    0.8000   -1.3856    0.0000 H   0  0  0  0  0  0  0  0  0  0  0  0
   -1.3856   -0.8000    0.0000 C   0  0  0  0  0  0  0  0  0  0  0  0
   -2.7713   -1.6000    0.0000 H   0  0  0  0  0  0  0  0  0  0  0  0
   -1.3856   -2.4000    0.0000 H   0  0  0  0  0  0  0  0  0  0  0  0
   -2.7713    0.0000    0.0000 H   0  0  0  0  0  0  0  0  0  0  0  0
   -0.8000    1.3856    0.0000 C   0  0  0  0  0  0  0  0  0  0  0  0
   -1.6000    2.7713    0.0000 H   0  0  0  0  0  0  0  0  0  0  0  0
    0.0000    2.7713    0.0000 H   0  0  0  0  0  0  0  0  0  0  0  0
   -2.4000    1.3856    0.0000 H   0  0  0  0  0  0  0  0  0  0  0  0
  1  2  1  0  0  0  0
  1  3  1  0  0  0  0
  1  4  1  0  0  0  0
  1  5  1  0  0  0  0
  5  6  2  0  0  0  0
  5  7  1  0  0  0  0
  7  8  1  0  0  0  0
  7  9  1  0  0  0  0
  9 10  1  0  0  0  0
  9 11  1  0  0  0  0
  9 12  1  0  0  0  0
  7 13  1  0  0  0  0
 13 14  1  0  0  0  0
 13 15  1  0  0  0  0
 13 16  1  0  0  0  0
M  END
> <ChemID>
100486

> <source_casrn>
563-80-4

> <CAS>
563-80-4

> <SMILES>
CC(C)C(C)=O

> <NAME>
3-METHYL-2-BUTANONE

> <preferred_name>
3-Methyl-2-butanone

> <iupac>
3-methylbutan-2-one

> <MPID>
99025

> <dsstox_substance_id>
DTXSID0022062

> <Canonical_QSARr>
CC(C)C(C)=O

> <InChI_Code_QSARr>
InChI=1S/C5H10O/c1-4(2)5(3)6/h4H,1-3H3

> <InChI Key_QSARr>
SYBYTAAJFKOIEJ-UHFFFAOYSA-N

> <OH>
2.870000000000001E-12

> <OH Temperature>
25.0

> <OH Data Type>
EXP

> <OH Reference>
LECALVE,S ET AL. (1998)

> <LogOH>
-11.542118103265999

$$$$
100488
  -INDIGO-08031719142D

 22 21  0  0  0  0  0  0  0  0999 V2000
    0.8000    1.3856    0.0000 C   0  0  0  0  0  0  0  0  0  0  0  0
    1.6000    2.7713    0.0000 H   0  0  0  0  0  0  0  0  0  0  0  0
    2.4000    1.3856    0.0000 H   0  0  0  0  0  0  0  0  0  0  0  0
    0.0000    2.7713    0.0000 H   0  0  0  0  0  0  0  0  0  0  0  0
    0.0000    0.0000    0.0000 C   0  0  0  0  0  0  0  0  0  0  0  0
   -0.8000   -1.3856    0.0000 H   0  0  0  0  0  0  0  0  0  0  0  0
   -1.3856    0.8000    0.0000 C   0  0  0  0  0  0  0  0  0  0  0  0
   -2.7713    0.0000    0.0000 C   0  0  0  0  0  0  0  0  0  0  0  0
   -1.9713   -1.3856    0.0000 H   0  0  0  0  0  0  0  0  0  0  0  0
   -4.1569   -0.8000    0.0000 C   0  0  0  0  0  0  0  0  0  0  0  0
   -5.5426   -1.6000    0.0000 H   0  0  0  0  0  0  0  0  0  0  0  0
   -5.5426    0.0000    0.0000 H   0  0  0  0  0  0  0  0  0  0  0  0
   -4.1569   -2.4000    0.0000 H   0  0  0  0  0  0  0  0  0  0  0  0
   -3.5713    1.3856    0.0000 C   0  0  0  0  0  0  0  0  0  0  0  0
   -4.3713    2.7713    0.0000 H   0  0  0  0  0  0  0  0  0  0  0  0
   -5.1712    1.3856    0.0000 H   0  0  0  0  0  0  0  0  0  0  0  0
   -2.7713    2.7713    0.0000 H   0  0  0  0  0  0  0  0  0  0  0  0
   -1.3856    2.4000    0.0000 O   0  0  0  0  0  0  0  0  0  0  0  0
    1.3857   -0.8000    0.0000 C   0  0  0  0  0  0  0  0  0  0  0  0
    2.7713   -1.6000    0.0000 H   0  0  0  0  0  0  0  0  0  0  0  0
    2.7713    0.0000    0.0000 H   0  0  0  0  0  0  0  0  0  0  0  0
    1.3857   -2.4000    0.0000 H   0  0  0  0  0  0  0  0  0  0  0  0
  1  2  1  0  0  0  0
  1  3  1  0  0  0  0
  1  4  1  0  0  0  0
  1  5  1  0  0  0  0
  5  6  1  0  0  0  0
  5  7  1  0  0  0  0
  7  8  1  0  0  0  0
  8  9  1  0  0  0  0
  8 10  1  0  0  0  0
 10 11  1  0  0  0  0
 10 12  1  0  0  0  0
 10 13  1  0  0  0  0
  8 14  1  0  0  0  0
 14 15  1  0  0  0  0
 14 16  1  0  0  0  0
 14 17  1  0  0  0  0
  7 18  2  0  0  0  0
  5 19  1  0  0  0  0
 19 20  1  0  0  0  0
 19 21  1  0  0  0  0
 19 22  1  0  0  0  0
M  END
> <ChemID>
100488

> <source_casrn>
565-80-0

> <CAS>
565-80-0

> <SMILES>
CC(C)C(=O)C(C)C

> <NAME>
2,4-DIMETHYL-3-PENTANONE

> <preferred_name>
2,4-Dimethylpentan-3-one

> <iupac>
2,4-dimethylpentan-3-one

> <MPID>
99027

> <dsstox_substance_id>
DTXSID3038771

> <Canonical_QSARr>
CC(C)C(=O)C(C)C

> <InChI_Code_QSARr>
InChI=1S/C7H14O/c1-5(2)7(8)6(3)4/h5-6H,1-4H3

> <InChI Key_QSARr>
HXVNBWAKAOHACI-UHFFFAOYSA-N

> <OH>
5.380000000000001E-12

> <OH Temperature>
25.0

> <OH Data Type>
EXP

> <OH Reference>
ATKINSON,R (1989)

> <LogOH>
-11.269217724333629

$$$$
100489
  -INDIGO-08031719142D

 13 13  0  0  0  0  0  0  0  0999 V2000
    2.4000    1.3856    0.0000 Cl  0  0  0  0  0  0  0  0  0  0  0  0
    1.6000   -0.0000    0.0000 C   0  0  0  0  0  0  0  0  0  0  0  0
    2.4000   -1.3857    0.0000 C   0  0  0  0  0  0  0  0  0  0  0  0
    4.0000   -1.3857    0.0000 Cl  0  0  0  0  0  0  0  0  0  0  0  0
    1.6000   -2.7713    0.0000 C   0  0  0  0  0  0  0  0  0  0  0  0
    2.4000   -4.1569    0.0000 H   0  0  0  0  0  0  0  0  0  0  0  0
    0.0000   -2.7713    0.0000 C   0  0  0  0  0  0  0  0  0  0  0  0
   -0.8000   -4.1569    0.0000 H   0  0  0  0  0  0  0  0  0  0  0  0
   -0.8000   -1.3856    0.0000 C   0  0  0  0  0  0  0  0  0  0  0  0
   -2.4000   -1.3856    0.0000 H   0  0  0  0  0  0  0  0  0  0  0  0
    0.0000   -0.0000    0.0000 C   0  0  0  0  0  0  0  0  0  0  0  0
   -0.8000    1.3856    0.0000 O   0  0  0  0  0  0  0  0  0  0  0  0
   -2.4000    1.3856    0.0000 H   0  0  0  0  0  0  0  0  0  0  0  0
  1  2  1  0  0  0  0
  2  3  1  0  0  0  0
  3  4  1  0  0  0  0
  3  5  2  0  0  0  0
  5  6  1  0  0  0  0
  5  7  1  0  0  0  0
  7  8  1  0  0  0  0
  7  9  2  0  0  0  0
  9 10  1  0  0  0  0
  9 11  1  0  0  0  0
 11  2  2  0  0  0  0
 11 12  1  0  0  0  0
 12 13  1  0  0  0  0
M  END
> <ChemID>
100489

> <source_casrn>
576-24-9

> <CAS>
576-24-9

> <SMILES>
Oc1cccc(Cl)c1Cl

> <NAME>
2,3-DICHLOROPHENOL

> <preferred_name>
2,3-Dichlorophenol

> <iupac>
2,3-dichlorophenol

> <MPID>
99028

> <dsstox_substance_id>
DTXSID7025001

> <Canonical_QSARr>
Oc1cccc(Cl)c1Cl

> <InChI_Code_QSARr>
InChI=1S/C6H4Cl2O/c7-4-2-1-3-5(9)6(4)8/h1-3,9H

> <InChI Key_QSARr>
UMPSXRYVXUPCOS-UHFFFAOYSA-N

> <OH>
1.66E-12

> <OH Temperature>
25.0

> <OH Data Type>
EXP

> <OH Reference>
ATKINSON,R (1989)

> <LogOH>
-11.779891911959945

$$$$
100490
  -INDIGO-08031719142D

 19 19  0  0  0  0  0  0  0  0999 V2000
    0.0001    0.0000    0.0000 C   0  0  0  0  0  0  0  0  0  0  0  0
    0.8000   -1.3856    0.0000 C   0  0  0  0  0  0  0  0  0  0  0  0
    2.4000   -1.3856    0.0000 H   0  0  0  0  0  0  0  0  0  0  0  0
    0.0001   -2.7713    0.0000 C   0  0  0  0  0  0  0  0  0  0  0  0
    0.8000   -4.1569    0.0000 H   0  0  0  0  0  0  0  0  0  0  0  0
   -1.5999   -2.7713    0.0000 C   0  0  0  0  0  0  0  0  0  0  0  0
   -2.4000   -4.1569    0.0000 H   0  0  0  0  0  0  0  0  0  0  0  0
   -2.4000   -1.3856    0.0000 C   0  0  0  0  0  0  0  0  0  0  0  0
   -4.0000   -1.3856    0.0000 C   0  0  0  0  0  0  0  0  0  0  0  0
   -5.6000   -1.3856    0.0000 H   0  0  0  0  0  0  0  0  0  0  0  0
   -4.8001   -2.7713    0.0000 H   0  0  0  0  0  0  0  0  0  0  0  0
   -4.8001    0.0000    0.0000 H   0  0  0  0  0  0  0  0  0  0  0  0
   -1.5999    0.0000    0.0000 C   0  0  0  0  0  0  0  0  0  0  0  0
   -2.4000    1.3856    0.0000 O   0  0  0  0  0  0  0  0  0  0  0  0
   -4.0000    1.3856    0.0000 H   0  0  0  0  0  0  0  0  0  0  0  0
    0.8000    1.3856    0.0000 C   0  0  0  0  0  0  0  0  0  0  0  0
    1.6001    2.7713    0.0000 H   0  0  0  0  0  0  0  0  0  0  0  0
    2.4000    1.3856    0.0000 H   0  0  0  0  0  0  0  0  0  0  0  0
    0.0001    2.7713    0.0000 H   0  0  0  0  0  0  0  0  0  0  0  0
  1  2  1  0  0  0  0
  2  3  1  0  0  0  0
  2  4  2  0  0  0  0
  4  5  1  0  0  0  0
  4  6  1  0  0  0  0
  6  7  1  0  0  0  0
  6  8  2  0  0  0  0
  8  9  1  0  0  0  0
  9 10  1  0  0  0  0
  9 11  1  0  0  0  0
  9 12  1  0  0  0  0
  8 13  1  0  0  0  0
 13  1  2  0  0  0  0
 13 14  1  0  0  0  0
 14 15  1  0  0  0  0
  1 16  1  0  0  0  0
 16 17  1  0  0  0  0
 16 18  1  0  0  0  0
 16 19  1  0  0  0  0
M  END
> <ChemID>
100490

> <source_casrn>
576-26-1

> <CAS>
576-26-1

> <SMILES>
Cc1cccc(C)c1O

> <NAME>
2,6-DIMETHYLPHENOL

> <preferred_name>
2,6-Dimethylphenol

> <iupac>
2,6-dimethylphenol

> <MPID>
99029

> <dsstox_substance_id>
DTXSID9024063

> <Canonical_QSARr>
Cc1cccc(C)c1O

> <InChI_Code_QSARr>
InChI=1S/C8H10O/c1-6-4-3-5-7(2)8(6)9/h3-5,9H,1-2H3

> <InChI Key_QSARr>
NXXYKOUNUYWIHA-UHFFFAOYSA-N

> <OH>
6.59E-11

> <OH Temperature>
25.0

> <OH Data Type>
EXP

> <OH Reference>
KWOK,ESC & ATKINSON,R (1994)

> <LogOH>
-10.181114585405995

$$$$
100492
  -INDIGO-08031719142D

 20 21  0  0  0  0  0  0  0  0999 V2000
   -0.0001   -0.0000    0.0000 C   0  0  0  0  0  0  0  0  0  0  0  0
    1.3857    0.8000    0.0000 C   0  0  0  0  0  0  0  0  0  0  0  0
    1.3857    2.4000    0.0000 H   0  0  0  0  0  0  0  0  0  0  0  0
    2.7713   -0.0000    0.0000 C   0  0  0  0  0  0  0  0  0  0  0  0
    4.1569    0.8000    0.0000 N   0  0  0  0  0  0  0  0  0  0  0  0
    5.5426   -0.0000    0.0000 O   0  0  0  0  0  0  0  0  0  0  0  0
    4.1569    2.4000    0.0000 O   0  0  0  0  0  0  0  0  0  0  0  0
    2.7713   -1.6000    0.0000 C   0  0  0  0  0  0  0  0  0  0  0  0
    4.1569   -2.4000    0.0000 H   0  0  0  0  0  0  0  0  0  0  0  0
    1.3857   -2.4000    0.0000 C   0  0  0  0  0  0  0  0  0  0  0  0
    1.3857   -4.0000    0.0000 H   0  0  0  0  0  0  0  0  0  0  0  0
   -0.0001   -1.6000    0.0000 C   0  0  0  0  0  0  0  0  0  0  0  0
   -1.3857   -2.4000    0.0000 C   0  0  0  0  0  0  0  0  0  0  0  0
   -1.3857   -4.0000    0.0000 H   0  0  0  0  0  0  0  0  0  0  0  0
   -2.7713   -1.6000    0.0000 C   0  0  0  0  0  0  0  0  0  0  0  0
   -4.1569   -2.4000    0.0000 H   0  0  0  0  0  0  0  0  0  0  0  0
   -2.7713   -0.0000    0.0000 C   0  0  0  0  0  0  0  0  0  0  0  0
   -4.1569    0.8000    0.0000 H   0  0  0  0  0  0  0  0  0  0  0  0
   -1.3857    0.8000    0.0000 C   0  0  0  0  0  0  0  0  0  0  0  0
   -1.3857    2.4000    0.0000 H   0  0  0  0  0  0  0  0  0  0  0  0
  1  2  1  0  0  0  0
  2  3  1  0  0  0  0
  2  4  2  0  0  0  0
  4  5  1  0  0  0  0
  5  6  2  0  0  0  0
  5  7  1  0  0  0  0
  4  8  1  0  0  0  0
  8  9  1  0  0  0  0
  8 10  2  0  0  0  0
 10 11  1  0  0  0  0
 10 12  1  0  0  0  0
 12  1  1  0  0  0  0
 12 13  2  0  0  0  0
 13 14  1  0  0  0  0
 13 15  1  0  0  0  0
 15 16  1  0  0  0  0
 15 17  2  0  0  0  0
 17 18  1  0  0  0  0
 17 19  1  0  0  0  0
 19  1  2  0  0  0  0
 19 20  1  0  0  0  0
M  CHG  2   5   1   7  -1
M  END
> <ChemID>
100492

> <source_casrn>
581-89-5

> <CAS>
581-89-5

> <SMILES>
[O-][N+](=O)c1cc2ccccc2cc1

> <NAME>
2-NITRONAPHTHALENE

> <preferred_name>
2-Nitronaphthalene

> <iupac>
2-NITRONAPHTHALENE

> <MPID>
99031

> <dsstox_substance_id>
DTXSID2073198

> <Canonical_QSARr>
[O-][N+](=O)c1cc2ccccc2cc1

> <InChI_Code_QSARr>
InChI=1S/C10H7NO2/c12-11(13)10-6-5-8-3-1-2-4-9(8)7-10/h1-7H

> <InChI Key_QSARr>
ZJYJZEAJZXVAMF-UHFFFAOYSA-N

> <OH>
5.6E-12

> <OH Temperature>
25.0

> <OH Data Type>
EXP

> <OH Reference>
ATKINSON,R (1989)

> <LogOH>
-11.25181197299378

$$$$
100493
  -INDIGO-08031719142D

 18 17  0  0  0  0  0  0  0  0999 V2000
    0.0001    0.0000    0.0000 C   0  0  0  0  0  0  0  0  0  0  0  0
    0.8000   -1.3857    0.0000 H   0  0  0  0  0  0  0  0  0  0  0  0
   -1.3856   -0.8000    0.0000 C   0  0  0  0  0  0  0  0  0  0  0  0
   -0.7733   -2.2782    0.0000 H   0  0  0  0  0  0  0  0  0  0  0  0
   -1.9979   -2.2782    0.0000 H   0  0  0  0  0  0  0  0  0  0  0  0
   -2.7713    0.0000    0.0000 C   0  0  0  0  0  0  0  0  0  0  0  0
   -4.1569    0.8000    0.0000 H   0  0  0  0  0  0  0  0  0  0  0  0
   -4.1569   -0.8000    0.0000 H   0  0  0  0  0  0  0  0  0  0  0  0
   -2.7713    1.6000    0.0000 H   0  0  0  0  0  0  0  0  0  0  0  0
    1.5035    0.5472    0.0000 C   0  0  0  0  0  0  0  0  0  0  0  0
    1.1572    2.1093    0.0000 H   0  0  0  0  0  0  0  0  0  0  0  0
    2.3631    1.8967    0.0000 H   0  0  0  0  0  0  0  0  0  0  0  0
    2.7291   -0.4812    0.0000 C   0  0  0  0  0  0  0  0  0  0  0  0
    3.9549   -1.5097    0.0000 H   0  0  0  0  0  0  0  0  0  0  0  0
    4.2327    0.0660    0.0000 H   0  0  0  0  0  0  0  0  0  0  0  0
    2.4513   -2.0569    0.0000 H   0  0  0  0  0  0  0  0  0  0  0  0
   -0.8001    1.3856    0.0000 O   0  0  0  0  0  0  0  0  0  0  0  0
    0.0001    2.7713    0.0000 H   0  0  0  0  0  0  0  0  0  0  0  0
  1  2  1  0  0  0  0
  1  3  1  0  0  0  0
  3  4  1  0  0  0  0
  3  5  1  0  0  0  0
  3  6  1  0  0  0  0
  6  7  1  0  0  0  0
  6  8  1  0  0  0  0
  6  9  1  0  0  0  0
  1 10  1  0  0  0  0
 10 11  1  0  0  0  0
 10 12  1  0  0  0  0
 10 13  1  0  0  0  0
 13 14  1  0  0  0  0
 13 15  1  0  0  0  0
 13 16  1  0  0  0  0
  1 17  1  0  0  0  0
 17 18  1  0  0  0  0
M  END
> <ChemID>
100493

> <source_casrn>
584-02-1

> <CAS>
584-02-1

> <SMILES>
CCC(O)CC

> <NAME>
3-PENTANOL

> <preferred_name>
3-Pentanol

> <iupac>
Pentan-3-ol

> <MPID>
99032

> <dsstox_substance_id>
DTXSID8060400

> <Canonical_QSARr>
CCC(O)CC

> <InChI_Code_QSARr>
InChI=1S/C5H12O/c1-3-5(6)4-2/h5-6H,3-4H2,1-2H3

> <InChI Key_QSARr>
AQIXEPGDORPWBJ-UHFFFAOYSA-N

> <OH>
1.22E-11

> <OH Temperature>
25.0

> <OH Data Type>
EXP

> <OH Reference>
ATKINSON,R (1989)

> <LogOH>
-10.913640169325236

$$$$
100494
  -INDIGO-08031719142D

 26 26  0  0  0  0  0  0  0  0999 V2000
    3.1999   -0.0000    0.0000 C   0  0  0  0  0  0  0  0  0  0  0  0
    2.4000    1.3857    0.0000 C   0  0  0  0  0  0  0  0  0  0  0  0
    3.1999    2.7713    0.0000 H   0  0  0  0  0  0  0  0  0  0  0  0
    0.8000    1.3857    0.0000 C   0  0  0  0  0  0  0  0  0  0  0  0
    1.0779    2.9613    0.0000 H   0  0  0  0  0  0  0  0  0  0  0  0
   -0.7035    1.9329    0.0000 H   0  0  0  0  0  0  0  0  0  0  0  0
    0.0000   -0.0000    0.0000 C   0  0  0  0  0  0  0  0  0  0  0  0
   -1.6001   -0.0000    0.0000 C   0  0  0  0  0  0  0  0  0  0  0  0
   -2.4000    1.3857    0.0000 C   0  0  0  0  0  0  0  0  0  0  0  0
   -4.0000    1.3857    0.0000 H   0  0  0  0  0  0  0  0  0  0  0  0
   -3.2000    2.7713    0.0000 H   0  0  0  0  0  0  0  0  0  0  0  0
   -3.2000   -0.0000    0.0000 H   0  0  0  0  0  0  0  0  0  0  0  0
   -2.4000   -1.3857    0.0000 C   0  0  0  0  0  0  0  0  0  0  0  0
   -3.2000   -2.7713    0.0000 H   0  0  0  0  0  0  0  0  0  0  0  0
   -4.0000   -1.3857    0.0000 H   0  0  0  0  0  0  0  0  0  0  0  0
   -1.6001   -2.7713    0.0000 H   0  0  0  0  0  0  0  0  0  0  0  0
    0.8000   -1.3857    0.0000 C   0  0  0  0  0  0  0  0  0  0  0  0
   -0.7035   -1.9329    0.0000 H   0  0  0  0  0  0  0  0  0  0  0  0
    1.0779   -2.9613    0.0000 H   0  0  0  0  0  0  0  0  0  0  0  0
    2.4000   -1.3857    0.0000 C   0  0  0  0  0  0  0  0  0  0  0  0
    2.1221   -2.9613    0.0000 H   0  0  0  0  0  0  0  0  0  0  0  0
    3.9036   -1.9329    0.0000 H   0  0  0  0  0  0  0  0  0  0  0  0
    4.8000   -0.0000    0.0000 C   0  0  0  0  0  0  0  0  0  0  0  0
    6.4000   -0.0000    0.0000 H   0  0  0  0  0  0  0  0  0  0  0  0
    5.6000    1.3857    0.0000 H   0  0  0  0  0  0  0  0  0  0  0  0
    5.6000   -1.3857    0.0000 H   0  0  0  0  0  0  0  0  0  0  0  0
  1  2  2  0  0  0  0
  2  3  1  0  0  0  0
  2  4  1  0  0  0  0
  4  5  1  0  0  0  0
  4  6  1  0  0  0  0
  4  7  1  0  0  0  0
  7  8  2  0  0  0  0
  8  9  1  0  0  0  0
  9 10  1  0  0  0  0
  9 11  1  0  0  0  0
  9 12  1  0  0  0  0
  8 13  1  0  0  0  0
 13 14  1  0  0  0  0
 13 15  1  0  0  0  0
 13 16  1  0  0  0  0
  7 17  1  0  0  0  0
 17 18  1  0  0  0  0
 17 19  1  0  0  0  0
 17 20  1  0  0  0  0
 20  1  1  0  0  0  0
 20 21  1  0  0  0  0
 20 22  1  0  0  0  0
  1 23  1  0  0  0  0
 23 24  1  0  0  0  0
 23 25  1  0  0  0  0
 23 26  1  0  0  0  0
M  END
> <ChemID>
100494

> <source_casrn>
586-62-9

> <CAS>
586-62-9

> <SMILES>
CC(C)=C1CC=C(C)CC1

> <NAME>
TERPINOLENE

> <preferred_name>
Terpinolene

> <iupac>
1-methyl-4-(propan-2-ylidene)cyclohexene

> <MPID>
99033

> <dsstox_substance_id>
DTXSID0027222

> <Canonical_QSARr>
CC(C)=C1CC=C(C)CC1

> <InChI_Code_QSARr>
InChI=1S/C10H16/c1-8(2)10-6-4-9(3)5-7-10/h4H,5-7H2,1-3H3

> <InChI Key_QSARr>
MOYAFQVGZZPNRA-UHFFFAOYSA-N

> <OH>
2.25E-10

> <OH Temperature>
25.0

> <OH Data Type>
EXP

> <OH Reference>
CORCHNOY,SB & ATKINSON,R (1990)

> <LogOH>
-9.647817481888625

$$$$
100496
  -INDIGO-08031719142D

 12 11  0  0  0  0  0  0  0  0999 V2000
    1.3856   -0.8000    0.0000 C   0  0  0  0  0  0  0  0  0  0  0  0
    2.7713   -1.6000    0.0000 H   0  0  0  0  0  0  0  0  0  0  0  0
    2.7713    0.0000    0.0000 H   0  0  0  0  0  0  0  0  0  0  0  0
    1.3856   -2.4000    0.0000 H   0  0  0  0  0  0  0  0  0  0  0  0
    0.0000    0.0000    0.0000 C   0  0  0  0  0  0  0  0  0  0  0  0
    0.0000    1.6000    0.0000 H   0  0  0  0  0  0  0  0  0  0  0  0
   -1.3856   -0.8000    0.0000 C   0  0  0  0  0  0  0  0  0  0  0  0
   -1.3856   -2.4000    0.0000 H   0  0  0  0  0  0  0  0  0  0  0  0
   -2.7713    0.0000    0.0000 C   0  0  0  0  0  0  0  0  0  0  0  0
   -4.1569    0.8000    0.0000 H   0  0  0  0  0  0  0  0  0  0  0  0
   -4.1569   -0.8000    0.0000 H   0  0  0  0  0  0  0  0  0  0  0  0
   -2.7713    1.6000    0.0000 H   0  0  0  0  0  0  0  0  0  0  0  0
  1  2  1  0  0  0  0
  1  3  1  0  0  0  0
  1  4  1  0  0  0  0
  1  5  1  0  0  0  0
  5  6  1  0  0  0  0
  5  7  2  0  0  0  0
  7  8  1  0  0  0  0
  7  9  1  0  0  0  0
  9 10  1  0  0  0  0
  9 11  1  0  0  0  0
  9 12  1  0  0  0  0
M  END
> <ChemID>
100496

> <source_casrn>
590-18-1|624-64-6

> <CAS>
590-18-1|624-64-6

> <SMILES>
C/C=C\C

> <NAME>
CIS-2-BUTENE, TRANS-2-BUTENE

> <preferred_name>
2-Butene, (2Z)-

> <iupac>
(2Z)-but-2-ene

> <MPID>
99035|99071

> <dsstox_substance_id>
DTXSID0027224|DTXSID7027255

> <Canonical_QSARr>
CC=CC

> <InChI_Code_QSARr>
InChI=1S/C4H8/c1-3-4-2/h3-4H,1-2H3/b4-3+

> <InChI Key_QSARr>
IAQRGUVFOMOMEM-ONEGZZNKSA-N

> <OH>
6.02E-11

> <OH Temperature>
25.0

> <OH Data Type>
EXP

> <OH Reference>
KWOK,ESC & ATKINSON,R (1994)

> <LogOH>
-10.220403508742187

$$$$
100497
  -INDIGO-08031719142D

 10  9  0  0  0  0  0  0  0  0999 V2000
    4.0000   -1.3856    0.0000 C   0  0  0  0  0  0  0  0  0  0  0  0
    4.8000   -2.7713    0.0000 H   0  0  0  0  0  0  0  0  0  0  0  0
    4.8000    0.0000    0.0000 H   0  0  0  0  0  0  0  0  0  0  0  0
    2.4000   -1.3856    0.0000 C   0  0  0  0  0  0  0  0  0  0  0  0
    0.8000   -1.3856    0.0000 C   0  0  0  0  0  0  0  0  0  0  0  0
    0.0000   -2.7713    0.0000 H   0  0  0  0  0  0  0  0  0  0  0  0
    0.0000    0.0000    0.0000 C   0  0  0  0  0  0  0  0  0  0  0  0
   -0.8000    1.3856    0.0000 H   0  0  0  0  0  0  0  0  0  0  0  0
    0.8000    1.3856    0.0000 H   0  0  0  0  0  0  0  0  0  0  0  0
   -1.6000    0.0000    0.0000 H   0  0  0  0  0  0  0  0  0  0  0  0
  1  2  1  0  0  0  0
  1  3  1  0  0  0  0
  1  4  2  0  0  0  0
  4  5  2  0  0  0  0
  5  6  1  0  0  0  0
  5  7  1  0  0  0  0
  7  8  1  0  0  0  0
  7  9  1  0  0  0  0
  7 10  1  0  0  0  0
M  END
> <ChemID>
100497

> <source_casrn>
590-19-2

> <CAS>
590-19-2

> <SMILES>
CC=C=C

> <NAME>
1,2-BUTADIENE

> <preferred_name>
1,2-Butadiene

> <iupac>
buta-1,2-diene

> <MPID>
99036

> <dsstox_substance_id>
DTXSID5027225

> <Canonical_QSARr>
CC=C=C

> <InChI_Code_QSARr>
InChI=1S/C4H6/c1-3-4-2/h4H,1H2,2H3

> <InChI Key_QSARr>
QNRMTGGDHLBXQZ-UHFFFAOYSA-N

> <OH>
2.61E-11

> <OH Temperature>
25.0

> <OH Data Type>
EXP

> <OH Reference>
ATKINSON,R (1989)

> <LogOH>
-10.58335949266172

$$$$
100498
  -INDIGO-08031719142D

 23 22  0  0  0  0  0  0  0  0999 V2000
    1.3857   -0.8000    0.0000 C   0  0  0  0  0  0  0  0  0  0  0  0
    1.9979   -2.2782    0.0000 H   0  0  0  0  0  0  0  0  0  0  0  0
    0.7734   -2.2782    0.0000 H   0  0  0  0  0  0  0  0  0  0  0  0
   -0.0000    0.0000    0.0000 C   0  0  0  0  0  0  0  0  0  0  0  0
   -1.3856    0.8000    0.0000 C   0  0  0  0  0  0  0  0  0  0  0  0
   -2.7713    1.6000    0.0000 H   0  0  0  0  0  0  0  0  0  0  0  0
   -2.7713    0.0000    0.0000 H   0  0  0  0  0  0  0  0  0  0  0  0
   -1.3856    2.4000    0.0000 H   0  0  0  0  0  0  0  0  0  0  0  0
    0.8000    1.3857    0.0000 C   0  0  0  0  0  0  0  0  0  0  0  0
    1.6000    2.7713    0.0000 H   0  0  0  0  0  0  0  0  0  0  0  0
   -0.0000    2.7713    0.0000 H   0  0  0  0  0  0  0  0  0  0  0  0
    2.4001    1.3857    0.0000 H   0  0  0  0  0  0  0  0  0  0  0  0
   -0.8000   -1.3857    0.0000 C   0  0  0  0  0  0  0  0  0  0  0  0
   -1.6001   -2.7713    0.0000 H   0  0  0  0  0  0  0  0  0  0  0  0
   -0.2528   -2.8892    0.0000 H   0  0  0  0  0  0  0  0  0  0  0  0
   -2.4000   -1.3857    0.0000 H   0  0  0  0  0  0  0  0  0  0  0  0
    2.9857   -0.8000    0.0000 C   0  0  0  0  0  0  0  0  0  0  0  0
    3.1945    0.7863    0.0000 H   0  0  0  0  0  0  0  0  0  0  0  0
    4.2550    0.1741    0.0000 H   0  0  0  0  0  0  0  0  0  0  0  0
    3.7856   -2.1857    0.0000 C   0  0  0  0  0  0  0  0  0  0  0  0
    4.5857   -3.5713    0.0000 H   0  0  0  0  0  0  0  0  0  0  0  0
    2.9857   -3.5713    0.0000 H   0  0  0  0  0  0  0  0  0  0  0  0
    5.3856   -2.1857    0.0000 H   0  0  0  0  0  0  0  0  0  0  0  0
  1  2  1  0  0  0  0
  1  3  1  0  0  0  0
  1  4  1  0  0  0  0
  4  5  1  0  0  0  0
  5  6  1  0  0  0  0
  5  7  1  0  0  0  0
  5  8  1  0  0  0  0
  4  9  1  0  0  0  0
  9 10  1  0  0  0  0
  9 11  1  0  0  0  0
  9 12  1  0  0  0  0
  4 13  1  0  0  0  0
 13 14  1  0  0  0  0
 13 15  1  0  0  0  0
 13 16  1  0  0  0  0
  1 17  1  0  0  0  0
 17 18  1  0  0  0  0
 17 19  1  0  0  0  0
 17 20  1  0  0  0  0
 20 21  1  0  0  0  0
 20 22  1  0  0  0  0
 20 23  1  0  0  0  0
M  END
> <ChemID>
100498

> <source_casrn>
590-35-2

> <CAS>
590-35-2

> <SMILES>
CCCC(C)(C)C

> <NAME>
2,2-DIMETHYLPENTANE

> <preferred_name>
Pentane, 2,2-dimethyl-

> <iupac>
2,2-DIMETHYLPENTANE

> <MPID>
99037

> <dsstox_substance_id>
DTXSID5060439

> <Canonical_QSARr>
CCCC(C)(C)C

> <InChI_Code_QSARr>
InChI=1S/C7H16/c1-5-6-7(2,3)4/h5-6H2,1-4H3

> <InChI Key_QSARr>
CXOWYJMDMMMMJO-UHFFFAOYSA-N

> <OH>
3.369999999999998E-12

> <OH Temperature>
25.0

> <OH Data Type>
EXP

> <OH Reference>
ATKINSON,R (1989)

> <LogOH>
-11.47237009912867

$$$$
100500
  -INDIGO-08031719142D

 16 15  0  0  0  0  0  0  0  0999 V2000
    0.8000    1.3856    0.0000 C   0  0  0  0  0  0  0  0  0  0  0  0
    1.6001    2.7713    0.0000 H   0  0  0  0  0  0  0  0  0  0  0  0
    0.0000    2.7713    0.0000 H   0  0  0  0  0  0  0  0  0  0  0  0
    2.4000    1.3856    0.0000 H   0  0  0  0  0  0  0  0  0  0  0  0
    0.0000    0.0000    0.0000 C   0  0  0  0  0  0  0  0  0  0  0  0
   -0.8000   -1.3856    0.0000 H   0  0  0  0  0  0  0  0  0  0  0  0
    1.3857   -0.8000    0.0000 C   0  0  0  0  0  0  0  0  0  0  0  0
    2.7713   -1.6000    0.0000 H   0  0  0  0  0  0  0  0  0  0  0  0
    1.3857   -2.4000    0.0000 H   0  0  0  0  0  0  0  0  0  0  0  0
    2.7713    0.0000    0.0000 H   0  0  0  0  0  0  0  0  0  0  0  0
   -1.5036    0.5472    0.0000 C   0  0  0  0  0  0  0  0  0  0  0  0
   -1.1572    2.1093    0.0000 H   0  0  0  0  0  0  0  0  0  0  0  0
   -2.3631    1.8967    0.0000 H   0  0  0  0  0  0  0  0  0  0  0  0
   -2.7292   -0.4813    0.0000 C   0  0  0  0  0  0  0  0  0  0  0  0
   -4.2327    0.0660    0.0000 H   0  0  0  0  0  0  0  0  0  0  0  0
   -2.4513   -2.0569    0.0000 O   0  0  0  0  0  0  0  0  0  0  0  0
  1  2  1  0  0  0  0
  1  3  1  0  0  0  0
  1  4  1  0  0  0  0
  1  5  1  0  0  0  0
  5  6  1  0  0  0  0
  5  7  1  0  0  0  0
  7  8  1  0  0  0  0
  7  9  1  0  0  0  0
  7 10  1  0  0  0  0
  5 11  1  0  0  0  0
 11 12  1  0  0  0  0
 11 13  1  0  0  0  0
 11 14  1  0  0  0  0
 14 15  1  0  0  0  0
 14 16  2  0  0  0  0
M  END
> <ChemID>
100500

> <source_casrn>
590-86-3

> <CAS>
590-86-3

> <SMILES>
CC(C)CC=O

> <NAME>
3-METHYL-1-BUTANAL

> <preferred_name>
3-Methylbutanal

> <iupac>
3-methylbutanal

> <MPID>
99039

> <dsstox_substance_id>
DTXSID1021619

> <Canonical_QSARr>
CC(C)CC=O

> <InChI_Code_QSARr>
InChI=1S/C5H10O/c1-5(2)3-4-6/h4-5H,3H2,1-2H3

> <InChI Key_QSARr>
YGHRJJRRZDOVPD-UHFFFAOYSA-N

> <OH>
2.74E-11

> <OH Temperature>
25.0

> <OH Data Type>
EXP

> <OH Reference>
ATKINSON,R (1989)

> <LogOH>
-10.5622494371796

$$$$
100502
  -INDIGO-08031719142D

 13 13  0  0  0  0  0  0  0  0999 V2000
   -1.7323    1.9239    0.0000 O   0  0  0  0  0  0  0  0  0  0  0  0
   -0.1673    1.5913    0.0000 C   0  0  0  0  0  0  0  0  0  0  0  0
    1.0217    2.6618    0.0000 O   0  0  0  0  0  0  0  0  0  0  0  0
    0.0000    0.0000    0.0000 C   0  0  0  0  0  0  0  0  0  0  0  0
    1.5650    0.3327    0.0000 H   0  0  0  0  0  0  0  0  0  0  0  0
    0.4944   -1.5217    0.0000 H   0  0  0  0  0  0  0  0  0  0  0  0
   -1.4616   -0.6508    0.0000 C   0  0  0  0  0  0  0  0  0  0  0  0
   -1.7943   -2.2158    0.0000 H   0  0  0  0  0  0  0  0  0  0  0  0
   -2.5322    0.5383    0.0000 C   0  0  0  0  0  0  0  0  0  0  0  0
   -4.1235    0.3710    0.0000 C   0  0  0  0  0  0  0  0  0  0  0  0
   -5.7148    0.2038    0.0000 H   0  0  0  0  0  0  0  0  0  0  0  0
   -5.0639    1.6655    0.0000 H   0  0  0  0  0  0  0  0  0  0  0  0
   -4.7743   -1.0907    0.0000 H   0  0  0  0  0  0  0  0  0  0  0  0
  1  2  1  0  0  0  0
  2  3  2  0  0  0  0
  2  4  1  0  0  0  0
  4  5  1  0  0  0  0
  4  6  1  0  0  0  0
  4  7  1  0  0  0  0
  7  8  1  0  0  0  0
  7  9  2  0  0  0  0
  9  1  1  0  0  0  0
  9 10  1  0  0  0  0
 10 11  1  0  0  0  0
 10 12  1  0  0  0  0
 10 13  1  0  0  0  0
M  END
> <ChemID>
100502

> <source_casrn>
591-12-8

> <CAS>
591-12-8

> <SMILES>
CC1=CCC(=O)O1

> <NAME>
2(3H)-Furanone, 5-methyl-

> <preferred_name>
alpha-Angelica lactone

> <iupac>
5-methylfuran-2(3H)-one

> <MPID>
99040

> <dsstox_substance_id>
DTXSID7047693

> <Canonical_QSARr>
CC1=CCC(=O)O1

> <InChI_Code_QSARr>
InChI=1S/C5H6O2/c1-4-2-3-5(6)7-4/h2H,3H2,1H3

> <InChI Key_QSARr>
QOTQFLOTGBBMEX-UHFFFAOYSA-N

> <OH>
6.900000000000001E-11

> <OH Temperature>
23.0

> <OH Data Type>
EXP

> <OH Reference>
BIERBACH,A ET AL. (1994)

> <LogOH>
-10.16115090926275

$$$$
100503
  -INDIGO-08031719142D

 19 19  0  0  0  0  0  0  0  0999 V2000
    2.4000   -1.3857    0.0000 C   0  0  0  0  0  0  0  0  0  0  0  0
    1.6000    0.0000    0.0000 C   0  0  0  0  0  0  0  0  0  0  0  0
    3.1035    0.5472    0.0000 H   0  0  0  0  0  0  0  0  0  0  0  0
    1.3221    1.5757    0.0000 H   0  0  0  0  0  0  0  0  0  0  0  0
    0.0000    0.0000    0.0000 C   0  0  0  0  0  0  0  0  0  0  0  0
    0.2778    1.5757    0.0000 H   0  0  0  0  0  0  0  0  0  0  0  0
   -1.5036    0.5472    0.0000 H   0  0  0  0  0  0  0  0  0  0  0  0
   -0.8000   -1.3857    0.0000 C   0  0  0  0  0  0  0  0  0  0  0  0
   -2.0257   -0.3571    0.0000 H   0  0  0  0  0  0  0  0  0  0  0  0
   -2.0257   -2.4141    0.0000 H   0  0  0  0  0  0  0  0  0  0  0  0
    0.0000   -2.7713    0.0000 C   0  0  0  0  0  0  0  0  0  0  0  0
   -1.5036   -3.3185    0.0000 H   0  0  0  0  0  0  0  0  0  0  0  0
    0.2778   -4.3470    0.0000 H   0  0  0  0  0  0  0  0  0  0  0  0
    1.6000   -2.7713    0.0000 C   0  0  0  0  0  0  0  0  0  0  0  0
    2.4000   -4.1569    0.0000 H   0  0  0  0  0  0  0  0  0  0  0  0
    4.0000   -1.3857    0.0000 C   0  0  0  0  0  0  0  0  0  0  0  0
    5.6000   -1.3857    0.0000 H   0  0  0  0  0  0  0  0  0  0  0  0
    4.8000   -2.7713    0.0000 H   0  0  0  0  0  0  0  0  0  0  0  0
    4.8000    0.0000    0.0000 H   0  0  0  0  0  0  0  0  0  0  0  0
  1  2  1  0  0  0  0
  2  3  1  0  0  0  0
  2  4  1  0  0  0  0
  2  5  1  0  0  0  0
  5  6  1  0  0  0  0
  5  7  1  0  0  0  0
  5  8  1  0  0  0  0
  8  9  1  0  0  0  0
  8 10  1  0  0  0  0
  8 11  1  0  0  0  0
 11 12  1  0  0  0  0
 11 13  1  0  0  0  0
 11 14  1  0  0  0  0
 14  1  2  0  0  0  0
 14 15  1  0  0  0  0
  1 16  1  0  0  0  0
 16 17  1  0  0  0  0
 16 18  1  0  0  0  0
 16 19  1  0  0  0  0
M  END
> <ChemID>
100503

> <source_casrn>
591-49-1

> <CAS>
591-49-1

> <SMILES>
CC1CCCCC=1

> <NAME>
1-METHYLCYCLOHEXENE

> <preferred_name>
Cyclohexene, 1-methyl-

> <iupac>
1-Methylcyclohexene

> <MPID>
99041

> <dsstox_substance_id>
DTXSID3060451

> <Canonical_QSARr>
CC1CCCCC=1

> <InChI_Code_QSARr>
InChI=1S/C7H12/c1-7-5-3-2-4-6-7/h5H,2-4,6H2,1H3

> <InChI Key_QSARr>
CTMHWPIWNRWQEG-UHFFFAOYSA-N

> <OH>
9.44E-11

> <OH Temperature>
25.0

> <OH Data Type>
EXP

> <OH Reference>
ATKINSON,R (1989)

> <LogOH>
-10.025028005701934

$$$$
100505
  -INDIGO-08031719142D

 19 18  0  0  0  0  0  0  0  0999 V2000
    2.7713    0.0000    0.0000 C   0  0  0  0  0  0  0  0  0  0  0  0
    4.1569   -0.8000    0.0000 H   0  0  0  0  0  0  0  0  0  0  0  0
    4.1569    0.8000    0.0000 H   0  0  0  0  0  0  0  0  0  0  0  0
    2.7713   -1.6000    0.0000 H   0  0  0  0  0  0  0  0  0  0  0  0
    1.3857    0.8000    0.0000 C   0  0  0  0  0  0  0  0  0  0  0  0
    0.7734    2.2782    0.0000 H   0  0  0  0  0  0  0  0  0  0  0  0
    1.9980    2.2782    0.0000 H   0  0  0  0  0  0  0  0  0  0  0  0
    0.0001    0.0000    0.0000 C   0  0  0  0  0  0  0  0  0  0  0  0
    0.6124   -1.4782    0.0000 H   0  0  0  0  0  0  0  0  0  0  0  0
   -0.6122   -1.4782    0.0000 H   0  0  0  0  0  0  0  0  0  0  0  0
   -1.3857    0.8000    0.0000 C   0  0  0  0  0  0  0  0  0  0  0  0
   -1.9980    2.2782    0.0000 H   0  0  0  0  0  0  0  0  0  0  0  0
   -0.7734    2.2782    0.0000 H   0  0  0  0  0  0  0  0  0  0  0  0
   -2.7713    0.0000    0.0000 C   0  0  0  0  0  0  0  0  0  0  0  0
   -2.7713   -1.6000    0.0000 O   0  0  0  0  0  0  0  0  0  0  0  0
   -4.1569    0.8000    0.0000 C   0  0  0  0  0  0  0  0  0  0  0  0
   -5.5426    1.6000    0.0000 H   0  0  0  0  0  0  0  0  0  0  0  0
   -5.5426    0.0000    0.0000 H   0  0  0  0  0  0  0  0  0  0  0  0
   -4.1569    2.4000    0.0000 H   0  0  0  0  0  0  0  0  0  0  0  0
  1  2  1  0  0  0  0
  1  3  1  0  0  0  0
  1  4  1  0  0  0  0
  1  5  1  0  0  0  0
  5  6  1  0  0  0  0
  5  7  1  0  0  0  0
  5  8  1  0  0  0  0
  8  9  1  0  0  0  0
  8 10  1  0  0  0  0
  8 11  1  0  0  0  0
 11 12  1  0  0  0  0
 11 13  1  0  0  0  0
 11 14  1  0  0  0  0
 14 15  2  0  0  0  0
 14 16  1  0  0  0  0
 16 17  1  0  0  0  0
 16 18  1  0  0  0  0
 16 19  1  0  0  0  0
M  END
> <ChemID>
100505

> <source_casrn>
591-78-6

> <CAS>
591-78-6

> <SMILES>
CCCCC(C)=O

> <NAME>
2-HEXANONE

> <preferred_name>
2-Hexanone

> <iupac>
hexan-2-one

> <MPID>
99043

> <dsstox_substance_id>
DTXSID0022068

> <Canonical_QSARr>
CCCCC(C)=O

> <InChI_Code_QSARr>
InChI=1S/C6H12O/c1-3-4-5-6(2)7/h3-5H2,1-2H3

> <InChI Key_QSARr>
QQZOPKMRPOGIEB-UHFFFAOYSA-N

> <OH>
9.100000000000001E-12

> <OH Temperature>
25.0

> <OH Data Type>
EXP

> <OH Reference>
ATKINSON,R (1989)

> <LogOH>
-11.040958607678887

$$$$
100506
  -INDIGO-08031719142D

 15 14  0  0  0  0  0  0  0  0999 V2000
    2.7713    0.0000    0.0000 C   0  0  0  0  0  0  0  0  0  0  0  0
    4.1569    0.8000    0.0000 C   0  0  0  0  0  0  0  0  0  0  0  0
    5.5426    1.6000    0.0000 H   0  0  0  0  0  0  0  0  0  0  0  0
    5.5426    0.0000    0.0000 H   0  0  0  0  0  0  0  0  0  0  0  0
    4.1569    2.4000    0.0000 H   0  0  0  0  0  0  0  0  0  0  0  0
    2.7713   -1.6000    0.0000 O   0  0  0  0  0  0  0  0  0  0  0  0
    1.3857    0.8000    0.0000 O   0  0  0  0  0  0  0  0  0  0  0  0
   -0.0001    0.0000    0.0000 C   0  0  0  0  0  0  0  0  0  0  0  0
   -0.6124   -1.4782    0.0000 H   0  0  0  0  0  0  0  0  0  0  0  0
    0.6122   -1.4782    0.0000 H   0  0  0  0  0  0  0  0  0  0  0  0
   -1.3857    0.8000    0.0000 C   0  0  0  0  0  0  0  0  0  0  0  0
   -1.3857    2.4000    0.0000 H   0  0  0  0  0  0  0  0  0  0  0  0
   -2.7713    0.0000    0.0000 C   0  0  0  0  0  0  0  0  0  0  0  0
   -4.1569    0.8000    0.0000 H   0  0  0  0  0  0  0  0  0  0  0  0
   -2.7713   -1.6000    0.0000 H   0  0  0  0  0  0  0  0  0  0  0  0
  1  2  1  0  0  0  0
  2  3  1  0  0  0  0
  2  4  1  0  0  0  0
  2  5  1  0  0  0  0
  1  6  2  0  0  0  0
  1  7  1  0  0  0  0
  7  8  1  0  0  0  0
  8  9  1  0  0  0  0
  8 10  1  0  0  0  0
  8 11  1  0  0  0  0
 11 12  1  0  0  0  0
 11 13  2  0  0  0  0
 13 14  1  0  0  0  0
 13 15  1  0  0  0  0
M  END
> <ChemID>
100506

> <source_casrn>
591-87-7

> <CAS>
591-87-7

> <SMILES>
CC(=O)OCC=C

> <NAME>
ALLYL ACETATE

> <preferred_name>
Allyl acetate

> <iupac>
prop-2-en-1-yl acetate

> <MPID>
99044

> <dsstox_substance_id>
DTXSID9024437

> <Canonical_QSARr>
CC(=O)OCC=C

> <InChI_Code_QSARr>
InChI=1S/C5H8O2/c1-3-4-7-5(2)6/h3H,1,4H2,2H3

> <InChI Key_QSARr>
FWZUNOYOVVKUNF-UHFFFAOYSA-N

> <OH>
2.710000000000001E-11

> <OH Temperature>
25.0

> <OH Data Type>
EXP

> <OH Reference>
LECALVE,S ET AL. (2000)

> <LogOH>
-10.567030709125596

$$$$
100507
  -INDIGO-08031719142D

 13 12  0  0  0  0  0  0  0  0999 V2000
    0.0001    0.0000    0.0000 C   0  0  0  0  0  0  0  0  0  0  0  0
    0.6123   -1.4782    0.0000 H   0  0  0  0  0  0  0  0  0  0  0  0
   -0.6123   -1.4782    0.0000 H   0  0  0  0  0  0  0  0  0  0  0  0
   -1.3856    0.8000    0.0000 C   0  0  0  0  0  0  0  0  0  0  0  0
   -1.3856    2.4000    0.0000 H   0  0  0  0  0  0  0  0  0  0  0  0
   -2.7713    0.0000    0.0000 C   0  0  0  0  0  0  0  0  0  0  0  0
   -4.1569    0.8000    0.0000 H   0  0  0  0  0  0  0  0  0  0  0  0
   -2.7712   -1.6000    0.0000 H   0  0  0  0  0  0  0  0  0  0  0  0
    1.3856    0.8000    0.0000 C   0  0  0  0  0  0  0  0  0  0  0  0
    1.3856    2.4000    0.0000 H   0  0  0  0  0  0  0  0  0  0  0  0
    2.7713    0.0000    0.0000 C   0  0  0  0  0  0  0  0  0  0  0  0
    4.1569    0.8000    0.0000 H   0  0  0  0  0  0  0  0  0  0  0  0
    2.7713   -1.6000    0.0000 H   0  0  0  0  0  0  0  0  0  0  0  0
  1  2  1  0  0  0  0
  1  3  1  0  0  0  0
  1  4  1  0  0  0  0
  4  5  1  0  0  0  0
  4  6  2  0  0  0  0
  6  7  1  0  0  0  0
  6  8  1  0  0  0  0
  1  9  1  0  0  0  0
  9 10  1  0  0  0  0
  9 11  2  0  0  0  0
 11 12  1  0  0  0  0
 11 13  1  0  0  0  0
M  END
> <ChemID>
100507

> <source_casrn>
591-93-5

> <CAS>
591-93-5

> <SMILES>
C=CCC=C

> <NAME>
1,4-PENTADIENE

> <preferred_name>
1,4-Pentadiene

> <iupac>
Penta-1,4-diene

> <MPID>
99045

> <dsstox_substance_id>
DTXSID8060456

> <Canonical_QSARr>
C=CCC=C

> <InChI_Code_QSARr>
InChI=1S/C5H8/c1-3-5-4-2/h3-4H,1-2,5H2

> <InChI Key_QSARr>
QYZLKGVUSQXAMU-UHFFFAOYSA-N

> <OH>
5.300000000000001E-11

> <OH Temperature>
25.0

> <OH Data Type>
EXP

> <OH Reference>
ATKINSON,R (1989)

> <LogOH>
-10.2757241303992

$$$$
100509
  -INDIGO-08031719142D

 18 17  0  0  0  0  0  0  0  0999 V2000
    0.0001    0.0000    0.0000 C   0  0  0  0  0  0  0  0  0  0  0  0
    0.6124   -1.4782    0.0000 H   0  0  0  0  0  0  0  0  0  0  0  0
   -0.6122   -1.4782    0.0000 H   0  0  0  0  0  0  0  0  0  0  0  0
    1.3857    0.8000    0.0000 C   0  0  0  0  0  0  0  0  0  0  0  0
    0.7734    2.2782    0.0000 H   0  0  0  0  0  0  0  0  0  0  0  0
    1.9980    2.2782    0.0000 H   0  0  0  0  0  0  0  0  0  0  0  0
    2.7713    0.0000    0.0000 C   0  0  0  0  0  0  0  0  0  0  0  0
    4.1569   -0.8000    0.0000 H   0  0  0  0  0  0  0  0  0  0  0  0
    4.1569    0.8000    0.0000 H   0  0  0  0  0  0  0  0  0  0  0  0
    2.7713   -1.6000    0.0000 H   0  0  0  0  0  0  0  0  0  0  0  0
   -1.3857    0.8000    0.0000 C   0  0  0  0  0  0  0  0  0  0  0  0
   -1.9980    2.2782    0.0000 H   0  0  0  0  0  0  0  0  0  0  0  0
   -0.7734    2.2782    0.0000 H   0  0  0  0  0  0  0  0  0  0  0  0
   -2.7713    0.0000    0.0000 C   0  0  0  0  0  0  0  0  0  0  0  0
   -2.7713   -1.6000    0.0000 H   0  0  0  0  0  0  0  0  0  0  0  0
   -4.1569    0.8000    0.0000 C   0  0  0  0  0  0  0  0  0  0  0  0
   -5.5426    0.0000    0.0000 H   0  0  0  0  0  0  0  0  0  0  0  0
   -4.1569    2.4000    0.0000 H   0  0  0  0  0  0  0  0  0  0  0  0
  1  2  1  0  0  0  0
  1  3  1  0  0  0  0
  1  4  1  0  0  0  0
  4  5  1  0  0  0  0
  4  6  1  0  0  0  0
  4  7  1  0  0  0  0
  7  8  1  0  0  0  0
  7  9  1  0  0  0  0
  7 10  1  0  0  0  0
  1 11  1  0  0  0  0
 11 12  1  0  0  0  0
 11 13  1  0  0  0  0
 11 14  1  0  0  0  0
 14 15  1  0  0  0  0
 14 16  2  0  0  0  0
 16 17  1  0  0  0  0
 16 18  1  0  0  0  0
M  END
> <ChemID>
100509

> <source_casrn>
592-41-6

> <CAS>
592-41-6

> <SMILES>
CCCCC=C

> <NAME>
1-HEXENE

> <preferred_name>
1-Hexene

> <iupac>
hex-1-ene

> <MPID>
99047

> <dsstox_substance_id>
DTXSID4025402

> <Canonical_QSARr>
CCCCC=C

> <InChI_Code_QSARr>
InChI=1S/C6H12/c1-3-5-6-4-2/h3H,1,4-6H2,2H3

> <InChI Key_QSARr>
LIKMAJRDDDTEIG-UHFFFAOYSA-N

> <OH>
3.750000000000001E-11

> <OH Temperature>
25.0

> <OH Data Type>
EXP

> <OH Reference>
ATKINSON,R (1989)

> <LogOH>
-10.425968732272286

$$$$
100510
  -INDIGO-08031719142D

 16 15  0  0  0  0  0  0  0  0999 V2000
    2.7713    0.0000    0.0000 C   0  0  0  0  0  0  0  0  0  0  0  0
    4.1569   -0.8000    0.0000 H   0  0  0  0  0  0  0  0  0  0  0  0
    2.7713    1.6000    0.0000 H   0  0  0  0  0  0  0  0  0  0  0  0
    1.3857   -0.8000    0.0000 C   0  0  0  0  0  0  0  0  0  0  0  0
    1.3857   -2.4000    0.0000 H   0  0  0  0  0  0  0  0  0  0  0  0
    0.0001    0.0000    0.0000 C   0  0  0  0  0  0  0  0  0  0  0  0
    0.6124    1.4782    0.0000 H   0  0  0  0  0  0  0  0  0  0  0  0
   -0.6122    1.4782    0.0000 H   0  0  0  0  0  0  0  0  0  0  0  0
   -1.3857   -0.8000    0.0000 C   0  0  0  0  0  0  0  0  0  0  0  0
   -1.9980   -2.2782    0.0000 H   0  0  0  0  0  0  0  0  0  0  0  0
   -0.7734   -2.2782    0.0000 H   0  0  0  0  0  0  0  0  0  0  0  0
   -2.7713    0.0000    0.0000 C   0  0  0  0  0  0  0  0  0  0  0  0
   -2.7713    1.6000    0.0000 H   0  0  0  0  0  0  0  0  0  0  0  0
   -4.1569   -0.8000    0.0000 C   0  0  0  0  0  0  0  0  0  0  0  0
   -5.5426    0.0000    0.0000 H   0  0  0  0  0  0  0  0  0  0  0  0
   -4.1569   -2.4000    0.0000 H   0  0  0  0  0  0  0  0  0  0  0  0
  1  2  1  0  0  0  0
  1  3  1  0  0  0  0
  1  4  2  0  0  0  0
  4  5  1  0  0  0  0
  4  6  1  0  0  0  0
  6  7  1  0  0  0  0
  6  8  1  0  0  0  0
  6  9  1  0  0  0  0
  9 10  1  0  0  0  0
  9 11  1  0  0  0  0
  9 12  1  0  0  0  0
 12 13  1  0  0  0  0
 12 14  2  0  0  0  0
 14 15  1  0  0  0  0
 14 16  1  0  0  0  0
M  END
> <ChemID>
100510

> <source_casrn>
592-42-7

> <CAS>
592-42-7

> <SMILES>
C=CCCC=C

> <NAME>
1,5-HEXADIENE

> <preferred_name>
1,5-Hexadiene

> <iupac>
hexa-1,5-diene

> <MPID>
99048

> <dsstox_substance_id>
DTXSID4049323

> <Canonical_QSARr>
C=CCCC=C

> <InChI_Code_QSARr>
InChI=1S/C6H10/c1-3-5-6-4-2/h3-4H,1-2,5-6H2

> <InChI Key_QSARr>
PYGSKMBEVAICCR-UHFFFAOYSA-N

> <OH>
6.2E-11

> <OH Temperature>
25.0

> <OH Data Type>
EXP

> <OH Reference>
ATKINSON,R (1989)

> <LogOH>
-10.207608310501765

$$$$
100512
  -INDIGO-08031719142D

 21 20  0  0  0  0  0  0  0  0999 V2000
   -1.3856    0.8000    0.0000 C   0  0  0  0  0  0  0  0  0  0  0  0
   -0.7734    2.2782    0.0000 H   0  0  0  0  0  0  0  0  0  0  0  0
   -1.9979    2.2782    0.0000 H   0  0  0  0  0  0  0  0  0  0  0  0
   -0.0001    0.0000    0.0000 C   0  0  0  0  0  0  0  0  0  0  0  0
   -0.6122   -1.4782    0.0000 H   0  0  0  0  0  0  0  0  0  0  0  0
    0.6123   -1.4782    0.0000 H   0  0  0  0  0  0  0  0  0  0  0  0
    1.3856    0.8000    0.0000 C   0  0  0  0  0  0  0  0  0  0  0  0
    1.9979    2.2782    0.0000 H   0  0  0  0  0  0  0  0  0  0  0  0
    0.7733    2.2782    0.0000 H   0  0  0  0  0  0  0  0  0  0  0  0
    2.7713    0.0000    0.0000 C   0  0  0  0  0  0  0  0  0  0  0  0
    4.1569   -0.8000    0.0000 H   0  0  0  0  0  0  0  0  0  0  0  0
    4.1569    0.8000    0.0000 H   0  0  0  0  0  0  0  0  0  0  0  0
    2.7713   -1.6000    0.0000 H   0  0  0  0  0  0  0  0  0  0  0  0
   -2.7712    0.0000    0.0000 C   0  0  0  0  0  0  0  0  0  0  0  0
   -3.3835   -1.4782    0.0000 H   0  0  0  0  0  0  0  0  0  0  0  0
   -2.1591   -1.4782    0.0000 H   0  0  0  0  0  0  0  0  0  0  0  0
   -4.1569    0.8000    0.0000 C   0  0  0  0  0  0  0  0  0  0  0  0
   -4.1569    2.4000    0.0000 H   0  0  0  0  0  0  0  0  0  0  0  0
   -5.5425    0.0000    0.0000 C   0  0  0  0  0  0  0  0  0  0  0  0
   -6.9282    0.8000    0.0000 H   0  0  0  0  0  0  0  0  0  0  0  0
   -5.5425   -1.6000    0.0000 H   0  0  0  0  0  0  0  0  0  0  0  0
  1  2  1  0  0  0  0
  1  3  1  0  0  0  0
  1  4  1  0  0  0  0
  4  5  1  0  0  0  0
  4  6  1  0  0  0  0
  4  7  1  0  0  0  0
  7  8  1  0  0  0  0
  7  9  1  0  0  0  0
  7 10  1  0  0  0  0
 10 11  1  0  0  0  0
 10 12  1  0  0  0  0
 10 13  1  0  0  0  0
  1 14  1  0  0  0  0
 14 15  1  0  0  0  0
 14 16  1  0  0  0  0
 14 17  1  0  0  0  0
 17 18  1  0  0  0  0
 17 19  2  0  0  0  0
 19 20  1  0  0  0  0
 19 21  1  0  0  0  0
M  END
> <ChemID>
100512

> <source_casrn>
592-76-7

> <CAS>
592-76-7

> <SMILES>
CCCCCC=C

> <NAME>
1-HEPTENE

> <preferred_name>
1-Heptene

> <iupac>
hept-1-ene

> <MPID>
99050

> <dsstox_substance_id>
DTXSID2060466

> <Canonical_QSARr>
CCCCCC=C

> <InChI_Code_QSARr>
InChI=1S/C7H14/c1-3-5-7-6-4-2/h3H,1,4-7H2,2H3

> <InChI Key_QSARr>
ZGEGCLOFRBLKSE-UHFFFAOYSA-N

> <OH>
4.049999999999999E-11

> <OH Temperature>
25.0

> <OH Data Type>
EXP

> <OH Reference>
ATKINSON,R (1989)

> <LogOH>
-10.39254497678535

$$$$
100514
  -INDIGO-08031719142D

 17 16  0  0  0  0  0  0  0  0999 V2000
    1.3857    0.8000    0.0000 C   0  0  0  0  0  0  0  0  0  0  0  0
    1.9980    2.2782    0.0000 H   0  0  0  0  0  0  0  0  0  0  0  0
    0.7734    2.2782    0.0000 H   0  0  0  0  0  0  0  0  0  0  0  0
   -0.0001    0.0000    0.0000 C   0  0  0  0  0  0  0  0  0  0  0  0
   -0.6124   -1.4782    0.0000 H   0  0  0  0  0  0  0  0  0  0  0  0
    0.6122   -1.4782    0.0000 H   0  0  0  0  0  0  0  0  0  0  0  0
   -1.3857    0.8000    0.0000 C   0  0  0  0  0  0  0  0  0  0  0  0
   -0.7734    2.2782    0.0000 H   0  0  0  0  0  0  0  0  0  0  0  0
   -1.9980    2.2782    0.0000 H   0  0  0  0  0  0  0  0  0  0  0  0
   -2.7713    0.0000    0.0000 C   0  0  0  0  0  0  0  0  0  0  0  0
   -4.1569   -0.8000    0.0000 H   0  0  0  0  0  0  0  0  0  0  0  0
   -4.1569    0.8000    0.0000 H   0  0  0  0  0  0  0  0  0  0  0  0
   -2.7713   -1.6000    0.0000 H   0  0  0  0  0  0  0  0  0  0  0  0
    2.7713    0.0000    0.0000 O   0  0  0  0  0  0  0  0  0  0  0  0
    4.1569    0.8000    0.0000 C   0  0  0  0  0  0  0  0  0  0  0  0
    5.5426    0.0000    0.0000 H   0  0  0  0  0  0  0  0  0  0  0  0
    4.1569    2.4000    0.0000 O   0  0  0  0  0  0  0  0  0  0  0  0
  1  2  1  0  0  0  0
  1  3  1  0  0  0  0
  1  4  1  0  0  0  0
  4  5  1  0  0  0  0
  4  6  1  0  0  0  0
  4  7  1  0  0  0  0
  7  8  1  0  0  0  0
  7  9  1  0  0  0  0
  7 10  1  0  0  0  0
 10 11  1  0  0  0  0
 10 12  1  0  0  0  0
 10 13  1  0  0  0  0
  1 14  1  0  0  0  0
 14 15  1  0  0  0  0
 15 16  1  0  0  0  0
 15 17  2  0  0  0  0
M  END
> <ChemID>
100514

> <source_casrn>
592-84-7

> <CAS>
592-84-7

> <SMILES>
CCCCOC=O

> <NAME>
N-BUTYLFORMATE

> <preferred_name>
Formic acid, butyl ester

> <iupac>
Butyl formate

> <MPID>
99051

> <dsstox_substance_id>
DTXSID2060468

> <Canonical_QSARr>
CCCCOC=O

> <InChI_Code_QSARr>
InChI=1S/C5H10O2/c1-2-3-4-7-5-6/h5H,2-4H2,1H3

> <InChI Key_QSARr>
NMJJFJNHVMGPGM-UHFFFAOYSA-N

> <OH>
3.12E-12

> <OH Temperature>
25.0

> <OH Data Type>
EXP

> <OH Reference>
KWOK,ESC & ATKINSON,R (1994)

> <LogOH>
-11.505845405981574

$$$$
100516
  -INDIGO-08031719142D

  5  4  0  0  0  0  0  0  0  0999 V2000
    0.0000    0.0000    0.0000 C   0  0  0  0  0  0  0  0  0  0  0  0
    0.8000    1.3856    0.0000 H   0  0  0  0  0  0  0  0  0  0  0  0
   -1.3856    0.8000    0.0000 H   0  0  0  0  0  0  0  0  0  0  0  0
    1.3856   -0.8000    0.0000 H   0  0  0  0  0  0  0  0  0  0  0  0
   -0.8000   -1.3856    0.0000 F   0  0  0  0  0  0  0  0  0  0  0  0
  1  2  1  0  0  0  0
  1  3  1  0  0  0  0
  1  4  1  0  0  0  0
  1  5  1  0  0  0  0
M  END
> <ChemID>
100516

> <source_casrn>
593-53-3

> <CAS>
593-53-3

> <SMILES>
CF

> <NAME>
FLUOROMETHANE

> <preferred_name>
HFC-41

> <iupac>
Fluoromethane

> <MPID>
99053

> <dsstox_substance_id>
DTXSID6060474

> <Canonical_QSARr>
CF

> <InChI_Code_QSARr>
InChI=1S/CH3F/c1-2/h1H3

> <InChI Key_QSARr>
NBVXSUQYWXRMNV-UHFFFAOYSA-N

> <OH>
1.680000000000001E-14

> <OH Temperature>
25.0

> <OH Data Type>
EXP

> <OH Reference>
ATKINSON,R (1989)

> <LogOH>
-13.774690718274147

$$$$
100517
  -INDIGO-08031719142D

  6  5  0  0  0  0  0  0  0  0999 V2000
   -0.0000    0.0000    0.0000 C   0  0  0  0  0  0  0  0  0  0  0  0
    0.8000    1.3856    0.0000 H   0  0  0  0  0  0  0  0  0  0  0  0
    0.8000   -1.3856    0.0000 H   0  0  0  0  0  0  0  0  0  0  0  0
   -1.6000    0.0000    0.0000 C   0  0  0  0  0  0  0  0  0  0  0  0
   -2.4000    1.3856    0.0000 H   0  0  0  0  0  0  0  0  0  0  0  0
   -2.4000   -1.3856    0.0000 Br  0  0  0  0  0  0  0  0  0  0  0  0
  1  2  1  0  0  0  0
  1  3  1  0  0  0  0
  1  4  2  0  0  0  0
  4  5  1  0  0  0  0
  4  6  1  0  0  0  0
M  END
> <ChemID>
100517

> <source_casrn>
593-60-2

> <CAS>
593-60-2

> <SMILES>
C=CBr

> <NAME>
BROMOETHENE

> <preferred_name>
Vinyl bromide

> <iupac>
bromoethene

> <MPID>
99054

> <dsstox_substance_id>
DTXSID8021432

> <Canonical_QSARr>
C=CBr

> <InChI_Code_QSARr>
InChI=1S/C2H3Br/c1-2-3/h2H,1H2

> <InChI Key_QSARr>
INLLPKCGLOXCIV-UHFFFAOYSA-N

> <OH>
6.810000000000002E-12

> <OH Temperature>
25.0

> <OH Data Type>
EXP

> <OH Reference>
ATKINSON,R (1989)

> <LogOH>
-11.166852888087202

$$$$
100518
  -INDIGO-08031719142D

  5  4  0  0  0  0  0  0  0  0999 V2000
   -0.8000   -1.3856    0.0000 F   0  0  0  0  0  0  0  0  0  0  0  0
    0.0000    0.0000    0.0000 C   0  0  0  0  0  0  0  0  0  0  0  0
    0.8000    1.3856    0.0000 H   0  0  0  0  0  0  0  0  0  0  0  0
   -1.3856    0.8000    0.0000 H   0  0  0  0  0  0  0  0  0  0  0  0
    1.3856   -0.8000    0.0000 Cl  0  0  0  0  0  0  0  0  0  0  0  0
  1  2  1  0  0  0  0
  2  3  1  0  0  0  0
  2  4  1  0  0  0  0
  2  5  1  0  0  0  0
M  END
> <ChemID>
100518

> <source_casrn>
593-70-4

> <CAS>
593-70-4

> <SMILES>
FCCl

> <NAME>
CHLOROFLUOROMETHANE

> <preferred_name>
Chlorofluoromethane

> <iupac>
chloro(fluoro)methane

> <MPID>
99055

> <dsstox_substance_id>
DTXSID6020305

> <Canonical_QSARr>
FCCl

> <InChI_Code_QSARr>
InChI=1S/CH2ClF/c2-1-3/h1H2

> <InChI Key_QSARr>
XWCDCDSDNJVCLO-UHFFFAOYSA-N

> <OH>
4.41E-14

> <OH Temperature>
25.0

> <OH Data Type>
EXP

> <OH Reference>
ATKINSON,R (1989)

> <LogOH>
-13.355561410532166

$$$$
100522
  -INDIGO-08031719142D

 26 25  0  0  0  0  0  0  0  0999 V2000
    0.0000    0.0000    0.0000 C   0  0  0  0  0  0  0  0  0  0  0  0
    1.6000    0.0000    0.0000 C   0  0  0  0  0  0  0  0  0  0  0  0
    3.2000    0.0000    0.0000 C   0  0  0  0  0  0  0  0  0  0  0  0
    4.8000    0.0000    0.0000 H   0  0  0  0  0  0  0  0  0  0  0  0
    4.0001   -1.3857    0.0000 H   0  0  0  0  0  0  0  0  0  0  0  0
    4.0001    1.3857    0.0000 H   0  0  0  0  0  0  0  0  0  0  0  0
    1.8778   -1.5757    0.0000 C   0  0  0  0  0  0  0  0  0  0  0  0
    2.1557   -3.1514    0.0000 H   0  0  0  0  0  0  0  0  0  0  0  0
    3.3814   -2.1229    0.0000 H   0  0  0  0  0  0  0  0  0  0  0  0
    0.8494   -2.8014    0.0000 H   0  0  0  0  0  0  0  0  0  0  0  0
    1.8778    1.5757    0.0000 C   0  0  0  0  0  0  0  0  0  0  0  0
    2.1557    3.1514    0.0000 H   0  0  0  0  0  0  0  0  0  0  0  0
    3.3814    2.1229    0.0000 H   0  0  0  0  0  0  0  0  0  0  0  0
    0.8494    2.8014    0.0000 H   0  0  0  0  0  0  0  0  0  0  0  0
   -1.6000   -0.0000    0.0000 C   0  0  0  0  0  0  0  0  0  0  0  0
   -3.2000   -0.0000    0.0000 H   0  0  0  0  0  0  0  0  0  0  0  0
   -2.6285   -1.2256    0.0000 H   0  0  0  0  0  0  0  0  0  0  0  0
   -2.6285    1.2256    0.0000 H   0  0  0  0  0  0  0  0  0  0  0  0
    0.0000    1.6000    0.0000 C   0  0  0  0  0  0  0  0  0  0  0  0
   -1.3856    2.4000    0.0000 H   0  0  0  0  0  0  0  0  0  0  0  0
   -0.2778    3.1757    0.0000 H   0  0  0  0  0  0  0  0  0  0  0  0
   -1.5036    1.0527    0.0000 H   0  0  0  0  0  0  0  0  0  0  0  0
    0.0000   -1.6000    0.0000 C   0  0  0  0  0  0  0  0  0  0  0  0
   -1.3856   -2.4000    0.0000 H   0  0  0  0  0  0  0  0  0  0  0  0
   -0.2778   -3.1757    0.0000 H   0  0  0  0  0  0  0  0  0  0  0  0
   -1.5036   -1.0527    0.0000 H   0  0  0  0  0  0  0  0  0  0  0  0
  1  2  1  0  0  0  0
  2  3  1  0  0  0  0
  3  4  1  0  0  0  0
  3  5  1  0  0  0  0
  3  6  1  0  0  0  0
  2  7  1  0  0  0  0
  7  8  1  0  0  0  0
  7  9  1  0  0  0  0
  7 10  1  0  0  0  0
  2 11  1  0  0  0  0
 11 12  1  0  0  0  0
 11 13  1  0  0  0  0
 11 14  1  0  0  0  0
  1 15  1  0  0  0  0
 15 16  1  0  0  0  0
 15 17  1  0  0  0  0
 15 18  1  0  0  0  0
  1 19  1  0  0  0  0
 19 20  1  0  0  0  0
 19 21  1  0  0  0  0
 19 22  1  0  0  0  0
  1 23  1  0  0  0  0
 23 24  1  0  0  0  0
 23 25  1  0  0  0  0
 23 26  1  0  0  0  0
M  END
> <ChemID>
100522

> <source_casrn>
594-82-1

> <CAS>
594-82-1

> <SMILES>
CC(C)(C)C(C)(C)C

> <NAME>
2,2,3,3-TETRAMETHYLBUTANE

> <preferred_name>
Butane, 2,2,3,3-tetramethyl-

> <iupac>
2,2,3,3-Tetramethylbutane

> <MPID>
99057

> <dsstox_substance_id>
DTXSID9073204

> <Canonical_QSARr>
CC(C)(C)C(C)(C)C

> <InChI_Code_QSARr>
InChI=1S/C8H18/c1-7(2,3)8(4,5)6/h1-6H3

> <InChI Key_QSARr>
OMMLUKLXGSRPHK-UHFFFAOYSA-N

> <OH>
1.08E-12

> <OH Temperature>
25.0

> <OH Data Type>
EXP

> <OH Reference>
ATKINSON,R (1989)

> <LogOH>
-11.96657624451304

$$$$
100523
  -INDIGO-08031719142D

 21 20  0  0  0  0  0  0  0  0999 V2000
    0.0001    0.0000    0.0000 P   0  0  0  0  0  0  0  0  0  0  0  0
    1.6001   -0.0000    0.0000 O   0  0  0  0  0  0  0  0  0  0  0  0
    2.4000   -1.3856    0.0000 C   0  0  0  0  0  0  0  0  0  0  0  0
    3.2001   -2.7713    0.0000 H   0  0  0  0  0  0  0  0  0  0  0  0
    4.0000   -1.3856    0.0000 H   0  0  0  0  0  0  0  0  0  0  0  0
    1.6001   -2.7713    0.0000 H   0  0  0  0  0  0  0  0  0  0  0  0
    0.8000    1.3856    0.0000 O   0  0  0  0  0  0  0  0  0  0  0  0
    2.4000    1.3856    0.0000 C   0  0  0  0  0  0  0  0  0  0  0  0
    3.2001    2.7713    0.0000 H   0  0  0  0  0  0  0  0  0  0  0  0
    4.0000    1.3856    0.0000 H   0  0  0  0  0  0  0  0  0  0  0  0
    1.6001    2.7713    0.0000 H   0  0  0  0  0  0  0  0  0  0  0  0
    0.8000   -1.3856    0.0000 O   0  0  0  0  0  0  0  0  0  0  0  0
   -1.5999    0.0000    0.0000 N   0  0  0  0  0  0  0  0  0  0  0  0
   -2.4000   -1.3856    0.0000 C   0  0  0  0  0  0  0  0  0  0  0  0
   -3.2001   -2.7713    0.0000 H   0  0  0  0  0  0  0  0  0  0  0  0
   -4.0000   -1.3856    0.0000 H   0  0  0  0  0  0  0  0  0  0  0  0
   -1.5999   -2.7713    0.0000 H   0  0  0  0  0  0  0  0  0  0  0  0
   -2.4000    1.3856    0.0000 C   0  0  0  0  0  0  0  0  0  0  0  0
   -3.2001    2.7713    0.0000 H   0  0  0  0  0  0  0  0  0  0  0  0
   -4.0000    1.3856    0.0000 H   0  0  0  0  0  0  0  0  0  0  0  0
   -1.5999    2.7713    0.0000 H   0  0  0  0  0  0  0  0  0  0  0  0
  1  2  1  0  0  0  0
  2  3  1  0  0  0  0
  3  4  1  0  0  0  0
  3  5  1  0  0  0  0
  3  6  1  0  0  0  0
  1  7  1  0  0  0  0
  7  8  1  0  0  0  0
  8  9  1  0  0  0  0
  8 10  1  0  0  0  0
  8 11  1  0  0  0  0
  1 12  2  0  0  0  0
  1 13  1  0  0  0  0
 13 14  1  0  0  0  0
 14 15  1  0  0  0  0
 14 16  1  0  0  0  0
 14 17  1  0  0  0  0
 13 18  1  0  0  0  0
 18 19  1  0  0  0  0
 18 20  1  0  0  0  0
 18 21  1  0  0  0  0
M  END
> <ChemID>
100523

> <source_casrn>
597-07-9

> <CAS>
597-07-9

> <SMILES>
CN(C)P(=O)(OC)OC

> <NAME>
O,O,N,N-Tetramethyl phosphoroamidate

> <preferred_name>
Phosphoramidic acid, dimethyl-, dimethyl ester

> <iupac>
N-dimethoxyphosphoryl-N-methylmethanamine

> <MPID>
99058

> <dsstox_substance_id>
DTXSID20208405

> <Canonical_QSARr>
CN(C)P(=O)(OC)OC

> <InChI_Code_QSARr>
InChI=1S/C4H12NO3P/c1-5(2)9(6,7-3)8-4/h1-4H3

> <InChI Key_QSARr>
NEVPGZLSKXATIM-UHFFFAOYSA-N

> <OH>
3.19E-11

> <OH Temperature>
25.0

> <OH Data Type>
EXP

> <OH Reference>
ATKINSON,R ET AL. (1989)

> <LogOH>
-10.49620931694284

$$$$
100525
  -INDIGO-08031719142D

 11 10  0  0  0  0  0  0  0  0999 V2000
   -1.6000   -2.7713    0.0000 O   0  0  0  0  0  0  0  0  0  0  0  0
   -0.8000   -1.3856    0.0000 C   0  0  0  0  0  0  0  0  0  0  0  0
   -0.0000    0.0000    0.0000 C   0  0  0  0  0  0  0  0  0  0  0  0
   -0.8000    1.3856    0.0000 C   0  0  0  0  0  0  0  0  0  0  0  0
   -1.6000    2.7713    0.0000 H   0  0  0  0  0  0  0  0  0  0  0  0
   -2.4000    1.3856    0.0000 H   0  0  0  0  0  0  0  0  0  0  0  0
   -0.0000    2.7713    0.0000 H   0  0  0  0  0  0  0  0  0  0  0  0
    1.6000    0.0000    0.0000 C   0  0  0  0  0  0  0  0  0  0  0  0
    3.2000    0.0000    0.0000 H   0  0  0  0  0  0  0  0  0  0  0  0
    2.4000   -1.3856    0.0000 H   0  0  0  0  0  0  0  0  0  0  0  0
    2.4000    1.3856    0.0000 H   0  0  0  0  0  0  0  0  0  0  0  0
  1  2  2  0  0  0  0
  2  3  2  0  0  0  0
  3  4  1  0  0  0  0
  4  5  1  0  0  0  0
  4  6  1  0  0  0  0
  4  7  1  0  0  0  0
  3  8  1  0  0  0  0
  8  9  1  0  0  0  0
  8 10  1  0  0  0  0
  8 11  1  0  0  0  0
M  END
> <ChemID>
100525

> <source_casrn>
598-26-5

> <CAS>
598-26-5

> <SMILES>
CC(C)=C=O

> <NAME>
2-METHYL-1-PROPEN-1-ONE(DIMETHYLKETENE)

> <preferred_name>
1-Propen-1-one, 2-methyl-

> <iupac>
2-methylprop-1-en-1-one

> <MPID>
99060

> <dsstox_substance_id>
DTXSID10208530

> <Canonical_QSARr>
CC(C)=C=O

> <InChI_Code_QSARr>
InChI=1S/C4H6O/c1-4(2)3-5/h1-2H3

> <InChI Key_QSARr>
VDOKWPVSGXHSNP-UHFFFAOYSA-N

> <OH>
1.07E-10

> <OH Temperature>
25.0

> <OH Data Type>
EXP

> <OH Reference>
ATKINSON,R (1989)

> <LogOH>
-9.970616222314773

$$$$
100527
  -INDIGO-08031719142D

  8  7  0  0  0  0  0  0  0  0999 V2000
   -2.7713    0.0000    0.0000 N   0  0  0  0  0  0  0  0  0  0  0  0
   -1.3856   -0.8000    0.0000 O   0  0  0  0  0  0  0  0  0  0  0  0
   -0.0000    0.0000    0.0000 C   0  0  0  0  0  0  0  0  0  0  0  0
    1.3856    0.8000    0.0000 H   0  0  0  0  0  0  0  0  0  0  0  0
   -0.0000    1.6000    0.0000 H   0  0  0  0  0  0  0  0  0  0  0  0
    1.3856   -0.8000    0.0000 H   0  0  0  0  0  0  0  0  0  0  0  0
   -4.1569   -0.8000    0.0000 O   0  0  0  0  0  0  0  0  0  0  0  0
   -2.7713    1.6000    0.0000 O   0  0  0  0  0  0  0  0  0  0  0  0
  1  2  1  0  0  0  0
  2  3  1  0  0  0  0
  3  4  1  0  0  0  0
  3  5  1  0  0  0  0
  3  6  1  0  0  0  0
  1  7  2  0  0  0  0
  1  8  1  0  0  0  0
M  CHG  2   1   1   8  -1
M  END
> <ChemID>
100527

> <source_casrn>
598-58-3

> <CAS>
598-58-3

> <SMILES>
CO[N+]([O-])=O

> <NAME>
METHYLNITRATE

> <preferred_name>
Methyl nitrate

> <iupac>
METHYL NITRATE

> <MPID>
99061

> <dsstox_substance_id>
DTXSID4073205

> <Canonical_QSARr>
CO[N+]([O-])=O

> <InChI_Code_QSARr>
InChI=1S/CH3NO3/c1-5-2(3)4/h1H3

> <InChI Key_QSARr>
LRMHVVPPGGOAJQ-UHFFFAOYSA-N

> <OH>
3.5E-13

> <OH Temperature>
25.0

> <OH Data Type>
EXP

> <OH Reference>
ATKINSON,R (1994)

> <LogOH>
-12.455931955649712

$$$$
100529
  -INDIGO-08031719142D

  8  7  0  0  0  0  0  0  0  0999 V2000
    2.4000    1.3856    0.0000 O   0  0  0  0  0  0  0  0  0  0  0  0
    4.0000    1.3856    0.0000 H   0  0  0  0  0  0  0  0  0  0  0  0
    1.6000    0.0000    0.0000 C   0  0  0  0  0  0  0  0  0  0  0  0
   -0.0000    0.0000    0.0000 C   0  0  0  0  0  0  0  0  0  0  0  0
   -1.6000    0.0000    0.0000 F   0  0  0  0  0  0  0  0  0  0  0  0
   -0.8000    1.3856    0.0000 F   0  0  0  0  0  0  0  0  0  0  0  0
   -0.8000   -1.3856    0.0000 F   0  0  0  0  0  0  0  0  0  0  0  0
    2.4000   -1.3856    0.0000 O   0  0  0  0  0  0  0  0  0  0  0  0
  1  2  1  0  0  0  0
  1  3  1  0  0  0  0
  3  4  1  0  0  0  0
  4  5  1  0  0  0  0
  4  6  1  0  0  0  0
  4  7  1  0  0  0  0
  3  8  2  0  0  0  0
M  END
> <ChemID>
100529

> <source_casrn>
599-00-8

> <CAS>
14477-72-6

> <SMILES>
[O-]C(=O)C(F)(F)F

> <NAME>
Trifluoroacetic acid

> <preferred_name>
Acetic acid, trifluoro-, ion(1-)

> <iupac>
2,2,2-trifluoroacetate

> <MPID>
99063

> <dsstox_substance_id>
DTXSID60162799

> <Canonical_QSARr>
OC(=O)C(F)(F)F

> <InChI_Code_QSARr>
InChI=1S/C2HF3O2/c3-2(4,5)1(6)7/h(H,6,7)

> <InChI Key_QSARr>
DTQVDTLACAAQTR-UHFFFAOYSA-N

> <OH>
1.2E-13

> <OH Temperature>
25.0

> <OH Data Type>
EXP

> <OH Reference>
CARR,S ET AL. (1994)

> <LogOH>
-12.920818753952357

$$$$
100530
  -INDIGO-08031719142D

 21 21  0  0  0  0  0  0  0  0999 V2000
    0.0000    0.0000    0.0000 C   0  0  0  0  0  0  0  0  0  0  0  0
    0.8000   -1.3856    0.0000 C   0  0  0  0  0  0  0  0  0  0  0  0
    0.0000   -2.7713    0.0000 H   0  0  0  0  0  0  0  0  0  0  0  0
    2.4000   -1.3856    0.0000 C   0  0  0  0  0  0  0  0  0  0  0  0
    3.2001   -2.7713    0.0000 H   0  0  0  0  0  0  0  0  0  0  0  0
    3.2001    0.0000    0.0000 C   0  0  0  0  0  0  0  0  0  0  0  0
    4.8000    0.0000    0.0000 H   0  0  0  0  0  0  0  0  0  0  0  0
    2.4000    1.3856    0.0000 C   0  0  0  0  0  0  0  0  0  0  0  0
    3.2001    2.7713    0.0000 H   0  0  0  0  0  0  0  0  0  0  0  0
    0.8000    1.3856    0.0000 C   0  0  0  0  0  0  0  0  0  0  0  0
    0.0000    2.7713    0.0000 C   0  0  0  0  0  0  0  0  0  0  0  0
   -0.8000    4.1569    0.0000 H   0  0  0  0  0  0  0  0  0  0  0  0
    0.8000    4.1569    0.0000 H   0  0  0  0  0  0  0  0  0  0  0  0
   -1.6000    2.7713    0.0000 H   0  0  0  0  0  0  0  0  0  0  0  0
   -1.6000    0.0000    0.0000 C   0  0  0  0  0  0  0  0  0  0  0  0
   -2.8694    0.9740    0.0000 H   0  0  0  0  0  0  0  0  0  0  0  0
   -1.8088    1.5863    0.0000 H   0  0  0  0  0  0  0  0  0  0  0  0
   -2.4001   -1.3856    0.0000 C   0  0  0  0  0  0  0  0  0  0  0  0
   -3.2000   -2.7713    0.0000 H   0  0  0  0  0  0  0  0  0  0  0  0
   -4.0000   -1.3856    0.0000 H   0  0  0  0  0  0  0  0  0  0  0  0
   -1.6000   -2.7713    0.0000 H   0  0  0  0  0  0  0  0  0  0  0  0
  1  2  1  0  0  0  0
  2  3  1  0  0  0  0
  2  4  2  0  0  0  0
  4  5  1  0  0  0  0
  4  6  1  0  0  0  0
  6  7  1  0  0  0  0
  6  8  2  0  0  0  0
  8  9  1  0  0  0  0
  8 10  1  0  0  0  0
 10  1  2  0  0  0  0
 10 11  1  0  0  0  0
 11 12  1  0  0  0  0
 11 13  1  0  0  0  0
 11 14  1  0  0  0  0
  1 15  1  0  0  0  0
 15 16  1  0  0  0  0
 15 17  1  0  0  0  0
 15 18  1  0  0  0  0
 18 19  1  0  0  0  0
 18 20  1  0  0  0  0
 18 21  1  0  0  0  0
M  END
> <ChemID>
100530

> <source_casrn>
611-14-3

> <CAS>
611-14-3

> <SMILES>
Cc1ccccc1CC

> <NAME>
1-ETHYL-2-METHYLBENZENE

> <preferred_name>
1-Ethyl-2-methylbenzene

> <iupac>
1-ethyl-2-methylbenzene

> <MPID>
99064

> <dsstox_substance_id>
DTXSID2050403

> <Canonical_QSARr>
Cc1ccccc1CC

> <InChI_Code_QSARr>
InChI=1S/C9H12/c1-3-9-7-5-4-6-8(9)2/h4-7H,3H2,1-2H3

> <InChI Key_QSARr>
HYFLWBNQFMXCPA-UHFFFAOYSA-N

> <OH>
1.23E-11

> <OH Temperature>
25.0

> <OH Data Type>
EXP

> <OH Reference>
ATKINSON,R (1989)

> <LogOH>
-10.91009488856061

$$$$
100533
  -INDIGO-08031719142D

 14 14  0  0  0  0  0  0  0  0999 V2000
   -2.5323   -0.5383    0.0000 C   0  0  0  0  0  0  0  0  0  0  0  0
   -1.4617    0.6508    0.0000 O   0  0  0  0  0  0  0  0  0  0  0  0
    0.0000   -0.0000    0.0000 C   0  0  0  0  0  0  0  0  0  0  0  0
    1.3856    0.8000    0.0000 C   0  0  0  0  0  0  0  0  0  0  0  0
    2.7713    1.6000    0.0000 H   0  0  0  0  0  0  0  0  0  0  0  0
    1.3856    2.4000    0.0000 H   0  0  0  0  0  0  0  0  0  0  0  0
    2.7713   -0.0000    0.0000 H   0  0  0  0  0  0  0  0  0  0  0  0
   -0.1672   -1.5912    0.0000 C   0  0  0  0  0  0  0  0  0  0  0  0
    1.0218   -2.6618    0.0000 H   0  0  0  0  0  0  0  0  0  0  0  0
   -1.7322   -1.9239    0.0000 C   0  0  0  0  0  0  0  0  0  0  0  0
   -2.3831   -3.3856    0.0000 H   0  0  0  0  0  0  0  0  0  0  0  0
   -4.1235   -0.3710    0.0000 C   0  0  0  0  0  0  0  0  0  0  0  0
   -4.7743    1.0907    0.0000 H   0  0  0  0  0  0  0  0  0  0  0  0
   -5.0640   -1.6655    0.0000 O   0  0  0  0  0  0  0  0  0  0  0  0
  1  2  1  0  0  0  0
  2  3  1  0  0  0  0
  3  4  1  0  0  0  0
  4  5  1  0  0  0  0
  4  6  1  0  0  0  0
  4  7  1  0  0  0  0
  3  8  2  0  0  0  0
  8  9  1  0  0  0  0
  8 10  1  0  0  0  0
 10  1  2  0  0  0  0
 10 11  1  0  0  0  0
  1 12  1  0  0  0  0
 12 13  1  0  0  0  0
 12 14  2  0  0  0  0
M  END
> <ChemID>
100533

> <source_casrn>
620-02-0

> <CAS>
620-02-0

> <SMILES>
Cc1ccc(C=O)o1

> <NAME>
2-FURANCARBOXALDEHYDE, 5-METHYL-

> <preferred_name>
2-Furancarboxaldehyde, 5-methyl-

> <iupac>
5-Methylfuran-2-carbaldehyde

> <MPID>
99066

> <dsstox_substance_id>
DTXSID1060714

> <Canonical_QSARr>
Cc1ccc(C=O)o1

> <InChI_Code_QSARr>
InChI=1S/C6H6O2/c1-5-2-3-6(4-7)8-5/h2-4H,1H3

> <InChI Key_QSARr>
OUDFNZMQXZILJD-UHFFFAOYSA-N

> <OH>
5.1E-11

> <OH Temperature>
27.0

> <OH Data Type>
EXP

> <OH Reference>
BIERBACH,A ET AL. (1995)

> <LogOH>
-10.292429823902053

$$$$
100534
  -INDIGO-08031719142D

 21 21  0  0  0  0  0  0  0  0999 V2000
    0.0001    1.6000    0.0000 C   0  0  0  0  0  0  0  0  0  0  0  0
    1.3857    2.4000    0.0000 H   0  0  0  0  0  0  0  0  0  0  0  0
   -1.3857    2.4000    0.0000 C   0  0  0  0  0  0  0  0  0  0  0  0
   -1.3857    4.0000    0.0000 H   0  0  0  0  0  0  0  0  0  0  0  0
   -2.7713    1.6000    0.0000 C   0  0  0  0  0  0  0  0  0  0  0  0
   -4.1569    2.4000    0.0000 H   0  0  0  0  0  0  0  0  0  0  0  0
   -2.7713    0.0000    0.0000 C   0  0  0  0  0  0  0  0  0  0  0  0
   -4.1569   -0.8000    0.0000 C   0  0  0  0  0  0  0  0  0  0  0  0
   -5.5426   -1.6000    0.0000 H   0  0  0  0  0  0  0  0  0  0  0  0
   -5.5426    0.0000    0.0000 H   0  0  0  0  0  0  0  0  0  0  0  0
   -4.1569   -2.4000    0.0000 H   0  0  0  0  0  0  0  0  0  0  0  0
   -1.3857   -0.8000    0.0000 C   0  0  0  0  0  0  0  0  0  0  0  0
   -1.3857   -2.4000    0.0000 H   0  0  0  0  0  0  0  0  0  0  0  0
    0.0001    0.0000    0.0000 C   0  0  0  0  0  0  0  0  0  0  0  0
    1.3857   -0.8000    0.0000 C   0  0  0  0  0  0  0  0  0  0  0  0
    1.9980   -2.2782    0.0000 H   0  0  0  0  0  0  0  0  0  0  0  0
    0.7734   -2.2782    0.0000 H   0  0  0  0  0  0  0  0  0  0  0  0
    2.7713    0.0000    0.0000 C   0  0  0  0  0  0  0  0  0  0  0  0
    4.1569   -0.8000    0.0000 H   0  0  0  0  0  0  0  0  0  0  0  0
    4.1569    0.8000    0.0000 H   0  0  0  0  0  0  0  0  0  0  0  0
    2.7713   -1.6000    0.0000 H   0  0  0  0  0  0  0  0  0  0  0  0
  1  2  1  0  0  0  0
  1  3  1  0  0  0  0
  3  4  1  0  0  0  0
  3  5  2  0  0  0  0
  5  6  1  0  0  0  0
  5  7  1  0  0  0  0
  7  8  1  0  0  0  0
  8  9  1  0  0  0  0
  8 10  1  0  0  0  0
  8 11  1  0  0  0  0
  7 12  2  0  0  0  0
 12 13  1  0  0  0  0
 12 14  1  0  0  0  0
 14  1  2  0  0  0  0
 14 15  1  0  0  0  0
 15 16  1  0  0  0  0
 15 17  1  0  0  0  0
 15 18  1  0  0  0  0
 18 19  1  0  0  0  0
 18 20  1  0  0  0  0
 18 21  1  0  0  0  0
M  END
> <ChemID>
100534

> <source_casrn>
620-14-4

> <CAS>
620-14-4

> <SMILES>
Cc1cccc(CC)c1

> <NAME>
M-ETHYLTOLUENE

> <preferred_name>
3-Ethyltoluene

> <iupac>
1-ethyl-3-methylbenzene

> <MPID>
99067

> <dsstox_substance_id>
DTXSID6050386

> <Canonical_QSARr>
Cc1cccc(CC)c1

> <InChI_Code_QSARr>
InChI=1S/C9H12/c1-3-9-6-4-5-8(2)7-9/h4-7H,3H2,1-2H3

> <InChI Key_QSARr>
ZLCSFXXPPANWQY-UHFFFAOYSA-N

> <OH>
1.92E-11

> <OH Temperature>
25.0

> <OH Data Type>
EXP

> <OH Reference>
ATKINSON,R (1989)

> <LogOH>
-10.716698771296445

$$$$
100537
  -INDIGO-08031719142D

 17 16  0  0  0  0  0  0  0  0999 V2000
    2.7713    0.0000    0.0000 C   0  0  0  0  0  0  0  0  0  0  0  0
    2.7713   -1.6000    0.0000 O   0  0  0  0  0  0  0  0  0  0  0  0
    4.1570    0.8000    0.0000 O   0  0  0  0  0  0  0  0  0  0  0  0
    5.5426    0.0000    0.0000 C   0  0  0  0  0  0  0  0  0  0  0  0
    6.9282   -0.8000    0.0000 H   0  0  0  0  0  0  0  0  0  0  0  0
    6.9282    0.8000    0.0000 H   0  0  0  0  0  0  0  0  0  0  0  0
    5.5426   -1.6000    0.0000 H   0  0  0  0  0  0  0  0  0  0  0  0
    1.3856    0.8000    0.0000 C   0  0  0  0  0  0  0  0  0  0  0  0
    0.7733    2.2782    0.0000 H   0  0  0  0  0  0  0  0  0  0  0  0
    1.9979    2.2782    0.0000 H   0  0  0  0  0  0  0  0  0  0  0  0
   -0.0000    0.0000    0.0000 C   0  0  0  0  0  0  0  0  0  0  0  0
    0.6123   -1.4782    0.0000 H   0  0  0  0  0  0  0  0  0  0  0  0
   -0.6123   -1.4782    0.0000 H   0  0  0  0  0  0  0  0  0  0  0  0
   -1.3857    0.8000    0.0000 C   0  0  0  0  0  0  0  0  0  0  0  0
   -2.7713    1.6000    0.0000 H   0  0  0  0  0  0  0  0  0  0  0  0
   -2.7713    0.0000    0.0000 H   0  0  0  0  0  0  0  0  0  0  0  0
   -1.3857    2.4000    0.0000 H   0  0  0  0  0  0  0  0  0  0  0  0
  1  2  2  0  0  0  0
  1  3  1  0  0  0  0
  3  4  1  0  0  0  0
  4  5  1  0  0  0  0
  4  6  1  0  0  0  0
  4  7  1  0  0  0  0
  1  8  1  0  0  0  0
  8  9  1  0  0  0  0
  8 10  1  0  0  0  0
  8 11  1  0  0  0  0
 11 12  1  0  0  0  0
 11 13  1  0  0  0  0
 11 14  1  0  0  0  0
 14 15  1  0  0  0  0
 14 16  1  0  0  0  0
 14 17  1  0  0  0  0
M  END
> <ChemID>
100537

> <source_casrn>
623-42-7

> <CAS>
623-42-7

> <SMILES>
CCCC(=O)OC

> <NAME>
METHYLBUTYRATE

> <preferred_name>
Methyl butyrate

> <iupac>
methyl butanoate

> <MPID>
99069

> <dsstox_substance_id>
DTXSID5047083

> <Canonical_QSARr>
CCCC(=O)OC

> <InChI_Code_QSARr>
InChI=1S/C5H10O2/c1-3-4-5(6)7-2/h3-4H2,1-2H3

> <InChI Key_QSARr>
UUIQMZJEGPQKFD-UHFFFAOYSA-N

> <OH>
3.040000000000001E-12

> <OH Temperature>
25.0

> <OH Data Type>
EXP

> <OH Reference>
KWOK,ESC & ATKINSON,R (1994)

> <LogOH>
-11.517126416391237

$$$$
100538
  -INDIGO-08031719142D

 19 18  0  0  0  0  0  0  0  0999 V2000
   -2.7714    0.0000    0.0000 C   0  0  0  0  0  0  0  0  0  0  0  0
   -2.7712   -1.6000    0.0000 O   0  0  0  0  0  0  0  0  0  0  0  0
   -1.3857    0.8000    0.0000 N   0  0  0  0  0  0  0  0  0  0  0  0
   -1.3857    2.4000    0.0000 H   0  0  0  0  0  0  0  0  0  0  0  0
   -0.0000    0.0000    0.0000 C   0  0  0  0  0  0  0  0  0  0  0  0
    0.6123   -1.4782    0.0000 H   0  0  0  0  0  0  0  0  0  0  0  0
   -0.6124   -1.4782    0.0000 H   0  0  0  0  0  0  0  0  0  0  0  0
    1.3856    0.8000    0.0000 C   0  0  0  0  0  0  0  0  0  0  0  0
    2.7713    1.6000    0.0000 H   0  0  0  0  0  0  0  0  0  0  0  0
    2.7713    0.0000    0.0000 H   0  0  0  0  0  0  0  0  0  0  0  0
    1.3856    2.4000    0.0000 H   0  0  0  0  0  0  0  0  0  0  0  0
   -4.1569    0.8000    0.0000 O   0  0  0  0  0  0  0  0  0  0  0  0
   -5.5425    0.0000    0.0000 C   0  0  0  0  0  0  0  0  0  0  0  0
   -4.9302   -1.4782    0.0000 H   0  0  0  0  0  0  0  0  0  0  0  0
   -6.1548   -1.4782    0.0000 H   0  0  0  0  0  0  0  0  0  0  0  0
   -6.9282    0.8000    0.0000 C   0  0  0  0  0  0  0  0  0  0  0  0
   -8.3138    1.6000    0.0000 H   0  0  0  0  0  0  0  0  0  0  0  0
   -8.3138    0.0000    0.0000 H   0  0  0  0  0  0  0  0  0  0  0  0
   -6.9282    2.4000    0.0000 H   0  0  0  0  0  0  0  0  0  0  0  0
  1  2  2  0  0  0  0
  1  3  1  0  0  0  0
  3  4  1  0  0  0  0
  3  5  1  0  0  0  0
  5  6  1  0  0  0  0
  5  7  1  0  0  0  0
  5  8  1  0  0  0  0
  8  9  1  0  0  0  0
  8 10  1  0  0  0  0
  8 11  1  0  0  0  0
  1 12  1  0  0  0  0
 12 13  1  0  0  0  0
 13 14  1  0  0  0  0
 13 15  1  0  0  0  0
 13 16  1  0  0  0  0
 16 17  1  0  0  0  0
 16 18  1  0  0  0  0
 16 19  1  0  0  0  0
M  END
> <ChemID>
100538

> <source_casrn>
623-78-9

> <CAS>
623-78-9

> <SMILES>
CCOC(=O)NCC

> <NAME>
ETHYL ETHYLCARBAMATE

> <preferred_name>
Ethyl ethylcarbamate

> <iupac>
Ethyl N-ethylcarbamate

> <MPID>
99070

> <dsstox_substance_id>
DTXSID0060775

> <Canonical_QSARr>
CCOC(=O)NCC

> <InChI_Code_QSARr>
InChI=1S/C5H11NO2/c1-3-6-5(7)8-4-2/h3-4H2,1-2H3,(H,6,7)

> <InChI Key_QSARr>
GZXSDYYWLZERLF-UHFFFAOYSA-N

> <OH>
1.44E-11

> <OH Temperature>
25.0

> <OH Data Type>
EXP

> <OH Reference>
KWOK,ESC ET AL. (1996)

> <LogOH>
-10.841637507904753

$$$$
100540
  -INDIGO-08031719142D

  8  7  0  0  0  0  0  0  0  0999 V2000
    0.0000    0.0000    0.0000 C   0  0  0  0  0  0  0  0  0  0  0  0
    1.6000   -0.0000    0.0000 H   0  0  0  0  0  0  0  0  0  0  0  0
    0.8000   -1.3856    0.0000 H   0  0  0  0  0  0  0  0  0  0  0  0
   -1.6000    0.0000    0.0000 C   0  0  0  0  0  0  0  0  0  0  0  0
   -3.2000    0.0000    0.0000 H   0  0  0  0  0  0  0  0  0  0  0  0
   -2.4000   -1.3856    0.0000 H   0  0  0  0  0  0  0  0  0  0  0  0
   -2.4000    1.3856    0.0000 F   0  0  0  0  0  0  0  0  0  0  0  0
    0.8000    1.3856    0.0000 F   0  0  0  0  0  0  0  0  0  0  0  0
  1  2  1  0  0  0  0
  1  3  1  0  0  0  0
  1  4  1  0  0  0  0
  4  5  1  0  0  0  0
  4  6  1  0  0  0  0
  4  7  1  0  0  0  0
  1  8  1  0  0  0  0
M  END
> <ChemID>
100540

> <source_casrn>
624-72-6

> <CAS>
624-72-6

> <SMILES>
FCCF

> <NAME>
1,2-DIFLUOROETHANE

> <preferred_name>
HFC-152

> <iupac>
1,2-DIFLUOROETHANE

> <MPID>
99072

> <dsstox_substance_id>
DTXSID3073214

> <Canonical_QSARr>
FCCF

> <InChI_Code_QSARr>
InChI=1S/C2H4F2/c3-1-2-4/h1-2H2

> <InChI Key_QSARr>
AHFMSNDOYCFEPH-UHFFFAOYSA-N

> <OH>
1.12E-13

> <OH Temperature>
25.0

> <OH Data Type>
EXP

> <OH Reference>
ATKINSON,R (1989)

> <LogOH>
-12.950781977329822

$$$$
100542
  -INDIGO-08031719142D

  7  6  0  0  0  0  0  0  0  0999 V2000
    2.7713    0.0000    0.0000 N   0  0  0  0  0  0  0  0  0  0  0  0
    4.1569   -0.8000    0.0000 O   0  0  0  0  0  0  0  0  0  0  0  0
    1.3857   -0.8000    0.0000 O   0  0  0  0  0  0  0  0  0  0  0  0
    0.0000    0.0000    0.0000 C   0  0  0  0  0  0  0  0  0  0  0  0
   -1.3856    0.8000    0.0000 H   0  0  0  0  0  0  0  0  0  0  0  0
    0.0000    1.6000    0.0000 H   0  0  0  0  0  0  0  0  0  0  0  0
   -1.3856   -0.8000    0.0000 H   0  0  0  0  0  0  0  0  0  0  0  0
  1  2  2  0  0  0  0
  1  3  1  0  0  0  0
  3  4  1  0  0  0  0
  4  5  1  0  0  0  0
  4  6  1  0  0  0  0
  4  7  1  0  0  0  0
M  END
> <ChemID>
100542

> <source_casrn>
624-91-9

> <CAS>
624-91-9

> <SMILES>
CON=O

> <NAME>
METHYLNITRITE

> <preferred_name>
Methyl nitrite

> <iupac>
Methyl nitrite

> <MPID>
99074

> <dsstox_substance_id>
DTXSID8060795

> <Canonical_QSARr>
CON=O

> <InChI_Code_QSARr>
InChI=1S/CH3NO2/c1-4-2-3/h1H3

> <InChI Key_QSARr>
BLLFVUPNHCTMSV-UHFFFAOYSA-N

> <OH>
2.2E-13

> <OH Temperature>
25.0

> <OH Data Type>
EXP

> <OH Reference>
ATKINSON,R (1994)

> <LogOH>
-12.657577319177783

$$$$
100543
  -INDIGO-08031719142D

 10  9  0  0  0  0  0  0  0  0999 V2000
    2.7713    0.0000    0.0000 S   0  0  0  0  0  0  0  0  0  0  0  0
    4.1569   -0.8000    0.0000 C   0  0  0  0  0  0  0  0  0  0  0  0
    5.5426   -1.6000    0.0000 H   0  0  0  0  0  0  0  0  0  0  0  0
    5.5426    0.0000    0.0000 H   0  0  0  0  0  0  0  0  0  0  0  0
    4.1569   -2.4000    0.0000 H   0  0  0  0  0  0  0  0  0  0  0  0
    1.3856   -0.8000    0.0000 S   0  0  0  0  0  0  0  0  0  0  0  0
    0.0000    0.0000    0.0000 C   0  0  0  0  0  0  0  0  0  0  0  0
   -1.3856    0.8000    0.0000 H   0  0  0  0  0  0  0  0  0  0  0  0
    0.0000    1.6000    0.0000 H   0  0  0  0  0  0  0  0  0  0  0  0
   -1.3856   -0.8000    0.0000 H   0  0  0  0  0  0  0  0  0  0  0  0
  1  2  1  0  0  0  0
  2  3  1  0  0  0  0
  2  4  1  0  0  0  0
  2  5  1  0  0  0  0
  1  6  1  0  0  0  0
  6  7  1  0  0  0  0
  7  8  1  0  0  0  0
  7  9  1  0  0  0  0
  7 10  1  0  0  0  0
M  END
> <ChemID>
100543

> <source_casrn>
624-92-0

> <CAS>
624-92-0

> <SMILES>
CSSC

> <NAME>
DIMETHYLDISULFIDE

> <preferred_name>
Methyl disulfide

> <iupac>
dimethyl disulfide

> <MPID>
99075

> <dsstox_substance_id>
DTXSID4025117

> <Canonical_QSARr>
CSSC

> <InChI_Code_QSARr>
InChI=1S/C2H6S2/c1-3-4-2/h1-2H3

> <InChI Key_QSARr>
WQOXQRCZOLPYPM-UHFFFAOYSA-N

> <OH>
2.270000000000001E-10

> <OH Temperature>
24.0

> <OH Data Type>
EXP

> <OH Reference>
KWOK,ESC & ATKINSON,R (1994)

> <LogOH>
-9.643974142806856

$$$$
100544
  -INDIGO-08031719142D

 24 23  0  0  0  0  0  0  0  0999 V2000
   -0.8000   -1.3856    0.0000 O   0  0  0  0  0  0  0  0  0  0  0  0
    0.0000   -2.7713    0.0000 H   0  0  0  0  0  0  0  0  0  0  0  0
    0.0000   -0.0000    0.0000 C   0  0  0  0  0  0  0  0  0  0  0  0
   -1.3856    0.8000    0.0000 C   0  0  0  0  0  0  0  0  0  0  0  0
   -0.7733    2.2782    0.0000 H   0  0  0  0  0  0  0  0  0  0  0  0
   -1.9979    2.2782    0.0000 H   0  0  0  0  0  0  0  0  0  0  0  0
   -2.7712   -0.0000    0.0000 C   0  0  0  0  0  0  0  0  0  0  0  0
   -1.9713   -1.3856    0.0000 H   0  0  0  0  0  0  0  0  0  0  0  0
   -3.9969   -1.0285    0.0000 C   0  0  0  0  0  0  0  0  0  0  0  0
   -5.2227   -2.0569    0.0000 H   0  0  0  0  0  0  0  0  0  0  0  0
   -5.5005   -0.4812    0.0000 H   0  0  0  0  0  0  0  0  0  0  0  0
   -3.7191   -2.6042    0.0000 H   0  0  0  0  0  0  0  0  0  0  0  0
   -3.7998    1.2257    0.0000 C   0  0  0  0  0  0  0  0  0  0  0  0
   -4.8282    2.4513    0.0000 H   0  0  0  0  0  0  0  0  0  0  0  0
   -3.2525    2.7292    0.0000 H   0  0  0  0  0  0  0  0  0  0  0  0
   -5.3754    0.9478    0.0000 H   0  0  0  0  0  0  0  0  0  0  0  0
    1.3857   -0.8000    0.0000 C   0  0  0  0  0  0  0  0  0  0  0  0
    2.7713   -1.6000    0.0000 H   0  0  0  0  0  0  0  0  0  0  0  0
    2.7713   -0.0000    0.0000 H   0  0  0  0  0  0  0  0  0  0  0  0
    1.3857   -2.4000    0.0000 H   0  0  0  0  0  0  0  0  0  0  0  0
    0.8000    1.3857    0.0000 C   0  0  0  0  0  0  0  0  0  0  0  0
    1.6000    2.7713    0.0000 H   0  0  0  0  0  0  0  0  0  0  0  0
    0.2527    2.8891    0.0000 H   0  0  0  0  0  0  0  0  0  0  0  0
    2.3999    1.3857    0.0000 H   0  0  0  0  0  0  0  0  0  0  0  0
  1  2  1  0  0  0  0
  1  3  1  0  0  0  0
  3  4  1  0  0  0  0
  4  5  1  0  0  0  0
  4  6  1  0  0  0  0
  4  7  1  0  0  0  0
  7  8  1  0  0  0  0
  7  9  1  0  0  0  0
  9 10  1  0  0  0  0
  9 11  1  0  0  0  0
  9 12  1  0  0  0  0
  7 13  1  0  0  0  0
 13 14  1  0  0  0  0
 13 15  1  0  0  0  0
 13 16  1  0  0  0  0
  3 17  1  0  0  0  0
 17 18  1  0  0  0  0
 17 19  1  0  0  0  0
 17 20  1  0  0  0  0
  3 21  1  0  0  0  0
 21 22  1  0  0  0  0
 21 23  1  0  0  0  0
 21 24  1  0  0  0  0
M  END
> <ChemID>
100544

> <source_casrn>
625-06-9

> <CAS>
625-06-9

> <SMILES>
CC(C)CC(C)(C)O

> <NAME>
2,4-DIMETHYL-2-PENTANOL

> <preferred_name>
2,4-Dimethylpentan-2-ol

> <iupac>
2,4-Dimethylpentan-2-ol

> <MPID>
99076

> <dsstox_substance_id>
DTXSID60211534

> <Canonical_QSARr>
CC(C)CC(C)(C)O

> <InChI_Code_QSARr>
InChI=1S/C7H16O/c1-6(2)5-7(3,4)8/h6,8H,5H2,1-4H3

> <InChI Key_QSARr>
FMLSQAUAAGVTJO-UHFFFAOYSA-N

> <OH>
1.14E-11

> <OH Temperature>
23.0

> <OH Data Type>
EXP

> <OH Reference>
ATKINSON,R & ASCHMANN,SM (1995)

> <LogOH>
-10.943095148663527

$$$$
100547
  -INDIGO-08031719142D

 11 10  0  0  0  0  0  0  0  0999 V2000
    1.3856    2.4000    0.0000 O   0  0  0  0  0  0  0  0  0  0  0  0
    1.3856    0.8000    0.0000 N   0  0  0  0  0  0  0  0  0  0  0  0
    2.7713    0.0000    0.0000 O   0  0  0  0  0  0  0  0  0  0  0  0
    0.0000    0.0000    0.0000 C   0  0  0  0  0  0  0  0  0  0  0  0
   -0.6123   -1.4782    0.0000 H   0  0  0  0  0  0  0  0  0  0  0  0
    0.6123   -1.4782    0.0000 H   0  0  0  0  0  0  0  0  0  0  0  0
   -1.3856    0.8000    0.0000 C   0  0  0  0  0  0  0  0  0  0  0  0
   -1.3856    2.4000    0.0000 H   0  0  0  0  0  0  0  0  0  0  0  0
   -2.7713    0.0000    0.0000 C   0  0  0  0  0  0  0  0  0  0  0  0
   -4.1569    0.8000    0.0000 H   0  0  0  0  0  0  0  0  0  0  0  0
   -2.7713   -1.6000    0.0000 H   0  0  0  0  0  0  0  0  0  0  0  0
  1  2  1  0  0  0  0
  2  3  2  0  0  0  0
  2  4  1  0  0  0  0
  4  5  1  0  0  0  0
  4  6  1  0  0  0  0
  4  7  1  0  0  0  0
  7  8  1  0  0  0  0
  7  9  2  0  0  0  0
  9 10  1  0  0  0  0
  9 11  1  0  0  0  0
M  CHG  2   1  -1   2   1
M  END
> <ChemID>
100547

> <source_casrn>
625-46-7

> <CAS>
625-46-7

> <SMILES>
C=CC[N+]([O-])=O

> <NAME>
3-Nitropropene

> <preferred_name>
1-Propene, 3-nitro-

> <iupac>
3-nitroprop-1-ene

> <MPID>
99078

> <dsstox_substance_id>
DTXSID30211541

> <Canonical_QSARr>
C=CC[N+]([O-])=O

> <InChI_Code_QSARr>
InChI=1S/C3H5NO2/c1-2-3-4(5)6/h2H,1,3H2

> <InChI Key_QSARr>
VLISOFDTMSFZPP-UHFFFAOYSA-N

> <OH>
1.22E-11

> <OH Temperature>
25.0

> <OH Data Type>
EXP

> <OH Reference>
ATKINSON,R (1994)

> <LogOH>
-10.913640169325236

$$$$
100548
  -INDIGO-08031719142D

 11 10  0  0  0  0  0  0  0  0999 V2000
    1.3856    0.8000    0.0000 O   0  0  0  0  0  0  0  0  0  0  0  0
    2.7713    0.0000    0.0000 N   0  0  0  0  0  0  0  0  0  0  0  0
    4.1569    0.8000    0.0000 O   0  0  0  0  0  0  0  0  0  0  0  0
    2.7713   -1.6000    0.0000 O   0  0  0  0  0  0  0  0  0  0  0  0
    0.0000    0.0000    0.0000 C   0  0  0  0  0  0  0  0  0  0  0  0
   -0.6123   -1.4782    0.0000 H   0  0  0  0  0  0  0  0  0  0  0  0
    0.6123   -1.4782    0.0000 H   0  0  0  0  0  0  0  0  0  0  0  0
   -1.3856    0.8000    0.0000 C   0  0  0  0  0  0  0  0  0  0  0  0
   -2.7713    1.6000    0.0000 H   0  0  0  0  0  0  0  0  0  0  0  0
   -2.7713    0.0000    0.0000 H   0  0  0  0  0  0  0  0  0  0  0  0
   -1.3856    2.4000    0.0000 H   0  0  0  0  0  0  0  0  0  0  0  0
  1  2  1  0  0  0  0
  2  3  2  0  0  0  0
  2  4  1  0  0  0  0
  1  5  1  0  0  0  0
  5  6  1  0  0  0  0
  5  7  1  0  0  0  0
  5  8  1  0  0  0  0
  8  9  1  0  0  0  0
  8 10  1  0  0  0  0
  8 11  1  0  0  0  0
M  CHG  2   2   1   4  -1
M  END
> <ChemID>
100548

> <source_casrn>
625-58-1

> <CAS>
625-58-1

> <SMILES>
CCO[N+]([O-])=O

> <NAME>
ETHYLNITRATE

> <preferred_name>
Ethyl nitrate

> <iupac>
Ethyl nitrate

> <MPID>
99079

> <dsstox_substance_id>
DTXSID0060806

> <Canonical_QSARr>
CCO[N+]([O-])=O

> <InChI_Code_QSARr>
InChI=1S/C2H5NO3/c1-2-6-3(4)5/h2H2,1H3

> <InChI Key_QSARr>
IDNUEBSJWINEMI-UHFFFAOYSA-N

> <OH>
2.0E-13

> <OH Temperature>
25.0

> <OH Data Type>
EXP

> <OH Reference>
KAKESU,M ET AL. (1997)

> <LogOH>
-12.698970004335997

$$$$
100550
  -INDIGO-08031719142D

 21 20  0  0  0  0  0  0  0  0999 V2000
    2.7713    1.6000    0.0000 C   0  0  0  0  0  0  0  0  0  0  0  0
    4.1569    2.4000    0.0000 H   0  0  0  0  0  0  0  0  0  0  0  0
    4.1569    0.8000    0.0000 H   0  0  0  0  0  0  0  0  0  0  0  0
    2.7713    3.2000    0.0000 H   0  0  0  0  0  0  0  0  0  0  0  0
    1.3857    0.8000    0.0000 C   0  0  0  0  0  0  0  0  0  0  0  0
    0.5856    2.1856    0.0000 H   0  0  0  0  0  0  0  0  0  0  0  0
    0.0001    0.0000    0.0000 C   0  0  0  0  0  0  0  0  0  0  0  0
   -0.6122   -1.4782    0.0000 H   0  0  0  0  0  0  0  0  0  0  0  0
    0.6124   -1.4782    0.0000 H   0  0  0  0  0  0  0  0  0  0  0  0
   -1.3857    0.8000    0.0000 C   0  0  0  0  0  0  0  0  0  0  0  0
   -0.7734    2.2782    0.0000 H   0  0  0  0  0  0  0  0  0  0  0  0
   -1.9980    2.2782    0.0000 H   0  0  0  0  0  0  0  0  0  0  0  0
   -2.7713    0.0000    0.0000 C   0  0  0  0  0  0  0  0  0  0  0  0
   -3.3836   -1.4782    0.0000 H   0  0  0  0  0  0  0  0  0  0  0  0
   -2.1590   -1.4782    0.0000 H   0  0  0  0  0  0  0  0  0  0  0  0
   -4.1569    0.8000    0.0000 C   0  0  0  0  0  0  0  0  0  0  0  0
   -5.5426    1.6000    0.0000 H   0  0  0  0  0  0  0  0  0  0  0  0
   -5.5426    0.0000    0.0000 H   0  0  0  0  0  0  0  0  0  0  0  0
   -4.1569    2.4000    0.0000 H   0  0  0  0  0  0  0  0  0  0  0  0
    2.1856   -0.5856    0.0000 O   0  0  0  0  0  0  0  0  0  0  0  0
    3.7856   -0.5856    0.0000 H   0  0  0  0  0  0  0  0  0  0  0  0
  1  2  1  0  0  0  0
  1  3  1  0  0  0  0
  1  4  1  0  0  0  0
  1  5  1  0  0  0  0
  5  6  1  0  0  0  0
  5  7  1  0  0  0  0
  7  8  1  0  0  0  0
  7  9  1  0  0  0  0
  7 10  1  0  0  0  0
 10 11  1  0  0  0  0
 10 12  1  0  0  0  0
 10 13  1  0  0  0  0
 13 14  1  0  0  0  0
 13 15  1  0  0  0  0
 13 16  1  0  0  0  0
 16 17  1  0  0  0  0
 16 18  1  0  0  0  0
 16 19  1  0  0  0  0
  5 20  1  0  0  0  0
 20 21  1  0  0  0  0
M  END
> <ChemID>
100550

> <source_casrn>
626-93-7

> <CAS>
NOCAS_862320

> <SMILES>
CCCCC(C)O

> <NAME>
2-HEXANOL

> <preferred_name>


> <iupac>


> <MPID>
99081

> <dsstox_substance_id>
DTXSID80862320

> <Canonical_QSARr>
CCCCC(C)O

> <InChI_Code_QSARr>
InChI=1S/C6H14O/c1-3-4-5-6(2)7/h6-7H,3-5H2,1-2H3

> <InChI Key_QSARr>
QNVRIHYSUZMSGM-UHFFFAOYSA-N

> <OH>
1.21E-11

> <OH Temperature>
25.0

> <OH Data Type>
EXP

> <OH Reference>
ATKINSON,R (1989)

> <LogOH>
-10.917214629683569

$$$$
100551
  -INDIGO-08031719142D

 16 15  0  0  0  0  0  0  0  0999 V2000
    2.7713   -1.6000    0.0000 O   0  0  0  0  0  0  0  0  0  0  0  0
    2.7713   -0.0000    0.0000 N   0  0  0  0  0  0  0  0  0  0  0  0
    4.1569    0.8000    0.0000 O   0  0  0  0  0  0  0  0  0  0  0  0
    1.3856    0.8000    0.0000 C   0  0  0  0  0  0  0  0  0  0  0  0
    1.9979    2.2782    0.0000 H   0  0  0  0  0  0  0  0  0  0  0  0
    0.7734    2.2782    0.0000 H   0  0  0  0  0  0  0  0  0  0  0  0
    0.0001   -0.0000    0.0000 C   0  0  0  0  0  0  0  0  0  0  0  0
   -0.6123   -1.4782    0.0000 H   0  0  0  0  0  0  0  0  0  0  0  0
    0.6123   -1.4782    0.0000 H   0  0  0  0  0  0  0  0  0  0  0  0
   -1.3856    0.8000    0.0000 C   0  0  0  0  0  0  0  0  0  0  0  0
   -0.7734    2.2782    0.0000 H   0  0  0  0  0  0  0  0  0  0  0  0
   -1.9979    2.2782    0.0000 H   0  0  0  0  0  0  0  0  0  0  0  0
   -2.7712   -0.0000    0.0000 C   0  0  0  0  0  0  0  0  0  0  0  0
   -4.1569   -0.8000    0.0000 H   0  0  0  0  0  0  0  0  0  0  0  0
   -4.1569    0.8000    0.0000 H   0  0  0  0  0  0  0  0  0  0  0  0
   -2.7713   -1.6000    0.0000 H   0  0  0  0  0  0  0  0  0  0  0  0
  1  2  1  0  0  0  0
  2  3  2  0  0  0  0
  2  4  1  0  0  0  0
  4  5  1  0  0  0  0
  4  6  1  0  0  0  0
  4  7  1  0  0  0  0
  7  8  1  0  0  0  0
  7  9  1  0  0  0  0
  7 10  1  0  0  0  0
 10 11  1  0  0  0  0
 10 12  1  0  0  0  0
 10 13  1  0  0  0  0
 13 14  1  0  0  0  0
 13 15  1  0  0  0  0
 13 16  1  0  0  0  0
M  CHG  2   1  -1   2   1
M  END
> <ChemID>
100551

> <source_casrn>
627-05-4

> <CAS>
627-05-4

> <SMILES>
CCCC[N+]([O-])=O

> <NAME>
1-NITROBUTANE

> <preferred_name>
1-Nitrobutane

> <iupac>
1-nitrobutane

> <MPID>
99082

> <dsstox_substance_id>
DTXSID8020967

> <Canonical_QSARr>
CCCC[N+]([O-])=O

> <InChI_Code_QSARr>
InChI=1S/C4H9NO2/c1-2-3-4-5(6)7/h2-4H2,1H3

> <InChI Key_QSARr>
NALZTFARIYUCBY-UHFFFAOYSA-N

> <OH>
1.5E-12

> <OH Temperature>
25.0

> <OH Data Type>
EXP

> <OH Reference>
KWOK,ESC & ATKINSON,R (1994)

> <LogOH>
-11.823908740944326

$$$$
100552
  -INDIGO-08031719142D

 14 13  0  0  0  0  0  0  0  0999 V2000
    2.7713    0.0000    0.0000 O   0  0  0  0  0  0  0  0  0  0  0  0
    4.1569    0.8000    0.0000 N   0  0  0  0  0  0  0  0  0  0  0  0
    5.5426    0.0000    0.0000 O   0  0  0  0  0  0  0  0  0  0  0  0
    4.1569    2.4000    0.0000 O   0  0  0  0  0  0  0  0  0  0  0  0
    1.3857    0.8000    0.0000 C   0  0  0  0  0  0  0  0  0  0  0  0
    0.7733    2.2782    0.0000 H   0  0  0  0  0  0  0  0  0  0  0  0
    1.9979    2.2782    0.0000 H   0  0  0  0  0  0  0  0  0  0  0  0
    0.0000    0.0000    0.0000 C   0  0  0  0  0  0  0  0  0  0  0  0
    0.6122   -1.4782    0.0000 H   0  0  0  0  0  0  0  0  0  0  0  0
   -0.6122   -1.4782    0.0000 H   0  0  0  0  0  0  0  0  0  0  0  0
   -1.3856    0.8000    0.0000 C   0  0  0  0  0  0  0  0  0  0  0  0
   -2.7713    1.6000    0.0000 H   0  0  0  0  0  0  0  0  0  0  0  0
   -2.7713    0.0000    0.0000 H   0  0  0  0  0  0  0  0  0  0  0  0
   -1.3856    2.4000    0.0000 H   0  0  0  0  0  0  0  0  0  0  0  0
  1  2  1  0  0  0  0
  2  3  2  0  0  0  0
  2  4  1  0  0  0  0
  1  5  1  0  0  0  0
  5  6  1  0  0  0  0
  5  7  1  0  0  0  0
  5  8  1  0  0  0  0
  8  9  1  0  0  0  0
  8 10  1  0  0  0  0
  8 11  1  0  0  0  0
 11 12  1  0  0  0  0
 11 13  1  0  0  0  0
 11 14  1  0  0  0  0
M  CHG  2   2   1   4  -1
M  END
> <ChemID>
100552

> <source_casrn>
627-13-4

> <CAS>
627-13-4

> <SMILES>
CCCO[N+]([O-])=O

> <NAME>
1-PROPYLNITRATE

> <preferred_name>
n-Propyl nitrate

> <iupac>
Propyl nitrate

> <MPID>
99083

> <dsstox_substance_id>
DTXSID2060834

> <Canonical_QSARr>
CCCO[N+]([O-])=O

> <InChI_Code_QSARr>
InChI=1S/C3H7NO3/c1-2-3-7-4(5)6/h2-3H2,1H3

> <InChI Key_QSARr>
JNTOKFNBDFMTIV-UHFFFAOYSA-N

> <OH>
7.3E-13

> <OH Temperature>
25.0

> <OH Data Type>
EXP

> <OH Reference>
KWOK,ESC & ATKINSON,R (1994)

> <LogOH>
-12.136677139879522

$$$$
100554
  -INDIGO-08031719142D

 15 14  0  0  0  0  0  0  0  0999 V2000
    1.3856    0.8000    0.0000 C   0  0  0  0  0  0  0  0  0  0  0  0
    2.7713    1.6000    0.0000 H   0  0  0  0  0  0  0  0  0  0  0  0
    2.7713    0.0000    0.0000 H   0  0  0  0  0  0  0  0  0  0  0  0
    1.3856    2.4000    0.0000 H   0  0  0  0  0  0  0  0  0  0  0  0
    0.0000    0.0000    0.0000 C   0  0  0  0  0  0  0  0  0  0  0  0
   -0.6122   -1.4782    0.0000 H   0  0  0  0  0  0  0  0  0  0  0  0
    0.6122   -1.4782    0.0000 H   0  0  0  0  0  0  0  0  0  0  0  0
   -1.3857    0.8000    0.0000 C   0  0  0  0  0  0  0  0  0  0  0  0
   -1.3857    2.4000    0.0000 H   0  0  0  0  0  0  0  0  0  0  0  0
   -2.7713    0.0000    0.0000 C   0  0  0  0  0  0  0  0  0  0  0  0
   -2.7713   -1.6000    0.0000 H   0  0  0  0  0  0  0  0  0  0  0  0
   -4.1569    0.8000    0.0000 C   0  0  0  0  0  0  0  0  0  0  0  0
   -5.5426    1.6000    0.0000 H   0  0  0  0  0  0  0  0  0  0  0  0
   -5.5426    0.0000    0.0000 H   0  0  0  0  0  0  0  0  0  0  0  0
   -4.1569    2.4000    0.0000 H   0  0  0  0  0  0  0  0  0  0  0  0
  1  2  1  0  0  0  0
  1  3  1  0  0  0  0
  1  4  1  0  0  0  0
  1  5  1  0  0  0  0
  5  6  1  0  0  0  0
  5  7  1  0  0  0  0
  5  8  1  0  0  0  0
  8  9  1  0  0  0  0
  8 10  2  0  0  0  0
 10 11  1  0  0  0  0
 10 12  1  0  0  0  0
 12 13  1  0  0  0  0
 12 14  1  0  0  0  0
 12 15  1  0  0  0  0
M  END
> <ChemID>
100554

> <source_casrn>
627-20-3|646-04-8

> <CAS>
109-68-2

> <SMILES>
CC=CCC

> <NAME>
CIS-2-PENTENE, TRANS-2-PENTENE

> <preferred_name>
2-Pentene

> <iupac>
?

> <MPID>
99085|99103

> <dsstox_substance_id>
DTXSID5059375

> <Canonical_QSARr>
CC=CCC

> <InChI_Code_QSARr>
InChI=1S/C5H10/c1-3-5-4-2/h3,5H,4H2,1-2H3/b5-3+

> <InChI Key_QSARr>
QMMOXUPEWRXHJS-HWKANZROSA-N

> <OH>
6.6E-11

> <OH Temperature>
25.0

> <OH Data Type>
EXP

> <OH Reference>
KWOK,ESC & ATKINSON,R (1994)

> <LogOH>
-10.18045606445812

$$$$
100556
  -INDIGO-08031719142D

 12 11  0  0  0  0  0  0  0  0999 V2000
    0.0000    0.0000    0.0000 C   0  0  0  0  0  0  0  0  0  0  0  0
    0.6123   -1.4782    0.0000 H   0  0  0  0  0  0  0  0  0  0  0  0
   -0.6123   -1.4782    0.0000 H   0  0  0  0  0  0  0  0  0  0  0  0
    1.3856    0.8000    0.0000 C   0  0  0  0  0  0  0  0  0  0  0  0
    2.7713    1.6000    0.0000 H   0  0  0  0  0  0  0  0  0  0  0  0
    2.7713    0.0000    0.0000 H   0  0  0  0  0  0  0  0  0  0  0  0
    1.3856    2.4000    0.0000 Cl  0  0  0  0  0  0  0  0  0  0  0  0
   -1.3856    0.8000    0.0000 O   0  0  0  0  0  0  0  0  0  0  0  0
   -2.7713    0.0000    0.0000 C   0  0  0  0  0  0  0  0  0  0  0  0
   -4.1569   -0.8000    0.0000 H   0  0  0  0  0  0  0  0  0  0  0  0
   -4.1569    0.8000    0.0000 H   0  0  0  0  0  0  0  0  0  0  0  0
   -2.7713   -1.6000    0.0000 H   0  0  0  0  0  0  0  0  0  0  0  0
  1  2  1  0  0  0  0
  1  3  1  0  0  0  0
  1  4  1  0  0  0  0
  4  5  1  0  0  0  0
  4  6  1  0  0  0  0
  4  7  1  0  0  0  0
  1  8  1  0  0  0  0
  8  9  1  0  0  0  0
  9 10  1  0  0  0  0
  9 11  1  0  0  0  0
  9 12  1  0  0  0  0
M  END
> <ChemID>
100556

> <source_casrn>
627-42-9

> <CAS>
627-42-9

> <SMILES>
COCCCl

> <NAME>
Ethane, 1-chloro-2-methoxy-

> <preferred_name>
Ethane, 1-chloro-2-methoxy-

> <iupac>
1-Chloro-2-methoxyethane

> <MPID>
99086

> <dsstox_substance_id>
DTXSID6060840

> <Canonical_QSARr>
COCCCl

> <InChI_Code_QSARr>
InChI=1S/C3H7ClO/c1-5-3-2-4/h2-3H2,1H3

> <InChI Key_QSARr>
XTIGGAHUZJWQMD-UHFFFAOYSA-N

> <OH>
4.69E-12

> <OH Temperature>
25.0

> <OH Data Type>
EXP

> <OH Reference>
KWOK,ESC & ATKINSON,R (1994)

> <LogOH>
-11.328827157284932

$$$$
100558
  -INDIGO-08031719142D

 26 25  0  0  0  0  0  0  0  0999 V2000
   -1.3856   -0.8000    0.0000 C   0  0  0  0  0  0  0  0  0  0  0  0
   -0.7732   -2.2782    0.0000 H   0  0  0  0  0  0  0  0  0  0  0  0
   -1.9980   -2.2782    0.0000 H   0  0  0  0  0  0  0  0  0  0  0  0
    0.0001    0.0000    0.0000 C   0  0  0  0  0  0  0  0  0  0  0  0
   -0.6123    1.4782    0.0000 H   0  0  0  0  0  0  0  0  0  0  0  0
    0.6122    1.4782    0.0000 H   0  0  0  0  0  0  0  0  0  0  0  0
    1.3856   -0.8000    0.0000 C   0  0  0  0  0  0  0  0  0  0  0  0
    1.9979   -2.2782    0.0000 H   0  0  0  0  0  0  0  0  0  0  0  0
    0.7734   -2.2782    0.0000 H   0  0  0  0  0  0  0  0  0  0  0  0
    2.7713    0.0000    0.0000 C   0  0  0  0  0  0  0  0  0  0  0  0
    2.1589    1.4782    0.0000 H   0  0  0  0  0  0  0  0  0  0  0  0
    3.3836    1.4782    0.0000 H   0  0  0  0  0  0  0  0  0  0  0  0
    4.1570   -0.8000    0.0000 C   0  0  0  0  0  0  0  0  0  0  0  0
    4.1570   -2.4000    0.0000 O   0  0  0  0  0  0  0  0  0  0  0  0
    5.5427    0.0000    0.0000 O   0  0  0  0  0  0  0  0  0  0  0  0
    6.9281   -0.8000    0.0000 C   0  0  0  0  0  0  0  0  0  0  0  0
    8.3138   -1.6000    0.0000 H   0  0  0  0  0  0  0  0  0  0  0  0
    8.3138    0.0000    0.0000 H   0  0  0  0  0  0  0  0  0  0  0  0
    6.9281   -2.4000    0.0000 H   0  0  0  0  0  0  0  0  0  0  0  0
   -2.7713    0.0000    0.0000 C   0  0  0  0  0  0  0  0  0  0  0  0
   -2.7713    1.6000    0.0000 O   0  0  0  0  0  0  0  0  0  0  0  0
   -4.1570   -0.8000    0.0000 O   0  0  0  0  0  0  0  0  0  0  0  0
   -5.5425    0.0000    0.0000 C   0  0  0  0  0  0  0  0  0  0  0  0
   -6.9282    0.8000    0.0000 H   0  0  0  0  0  0  0  0  0  0  0  0
   -6.9282   -0.8000    0.0000 H   0  0  0  0  0  0  0  0  0  0  0  0
   -5.5425    1.6000    0.0000 H   0  0  0  0  0  0  0  0  0  0  0  0
  1  2  1  0  0  0  0
  1  3  1  0  0  0  0
  1  4  1  0  0  0  0
  4  5  1  0  0  0  0
  4  6  1  0  0  0  0
  4  7  1  0  0  0  0
  7  8  1  0  0  0  0
  7  9  1  0  0  0  0
  7 10  1  0  0  0  0
 10 11  1  0  0  0  0
 10 12  1  0  0  0  0
 10 13  1  0  0  0  0
 13 14  2  0  0  0  0
 13 15  1  0  0  0  0
 15 16  1  0  0  0  0
 16 17  1  0  0  0  0
 16 18  1  0  0  0  0
 16 19  1  0  0  0  0
  1 20  1  0  0  0  0
 20 21  2  0  0  0  0
 20 22  1  0  0  0  0
 22 23  1  0  0  0  0
 23 24  1  0  0  0  0
 23 25  1  0  0  0  0
 23 26  1  0  0  0  0
M  END
> <ChemID>
100558

> <source_casrn>
627-93-0

> <CAS>
627-93-0

> <SMILES>
COC(=O)CCCCC(=O)OC

> <NAME>
HEXANEDIOIC ACID, DIMETHYL ESTER

> <preferred_name>
Dimethyl adipate

> <iupac>
dimethyl hexanedioate

> <MPID>
99088

> <dsstox_substance_id>
DTXSID8025096

> <Canonical_QSARr>
COC(=O)CCCCC(=O)OC

> <InChI_Code_QSARr>
InChI=1S/C8H14O4/c1-11-7(9)5-3-4-6-8(10)12-2/h3-6H2,1-2H3

> <InChI Key_QSARr>
UDSFAEKRVUSQDD-UHFFFAOYSA-N

> <OH>
8.400000000000001E-12

> <OH Temperature>
25.0

> <OH Data Type>
EXP

> <OH Reference>
ASCHMANN,SM & ATKINSON,R (1998)

> <LogOH>
-11.075720713938125

$$$$
100560
  -INDIGO-08031719142D

 18 17  0  0  0  0  0  0  0  0999 V2000
    0.0001    0.0000    0.0000 C   0  0  0  0  0  0  0  0  0  0  0  0
    0.6124   -1.4782    0.0000 H   0  0  0  0  0  0  0  0  0  0  0  0
   -0.6122   -1.4782    0.0000 H   0  0  0  0  0  0  0  0  0  0  0  0
   -1.3857    0.8000    0.0000 C   0  0  0  0  0  0  0  0  0  0  0  0
   -1.9980    2.2782    0.0000 H   0  0  0  0  0  0  0  0  0  0  0  0
   -0.7734    2.2782    0.0000 H   0  0  0  0  0  0  0  0  0  0  0  0
   -2.7713    0.0000    0.0000 O   0  0  0  0  0  0  0  0  0  0  0  0
   -4.1569    0.8000    0.0000 C   0  0  0  0  0  0  0  0  0  0  0  0
   -5.5426    1.6000    0.0000 H   0  0  0  0  0  0  0  0  0  0  0  0
   -5.5426    0.0000    0.0000 H   0  0  0  0  0  0  0  0  0  0  0  0
   -4.1569    2.4000    0.0000 H   0  0  0  0  0  0  0  0  0  0  0  0
    1.3857    0.8000    0.0000 C   0  0  0  0  0  0  0  0  0  0  0  0
    0.7734    2.2782    0.0000 H   0  0  0  0  0  0  0  0  0  0  0  0
    1.9980    2.2782    0.0000 H   0  0  0  0  0  0  0  0  0  0  0  0
    2.7713    0.0000    0.0000 C   0  0  0  0  0  0  0  0  0  0  0  0
    4.1569   -0.8000    0.0000 H   0  0  0  0  0  0  0  0  0  0  0  0
    4.1569    0.8000    0.0000 H   0  0  0  0  0  0  0  0  0  0  0  0
    2.7713   -1.6000    0.0000 H   0  0  0  0  0  0  0  0  0  0  0  0
  1  2  1  0  0  0  0
  1  3  1  0  0  0  0
  1  4  1  0  0  0  0
  4  5  1  0  0  0  0
  4  6  1  0  0  0  0
  4  7  1  0  0  0  0
  7  8  1  0  0  0  0
  8  9  1  0  0  0  0
  8 10  1  0  0  0  0
  8 11  1  0  0  0  0
  1 12  1  0  0  0  0
 12 13  1  0  0  0  0
 12 14  1  0  0  0  0
 12 15  1  0  0  0  0
 15 16  1  0  0  0  0
 15 17  1  0  0  0  0
 15 18  1  0  0  0  0
M  END
> <ChemID>
100560

> <source_casrn>
628-28-4

> <CAS>
628-28-4

> <SMILES>
CCCCOC

> <NAME>
METHYL N-BUTYL ETHER

> <preferred_name>
Butane, 1-methoxy-

> <iupac>
1-Methoxybutane

> <MPID>
99089

> <dsstox_substance_id>
DTXSID5074559

> <Canonical_QSARr>
CCCCOC

> <InChI_Code_QSARr>
InChI=1S/C5H12O/c1-3-4-5-6-2/h3-5H2,1-2H3

> <InChI Key_QSARr>
CXBDYQVECUFKRK-UHFFFAOYSA-N

> <OH>
1.48E-11

> <OH Temperature>
25.0

> <OH Data Type>
EXP

> <OH Reference>
KWOK,ESC & ATKINSON,R (1994)

> <LogOH>
-10.82973828460505

$$$$
100561
  -INDIGO-08031719142D

 14 14  0  0  0  0  0  0  0  0999 V2000
   -0.0000    0.0000    0.0000 C   0  0  0  0  0  0  0  0  0  0  0  0
    1.0285    1.2257    0.0000 H   0  0  0  0  0  0  0  0  0  0  0  0
   -1.0285    1.2257    0.0000 H   0  0  0  0  0  0  0  0  0  0  0  0
    1.3856   -0.8000    0.0000 C   0  0  0  0  0  0  0  0  0  0  0  0
    2.7713    0.0000    0.0000 H   0  0  0  0  0  0  0  0  0  0  0  0
    1.3856   -2.4000    0.0000 C   0  0  0  0  0  0  0  0  0  0  0  0
    2.7713   -3.2000    0.0000 H   0  0  0  0  0  0  0  0  0  0  0  0
   -0.0000   -3.2000    0.0000 C   0  0  0  0  0  0  0  0  0  0  0  0
    1.0285   -4.4257    0.0000 H   0  0  0  0  0  0  0  0  0  0  0  0
   -1.0285   -4.4257    0.0000 H   0  0  0  0  0  0  0  0  0  0  0  0
   -1.3856   -2.4000    0.0000 C   0  0  0  0  0  0  0  0  0  0  0  0
   -2.7713   -3.2000    0.0000 H   0  0  0  0  0  0  0  0  0  0  0  0
   -1.3856   -0.8000    0.0000 C   0  0  0  0  0  0  0  0  0  0  0  0
   -2.7713    0.0000    0.0000 H   0  0  0  0  0  0  0  0  0  0  0  0
  1  2  1  0  0  0  0
  1  3  1  0  0  0  0
  1  4  1  0  0  0  0
  4  5  1  0  0  0  0
  4  6  2  0  0  0  0
  6  7  1  0  0  0  0
  6  8  1  0  0  0  0
  8  9  1  0  0  0  0
  8 10  1  0  0  0  0
  8 11  1  0  0  0  0
 11 12  1  0  0  0  0
 11 13  2  0  0  0  0
 13  1  1  0  0  0  0
 13 14  1  0  0  0  0
M  END
> <ChemID>
100561

> <source_casrn>
628-41-1

> <CAS>
628-41-1

> <SMILES>
C1C=CCC=C1

> <NAME>
1,4-CYCLOHEXADIENE

> <preferred_name>
1,4-Cyclohexadiene

> <iupac>
cyclohexa-1,4-diene

> <MPID>
99090

> <dsstox_substance_id>
DTXSID0060854

> <Canonical_QSARr>
C1C=CCC=C1

> <InChI_Code_QSARr>
InChI=1S/C6H8/c1-2-4-6-5-3-1/h1-2,5-6H,3-4H2

> <InChI Key_QSARr>
UVJHQYIOXKWHFD-UHFFFAOYSA-N

> <OH>
1.0E-10

> <OH Temperature>
25.0

> <OH Data Type>
EXP

> <OH Reference>
KWOK,ESC & ATKINSON,R (1994)

> <LogOH>
-10.000000000000018

$$$$
100563
  -INDIGO-08031719142D

 23 22  0  0  0  0  0  0  0  0999 V2000
    5.5426    0.0000    0.0000 C   0  0  0  0  0  0  0  0  0  0  0  0
    5.5426   -1.6000    0.0000 O   0  0  0  0  0  0  0  0  0  0  0  0
    4.1569    0.8000    0.0000 O   0  0  0  0  0  0  0  0  0  0  0  0
    2.7712    0.0000    0.0000 C   0  0  0  0  0  0  0  0  0  0  0  0
    3.3836   -1.4782    0.0000 H   0  0  0  0  0  0  0  0  0  0  0  0
    2.1590   -1.4782    0.0000 H   0  0  0  0  0  0  0  0  0  0  0  0
    1.3857    0.8000    0.0000 C   0  0  0  0  0  0  0  0  0  0  0  0
    0.7733    2.2782    0.0000 H   0  0  0  0  0  0  0  0  0  0  0  0
    1.9979    2.2782    0.0000 H   0  0  0  0  0  0  0  0  0  0  0  0
    0.0000    0.0000    0.0000 C   0  0  0  0  0  0  0  0  0  0  0  0
    0.6124   -1.4782    0.0000 H   0  0  0  0  0  0  0  0  0  0  0  0
   -0.6124   -1.4782    0.0000 H   0  0  0  0  0  0  0  0  0  0  0  0
   -1.3857    0.8000    0.0000 C   0  0  0  0  0  0  0  0  0  0  0  0
   -1.9979    2.2782    0.0000 H   0  0  0  0  0  0  0  0  0  0  0  0
   -0.7733    2.2782    0.0000 H   0  0  0  0  0  0  0  0  0  0  0  0
   -2.7712    0.0000    0.0000 C   0  0  0  0  0  0  0  0  0  0  0  0
   -4.1569   -0.8000    0.0000 H   0  0  0  0  0  0  0  0  0  0  0  0
   -4.1569    0.8000    0.0000 H   0  0  0  0  0  0  0  0  0  0  0  0
   -2.7712   -1.6000    0.0000 H   0  0  0  0  0  0  0  0  0  0  0  0
    6.9281    0.8000    0.0000 C   0  0  0  0  0  0  0  0  0  0  0  0
    8.3138    1.6000    0.0000 H   0  0  0  0  0  0  0  0  0  0  0  0
    8.3138    0.0000    0.0000 H   0  0  0  0  0  0  0  0  0  0  0  0
    6.9281    2.4000    0.0000 H   0  0  0  0  0  0  0  0  0  0  0  0
  1  2  2  0  0  0  0
  1  3  1  0  0  0  0
  3  4  1  0  0  0  0
  4  5  1  0  0  0  0
  4  6  1  0  0  0  0
  4  7  1  0  0  0  0
  7  8  1  0  0  0  0
  7  9  1  0  0  0  0
  7 10  1  0  0  0  0
 10 11  1  0  0  0  0
 10 12  1  0  0  0  0
 10 13  1  0  0  0  0
 13 14  1  0  0  0  0
 13 15  1  0  0  0  0
 13 16  1  0  0  0  0
 16 17  1  0  0  0  0
 16 18  1  0  0  0  0
 16 19  1  0  0  0  0
  1 20  1  0  0  0  0
 20 21  1  0  0  0  0
 20 22  1  0  0  0  0
 20 23  1  0  0  0  0
M  END
> <ChemID>
100563

> <source_casrn>
628-63-7

> <CAS>
628-63-7

> <SMILES>
CCCCCOC(C)=O

> <NAME>
N-AMYL ACETATE

> <preferred_name>
Pentyl acetate

> <iupac>
pentyl acetate

> <MPID>
99092

> <dsstox_substance_id>
DTXSID1027263

> <Canonical_QSARr>
CCCCCOC(C)=O

> <InChI_Code_QSARr>
InChI=1S/C7H14O2/c1-3-4-5-6-9-7(2)8/h3-6H2,1-2H3

> <InChI Key_QSARr>
PGMYKACGEOXYJE-UHFFFAOYSA-N

> <OH>
7.549999999999998E-12

> <OH Temperature>
25.0

> <OH Data Type>
EXP

> <OH Reference>
KWOK,ESC & ATKINSON,R (1994)

> <LogOH>
-11.122053048370804

$$$$
100564
  -INDIGO-08031719142D

 21 20  0  0  0  0  0  0  0  0999 V2000
    5.5425   -0.0000    0.0000 C   0  0  0  0  0  0  0  0  0  0  0  0
    6.9282   -0.8000    0.0000 H   0  0  0  0  0  0  0  0  0  0  0  0
    6.9282    0.8000    0.0000 H   0  0  0  0  0  0  0  0  0  0  0  0
    5.5425   -1.6000    0.0000 H   0  0  0  0  0  0  0  0  0  0  0  0
    4.1569    0.8000    0.0000 C   0  0  0  0  0  0  0  0  0  0  0  0
    4.7692    2.2782    0.0000 H   0  0  0  0  0  0  0  0  0  0  0  0
    3.5446    2.2782    0.0000 H   0  0  0  0  0  0  0  0  0  0  0  0
    2.7712   -0.0000    0.0000 O   0  0  0  0  0  0  0  0  0  0  0  0
    1.3857    0.8000    0.0000 C   0  0  0  0  0  0  0  0  0  0  0  0
    1.9979    2.2782    0.0000 H   0  0  0  0  0  0  0  0  0  0  0  0
    0.7734    2.2782    0.0000 H   0  0  0  0  0  0  0  0  0  0  0  0
    0.0001   -0.0000    0.0000 C   0  0  0  0  0  0  0  0  0  0  0  0
   -0.6123   -1.4782    0.0000 H   0  0  0  0  0  0  0  0  0  0  0  0
    0.6122   -1.4782    0.0000 H   0  0  0  0  0  0  0  0  0  0  0  0
   -1.3856    0.8000    0.0000 C   0  0  0  0  0  0  0  0  0  0  0  0
   -0.7733    2.2782    0.0000 H   0  0  0  0  0  0  0  0  0  0  0  0
   -1.9979    2.2782    0.0000 H   0  0  0  0  0  0  0  0  0  0  0  0
   -2.7713   -0.0000    0.0000 C   0  0  0  0  0  0  0  0  0  0  0  0
   -4.1569   -0.8000    0.0000 H   0  0  0  0  0  0  0  0  0  0  0  0
   -4.1569    0.8000    0.0000 H   0  0  0  0  0  0  0  0  0  0  0  0
   -2.7713   -1.6000    0.0000 H   0  0  0  0  0  0  0  0  0  0  0  0
  1  2  1  0  0  0  0
  1  3  1  0  0  0  0
  1  4  1  0  0  0  0
  1  5  1  0  0  0  0
  5  6  1  0  0  0  0
  5  7  1  0  0  0  0
  5  8  1  0  0  0  0
  8  9  1  0  0  0  0
  9 10  1  0  0  0  0
  9 11  1  0  0  0  0
  9 12  1  0  0  0  0
 12 13  1  0  0  0  0
 12 14  1  0  0  0  0
 12 15  1  0  0  0  0
 15 16  1  0  0  0  0
 15 17  1  0  0  0  0
 15 18  1  0  0  0  0
 18 19  1  0  0  0  0
 18 20  1  0  0  0  0
 18 21  1  0  0  0  0
M  END
> <ChemID>
100564

> <source_casrn>
628-81-9

> <CAS>
628-81-9

> <SMILES>
CCCCOCC

> <NAME>
BUTYL ETHYL ETHER

> <preferred_name>
1-Ethoxybutane

> <iupac>
butyl ethyl ether

> <MPID>
99093

> <dsstox_substance_id>
DTXSID7052311

> <Canonical_QSARr>
CCCCOCC

> <InChI_Code_QSARr>
InChI=1S/C6H14O/c1-3-5-6-7-4-2/h3-6H2,1-2H3

> <InChI Key_QSARr>
PZHIWRCQKBBTOW-UHFFFAOYSA-N

> <OH>
2.13E-11

> <OH Temperature>
25.0

> <OH Data Type>
EXP

> <OH Reference>
KWOK,ESC & ATKINSON,R (1994)

> <LogOH>
-10.671620396561275

$$$$
100565
  -INDIGO-08031719142D

 19 19  0  0  0  0  0  0  0  0999 V2000
    0.0000   -0.0000    0.0000 C   0  0  0  0  0  0  0  0  0  0  0  0
    1.5955    0.1196    0.0000 H   0  0  0  0  0  0  0  0  0  0  0  0
    0.4716   -1.5290    0.0000 H   0  0  0  0  0  0  0  0  0  0  0  0
    0.2385    1.5821    0.0000 C   0  0  0  0  0  0  0  0  0  0  0  0
    1.8067    1.2651    0.0000 H   0  0  0  0  0  0  0  0  0  0  0  0
    1.1398    2.9041    0.0000 H   0  0  0  0  0  0  0  0  0  0  0  0
   -0.8498    2.7550    0.0000 C   0  0  0  0  0  0  0  0  0  0  0  0
    0.3759    3.7835    0.0000 H   0  0  0  0  0  0  0  0  0  0  0  0
   -1.3214    4.2839    0.0000 H   0  0  0  0  0  0  0  0  0  0  0  0
   -2.4454    2.6354    0.0000 C   0  0  0  0  0  0  0  0  0  0  0  0
   -3.2454    4.0211    0.0000 H   0  0  0  0  0  0  0  0  0  0  0  0
   -3.3466    1.3134    0.0000 C   0  0  0  0  0  0  0  0  0  0  0  0
   -4.9288    1.5519    0.0000 H   0  0  0  0  0  0  0  0  0  0  0  0
   -2.8751   -0.2155    0.0000 C   0  0  0  0  0  0  0  0  0  0  0  0
   -4.4706   -0.3351    0.0000 H   0  0  0  0  0  0  0  0  0  0  0  0
   -3.3846   -1.7322    0.0000 H   0  0  0  0  0  0  0  0  0  0  0  0
   -1.3856   -0.8000    0.0000 C   0  0  0  0  0  0  0  0  0  0  0  0
   -2.2870   -2.1220    0.0000 H   0  0  0  0  0  0  0  0  0  0  0  0
   -0.5176   -2.1440    0.0000 H   0  0  0  0  0  0  0  0  0  0  0  0
  1  2  1  0  0  0  0
  1  3  1  0  0  0  0
  1  4  1  0  0  0  0
  4  5  1  0  0  0  0
  4  6  1  0  0  0  0
  4  7  1  0  0  0  0
  7  8  1  0  0  0  0
  7  9  1  0  0  0  0
  7 10  1  0  0  0  0
 10 11  1  0  0  0  0
 10 12  2  0  0  0  0
 12 13  1  0  0  0  0
 12 14  1  0  0  0  0
 14 15  1  0  0  0  0
 14 16  1  0  0  0  0
 14 17  1  0  0  0  0
 17  1  1  0  0  0  0
 17 18  1  0  0  0  0
 17 19  1  0  0  0  0
M  END
> <ChemID>
100565

> <source_casrn>
628-92-2

> <CAS>
628-92-2

> <SMILES>
C1CCCCC=C1

> <NAME>
CYCLOHEPTENE

> <preferred_name>
Cycloheptene

> <iupac>
Cycloheptene

> <MPID>
99094

> <dsstox_substance_id>
DTXSID4074560

> <Canonical_QSARr>
C1CCCCC=C1

> <InChI_Code_QSARr>
InChI=1S/C7H12/c1-2-4-6-7-5-3-1/h1-2H,3-7H2

> <InChI Key_QSARr>
ZXIJMRYMVAMXQP-UHFFFAOYSA-N

> <OH>
7.399999999999998E-11

> <OH Temperature>
25.0

> <OH Data Type>
EXP

> <OH Reference>
KWOK,ESC & ATKINSON,R (1994)

> <LogOH>
-10.130768280269033

$$$$
100567
  -INDIGO-08031719142D

 41 40  0  0  0  0  0  0  0  0999 V2000
    8.3139   -0.0000    0.0000 C   0  0  0  0  0  0  0  0  0  0  0  0
    9.6995   -0.8000    0.0000 H   0  0  0  0  0  0  0  0  0  0  0  0
    9.6995    0.8000    0.0000 H   0  0  0  0  0  0  0  0  0  0  0  0
    8.3139   -1.6000    0.0000 H   0  0  0  0  0  0  0  0  0  0  0  0
    6.9282    0.8000    0.0000 C   0  0  0  0  0  0  0  0  0  0  0  0
    6.3158    2.2782    0.0000 H   0  0  0  0  0  0  0  0  0  0  0  0
    7.5404    2.2782    0.0000 H   0  0  0  0  0  0  0  0  0  0  0  0
    5.5426   -0.0000    0.0000 C   0  0  0  0  0  0  0  0  0  0  0  0
    6.1548   -1.4782    0.0000 H   0  0  0  0  0  0  0  0  0  0  0  0
    4.9302   -1.4782    0.0000 H   0  0  0  0  0  0  0  0  0  0  0  0
    4.1570    0.8000    0.0000 C   0  0  0  0  0  0  0  0  0  0  0  0
    3.5446    2.2782    0.0000 H   0  0  0  0  0  0  0  0  0  0  0  0
    4.7692    2.2782    0.0000 H   0  0  0  0  0  0  0  0  0  0  0  0
    2.7714   -0.0000    0.0000 C   0  0  0  0  0  0  0  0  0  0  0  0
    3.3835   -1.4782    0.0000 H   0  0  0  0  0  0  0  0  0  0  0  0
    2.1589   -1.4782    0.0000 H   0  0  0  0  0  0  0  0  0  0  0  0
    1.3858    0.8000    0.0000 C   0  0  0  0  0  0  0  0  0  0  0  0
    0.7733    2.2782    0.0000 H   0  0  0  0  0  0  0  0  0  0  0  0
    1.9979    2.2782    0.0000 H   0  0  0  0  0  0  0  0  0  0  0  0
    0.0001   -0.0000    0.0000 C   0  0  0  0  0  0  0  0  0  0  0  0
    0.6123   -1.4782    0.0000 H   0  0  0  0  0  0  0  0  0  0  0  0
   -0.6123   -1.4782    0.0000 H   0  0  0  0  0  0  0  0  0  0  0  0
   -1.3858    0.8000    0.0000 C   0  0  0  0  0  0  0  0  0  0  0  0
   -1.9979    2.2782    0.0000 H   0  0  0  0  0  0  0  0  0  0  0  0
   -0.7733    2.2782    0.0000 H   0  0  0  0  0  0  0  0  0  0  0  0
   -2.7714   -0.0000    0.0000 C   0  0  0  0  0  0  0  0  0  0  0  0
   -2.1589   -1.4782    0.0000 H   0  0  0  0  0  0  0  0  0  0  0  0
   -3.3835   -1.4782    0.0000 H   0  0  0  0  0  0  0  0  0  0  0  0
   -4.1570    0.8000    0.0000 C   0  0  0  0  0  0  0  0  0  0  0  0
   -4.7692    2.2782    0.0000 H   0  0  0  0  0  0  0  0  0  0  0  0
   -3.5446    2.2782    0.0000 H   0  0  0  0  0  0  0  0  0  0  0  0
   -5.5426   -0.0000    0.0000 C   0  0  0  0  0  0  0  0  0  0  0  0
   -4.9302   -1.4782    0.0000 H   0  0  0  0  0  0  0  0  0  0  0  0
   -6.1548   -1.4782    0.0000 H   0  0  0  0  0  0  0  0  0  0  0  0
   -6.9282    0.8000    0.0000 C   0  0  0  0  0  0  0  0  0  0  0  0
   -7.5404    2.2782    0.0000 H   0  0  0  0  0  0  0  0  0  0  0  0
   -6.3158    2.2782    0.0000 H   0  0  0  0  0  0  0  0  0  0  0  0
   -8.3139   -0.0000    0.0000 C   0  0  0  0  0  0  0  0  0  0  0  0
   -9.6995   -0.8000    0.0000 H   0  0  0  0  0  0  0  0  0  0  0  0
   -9.6995    0.8000    0.0000 H   0  0  0  0  0  0  0  0  0  0  0  0
   -8.3139   -1.6000    0.0000 H   0  0  0  0  0  0  0  0  0  0  0  0
  1  2  1  0  0  0  0
  1  3  1  0  0  0  0
  1  4  1  0  0  0  0
  1  5  1  0  0  0  0
  5  6  1  0  0  0  0
  5  7  1  0  0  0  0
  5  8  1  0  0  0  0
  8  9  1  0  0  0  0
  8 10  1  0  0  0  0
  8 11  1  0  0  0  0
 11 12  1  0  0  0  0
 11 13  1  0  0  0  0
 11 14  1  0  0  0  0
 14 15  1  0  0  0  0
 14 16  1  0  0  0  0
 14 17  1  0  0  0  0
 17 18  1  0  0  0  0
 17 19  1  0  0  0  0
 17 20  1  0  0  0  0
 20 21  1  0  0  0  0
 20 22  1  0  0  0  0
 20 23  1  0  0  0  0
 23 24  1  0  0  0  0
 23 25  1  0  0  0  0
 23 26  1  0  0  0  0
 26 27  1  0  0  0  0
 26 28  1  0  0  0  0
 26 29  1  0  0  0  0
 29 30  1  0  0  0  0
 29 31  1  0  0  0  0
 29 32  1  0  0  0  0
 32 33  1  0  0  0  0
 32 34  1  0  0  0  0
 32 35  1  0  0  0  0
 35 36  1  0  0  0  0
 35 37  1  0  0  0  0
 35 38  1  0  0  0  0
 38 39  1  0  0  0  0
 38 40  1  0  0  0  0
 38 41  1  0  0  0  0
M  END
> <ChemID>
100567

> <source_casrn>
629-50-5

> <CAS>
629-50-5

> <SMILES>
CCCCCCCCCCCCC

> <NAME>
N-TRIDECANE

> <preferred_name>
Tridecane

> <iupac>
tridecane

> <MPID>
99096

> <dsstox_substance_id>
DTXSID6027266

> <Canonical_QSARr>
CCCCCCCCCCCCC

> <InChI_Code_QSARr>
InChI=1S/C13H28/c1-3-5-7-9-11-13-12-10-8-6-4-2/h3-13H2,1-2H3

> <InChI Key_QSARr>
IIYFAKIEWZDVMP-UHFFFAOYSA-N

> <OH>
1.6E-11

> <OH Temperature>
25.0

> <OH Data Type>
EXP

> <OH Reference>
ATKINSON,R (1989)

> <LogOH>
-10.79588001734409

$$$$
100568
  -INDIGO-08031719142D

 44 43  0  0  0  0  0  0  0  0999 V2000
    8.3138    0.0000    0.0000 C   0  0  0  0  0  0  0  0  0  0  0  0
    9.6995    0.8000    0.0000 H   0  0  0  0  0  0  0  0  0  0  0  0
    9.6995   -0.8000    0.0000 H   0  0  0  0  0  0  0  0  0  0  0  0
    8.3138    1.6000    0.0000 H   0  0  0  0  0  0  0  0  0  0  0  0
    6.9282   -0.8000    0.0000 C   0  0  0  0  0  0  0  0  0  0  0  0
    6.3158   -2.2782    0.0000 H   0  0  0  0  0  0  0  0  0  0  0  0
    7.5406   -2.2782    0.0000 H   0  0  0  0  0  0  0  0  0  0  0  0
    5.5426    0.0000    0.0000 C   0  0  0  0  0  0  0  0  0  0  0  0
    6.1550    1.4782    0.0000 H   0  0  0  0  0  0  0  0  0  0  0  0
    4.9301    1.4782    0.0000 H   0  0  0  0  0  0  0  0  0  0  0  0
    4.1569   -0.8000    0.0000 C   0  0  0  0  0  0  0  0  0  0  0  0
    3.5445   -2.2782    0.0000 H   0  0  0  0  0  0  0  0  0  0  0  0
    4.7693   -2.2782    0.0000 H   0  0  0  0  0  0  0  0  0  0  0  0
    2.7713    0.0000    0.0000 C   0  0  0  0  0  0  0  0  0  0  0  0
    3.3837    1.4782    0.0000 H   0  0  0  0  0  0  0  0  0  0  0  0
    2.1589    1.4782    0.0000 H   0  0  0  0  0  0  0  0  0  0  0  0
    1.3856   -0.8000    0.0000 C   0  0  0  0  0  0  0  0  0  0  0  0
    0.7732   -2.2782    0.0000 H   0  0  0  0  0  0  0  0  0  0  0  0
    1.9981   -2.2782    0.0000 H   0  0  0  0  0  0  0  0  0  0  0  0
    0.0000    0.0000    0.0000 C   0  0  0  0  0  0  0  0  0  0  0  0
    0.6124    1.4782    0.0000 H   0  0  0  0  0  0  0  0  0  0  0  0
   -0.6124    1.4782    0.0000 H   0  0  0  0  0  0  0  0  0  0  0  0
   -1.3856   -0.8000    0.0000 C   0  0  0  0  0  0  0  0  0  0  0  0
   -1.9981   -2.2782    0.0000 H   0  0  0  0  0  0  0  0  0  0  0  0
   -0.7732   -2.2782    0.0000 H   0  0  0  0  0  0  0  0  0  0  0  0
   -2.7713    0.0000    0.0000 C   0  0  0  0  0  0  0  0  0  0  0  0
   -2.1589    1.4782    0.0000 H   0  0  0  0  0  0  0  0  0  0  0  0
   -3.3837    1.4782    0.0000 H   0  0  0  0  0  0  0  0  0  0  0  0
   -4.1569   -0.8000    0.0000 C   0  0  0  0  0  0  0  0  0  0  0  0
   -4.7693   -2.2782    0.0000 H   0  0  0  0  0  0  0  0  0  0  0  0
   -3.5445   -2.2782    0.0000 H   0  0  0  0  0  0  0  0  0  0  0  0
   -5.5426    0.0000    0.0000 C   0  0  0  0  0  0  0  0  0  0  0  0
   -4.9301    1.4782    0.0000 H   0  0  0  0  0  0  0  0  0  0  0  0
   -6.1550    1.4782    0.0000 H   0  0  0  0  0  0  0  0  0  0  0  0
   -6.9282   -0.8000    0.0000 C   0  0  0  0  0  0  0  0  0  0  0  0
   -7.5406   -2.2782    0.0000 H   0  0  0  0  0  0  0  0  0  0  0  0
   -6.3158   -2.2782    0.0000 H   0  0  0  0  0  0  0  0  0  0  0  0
   -8.3138    0.0000    0.0000 C   0  0  0  0  0  0  0  0  0  0  0  0
   -7.7014    1.4782    0.0000 H   0  0  0  0  0  0  0  0  0  0  0  0
   -8.9263    1.4782    0.0000 H   0  0  0  0  0  0  0  0  0  0  0  0
   -9.6995   -0.8000    0.0000 C   0  0  0  0  0  0  0  0  0  0  0  0
  -11.0851   -1.6000    0.0000 H   0  0  0  0  0  0  0  0  0  0  0  0
  -11.0851    0.0000    0.0000 H   0  0  0  0  0  0  0  0  0  0  0  0
   -9.6995   -2.4000    0.0000 H   0  0  0  0  0  0  0  0  0  0  0  0
  1  2  1  0  0  0  0
  1  3  1  0  0  0  0
  1  4  1  0  0  0  0
  1  5  1  0  0  0  0
  5  6  1  0  0  0  0
  5  7  1  0  0  0  0
  5  8  1  0  0  0  0
  8  9  1  0  0  0  0
  8 10  1  0  0  0  0
  8 11  1  0  0  0  0
 11 12  1  0  0  0  0
 11 13  1  0  0  0  0
 11 14  1  0  0  0  0
 14 15  1  0  0  0  0
 14 16  1  0  0  0  0
 14 17  1  0  0  0  0
 17 18  1  0  0  0  0
 17 19  1  0  0  0  0
 17 20  1  0  0  0  0
 20 21  1  0  0  0  0
 20 22  1  0  0  0  0
 20 23  1  0  0  0  0
 23 24  1  0  0  0  0
 23 25  1  0  0  0  0
 23 26  1  0  0  0  0
 26 27  1  0  0  0  0
 26 28  1  0  0  0  0
 26 29  1  0  0  0  0
 29 30  1  0  0  0  0
 29 31  1  0  0  0  0
 29 32  1  0  0  0  0
 32 33  1  0  0  0  0
 32 34  1  0  0  0  0
 32 35  1  0  0  0  0
 35 36  1  0  0  0  0
 35 37  1  0  0  0  0
 35 38  1  0  0  0  0
 38 39  1  0  0  0  0
 38 40  1  0  0  0  0
 38 41  1  0  0  0  0
 41 42  1  0  0  0  0
 41 43  1  0  0  0  0
 41 44  1  0  0  0  0
M  END
> <ChemID>
100568

> <source_casrn>
629-59-4

> <CAS>
629-59-4

> <SMILES>
CCCCCCCCCCCCCC

> <NAME>
TETRADECANE

> <preferred_name>
Tetradecane

> <iupac>
tetradecane

> <MPID>
99097

> <dsstox_substance_id>
DTXSID1027267

> <Canonical_QSARr>
CCCCCCCCCCCCCC

> <InChI_Code_QSARr>
InChI=1S/C14H30/c1-3-5-7-9-11-13-14-12-10-8-6-4-2/h3-14H2,1-2H3

> <InChI Key_QSARr>
BGHCVCJVXZWKCC-UHFFFAOYSA-N

> <OH>
1.92E-11

> <OH Temperature>
25.0

> <OH Data Type>
EXP

> <OH Reference>
ATKINSON,R (1989)

> <LogOH>
-10.716698771296445

$$$$
100569
  -INDIGO-08031719142D

 47 46  0  0  0  0  0  0  0  0999 V2000
    9.6995    0.8000    0.0000 C   0  0  0  0  0  0  0  0  0  0  0  0
   11.0851    1.6000    0.0000 H   0  0  0  0  0  0  0  0  0  0  0  0
   11.0851    0.0000    0.0000 H   0  0  0  0  0  0  0  0  0  0  0  0
    9.6995    2.4000    0.0000 H   0  0  0  0  0  0  0  0  0  0  0  0
    8.3138    0.0000    0.0000 C   0  0  0  0  0  0  0  0  0  0  0  0
    8.9261   -1.4782    0.0000 H   0  0  0  0  0  0  0  0  0  0  0  0
    7.7015   -1.4782    0.0000 H   0  0  0  0  0  0  0  0  0  0  0  0
    6.9281    0.8000    0.0000 C   0  0  0  0  0  0  0  0  0  0  0  0
    6.3158    2.2782    0.0000 H   0  0  0  0  0  0  0  0  0  0  0  0
    7.5405    2.2782    0.0000 H   0  0  0  0  0  0  0  0  0  0  0  0
    5.5425    0.0000    0.0000 C   0  0  0  0  0  0  0  0  0  0  0  0
    6.1548   -1.4782    0.0000 H   0  0  0  0  0  0  0  0  0  0  0  0
    4.9302   -1.4782    0.0000 H   0  0  0  0  0  0  0  0  0  0  0  0
    4.1568    0.8000    0.0000 C   0  0  0  0  0  0  0  0  0  0  0  0
    3.5445    2.2782    0.0000 H   0  0  0  0  0  0  0  0  0  0  0  0
    4.7691    2.2782    0.0000 H   0  0  0  0  0  0  0  0  0  0  0  0
    2.7712    0.0000    0.0000 C   0  0  0  0  0  0  0  0  0  0  0  0
    3.3835   -1.4782    0.0000 H   0  0  0  0  0  0  0  0  0  0  0  0
    2.1588   -1.4782    0.0000 H   0  0  0  0  0  0  0  0  0  0  0  0
    1.3855    0.8000    0.0000 C   0  0  0  0  0  0  0  0  0  0  0  0
    0.7735    2.2782    0.0000 H   0  0  0  0  0  0  0  0  0  0  0  0
    1.9978    2.2782    0.0000 H   0  0  0  0  0  0  0  0  0  0  0  0
   -0.0002    0.0000    0.0000 C   0  0  0  0  0  0  0  0  0  0  0  0
    0.6121   -1.4782    0.0000 H   0  0  0  0  0  0  0  0  0  0  0  0
   -0.6121   -1.4782    0.0000 H   0  0  0  0  0  0  0  0  0  0  0  0
   -1.3855    0.8000    0.0000 C   0  0  0  0  0  0  0  0  0  0  0  0
   -1.9978    2.2782    0.0000 H   0  0  0  0  0  0  0  0  0  0  0  0
   -0.7735    2.2782    0.0000 H   0  0  0  0  0  0  0  0  0  0  0  0
   -2.7712    0.0000    0.0000 C   0  0  0  0  0  0  0  0  0  0  0  0
   -2.1588   -1.4782    0.0000 H   0  0  0  0  0  0  0  0  0  0  0  0
   -3.3835   -1.4782    0.0000 H   0  0  0  0  0  0  0  0  0  0  0  0
   -4.1568    0.8000    0.0000 C   0  0  0  0  0  0  0  0  0  0  0  0
   -4.7691    2.2782    0.0000 H   0  0  0  0  0  0  0  0  0  0  0  0
   -3.5445    2.2782    0.0000 H   0  0  0  0  0  0  0  0  0  0  0  0
   -5.5425    0.0000    0.0000 C   0  0  0  0  0  0  0  0  0  0  0  0
   -4.9302   -1.4782    0.0000 H   0  0  0  0  0  0  0  0  0  0  0  0
   -6.1548   -1.4782    0.0000 H   0  0  0  0  0  0  0  0  0  0  0  0
   -6.9281    0.8000    0.0000 C   0  0  0  0  0  0  0  0  0  0  0  0
   -7.5405    2.2782    0.0000 H   0  0  0  0  0  0  0  0  0  0  0  0
   -6.3158    2.2782    0.0000 H   0  0  0  0  0  0  0  0  0  0  0  0
   -8.3138    0.0000    0.0000 C   0  0  0  0  0  0  0  0  0  0  0  0
   -7.7015   -1.4782    0.0000 H   0  0  0  0  0  0  0  0  0  0  0  0
   -8.9261   -1.4782    0.0000 H   0  0  0  0  0  0  0  0  0  0  0  0
   -9.6995    0.8000    0.0000 C   0  0  0  0  0  0  0  0  0  0  0  0
  -11.0851    1.6000    0.0000 H   0  0  0  0  0  0  0  0  0  0  0  0
  -11.0851    0.0000    0.0000 H   0  0  0  0  0  0  0  0  0  0  0  0
   -9.6995    2.4000    0.0000 H   0  0  0  0  0  0  0  0  0  0  0  0
  1  2  1  0  0  0  0
  1  3  1  0  0  0  0
  1  4  1  0  0  0  0
  1  5  1  0  0  0  0
  5  6  1  0  0  0  0
  5  7  1  0  0  0  0
  5  8  1  0  0  0  0
  8  9  1  0  0  0  0
  8 10  1  0  0  0  0
  8 11  1  0  0  0  0
 11 12  1  0  0  0  0
 11 13  1  0  0  0  0
 11 14  1  0  0  0  0
 14 15  1  0  0  0  0
 14 16  1  0  0  0  0
 14 17  1  0  0  0  0
 17 18  1  0  0  0  0
 17 19  1  0  0  0  0
 17 20  1  0  0  0  0
 20 21  1  0  0  0  0
 20 22  1  0  0  0  0
 20 23  1  0  0  0  0
 23 24  1  0  0  0  0
 23 25  1  0  0  0  0
 23 26  1  0  0  0  0
 26 27  1  0  0  0  0
 26 28  1  0  0  0  0
 26 29  1  0  0  0  0
 29 30  1  0  0  0  0
 29 31  1  0  0  0  0
 29 32  1  0  0  0  0
 32 33  1  0  0  0  0
 32 34  1  0  0  0  0
 32 35  1  0  0  0  0
 35 36  1  0  0  0  0
 35 37  1  0  0  0  0
 35 38  1  0  0  0  0
 38 39  1  0  0  0  0
 38 40  1  0  0  0  0
 38 41  1  0  0  0  0
 41 42  1  0  0  0  0
 41 43  1  0  0  0  0
 41 44  1  0  0  0  0
 44 45  1  0  0  0  0
 44 46  1  0  0  0  0
 44 47  1  0  0  0  0
M  END
> <ChemID>
100569

> <source_casrn>
629-62-9

> <CAS>
629-62-9

> <SMILES>
CCCCCCCCCCCCCCC

> <NAME>
N-PENTADECANE

> <preferred_name>
Pentadecane

> <iupac>
pentadecane

> <MPID>
99098

> <dsstox_substance_id>
DTXSID6027268

> <Canonical_QSARr>
CCCCCCCCCCCCCCC

> <InChI_Code_QSARr>
InChI=1S/C15H32/c1-3-5-7-9-11-13-15-14-12-10-8-6-4-2/h3-15H2,1-2H3

> <InChI Key_QSARr>
YCOZIPAWZNQLMR-UHFFFAOYSA-N

> <OH>
2.22E-11

> <OH Temperature>
25.0

> <OH Data Type>
EXP

> <OH Reference>
KWOK,ESC & ATKINSON,R (1994)

> <LogOH>
-10.653647025549354

$$$$
100571
  -INDIGO-08031719142D

  8  7  0  0  0  0  0  0  0  0999 V2000
   -0.8000    1.3856    0.0000 Cl  0  0  0  0  0  0  0  0  0  0  0  0
    0.0000    0.0000    0.0000 C   0  0  0  0  0  0  0  0  0  0  0  0
    1.6000    0.0000    0.0000 C   0  0  0  0  0  0  0  0  0  0  0  0
    3.2000    0.0000    0.0000 H   0  0  0  0  0  0  0  0  0  0  0  0
    2.4000   -1.3856    0.0000 H   0  0  0  0  0  0  0  0  0  0  0  0
    2.4000    1.3856    0.0000 Cl  0  0  0  0  0  0  0  0  0  0  0  0
   -1.6000   -0.0000    0.0000 Cl  0  0  0  0  0  0  0  0  0  0  0  0
   -0.8000   -1.3856    0.0000 Cl  0  0  0  0  0  0  0  0  0  0  0  0
  1  2  1  0  0  0  0
  2  3  1  0  0  0  0
  3  4  1  0  0  0  0
  3  5  1  0  0  0  0
  3  6  1  0  0  0  0
  2  7  1  0  0  0  0
  2  8  1  0  0  0  0
M  END
> <ChemID>
100571

> <source_casrn>
630-20-6

> <CAS>
630-20-6

> <SMILES>
ClCC(Cl)(Cl)Cl

> <NAME>
1,1,1,2-TETRACHLOROETHANE

> <preferred_name>
1,1,1,2-Tetrachloroethane

> <iupac>
1,1,1,2-tetrachloroethane

> <MPID>
99100

> <dsstox_substance_id>
DTXSID2021317

> <Canonical_QSARr>
ClCC(Cl)(Cl)Cl

> <InChI_Code_QSARr>
InChI=1S/C2H2Cl4/c3-1-2(4,5)6/h1H2

> <InChI Key_QSARr>
QVLAWKAXOMEXPM-UHFFFAOYSA-N

> <OH>
1.8E-14

> <OH Temperature>
25.0

> <OH Data Type>
EXP

> <OH Reference>
KWOK,ESC & ATKINSON,R (1994)

> <LogOH>
-13.744727494896685

$$$$
100572
  -INDIGO-08031719142D

 19 19  0  0  0  0  0  0  0  0999 V2000
   -0.0001   -0.0000    0.0000 C   0  0  0  0  0  0  0  0  0  0  0  0
   -0.0001   -1.6000    0.0000 C   0  0  0  0  0  0  0  0  0  0  0  0
    1.3857   -2.4000    0.0000 H   0  0  0  0  0  0  0  0  0  0  0  0
   -1.3857   -2.4000    0.0000 C   0  0  0  0  0  0  0  0  0  0  0  0
   -1.3857   -4.0000    0.0000 H   0  0  0  0  0  0  0  0  0  0  0  0
   -2.7713   -1.6000    0.0000 C   0  0  0  0  0  0  0  0  0  0  0  0
   -4.1569   -2.4000    0.0000 H   0  0  0  0  0  0  0  0  0  0  0  0
   -2.7713   -0.0000    0.0000 C   0  0  0  0  0  0  0  0  0  0  0  0
   -4.1569    0.8000    0.0000 H   0  0  0  0  0  0  0  0  0  0  0  0
   -1.3857    0.8000    0.0000 C   0  0  0  0  0  0  0  0  0  0  0  0
   -1.3857    2.4000    0.0000 H   0  0  0  0  0  0  0  0  0  0  0  0
    1.3857    0.8000    0.0000 C   0  0  0  0  0  0  0  0  0  0  0  0
    1.3857    2.4000    0.0000 H   0  0  0  0  0  0  0  0  0  0  0  0
    2.7713   -0.0000    0.0000 C   0  0  0  0  0  0  0  0  0  0  0  0
    2.7713   -1.6000    0.0000 H   0  0  0  0  0  0  0  0  0  0  0  0
    4.1569    0.8000    0.0000 C   0  0  0  0  0  0  0  0  0  0  0  0
    5.5426    1.6000    0.0000 H   0  0  0  0  0  0  0  0  0  0  0  0
    5.5426   -0.0000    0.0000 H   0  0  0  0  0  0  0  0  0  0  0  0
    4.1569    2.4000    0.0000 H   0  0  0  0  0  0  0  0  0  0  0  0
  1  2  1  0  0  0  0
  2  3  1  0  0  0  0
  2  4  2  0  0  0  0
  4  5  1  0  0  0  0
  4  6  1  0  0  0  0
  6  7  1  0  0  0  0
  6  8  2  0  0  0  0
  8  9  1  0  0  0  0
  8 10  1  0  0  0  0
 10  1  2  0  0  0  0
 10 11  1  0  0  0  0
  1 12  1  0  0  0  0
 12 13  1  0  0  0  0
 12 14  2  0  0  0  0
 14 15  1  0  0  0  0
 14 16  1  0  0  0  0
 16 17  1  0  0  0  0
 16 18  1  0  0  0  0
 16 19  1  0  0  0  0
M  END
> <ChemID>
100572

> <source_casrn>
637-50-3

> <CAS>
637-50-3

> <SMILES>
CC=Cc1ccccc1

> <NAME>
BETA-METHYLSTYRENE

> <preferred_name>
Propenylbenzene

> <iupac>


> <MPID>
99101

> <dsstox_substance_id>
DTXSID2060919

> <Canonical_QSARr>
CC=Cc1ccccc1

> <InChI_Code_QSARr>
InChI=1S/C9H10/c1-2-6-9-7-4-3-5-8-9/h2-8H,1H3/b6-2+

> <InChI Key_QSARr>
QROGIFZRVHSFLM-QHHAFSJGSA-N

> <OH>
5.9E-11

> <OH Temperature>
25.0

> <OH Data Type>
EXP

> <OH Reference>
ATKINSON,R (1989)

> <LogOH>
-10.229147988357843

$$$$
100573
  -INDIGO-08031719142D

 21 20  0  0  0  0  0  0  0  0999 V2000
   -1.3857    0.8000    0.0000 O   0  0  0  0  0  0  0  0  0  0  0  0
    0.0000   -0.0000    0.0000 C   0  0  0  0  0  0  0  0  0  0  0  0
    0.8000    1.3857    0.0000 C   0  0  0  0  0  0  0  0  0  0  0  0
    1.6000    2.7713    0.0000 H   0  0  0  0  0  0  0  0  0  0  0  0
    2.4000    1.3857    0.0000 H   0  0  0  0  0  0  0  0  0  0  0  0
    0.0000    2.7713    0.0000 H   0  0  0  0  0  0  0  0  0  0  0  0
    1.3856   -0.8000    0.0000 C   0  0  0  0  0  0  0  0  0  0  0  0
    2.7713   -1.6000    0.0000 H   0  0  0  0  0  0  0  0  0  0  0  0
    1.3856   -2.4000    0.0000 H   0  0  0  0  0  0  0  0  0  0  0  0
    2.7713   -0.0000    0.0000 H   0  0  0  0  0  0  0  0  0  0  0  0
   -0.8000   -1.3857    0.0000 C   0  0  0  0  0  0  0  0  0  0  0  0
   -1.6000   -2.7713    0.0000 H   0  0  0  0  0  0  0  0  0  0  0  0
   -2.4001   -1.3857    0.0000 H   0  0  0  0  0  0  0  0  0  0  0  0
    0.0000   -2.7713    0.0000 H   0  0  0  0  0  0  0  0  0  0  0  0
   -2.9857    0.8000    0.0000 C   0  0  0  0  0  0  0  0  0  0  0  0
   -3.1945   -0.7863    0.0000 H   0  0  0  0  0  0  0  0  0  0  0  0
   -4.2550   -0.1741    0.0000 H   0  0  0  0  0  0  0  0  0  0  0  0
   -3.7856    2.1857    0.0000 C   0  0  0  0  0  0  0  0  0  0  0  0
   -4.5857    3.5713    0.0000 H   0  0  0  0  0  0  0  0  0  0  0  0
   -5.3856    2.1857    0.0000 H   0  0  0  0  0  0  0  0  0  0  0  0
   -2.9857    3.5713    0.0000 H   0  0  0  0  0  0  0  0  0  0  0  0
  1  2  1  0  0  0  0
  2  3  1  0  0  0  0
  3  4  1  0  0  0  0
  3  5  1  0  0  0  0
  3  6  1  0  0  0  0
  2  7  1  0  0  0  0
  7  8  1  0  0  0  0
  7  9  1  0  0  0  0
  7 10  1  0  0  0  0
  2 11  1  0  0  0  0
 11 12  1  0  0  0  0
 11 13  1  0  0  0  0
 11 14  1  0  0  0  0
  1 15  1  0  0  0  0
 15 16  1  0  0  0  0
 15 17  1  0  0  0  0
 15 18  1  0  0  0  0
 18 19  1  0  0  0  0
 18 20  1  0  0  0  0
 18 21  1  0  0  0  0
M  END
> <ChemID>
100573

> <source_casrn>
637-92-3

> <CAS>
637-92-3

> <SMILES>
CCOC(C)(C)C

> <NAME>
ETHYL T-BUTYL ETHER

> <preferred_name>
2-Methyl-2-ethoxypropane

> <iupac>
tert-butyl ethyl ether

> <MPID>
99102

> <dsstox_substance_id>
DTXSID0025604

> <Canonical_QSARr>
CCOC(C)(C)C

> <InChI_Code_QSARr>
InChI=1S/C6H14O/c1-5-7-6(2,3)4/h5H2,1-4H3

> <InChI Key_QSARr>
NUMQCACRALPSHD-UHFFFAOYSA-N

> <OH>
8.84E-12

> <OH Temperature>
25.0

> <OH Data Type>
EXP

> <OH Reference>
KWOK,ESC & ATKINSON,R (1994)

> <LogOH>
-11.053547734986926

$$$$
100577
  -INDIGO-08031719142D

 11 10  0  0  0  0  0  0  0  0999 V2000
    1.3856    0.8000    0.0000 C   0  0  0  0  0  0  0  0  0  0  0  0
    2.7713    1.6000    0.0000 H   0  0  0  0  0  0  0  0  0  0  0  0
    2.7713    0.0000    0.0000 F   0  0  0  0  0  0  0  0  0  0  0  0
    1.3856    2.4000    0.0000 F   0  0  0  0  0  0  0  0  0  0  0  0
    0.0000    0.0000    0.0000 C   0  0  0  0  0  0  0  0  0  0  0  0
    0.6123   -1.4782    0.0000 F   0  0  0  0  0  0  0  0  0  0  0  0
   -0.6123   -1.4782    0.0000 F   0  0  0  0  0  0  0  0  0  0  0  0
   -1.3856    0.8000    0.0000 C   0  0  0  0  0  0  0  0  0  0  0  0
   -2.7713    1.6000    0.0000 H   0  0  0  0  0  0  0  0  0  0  0  0
   -2.7713    0.0000    0.0000 H   0  0  0  0  0  0  0  0  0  0  0  0
   -1.3856    2.4000    0.0000 F   0  0  0  0  0  0  0  0  0  0  0  0
  1  2  1  0  0  0  0
  1  3  1  0  0  0  0
  1  4  1  0  0  0  0
  1  5  1  0  0  0  0
  5  6  1  0  0  0  0
  5  7  1  0  0  0  0
  5  8  1  0  0  0  0
  8  9  1  0  0  0  0
  8 10  1  0  0  0  0
  8 11  1  0  0  0  0
M  END
> <ChemID>
100577

> <source_casrn>
679-86-7

> <CAS>
679-86-7

> <SMILES>
FCC(F)(F)C(F)F

> <NAME>
HFC-245 (pentafluoropropane)

> <preferred_name>
HFC-245ca

> <iupac>
1,1,2,2,3-Pentafluoropropane

> <MPID>
99105

> <dsstox_substance_id>
DTXSID3073925

> <Canonical_QSARr>
FCC(F)(F)C(F)F

> <InChI_Code_QSARr>
InChI=1S/C3H3F5/c4-1-3(7,8)2(5)6/h2H,1H2

> <InChI Key_QSARr>
AWTOFSDLNREIFS-UHFFFAOYSA-N

> <OH>
1.09E-14

> <OH Temperature>
25.0

> <OH Data Type>
EXP

> <OH Reference>
ZHANG,Z ET AL. (1994)

> <LogOH>
-13.962573502059382

$$$$
100579
  -INDIGO-08031719142D

 11 10  0  0  0  0  0  0  0  0999 V2000
   -1.3856    0.8000    0.0000 C   0  0  0  0  0  0  0  0  0  0  0  0
    0.0000    0.0000    0.0000 C   0  0  0  0  0  0  0  0  0  0  0  0
   -0.6123   -1.4782    0.0000 H   0  0  0  0  0  0  0  0  0  0  0  0
    0.6123   -1.4782    0.0000 H   0  0  0  0  0  0  0  0  0  0  0  0
    1.3856    0.8000    0.0000 C   0  0  0  0  0  0  0  0  0  0  0  0
    2.7713    1.6000    0.0000 F   0  0  0  0  0  0  0  0  0  0  0  0
    2.7713    0.0000    0.0000 F   0  0  0  0  0  0  0  0  0  0  0  0
    1.3856    2.4000    0.0000 F   0  0  0  0  0  0  0  0  0  0  0  0
   -2.7713    1.6000    0.0000 F   0  0  0  0  0  0  0  0  0  0  0  0
   -2.7713    0.0000    0.0000 F   0  0  0  0  0  0  0  0  0  0  0  0
   -1.3856    2.4000    0.0000 F   0  0  0  0  0  0  0  0  0  0  0  0
  1  2  1  0  0  0  0
  2  3  1  0  0  0  0
  2  4  1  0  0  0  0
  2  5  1  0  0  0  0
  5  6  1  0  0  0  0
  5  7  1  0  0  0  0
  5  8  1  0  0  0  0
  1  9  1  0  0  0  0
  1 10  1  0  0  0  0
  1 11  1  0  0  0  0
M  END
> <ChemID>
100579

> <source_casrn>
690-39-1

> <CAS>
690-39-1

> <SMILES>
FC(F)(F)CC(F)(F)F

> <NAME>
HFC-236fa (CF3CH2CF3)

> <preferred_name>
1,1,1,3,3,3-Hexafluoropropane

> <iupac>
1,1,1,3,3,3-hexafluoropropane

> <MPID>
99106

> <dsstox_substance_id>
DTXSID8052435

> <Canonical_QSARr>
FC(F)(F)CC(F)(F)F

> <InChI_Code_QSARr>
InChI=1S/C3H2F6/c4-2(5,6)1-3(7,8)9/h1H2

> <InChI Key_QSARr>
NSGXIBWMJZWTPY-UHFFFAOYSA-N

> <OH>
9.0E-16

> <OH Temperature>
25.0

> <OH Data Type>
EXP

> <OH Reference>
GARLAND,NL ET AL. (1993)

> <LogOH>
-15.045757490560668

$$$$
100583
  -INDIGO-08031719142D

 16 15  0  0  0  0  0  0  0  0999 V2000
    4.1569   -0.8000    0.0000 C   0  0  0  0  0  0  0  0  0  0  0  0
    5.5426   -1.6000    0.0000 H   0  0  0  0  0  0  0  0  0  0  0  0
    2.7713   -0.0000    0.0000 C   0  0  0  0  0  0  0  0  0  0  0  0
    1.3857    0.8000    0.0000 C   0  0  0  0  0  0  0  0  0  0  0  0
    1.9980    2.2782    0.0000 H   0  0  0  0  0  0  0  0  0  0  0  0
    0.7734    2.2782    0.0000 H   0  0  0  0  0  0  0  0  0  0  0  0
   -0.0001   -0.0000    0.0000 C   0  0  0  0  0  0  0  0  0  0  0  0
   -0.6124   -1.4782    0.0000 H   0  0  0  0  0  0  0  0  0  0  0  0
    0.6122   -1.4782    0.0000 H   0  0  0  0  0  0  0  0  0  0  0  0
   -1.3857    0.8000    0.0000 C   0  0  0  0  0  0  0  0  0  0  0  0
   -0.7734    2.2782    0.0000 H   0  0  0  0  0  0  0  0  0  0  0  0
   -1.9980    2.2782    0.0000 H   0  0  0  0  0  0  0  0  0  0  0  0
   -2.7713   -0.0000    0.0000 C   0  0  0  0  0  0  0  0  0  0  0  0
   -4.1569   -0.8000    0.0000 H   0  0  0  0  0  0  0  0  0  0  0  0
   -4.1569    0.8000    0.0000 H   0  0  0  0  0  0  0  0  0  0  0  0
   -2.7713   -1.6000    0.0000 H   0  0  0  0  0  0  0  0  0  0  0  0
  1  2  1  0  0  0  0
  1  3  3  0  0  0  0
  3  4  1  0  0  0  0
  4  5  1  0  0  0  0
  4  6  1  0  0  0  0
  4  7  1  0  0  0  0
  7  8  1  0  0  0  0
  7  9  1  0  0  0  0
  7 10  1  0  0  0  0
 10 11  1  0  0  0  0
 10 12  1  0  0  0  0
 10 13  1  0  0  0  0
 13 14  1  0  0  0  0
 13 15  1  0  0  0  0
 13 16  1  0  0  0  0
M  END
> <ChemID>
100583

> <source_casrn>
693-02-7

> <CAS>
NOCAS_870753

> <SMILES>
CCCCC#C

> <NAME>
1-HEXYNE

> <preferred_name>


> <iupac>


> <MPID>
99107

> <dsstox_substance_id>
DTXSID30870753

> <Canonical_QSARr>
CCCCC#C

> <InChI_Code_QSARr>
InChI=1S/C6H10/c1-3-5-6-4-2/h1H,4-6H2,2H3

> <InChI Key_QSARr>
CGHIBGNXEGJPQZ-UHFFFAOYSA-N

> <OH>
1.3E-11

> <OH Temperature>
25.0

> <OH Data Type>
EXP

> <OH Reference>
KWOK,ESC & ATKINSON,R (1994)

> <LogOH>
-10.886056647693158

$$$$
100584
  -INDIGO-08031719142D

 31 30  0  0  0  0  0  0  0  0999 V2000
    6.9281    0.8000    0.0000 C   0  0  0  0  0  0  0  0  0  0  0  0
    8.3138    1.6000    0.0000 H   0  0  0  0  0  0  0  0  0  0  0  0
    8.3138    0.0000    0.0000 H   0  0  0  0  0  0  0  0  0  0  0  0
    6.9281    2.4000    0.0000 H   0  0  0  0  0  0  0  0  0  0  0  0
    5.5427    0.0000    0.0000 C   0  0  0  0  0  0  0  0  0  0  0  0
    5.5427   -1.6000    0.0000 O   0  0  0  0  0  0  0  0  0  0  0  0
    4.1570    0.8000    0.0000 C   0  0  0  0  0  0  0  0  0  0  0  0
    4.7691    2.2782    0.0000 H   0  0  0  0  0  0  0  0  0  0  0  0
    3.5446    2.2782    0.0000 H   0  0  0  0  0  0  0  0  0  0  0  0
    2.7713    0.0000    0.0000 C   0  0  0  0  0  0  0  0  0  0  0  0
    2.1589   -1.4782    0.0000 H   0  0  0  0  0  0  0  0  0  0  0  0
    3.3836   -1.4782    0.0000 H   0  0  0  0  0  0  0  0  0  0  0  0
    1.3856    0.8000    0.0000 C   0  0  0  0  0  0  0  0  0  0  0  0
    1.9979    2.2782    0.0000 H   0  0  0  0  0  0  0  0  0  0  0  0
    0.7734    2.2782    0.0000 H   0  0  0  0  0  0  0  0  0  0  0  0
    0.0001    0.0000    0.0000 C   0  0  0  0  0  0  0  0  0  0  0  0
   -0.6123   -1.4782    0.0000 H   0  0  0  0  0  0  0  0  0  0  0  0
    0.6122   -1.4782    0.0000 H   0  0  0  0  0  0  0  0  0  0  0  0
   -1.3856    0.8000    0.0000 C   0  0  0  0  0  0  0  0  0  0  0  0
   -0.7732    2.2782    0.0000 H   0  0  0  0  0  0  0  0  0  0  0  0
   -1.9980    2.2782    0.0000 H   0  0  0  0  0  0  0  0  0  0  0  0
   -2.7713    0.0000    0.0000 C   0  0  0  0  0  0  0  0  0  0  0  0
   -3.3835   -1.4782    0.0000 H   0  0  0  0  0  0  0  0  0  0  0  0
   -2.1589   -1.4782    0.0000 H   0  0  0  0  0  0  0  0  0  0  0  0
   -4.1570    0.8000    0.0000 C   0  0  0  0  0  0  0  0  0  0  0  0
   -3.5446    2.2782    0.0000 H   0  0  0  0  0  0  0  0  0  0  0  0
   -4.7692    2.2782    0.0000 H   0  0  0  0  0  0  0  0  0  0  0  0
   -5.5425    0.0000    0.0000 C   0  0  0  0  0  0  0  0  0  0  0  0
   -6.9282   -0.8000    0.0000 H   0  0  0  0  0  0  0  0  0  0  0  0
   -6.9282    0.8000    0.0000 H   0  0  0  0  0  0  0  0  0  0  0  0
   -5.5425   -1.6000    0.0000 H   0  0  0  0  0  0  0  0  0  0  0  0
  1  2  1  0  0  0  0
  1  3  1  0  0  0  0
  1  4  1  0  0  0  0
  1  5  1  0  0  0  0
  5  6  2  0  0  0  0
  5  7  1  0  0  0  0
  7  8  1  0  0  0  0
  7  9  1  0  0  0  0
  7 10  1  0  0  0  0
 10 11  1  0  0  0  0
 10 12  1  0  0  0  0
 10 13  1  0  0  0  0
 13 14  1  0  0  0  0
 13 15  1  0  0  0  0
 13 16  1  0  0  0  0
 16 17  1  0  0  0  0
 16 18  1  0  0  0  0
 16 19  1  0  0  0  0
 19 20  1  0  0  0  0
 19 21  1  0  0  0  0
 19 22  1  0  0  0  0
 22 23  1  0  0  0  0
 22 24  1  0  0  0  0
 22 25  1  0  0  0  0
 25 26  1  0  0  0  0
 25 27  1  0  0  0  0
 25 28  1  0  0  0  0
 28 29  1  0  0  0  0
 28 30  1  0  0  0  0
 28 31  1  0  0  0  0
M  END
> <ChemID>
100584

> <source_casrn>
693-54-9

> <CAS>
693-54-9

> <SMILES>
CCCCCCCCC(C)=O

> <NAME>
2-DECANONE

> <preferred_name>
2-Decanone

> <iupac>
decan-2-one

> <MPID>
99108

> <dsstox_substance_id>
DTXSID9022104

> <Canonical_QSARr>
CCCCCCCCC(C)=O

> <InChI_Code_QSARr>
InChI=1S/C10H20O/c1-3-4-5-6-7-8-9-10(2)11/h3-9H2,1-2H3

> <InChI Key_QSARr>
ZAJNGDIORYACQU-UHFFFAOYSA-N

> <OH>
1.32E-11

> <OH Temperature>
25.0

> <OH Data Type>
EXP

> <OH Reference>
ATKINSON,R (1989)

> <LogOH>
-10.879426068794139

$$$$
100586
  -INDIGO-08031719142D

 22 23  0  0  0  0  0  0  0  0999 V2000
    0.0000   -0.0000    0.0000 C   0  0  0  0  0  0  0  0  0  0  0  0
    0.3326    1.5650    0.0000 H   0  0  0  0  0  0  0  0  0  0  0  0
    1.5912    0.1673    0.0000 C   0  0  0  0  0  0  0  0  0  0  0  0
    1.5354    1.7663    0.0000 H   0  0  0  0  0  0  0  0  0  0  0  0
    3.1129    0.6617    0.0000 H   0  0  0  0  0  0  0  0  0  0  0  0
    2.2421   -1.2945    0.0000 C   0  0  0  0  0  0  0  0  0  0  0  0
    3.6277   -0.4944    0.0000 H   0  0  0  0  0  0  0  0  0  0  0  0
    3.1825   -2.5889    0.0000 H   0  0  0  0  0  0  0  0  0  0  0  0
    1.0529   -2.3651    0.0000 C   0  0  0  0  0  0  0  0  0  0  0  0
    2.2421   -3.4357    0.0000 H   0  0  0  0  0  0  0  0  0  0  0  0
    0.3516   -3.8031    0.0000 H   0  0  0  0  0  0  0  0  0  0  0  0
   -0.3327   -1.5650    0.0000 C   0  0  0  0  0  0  0  0  0  0  0  0
   -0.6653   -3.1301    0.0000 H   0  0  0  0  0  0  0  0  0  0  0  0
   -1.9239   -1.7323    0.0000 C   0  0  0  0  0  0  0  0  0  0  0  0
   -1.8681   -3.3313    0.0000 H   0  0  0  0  0  0  0  0  0  0  0  0
   -3.4455   -2.2267    0.0000 H   0  0  0  0  0  0  0  0  0  0  0  0
   -2.5747   -0.2706    0.0000 C   0  0  0  0  0  0  0  0  0  0  0  0
   -3.9603   -1.0706    0.0000 H   0  0  0  0  0  0  0  0  0  0  0  0
   -3.5151    1.0238    0.0000 H   0  0  0  0  0  0  0  0  0  0  0  0
   -1.3856    0.8000    0.0000 C   0  0  0  0  0  0  0  0  0  0  0  0
   -2.5747    1.8706    0.0000 H   0  0  0  0  0  0  0  0  0  0  0  0
   -0.6843    2.2381    0.0000 H   0  0  0  0  0  0  0  0  0  0  0  0
  1  2  1  0  0  0  0
  1  3  1  0  0  0  0
  3  4  1  0  0  0  0
  3  5  1  0  0  0  0
  3  6  1  0  0  0  0
  6  7  1  0  0  0  0
  6  8  1  0  0  0  0
  6  9  1  0  0  0  0
  9 10  1  0  0  0  0
  9 11  1  0  0  0  0
  9 12  1  0  0  0  0
 12  1  1  0  0  0  0
 12 13  1  0  0  0  0
 12 14  1  0  0  0  0
 14 15  1  0  0  0  0
 14 16  1  0  0  0  0
 14 17  1  0  0  0  0
 17 18  1  0  0  0  0
 17 19  1  0  0  0  0
 17 20  1  0  0  0  0
 20  1  1  0  0  0  0
 20 21  1  0  0  0  0
 20 22  1  0  0  0  0
M  END
> <ChemID>
100586

> <source_casrn>
694-72-4

> <CAS>
694-72-4

> <SMILES>
C1CCC2CCCC21

> <NAME>
Bicyclo[3.3.0]octane

> <preferred_name>
Pentalene, octahydro-

> <iupac>
1,2,3,3a,4,5,6,6a-octahydropentalene

> <MPID>
99110

> <dsstox_substance_id>
DTXSID7075054

> <Canonical_QSARr>
C1CCC2CCCC21

> <InChI_Code_QSARr>
InChI=1S/C8H14/c1-3-7-5-2-6-8(7)4-1/h7-8H,1-6H2

> <InChI Key_QSARr>
AEBWATHAIVJLTA-UHFFFAOYSA-N

> <OH>
1.1E-11

> <OH Temperature>
25.0

> <OH Data Type>
EXP

> <OH Reference>
LEIFER,A ET AL. (1993)

> <LogOH>
-10.958607314841784

$$$$
100588
  -INDIGO-08031719142D

 10  9  0  0  0  0  0  0  0  0999 V2000
   -1.3856    0.8000    0.0000 C   0  0  0  0  0  0  0  0  0  0  0  0
    0.0000    0.0000    0.0000 C   0  0  0  0  0  0  0  0  0  0  0  0
   -0.6123   -1.4782    0.0000 H   0  0  0  0  0  0  0  0  0  0  0  0
    0.6123   -1.4782    0.0000 H   0  0  0  0  0  0  0  0  0  0  0  0
    1.3856    0.8000    0.0000 N   0  0  0  0  0  0  0  0  0  0  0  0
    2.7713    0.0000    0.0000 H   0  0  0  0  0  0  0  0  0  0  0  0
    1.3856    2.4000    0.0000 H   0  0  0  0  0  0  0  0  0  0  0  0
   -2.7713    1.6000    0.0000 F   0  0  0  0  0  0  0  0  0  0  0  0
   -2.7713    0.0000    0.0000 F   0  0  0  0  0  0  0  0  0  0  0  0
   -1.3856    2.4000    0.0000 F   0  0  0  0  0  0  0  0  0  0  0  0
  1  2  1  0  0  0  0
  2  3  1  0  0  0  0
  2  4  1  0  0  0  0
  2  5  1  0  0  0  0
  5  6  1  0  0  0  0
  5  7  1  0  0  0  0
  1  8  1  0  0  0  0
  1  9  1  0  0  0  0
  1 10  1  0  0  0  0
M  END
> <ChemID>
100588

> <source_casrn>
753-90-2

> <CAS>
753-90-2

> <SMILES>
NCC(F)(F)F

> <NAME>
2,2,2-TRIFLUOROETHYLAMINE

> <preferred_name>
Ethanamine, 2,2,2-trifluoro-

> <iupac>
2,2,2-trifluoroacetonitrile

> <MPID>
99111

> <dsstox_substance_id>
DTXSID6061070

> <Canonical_QSARr>
NCC(F)(F)F

> <InChI_Code_QSARr>
InChI=1S/C2H4F3N/c3-2(4,5)1-6/h1,6H2

> <InChI Key_QSARr>
KIPSRYDSZQRPEA-UHFFFAOYSA-N

> <OH>
9.299999999999999E-13

> <OH Temperature>
25.0

> <OH Data Type>
EXP

> <OH Reference>
KOCH,R ET AL. (1996)

> <LogOH>
-12.03151705144607

$$$$
100590
  -INDIGO-08031719142D

 31 30  0  0  0  0  0  0  0  0999 V2000
   -0.8000   -1.3856    0.0000 C   0  0  0  0  0  0  0  0  0  0  0  0
    0.0000    0.0000    0.0000 N   0  0  0  0  0  0  0  0  0  0  0  0
   -0.8000    1.3857    0.0000 C   0  0  0  0  0  0  0  0  0  0  0  0
   -0.5911    2.9719    0.0000 H   0  0  0  0  0  0  0  0  0  0  0  0
    0.4693    2.3597    0.0000 H   0  0  0  0  0  0  0  0  0  0  0  0
   -2.4000    1.3857    0.0000 C   0  0  0  0  0  0  0  0  0  0  0  0
   -2.6089   -0.2007    0.0000 H   0  0  0  0  0  0  0  0  0  0  0  0
   -3.6693    0.4116    0.0000 H   0  0  0  0  0  0  0  0  0  0  0  0
   -3.2000    2.7713    0.0000 C   0  0  0  0  0  0  0  0  0  0  0  0
   -4.0000    4.1569    0.0000 H   0  0  0  0  0  0  0  0  0  0  0  0
   -4.8000    2.7713    0.0000 H   0  0  0  0  0  0  0  0  0  0  0  0
   -2.4000    4.1569    0.0000 H   0  0  0  0  0  0  0  0  0  0  0  0
    1.6000    0.0000    0.0000 C   0  0  0  0  0  0  0  0  0  0  0  0
    1.8089    1.5863    0.0000 H   0  0  0  0  0  0  0  0  0  0  0  0
    2.8693    0.9741    0.0000 H   0  0  0  0  0  0  0  0  0  0  0  0
    2.4000   -1.3856    0.0000 C   0  0  0  0  0  0  0  0  0  0  0  0
    2.1911   -2.9720    0.0000 H   0  0  0  0  0  0  0  0  0  0  0  0
    1.1307   -2.3596    0.0000 H   0  0  0  0  0  0  0  0  0  0  0  0
    4.0000   -1.3856    0.0000 C   0  0  0  0  0  0  0  0  0  0  0  0
    5.6000   -1.3856    0.0000 H   0  0  0  0  0  0  0  0  0  0  0  0
    4.8000   -2.7712    0.0000 H   0  0  0  0  0  0  0  0  0  0  0  0
    4.8000    0.0000    0.0000 H   0  0  0  0  0  0  0  0  0  0  0  0
    0.0000   -2.7712    0.0000 O   0  0  0  0  0  0  0  0  0  0  0  0
   -2.4000   -1.3856    0.0000 S   0  0  0  0  0  0  0  0  0  0  0  0
   -3.2000   -2.7712    0.0000 C   0  0  0  0  0  0  0  0  0  0  0  0
   -1.9307   -3.7453    0.0000 H   0  0  0  0  0  0  0  0  0  0  0  0
   -2.9911   -4.3576    0.0000 H   0  0  0  0  0  0  0  0  0  0  0  0
   -4.8000   -2.7712    0.0000 C   0  0  0  0  0  0  0  0  0  0  0  0
   -6.4000   -2.7712    0.0000 H   0  0  0  0  0  0  0  0  0  0  0  0
   -5.6000   -4.1569    0.0000 H   0  0  0  0  0  0  0  0  0  0  0  0
   -5.6000   -1.3856    0.0000 H   0  0  0  0  0  0  0  0  0  0  0  0
  1  2  1  0  0  0  0
  2  3  1  0  0  0  0
  3  4  1  0  0  0  0
  3  5  1  0  0  0  0
  3  6  1  0  0  0  0
  6  7  1  0  0  0  0
  6  8  1  0  0  0  0
  6  9  1  0  0  0  0
  9 10  1  0  0  0  0
  9 11  1  0  0  0  0
  9 12  1  0  0  0  0
  2 13  1  0  0  0  0
 13 14  1  0  0  0  0
 13 15  1  0  0  0  0
 13 16  1  0  0  0  0
 16 17  1  0  0  0  0
 16 18  1  0  0  0  0
 16 19  1  0  0  0  0
 19 20  1  0  0  0  0
 19 21  1  0  0  0  0
 19 22  1  0  0  0  0
  1 23  2  0  0  0  0
  1 24  1  0  0  0  0
 24 25  1  0  0  0  0
 25 26  1  0  0  0  0
 25 27  1  0  0  0  0
 25 28  1  0  0  0  0
 28 29  1  0  0  0  0
 28 30  1  0  0  0  0
 28 31  1  0  0  0  0
M  END
> <ChemID>
100590

> <source_casrn>
759-94-4

> <CAS>
759-94-4

> <SMILES>
CCSC(=O)N(CCC)CCC

> <NAME>
EPTAM (EPTC)

> <preferred_name>
EPTC

> <iupac>
S-ethyl dipropylcarbamothioate

> <MPID>
99113

> <dsstox_substance_id>
DTXSID1024091

> <Canonical_QSARr>
CCSC(=O)N(CCC)CCC

> <InChI_Code_QSARr>
InChI=1S/C9H19NOS/c1-4-7-10(8-5-2)9(11)12-6-3/h4-8H2,1-3H3

> <InChI Key_QSARr>
GUVLYNGULCJVDO-UHFFFAOYSA-N

> <OH>
3.18E-11

> <OH Temperature>
25.0

> <OH Data Type>
EXP

> <OH Reference>
KWOK,ESC (1993)

> <LogOH>
-10.497572880015559

$$$$
100591
  -INDIGO-08031719142D

 17 16  0  0  0  0  0  0  0  0999 V2000
    1.3856   -0.8000    0.0000 O   0  0  0  0  0  0  0  0  0  0  0  0
    0.0000    0.0000    0.0000 C   0  0  0  0  0  0  0  0  0  0  0  0
    0.8000    1.3856    0.0000 C   0  0  0  0  0  0  0  0  0  0  0  0
    1.6000    2.7713    0.0000 H   0  0  0  0  0  0  0  0  0  0  0  0
    0.0000    2.7713    0.0000 H   0  0  0  0  0  0  0  0  0  0  0  0
    2.4000    1.3856    0.0000 H   0  0  0  0  0  0  0  0  0  0  0  0
   -1.3856    0.8000    0.0000 C   0  0  0  0  0  0  0  0  0  0  0  0
   -2.7713    1.6000    0.0000 H   0  0  0  0  0  0  0  0  0  0  0  0
   -2.7713    0.0000    0.0000 H   0  0  0  0  0  0  0  0  0  0  0  0
   -1.3856    2.4000    0.0000 H   0  0  0  0  0  0  0  0  0  0  0  0
   -0.8000   -1.3856    0.0000 C   0  0  0  0  0  0  0  0  0  0  0  0
   -1.6000   -2.7713    0.0000 H   0  0  0  0  0  0  0  0  0  0  0  0
    0.0000   -2.7713    0.0000 H   0  0  0  0  0  0  0  0  0  0  0  0
   -2.4000   -1.3856    0.0000 H   0  0  0  0  0  0  0  0  0  0  0  0
    2.9613   -0.5222    0.0000 C   0  0  0  0  0  0  0  0  0  0  0  0
    3.9898   -1.7479    0.0000 H   0  0  0  0  0  0  0  0  0  0  0  0
    3.5085    0.9814    0.0000 O   0  0  0  0  0  0  0  0  0  0  0  0
  1  2  1  0  0  0  0
  2  3  1  0  0  0  0
  3  4  1  0  0  0  0
  3  5  1  0  0  0  0
  3  6  1  0  0  0  0
  2  7  1  0  0  0  0
  7  8  1  0  0  0  0
  7  9  1  0  0  0  0
  7 10  1  0  0  0  0
  2 11  1  0  0  0  0
 11 12  1  0  0  0  0
 11 13  1  0  0  0  0
 11 14  1  0  0  0  0
  1 15  1  0  0  0  0
 15 16  1  0  0  0  0
 15 17  2  0  0  0  0
M  END
> <ChemID>
100591

> <source_casrn>
762-75-4

> <CAS>
762-75-4

> <SMILES>
CC(C)(C)OC=O

> <NAME>
tert-Butyl formate

> <preferred_name>
tert-Butyl formate

> <iupac>
tert-butyl formate

> <MPID>
99114

> <dsstox_substance_id>
DTXSID4024690

> <Canonical_QSARr>
CC(C)(C)OC=O

> <InChI_Code_QSARr>
InChI=1S/C5H10O2/c1-5(2,3)7-4-6/h4H,1-3H3

> <InChI Key_QSARr>
RUPAXCPQAAOIPB-UHFFFAOYSA-N

> <OH>
7.37E-13

> <OH Temperature>
25.0

> <OH Data Type>
EXP

> <OH Reference>
KWOK,ESC & ATKINSON,R (1994)

> <LogOH>
-12.132532512140969

$$$$
100592
  -INDIGO-08031719142D

 18 17  0  0  0  0  0  0  0  0999 V2000
   -1.3856    0.8000    0.0000 C   0  0  0  0  0  0  0  0  0  0  0  0
    0.0001    0.0000    0.0000 C   0  0  0  0  0  0  0  0  0  0  0  0
    0.6123   -1.4782    0.0000 H   0  0  0  0  0  0  0  0  0  0  0  0
   -0.6123   -1.4782    0.0000 H   0  0  0  0  0  0  0  0  0  0  0  0
    1.3856    0.8000    0.0000 C   0  0  0  0  0  0  0  0  0  0  0  0
    0.7734    2.2782    0.0000 H   0  0  0  0  0  0  0  0  0  0  0  0
    1.9979    2.2782    0.0000 H   0  0  0  0  0  0  0  0  0  0  0  0
    2.7713    0.0000    0.0000 C   0  0  0  0  0  0  0  0  0  0  0  0
    4.1569   -0.8000    0.0000 H   0  0  0  0  0  0  0  0  0  0  0  0
    4.1569    0.8000    0.0000 H   0  0  0  0  0  0  0  0  0  0  0  0
    2.7713   -1.6000    0.0000 H   0  0  0  0  0  0  0  0  0  0  0  0
   -2.7713    0.0000    0.0000 C   0  0  0  0  0  0  0  0  0  0  0  0
   -4.1569   -0.8000    0.0000 H   0  0  0  0  0  0  0  0  0  0  0  0
   -4.1569    0.8000    0.0000 H   0  0  0  0  0  0  0  0  0  0  0  0
   -2.7713   -1.6000    0.0000 H   0  0  0  0  0  0  0  0  0  0  0  0
   -1.3856    2.4000    0.0000 C   0  0  0  0  0  0  0  0  0  0  0  0
   -2.7713    3.2000    0.0000 H   0  0  0  0  0  0  0  0  0  0  0  0
   -0.0001    3.2000    0.0000 H   0  0  0  0  0  0  0  0  0  0  0  0
  1  2  1  0  0  0  0
  2  3  1  0  0  0  0
  2  4  1  0  0  0  0
  2  5  1  0  0  0  0
  5  6  1  0  0  0  0
  5  7  1  0  0  0  0
  5  8  1  0  0  0  0
  8  9  1  0  0  0  0
  8 10  1  0  0  0  0
  8 11  1  0  0  0  0
  1 12  1  0  0  0  0
 12 13  1  0  0  0  0
 12 14  1  0  0  0  0
 12 15  1  0  0  0  0
  1 16  2  0  0  0  0
 16 17  1  0  0  0  0
 16 18  1  0  0  0  0
M  END
> <ChemID>
100592

> <source_casrn>
763-29-1

> <CAS>
763-29-1

> <SMILES>
CCCC(C)=C

> <NAME>
2-METHYL-1-PENTENE

> <preferred_name>
2-Methylbut-1-ene

> <iupac>
2-methylpent-1-ene

> <MPID>
99115

> <dsstox_substance_id>
DTXSID9052505

> <Canonical_QSARr>
CCCC(C)=C

> <InChI_Code_QSARr>
InChI=1S/C6H12/c1-4-5-6(2)3/h2,4-5H2,1,3H3

> <InChI Key_QSARr>
WWUVJRULCWHUSA-UHFFFAOYSA-N

> <OH>
6.299999999999999E-11

> <OH Temperature>
25.0

> <OH Data Type>
EXP

> <OH Reference>
KWOK,ESC & ATKINSON,R (1994)

> <LogOH>
-10.20065945054641

$$$$
100594
  -INDIGO-08031719142D

 24 23  0  0  0  0  0  0  0  0999 V2000
   -1.3856    0.8000    0.0000 C   0  0  0  0  0  0  0  0  0  0  0  0
    0.0001    0.0000    0.0000 C   0  0  0  0  0  0  0  0  0  0  0  0
    0.6122   -1.4782    0.0000 H   0  0  0  0  0  0  0  0  0  0  0  0
   -0.6122   -1.4782    0.0000 H   0  0  0  0  0  0  0  0  0  0  0  0
    1.3856    0.8000    0.0000 C   0  0  0  0  0  0  0  0  0  0  0  0
    0.7733    2.2782    0.0000 H   0  0  0  0  0  0  0  0  0  0  0  0
    1.9980    2.2782    0.0000 H   0  0  0  0  0  0  0  0  0  0  0  0
    2.7714    0.0000    0.0000 O   0  0  0  0  0  0  0  0  0  0  0  0
    4.1569    0.8000    0.0000 C   0  0  0  0  0  0  0  0  0  0  0  0
    3.5446    2.2782    0.0000 H   0  0  0  0  0  0  0  0  0  0  0  0
    4.7692    2.2782    0.0000 H   0  0  0  0  0  0  0  0  0  0  0  0
    5.5427    0.0000    0.0000 C   0  0  0  0  0  0  0  0  0  0  0  0
    6.9282   -0.8000    0.0000 H   0  0  0  0  0  0  0  0  0  0  0  0
    6.9282    0.8000    0.0000 H   0  0  0  0  0  0  0  0  0  0  0  0
    5.5427   -1.6000    0.0000 H   0  0  0  0  0  0  0  0  0  0  0  0
   -2.7712    0.0000    0.0000 O   0  0  0  0  0  0  0  0  0  0  0  0
   -4.1569    0.8000    0.0000 C   0  0  0  0  0  0  0  0  0  0  0  0
   -4.7692    2.2782    0.0000 H   0  0  0  0  0  0  0  0  0  0  0  0
   -3.5446    2.2782    0.0000 H   0  0  0  0  0  0  0  0  0  0  0  0
   -5.5425    0.0000    0.0000 C   0  0  0  0  0  0  0  0  0  0  0  0
   -6.9282   -0.8000    0.0000 H   0  0  0  0  0  0  0  0  0  0  0  0
   -6.9282    0.8000    0.0000 H   0  0  0  0  0  0  0  0  0  0  0  0
   -5.5425   -1.6000    0.0000 H   0  0  0  0  0  0  0  0  0  0  0  0
   -1.3856    2.4000    0.0000 O   0  0  0  0  0  0  0  0  0  0  0  0
  1  2  1  0  0  0  0
  2  3  1  0  0  0  0
  2  4  1  0  0  0  0
  2  5  1  0  0  0  0
  5  6  1  0  0  0  0
  5  7  1  0  0  0  0
  5  8  1  0  0  0  0
  8  9  1  0  0  0  0
  9 10  1  0  0  0  0
  9 11  1  0  0  0  0
  9 12  1  0  0  0  0
 12 13  1  0  0  0  0
 12 14  1  0  0  0  0
 12 15  1  0  0  0  0
  1 16  1  0  0  0  0
 16 17  1  0  0  0  0
 17 18  1  0  0  0  0
 17 19  1  0  0  0  0
 17 20  1  0  0  0  0
 20 21  1  0  0  0  0
 20 22  1  0  0  0  0
 20 23  1  0  0  0  0
  1 24  2  0  0  0  0
M  END
> <ChemID>
100594

> <source_casrn>
763-69-9

> <CAS>
763-69-9

> <SMILES>
CCOC(=O)CCOCC

> <NAME>
ETHYL 3-ETHOXYPROPANOATE

> <preferred_name>
Ethyl 3-ethoxypropionate

> <iupac>
ethyl 3-ethoxypropanoate

> <MPID>
99117

> <dsstox_substance_id>
DTXSID0027309

> <Canonical_QSARr>
CCOC(=O)CCOCC

> <InChI_Code_QSARr>
InChI=1S/C7H14O3/c1-3-9-6-5-7(8)10-4-2/h3-6H2,1-2H3

> <InChI Key_QSARr>
BHXIWUJLHYHGSJ-UHFFFAOYSA-N

> <OH>
2.29E-11

> <OH Temperature>
24.0

> <OH Data Type>
EXP

> <OH Reference>
BAXLEY,JS ET AL. (1997)

> <LogOH>
-10.64016451766013

$$$$
100595
  -INDIGO-08031719142D

 22 21  0  0  0  0  0  0  0  0999 V2000
    0.8001   -1.3856    0.0000 C   0  0  0  0  0  0  0  0  0  0  0  0
    1.6000   -2.7713    0.0000 H   0  0  0  0  0  0  0  0  0  0  0  0
    0.0000   -2.7713    0.0000 H   0  0  0  0  0  0  0  0  0  0  0  0
    2.4000   -1.3856    0.0000 H   0  0  0  0  0  0  0  0  0  0  0  0
    0.0000    0.0000    0.0000 C   0  0  0  0  0  0  0  0  0  0  0  0
    0.8001    1.3856    0.0000 C   0  0  0  0  0  0  0  0  0  0  0  0
    1.6000    2.7713    0.0000 H   0  0  0  0  0  0  0  0  0  0  0  0
    2.4000    1.3856    0.0000 H   0  0  0  0  0  0  0  0  0  0  0  0
    0.0000    2.7713    0.0000 H   0  0  0  0  0  0  0  0  0  0  0  0
   -1.6000    0.0000    0.0000 C   0  0  0  0  0  0  0  0  0  0  0  0
   -2.4000   -1.3856    0.0000 H   0  0  0  0  0  0  0  0  0  0  0  0
   -2.4000    1.3856    0.0000 C   0  0  0  0  0  0  0  0  0  0  0  0
   -1.6000    2.7713    0.0000 H   0  0  0  0  0  0  0  0  0  0  0  0
   -4.0000    1.3856    0.0000 C   0  0  0  0  0  0  0  0  0  0  0  0
   -4.8001    2.7713    0.0000 C   0  0  0  0  0  0  0  0  0  0  0  0
   -5.6000    4.1569    0.0000 H   0  0  0  0  0  0  0  0  0  0  0  0
   -6.4000    2.7713    0.0000 H   0  0  0  0  0  0  0  0  0  0  0  0
   -4.0000    4.1569    0.0000 H   0  0  0  0  0  0  0  0  0  0  0  0
   -4.8001    0.0000    0.0000 C   0  0  0  0  0  0  0  0  0  0  0  0
   -5.6000   -1.3856    0.0000 H   0  0  0  0  0  0  0  0  0  0  0  0
   -6.4000    0.0000    0.0000 H   0  0  0  0  0  0  0  0  0  0  0  0
   -4.0000   -1.3856    0.0000 H   0  0  0  0  0  0  0  0  0  0  0  0
  1  2  1  0  0  0  0
  1  3  1  0  0  0  0
  1  4  1  0  0  0  0
  1  5  1  0  0  0  0
  5  6  1  0  0  0  0
  6  7  1  0  0  0  0
  6  8  1  0  0  0  0
  6  9  1  0  0  0  0
  5 10  2  0  0  0  0
 10 11  1  0  0  0  0
 10 12  1  0  0  0  0
 12 13  1  0  0  0  0
 12 14  2  0  0  0  0
 14 15  1  0  0  0  0
 15 16  1  0  0  0  0
 15 17  1  0  0  0  0
 15 18  1  0  0  0  0
 14 19  1  0  0  0  0
 19 20  1  0  0  0  0
 19 21  1  0  0  0  0
 19 22  1  0  0  0  0
M  END
> <ChemID>
100595

> <source_casrn>
764-13-6

> <CAS>
764-13-6

> <SMILES>
CC(C)=CC=C(C)C

> <NAME>
2,5-DIMETHYL-2,4-HEXADIENE

> <preferred_name>
2,5-Dimethyl-2,4-hexadiene

> <iupac>
2,5-dimethylhexa-2,4-diene

> <MPID>
99118

> <dsstox_substance_id>
DTXSID3022116

> <Canonical_QSARr>
CC(C)=CC=C(C)C

> <InChI_Code_QSARr>
InChI=1S/C8H14/c1-7(2)5-6-8(3)4/h5-6H,1-4H3

> <InChI Key_QSARr>
DZPCYXCBXGQBRN-UHFFFAOYSA-N

> <OH>
2.1E-10

> <OH Temperature>
25.0

> <OH Data Type>
EXP

> <OH Reference>
ATKINSON,R (1989)

> <LogOH>
-9.677780705266088

$$$$
100597
  -INDIGO-08031719142D

 22 22  0  0  0  0  0  0  0  0999 V2000
   -2.7713   -0.0000    0.0000 C   0  0  0  0  0  0  0  0  0  0  0  0
   -2.7713   -1.6000    0.0000 C   0  0  0  0  0  0  0  0  0  0  0  0
   -1.3856   -2.4000    0.0000 H   0  0  0  0  0  0  0  0  0  0  0  0
   -4.1570   -2.4000    0.0000 C   0  0  0  0  0  0  0  0  0  0  0  0
   -4.1570   -4.0000    0.0000 H   0  0  0  0  0  0  0  0  0  0  0  0
   -5.5426   -1.6000    0.0000 C   0  0  0  0  0  0  0  0  0  0  0  0
   -6.9282   -2.4000    0.0000 H   0  0  0  0  0  0  0  0  0  0  0  0
   -5.5426   -0.0000    0.0000 C   0  0  0  0  0  0  0  0  0  0  0  0
   -6.9282    0.8000    0.0000 H   0  0  0  0  0  0  0  0  0  0  0  0
   -4.1570    0.8000    0.0000 C   0  0  0  0  0  0  0  0  0  0  0  0
   -4.1570    2.4000    0.0000 H   0  0  0  0  0  0  0  0  0  0  0  0
   -1.3856    0.8000    0.0000 C   0  0  0  0  0  0  0  0  0  0  0  0
   -1.3856    2.4000    0.0000 H   0  0  0  0  0  0  0  0  0  0  0  0
    0.0000   -0.0000    0.0000 C   0  0  0  0  0  0  0  0  0  0  0  0
    1.3857    0.8000    0.0000 C   0  0  0  0  0  0  0  0  0  0  0  0
    2.7713    1.6000    0.0000 H   0  0  0  0  0  0  0  0  0  0  0  0
    2.7713   -0.0000    0.0000 H   0  0  0  0  0  0  0  0  0  0  0  0
    1.3857    2.4000    0.0000 H   0  0  0  0  0  0  0  0  0  0  0  0
    0.0000   -1.6000    0.0000 C   0  0  0  0  0  0  0  0  0  0  0  0
    1.3857   -2.4000    0.0000 H   0  0  0  0  0  0  0  0  0  0  0  0
    0.0000   -3.2000    0.0000 H   0  0  0  0  0  0  0  0  0  0  0  0
    1.3857   -0.8000    0.0000 H   0  0  0  0  0  0  0  0  0  0  0  0
  1  2  1  0  0  0  0
  2  3  1  0  0  0  0
  2  4  2  0  0  0  0
  4  5  1  0  0  0  0
  4  6  1  0  0  0  0
  6  7  1  0  0  0  0
  6  8  2  0  0  0  0
  8  9  1  0  0  0  0
  8 10  1  0  0  0  0
 10  1  2  0  0  0  0
 10 11  1  0  0  0  0
  1 12  1  0  0  0  0
 12 13  1  0  0  0  0
 12 14  2  0  0  0  0
 14 15  1  0  0  0  0
 15 16  1  0  0  0  0
 15 17  1  0  0  0  0
 15 18  1  0  0  0  0
 14 19  1  0  0  0  0
 19 20  1  0  0  0  0
 19 21  1  0  0  0  0
 19 22  1  0  0  0  0
M  END
> <ChemID>
100597

> <source_casrn>
768-49-0

> <CAS>
768-49-0

> <SMILES>
CC(C)=Cc1ccccc1

> <NAME>
(2-METHYL-1-PROPENYL)BENZENE

> <preferred_name>
(2-Methyl-1-propenyl)benzene

> <iupac>
2-methylprop-1-enylbenzene

> <MPID>
99119

> <dsstox_substance_id>
DTXSID0061111

> <Canonical_QSARr>
CC(C)=Cc1ccccc1

> <InChI_Code_QSARr>
InChI=1S/C10H12/c1-9(2)8-10-6-4-3-5-7-10/h3-8H,1-2H3

> <InChI Key_QSARr>
BTOVVHWKPVSLBI-UHFFFAOYSA-N

> <OH>
3.3E-11

> <OH Temperature>
25.0

> <OH Data Type>
EXP

> <OH Reference>
ATKINSON,R (1989)

> <LogOH>
-10.481486060122124

$$$$
100599
  -INDIGO-08031719142D

  8  7  0  0  0  0  0  0  0  0999 V2000
    0.8000    1.3856    0.0000 F   0  0  0  0  0  0  0  0  0  0  0  0
    0.0000    0.0000    0.0000 C   0  0  0  0  0  0  0  0  0  0  0  0
    1.6000   -0.0000    0.0000 H   0  0  0  0  0  0  0  0  0  0  0  0
    0.8000   -1.3856    0.0000 H   0  0  0  0  0  0  0  0  0  0  0  0
   -1.6000    0.0000    0.0000 C   0  0  0  0  0  0  0  0  0  0  0  0
   -3.2000    0.0000    0.0000 F   0  0  0  0  0  0  0  0  0  0  0  0
   -2.4000   -1.3856    0.0000 F   0  0  0  0  0  0  0  0  0  0  0  0
   -2.4000    1.3856    0.0000 F   0  0  0  0  0  0  0  0  0  0  0  0
  1  2  1  0  0  0  0
  2  3  1  0  0  0  0
  2  4  1  0  0  0  0
  2  5  1  0  0  0  0
  5  6  1  0  0  0  0
  5  7  1  0  0  0  0
  5  8  1  0  0  0  0
M  END
> <ChemID>
100599

> <source_casrn>
811-97-2

> <CAS>
811-97-2

> <SMILES>
FCC(F)(F)F

> <NAME>
1,1,1,2-TETRAFLUOROETHANE

> <preferred_name>
1,1,1,2-Tetrafluoroethane

> <iupac>
1,1,1,2-tetrafluoroethane

> <MPID>
99121

> <dsstox_substance_id>
DTXSID1021324

> <Canonical_QSARr>
FCC(F)(F)F

> <InChI_Code_QSARr>
InChI=1S/C2H2F4/c3-1-2(4,5)6/h1H2

> <InChI Key_QSARr>
LVGUZGTVOIAKKC-UHFFFAOYSA-N

> <OH>
4.899999999999999E-15

> <OH Temperature>
25.0

> <OH Data Type>
EXP

> <OH Reference>
KWOK,ESC & ATKINSON,R (1994)

> <LogOH>
-14.309803919971483

$$$$
100601
  -INDIGO-08031719142D

 14 13  0  0  0  0  0  0  0  0999 V2000
   -0.0001    0.0000    0.0000 C   0  0  0  0  0  0  0  0  0  0  0  0
   -0.0001    1.6000    0.0000 H   0  0  0  0  0  0  0  0  0  0  0  0
    1.3857   -0.8000    0.0000 C   0  0  0  0  0  0  0  0  0  0  0  0
    1.3857   -2.4000    0.0000 H   0  0  0  0  0  0  0  0  0  0  0  0
    2.7713    0.0000    0.0000 C   0  0  0  0  0  0  0  0  0  0  0  0
    2.7713    1.6000    0.0000 H   0  0  0  0  0  0  0  0  0  0  0  0
    4.1569   -0.8000    0.0000 C   0  0  0  0  0  0  0  0  0  0  0  0
    5.5426    0.0000    0.0000 H   0  0  0  0  0  0  0  0  0  0  0  0
    4.1569   -2.4000    0.0000 H   0  0  0  0  0  0  0  0  0  0  0  0
   -1.3857   -0.8000    0.0000 C   0  0  0  0  0  0  0  0  0  0  0  0
   -1.3857   -2.4000    0.0000 H   0  0  0  0  0  0  0  0  0  0  0  0
   -2.7713    0.0000    0.0000 C   0  0  0  0  0  0  0  0  0  0  0  0
   -4.1569   -0.8000    0.0000 H   0  0  0  0  0  0  0  0  0  0  0  0
   -2.7713    1.6000    0.0000 H   0  0  0  0  0  0  0  0  0  0  0  0
  1  2  1  0  0  0  0
  1  3  2  0  0  0  0
  3  4  1  0  0  0  0
  3  5  1  0  0  0  0
  5  6  1  0  0  0  0
  5  7  2  0  0  0  0
  7  8  1  0  0  0  0
  7  9  1  0  0  0  0
  1 10  1  0  0  0  0
 10 11  1  0  0  0  0
 10 12  2  0  0  0  0
 12 13  1  0  0  0  0
 12 14  1  0  0  0  0
M  END
> <ChemID>
100601

> <source_casrn>
821-07-8|2612-46-6

> <CAS>
2235-12-3

> <SMILES>
C=CC=CC=C

> <NAME>
TRANS-1,3,5-HEXATRIENE, CIS-1,3,5-HEXATRIENE

> <preferred_name>
1,3,5-Hexatriene

> <iupac>
?

> <MPID>
99122|99178

> <dsstox_substance_id>
DTXSID3062283

> <Canonical_QSARr>
C=CC=CC=C

> <InChI_Code_QSARr>
InChI=1S/C6H8/c1-3-5-6-4-2/h3-6H,1-2H2/b6-5+

> <InChI Key_QSARr>
AFVDZBIIBXWASR-AATRIKPKSA-N

> <OH>
5.5555E-11

> <OH Temperature>
25.0

> <OH Data Type>
EXP

> <OH Reference>
ATKINSON,R (1989)

> <LogOH>
-10.25527684806985

$$$$
100602
  -INDIGO-08031719142D

 28 27  0  0  0  0  0  0  0  0999 V2000
    4.1570    0.8000    0.0000 C   0  0  0  0  0  0  0  0  0  0  0  0
    5.5426    1.6000    0.0000 H   0  0  0  0  0  0  0  0  0  0  0  0
    5.5426    0.0000    0.0000 H   0  0  0  0  0  0  0  0  0  0  0  0
    4.1570    2.4000    0.0000 H   0  0  0  0  0  0  0  0  0  0  0  0
    2.7713    0.0000    0.0000 C   0  0  0  0  0  0  0  0  0  0  0  0
    2.1590   -1.4782    0.0000 H   0  0  0  0  0  0  0  0  0  0  0  0
    3.3836   -1.4782    0.0000 H   0  0  0  0  0  0  0  0  0  0  0  0
    1.3857    0.8000    0.0000 C   0  0  0  0  0  0  0  0  0  0  0  0
    1.9979    2.2782    0.0000 H   0  0  0  0  0  0  0  0  0  0  0  0
    0.7734    2.2782    0.0000 H   0  0  0  0  0  0  0  0  0  0  0  0
    0.0000    0.0000    0.0000 C   0  0  0  0  0  0  0  0  0  0  0  0
   -0.6123   -1.4782    0.0000 H   0  0  0  0  0  0  0  0  0  0  0  0
    0.6123   -1.4782    0.0000 H   0  0  0  0  0  0  0  0  0  0  0  0
   -1.3855    0.8000    0.0000 C   0  0  0  0  0  0  0  0  0  0  0  0
   -0.7734    2.2782    0.0000 H   0  0  0  0  0  0  0  0  0  0  0  0
   -1.9979    2.2782    0.0000 H   0  0  0  0  0  0  0  0  0  0  0  0
   -2.7713    0.0000    0.0000 C   0  0  0  0  0  0  0  0  0  0  0  0
   -3.3836   -1.4782    0.0000 H   0  0  0  0  0  0  0  0  0  0  0  0
   -2.1590   -1.4782    0.0000 H   0  0  0  0  0  0  0  0  0  0  0  0
   -4.1568    0.8000    0.0000 C   0  0  0  0  0  0  0  0  0  0  0  0
   -3.5447    2.2782    0.0000 H   0  0  0  0  0  0  0  0  0  0  0  0
   -4.7691    2.2782    0.0000 H   0  0  0  0  0  0  0  0  0  0  0  0
   -5.5426    0.0000    0.0000 C   0  0  0  0  0  0  0  0  0  0  0  0
   -5.5426   -1.6000    0.0000 O   0  0  0  0  0  0  0  0  0  0  0  0
   -6.9281    0.8000    0.0000 C   0  0  0  0  0  0  0  0  0  0  0  0
   -8.3138    1.6000    0.0000 H   0  0  0  0  0  0  0  0  0  0  0  0
   -8.3138    0.0000    0.0000 H   0  0  0  0  0  0  0  0  0  0  0  0
   -6.9281    2.4000    0.0000 H   0  0  0  0  0  0  0  0  0  0  0  0
  1  2  1  0  0  0  0
  1  3  1  0  0  0  0
  1  4  1  0  0  0  0
  1  5  1  0  0  0  0
  5  6  1  0  0  0  0
  5  7  1  0  0  0  0
  5  8  1  0  0  0  0
  8  9  1  0  0  0  0
  8 10  1  0  0  0  0
  8 11  1  0  0  0  0
 11 12  1  0  0  0  0
 11 13  1  0  0  0  0
 11 14  1  0  0  0  0
 14 15  1  0  0  0  0
 14 16  1  0  0  0  0
 14 17  1  0  0  0  0
 17 18  1  0  0  0  0
 17 19  1  0  0  0  0
 17 20  1  0  0  0  0
 20 21  1  0  0  0  0
 20 22  1  0  0  0  0
 20 23  1  0  0  0  0
 23 24  2  0  0  0  0
 23 25  1  0  0  0  0
 25 26  1  0  0  0  0
 25 27  1  0  0  0  0
 25 28  1  0  0  0  0
M  END
> <ChemID>
100602

> <source_casrn>
821-55-6

> <CAS>
821-55-6

> <SMILES>
CCCCCCCC(C)=O

> <NAME>
2-NONANONE

> <preferred_name>
2-Nonanone

> <iupac>
nonan-2-one

> <MPID>
99123

> <dsstox_substance_id>
DTXSID2022125

> <Canonical_QSARr>
CCCCCCCC(C)=O

> <InChI_Code_QSARr>
InChI=1S/C9H18O/c1-3-4-5-6-7-8-9(2)10/h3-8H2,1-2H3

> <InChI Key_QSARr>
VKCYHJWLYTUGCC-UHFFFAOYSA-N

> <OH>
1.22E-11

> <OH Temperature>
25.0

> <OH Data Type>
EXP

> <OH Reference>
ATKINSON,R (1989)

> <LogOH>
-10.913640169325236

$$$$
100604
  -INDIGO-08031719142D

 23 24  0  0  0  0  0  0  0  0999 V2000
   -4.0000    1.3856    0.0000 O   0  0  0  0  0  0  0  0  0  0  0  0
   -2.3999    1.3856    0.0000 N   0  0  0  0  0  0  0  0  0  0  0  0
   -1.6000    2.7713    0.0000 O   0  0  0  0  0  0  0  0  0  0  0  0
   -1.6000    0.0000    0.0000 C   0  0  0  0  0  0  0  0  0  0  0  0
   -0.0000    0.0000    0.0000 C   0  0  0  0  0  0  0  0  0  0  0  0
    0.8000   -1.3856    0.0000 C   0  0  0  0  0  0  0  0  0  0  0  0
    2.4001   -1.3856    0.0000 C   0  0  0  0  0  0  0  0  0  0  0  0
    3.2000   -2.7713    0.0000 H   0  0  0  0  0  0  0  0  0  0  0  0
    3.2000    0.0000    0.0000 C   0  0  0  0  0  0  0  0  0  0  0  0
    4.8000    0.0000    0.0000 H   0  0  0  0  0  0  0  0  0  0  0  0
    2.4001    1.3856    0.0000 C   0  0  0  0  0  0  0  0  0  0  0  0
    3.2000    2.7713    0.0000 H   0  0  0  0  0  0  0  0  0  0  0  0
    0.8000    1.3856    0.0000 C   0  0  0  0  0  0  0  0  0  0  0  0
   -0.0000    2.7713    0.0000 H   0  0  0  0  0  0  0  0  0  0  0  0
   -0.0000   -2.7713    0.0000 C   0  0  0  0  0  0  0  0  0  0  0  0
    0.8000   -4.1569    0.0000 H   0  0  0  0  0  0  0  0  0  0  0  0
   -1.6000   -2.7713    0.0000 C   0  0  0  0  0  0  0  0  0  0  0  0
   -2.3999   -4.1569    0.0000 H   0  0  0  0  0  0  0  0  0  0  0  0
   -2.3999   -1.3856    0.0000 C   0  0  0  0  0  0  0  0  0  0  0  0
   -4.0000   -1.3856    0.0000 C   0  0  0  0  0  0  0  0  0  0  0  0
   -5.6000   -1.3856    0.0000 H   0  0  0  0  0  0  0  0  0  0  0  0
   -4.8000   -2.7713    0.0000 H   0  0  0  0  0  0  0  0  0  0  0  0
   -4.8000    0.0000    0.0000 H   0  0  0  0  0  0  0  0  0  0  0  0
  1  2  1  0  0  0  0
  2  3  2  0  0  0  0
  2  4  1  0  0  0  0
  4  5  1  0  0  0  0
  5  6  1  0  0  0  0
  6  7  2  0  0  0  0
  7  8  1  0  0  0  0
  7  9  1  0  0  0  0
  9 10  1  0  0  0  0
  9 11  2  0  0  0  0
 11 12  1  0  0  0  0
 11 13  1  0  0  0  0
 13  5  2  0  0  0  0
 13 14  1  0  0  0  0
  6 15  1  0  0  0  0
 15 16  1  0  0  0  0
 15 17  2  0  0  0  0
 17 18  1  0  0  0  0
 17 19  1  0  0  0  0
 19  4  2  0  0  0  0
 19 20  1  0  0  0  0
 20 21  1  0  0  0  0
 20 22  1  0  0  0  0
 20 23  1  0  0  0  0
M  CHG  2   1  -1   2   1
M  END
> <ChemID>
100604

> <source_casrn>
881-03-8

> <CAS>
881-03-8

> <SMILES>
Cc1ccc2ccccc2c1[N+]([O-])=O

> <NAME>
Naphthalene, 2-methyl-1-nitro-

> <preferred_name>
1-Nitro-2-methylnaphthalene

> <iupac>
2-methyl-1-nitronaphthalene

> <MPID>
99124

> <dsstox_substance_id>
DTXSID2025761

> <Canonical_QSARr>
Cc1ccc2ccccc2c1[N+]([O-])=O

> <InChI_Code_QSARr>
InChI=1S/C11H9NO2/c1-8-6-7-9-4-2-3-5-10(9)11(8)12(13)14/h2-7H,1H3

> <InChI Key_QSARr>
IZNWACYOILBFEG-UHFFFAOYSA-N

> <OH>
8.000000000000001E-12

> <OH Temperature>
25.0

> <OH Data Type>
EXP

> <OH Reference>
ATKINSON,R (1989); <8E-12

> <LogOH>
-11.09691001300805

$$$$
100605
  -INDIGO-08031719142D

 12 11  0  0  0  0  0  0  0  0999 V2000
    1.6000    0.0000    0.0000 C   0  0  0  0  0  0  0  0  0  0  0  0
    3.2000    0.0000    0.0000 F   0  0  0  0  0  0  0  0  0  0  0  0
    2.4000   -1.3856    0.0000 F   0  0  0  0  0  0  0  0  0  0  0  0
    2.4000    1.3856    0.0000 F   0  0  0  0  0  0  0  0  0  0  0  0
    0.0000    0.0000    0.0000 C   0  0  0  0  0  0  0  0  0  0  0  0
    0.0000   -1.6000    0.0000 H   0  0  0  0  0  0  0  0  0  0  0  0
    0.0000    1.6000    0.0000 O   0  0  0  0  0  0  0  0  0  0  0  0
    1.3856    2.4000    0.0000 H   0  0  0  0  0  0  0  0  0  0  0  0
   -1.6000    0.0000    0.0000 C   0  0  0  0  0  0  0  0  0  0  0  0
   -3.2000    0.0000    0.0000 F   0  0  0  0  0  0  0  0  0  0  0  0
   -2.4000   -1.3856    0.0000 F   0  0  0  0  0  0  0  0  0  0  0  0
   -2.4000    1.3856    0.0000 F   0  0  0  0  0  0  0  0  0  0  0  0
  1  2  1  0  0  0  0
  1  3  1  0  0  0  0
  1  4  1  0  0  0  0
  1  5  1  0  0  0  0
  5  6  1  0  0  0  0
  5  7  1  0  0  0  0
  7  8  1  0  0  0  0
  5  9  1  0  0  0  0
  9 10  1  0  0  0  0
  9 11  1  0  0  0  0
  9 12  1  0  0  0  0
M  END
> <ChemID>
100605

> <source_casrn>
920-66-1

> <CAS>
920-66-1

> <SMILES>
OC(C(F)(F)F)C(F)(F)F

> <NAME>
1,1,1,3,3,3-HEXAFLUOROPROPAN-2-OL

> <preferred_name>
1,1,1,3,3,3-Hexafluoro-2-propanol

> <iupac>
1,1,1,3,3,3-hexafluoropropan-2-ol

> <MPID>
99125

> <dsstox_substance_id>
DTXSID1022134

> <Canonical_QSARr>
OC(C(F)(F)F)C(F)(F)F

> <InChI_Code_QSARr>
InChI=1S/C3H2F6O/c4-2(5,6)1(10)3(7,8)9/h1,10H

> <InChI Key_QSARr>
BYEAHWXPCBROCE-UHFFFAOYSA-N

> <OH>
2.58E-14

> <OH Temperature>
25.0

> <OH Data Type>
EXP

> <OH Reference>
TOKUHASHI,K ET AL. (1999)

> <LogOH>
-13.588380294036762

$$$$
100607
  -INDIGO-08031719142D

 20 19  0  0  0  0  0  0  0  0999 V2000
    2.7713    0.0000    0.0000 O   0  0  0  0  0  0  0  0  0  0  0  0
    4.1570   -0.8000    0.0000 N   0  0  0  0  0  0  0  0  0  0  0  0
    5.5426    0.0000    0.0000 O   0  0  0  0  0  0  0  0  0  0  0  0
    4.1570   -2.4000    0.0000 O   0  0  0  0  0  0  0  0  0  0  0  0
    1.3857   -0.8000    0.0000 C   0  0  0  0  0  0  0  0  0  0  0  0
    1.9979   -2.2782    0.0000 H   0  0  0  0  0  0  0  0  0  0  0  0
    0.7733   -2.2782    0.0000 H   0  0  0  0  0  0  0  0  0  0  0  0
    0.0000    0.0000    0.0000 C   0  0  0  0  0  0  0  0  0  0  0  0
   -1.3856    0.8000    0.0000 C   0  0  0  0  0  0  0  0  0  0  0  0
   -2.7713    1.6000    0.0000 H   0  0  0  0  0  0  0  0  0  0  0  0
   -2.7713    0.0000    0.0000 H   0  0  0  0  0  0  0  0  0  0  0  0
   -1.3856    2.4000    0.0000 H   0  0  0  0  0  0  0  0  0  0  0  0
    0.8000    1.3856    0.0000 C   0  0  0  0  0  0  0  0  0  0  0  0
    1.6000    2.7713    0.0000 H   0  0  0  0  0  0  0  0  0  0  0  0
    2.4000    1.3856    0.0000 H   0  0  0  0  0  0  0  0  0  0  0  0
    0.0000    2.7713    0.0000 H   0  0  0  0  0  0  0  0  0  0  0  0
   -0.8000   -1.3857    0.0000 C   0  0  0  0  0  0  0  0  0  0  0  0
   -1.6000   -2.7712    0.0000 H   0  0  0  0  0  0  0  0  0  0  0  0
   -0.2527   -2.8891    0.0000 H   0  0  0  0  0  0  0  0  0  0  0  0
   -2.4000   -1.3857    0.0000 H   0  0  0  0  0  0  0  0  0  0  0  0
  1  2  1  0  0  0  0
  2  3  1  0  0  0  0
  2  4  2  0  0  0  0
  1  5  1  0  0  0  0
  5  6  1  0  0  0  0
  5  7  1  0  0  0  0
  5  8  1  0  0  0  0
  8  9  1  0  0  0  0
  9 10  1  0  0  0  0
  9 11  1  0  0  0  0
  9 12  1  0  0  0  0
  8 13  1  0  0  0  0
 13 14  1  0  0  0  0
 13 15  1  0  0  0  0
 13 16  1  0  0  0  0
  8 17  1  0  0  0  0
 17 18  1  0  0  0  0
 17 19  1  0  0  0  0
 17 20  1  0  0  0  0
M  CHG  2   2   1   3  -1
M  END
> <ChemID>
100607

> <source_casrn>
926-42-1

> <CAS>
926-42-1

> <SMILES>
CC(C)(C)CO[N+]([O-])=O

> <NAME>
2,2-Dimethyl-1-propyl nitrate

> <preferred_name>
1-Propanol, 2,2-dimethyl-, nitrate

> <iupac>
2,2-dimethylpropyl nitrate

> <MPID>
99126

> <dsstox_substance_id>
DTXSID50239060

> <Canonical_QSARr>
CC(C)(C)CO[N+]([O-])=O

> <InChI_Code_QSARr>
InChI=1S/C5H11NO3/c1-5(2,3)4-9-6(7)8/h4H2,1-3H3

> <InChI Key_QSARr>
YJGBGWFCCCQXIM-UHFFFAOYSA-N

> <OH>
8.5E-13

> <OH Temperature>
25.0

> <OH Data Type>
EXP

> <OH Reference>
KWOK,ESC & ATKINSON,R (1994)

> <LogOH>
-12.070581074285696

$$$$
100609
  -INDIGO-08031719142D

 16 15  0  0  0  0  0  0  0  0999 V2000
    1.6000    0.0000    0.0000 C   0  0  0  0  0  0  0  0  0  0  0  0
    2.4000   -1.3856    0.0000 H   0  0  0  0  0  0  0  0  0  0  0  0
    0.0000    0.0000    0.0000 C   0  0  0  0  0  0  0  0  0  0  0  0
   -0.8000    1.3856    0.0000 C   0  0  0  0  0  0  0  0  0  0  0  0
   -1.6000    2.7713    0.0000 H   0  0  0  0  0  0  0  0  0  0  0  0
    0.0000    2.7713    0.0000 H   0  0  0  0  0  0  0  0  0  0  0  0
   -2.4000    1.3856    0.0000 H   0  0  0  0  0  0  0  0  0  0  0  0
   -0.8000   -1.3856    0.0000 C   0  0  0  0  0  0  0  0  0  0  0  0
   -1.6000   -2.7713    0.0000 H   0  0  0  0  0  0  0  0  0  0  0  0
    0.0000   -2.7713    0.0000 H   0  0  0  0  0  0  0  0  0  0  0  0
   -2.4000   -1.3856    0.0000 H   0  0  0  0  0  0  0  0  0  0  0  0
    2.4000    1.3856    0.0000 C   0  0  0  0  0  0  0  0  0  0  0  0
    1.6000    2.7713    0.0000 H   0  0  0  0  0  0  0  0  0  0  0  0
    4.0000    1.3856    0.0000 C   0  0  0  0  0  0  0  0  0  0  0  0
    4.8000    2.7713    0.0000 H   0  0  0  0  0  0  0  0  0  0  0  0
    4.8000   -0.0000    0.0000 H   0  0  0  0  0  0  0  0  0  0  0  0
  1  2  1  0  0  0  0
  1  3  2  0  0  0  0
  3  4  1  0  0  0  0
  4  5  1  0  0  0  0
  4  6  1  0  0  0  0
  4  7  1  0  0  0  0
  3  8  1  0  0  0  0
  8  9  1  0  0  0  0
  8 10  1  0  0  0  0
  8 11  1  0  0  0  0
  1 12  1  0  0  0  0
 12 13  1  0  0  0  0
 12 14  2  0  0  0  0
 14 15  1  0  0  0  0
 14 16  1  0  0  0  0
M  END
> <ChemID>
100609

> <source_casrn>
926-56-7

> <CAS>
926-56-7

> <SMILES>
CC(C)=CC=C

> <NAME>
4-METHYL-1,3-PENTADIENE

> <preferred_name>
1,3-Pentadiene, 4-methyl-

> <iupac>
4-Methylpenta-1,3-diene

> <MPID>
99128

> <dsstox_substance_id>
DTXSID5061291

> <Canonical_QSARr>
CC(C)=CC=C

> <InChI_Code_QSARr>
InChI=1S/C6H10/c1-4-5-6(2)3/h4-5H,1H2,2-3H3

> <InChI Key_QSARr>
CJSBUWDGPXGFGA-UHFFFAOYSA-N

> <OH>
1.31E-10

> <OH Temperature>
25.0

> <OH Data Type>
EXP

> <OH Reference>
ATKINSON,R (1989)

> <LogOH>
-9.882728704344236

$$$$
100610
  -INDIGO-08031719142D

 17 16  0  0  0  0  0  0  0  0999 V2000
    2.7713    0.0000    0.0000 O   0  0  0  0  0  0  0  0  0  0  0  0
    4.1569    0.8000    0.0000 N   0  0  0  0  0  0  0  0  0  0  0  0
    5.5426    0.0000    0.0000 O   0  0  0  0  0  0  0  0  0  0  0  0
    4.1569    2.4000    0.0000 O   0  0  0  0  0  0  0  0  0  0  0  0
    1.3857    0.8000    0.0000 C   0  0  0  0  0  0  0  0  0  0  0  0
    1.9980    2.2782    0.0000 H   0  0  0  0  0  0  0  0  0  0  0  0
    0.7734    2.2782    0.0000 H   0  0  0  0  0  0  0  0  0  0  0  0
   -0.0001    0.0000    0.0000 C   0  0  0  0  0  0  0  0  0  0  0  0
   -0.6124   -1.4782    0.0000 H   0  0  0  0  0  0  0  0  0  0  0  0
    0.6122   -1.4782    0.0000 H   0  0  0  0  0  0  0  0  0  0  0  0
   -1.3857    0.8000    0.0000 C   0  0  0  0  0  0  0  0  0  0  0  0
   -0.7734    2.2782    0.0000 H   0  0  0  0  0  0  0  0  0  0  0  0
   -1.9980    2.2782    0.0000 H   0  0  0  0  0  0  0  0  0  0  0  0
   -2.7713    0.0000    0.0000 C   0  0  0  0  0  0  0  0  0  0  0  0
   -4.1569   -0.8000    0.0000 H   0  0  0  0  0  0  0  0  0  0  0  0
   -4.1569    0.8000    0.0000 H   0  0  0  0  0  0  0  0  0  0  0  0
   -2.7713   -1.6000    0.0000 H   0  0  0  0  0  0  0  0  0  0  0  0
  1  2  1  0  0  0  0
  2  3  1  0  0  0  0
  2  4  2  0  0  0  0
  1  5  1  0  0  0  0
  5  6  1  0  0  0  0
  5  7  1  0  0  0  0
  5  8  1  0  0  0  0
  8  9  1  0  0  0  0
  8 10  1  0  0  0  0
  8 11  1  0  0  0  0
 11 12  1  0  0  0  0
 11 13  1  0  0  0  0
 11 14  1  0  0  0  0
 14 15  1  0  0  0  0
 14 16  1  0  0  0  0
 14 17  1  0  0  0  0
M  CHG  2   2   1   3  -1
M  END
> <ChemID>
100610

> <source_casrn>
928-45-0

> <CAS>
928-45-0

> <SMILES>
CCCCO[N+]([O-])=O

> <NAME>
BUTYL NITRATE

> <preferred_name>
Butyl nitrate

> <iupac>
BUTYL NITRATE

> <MPID>
99129

> <dsstox_substance_id>
DTXSID70239143

> <Canonical_QSARr>
CCCCO[N+]([O-])=O

> <InChI_Code_QSARr>
InChI=1S/C4H9NO3/c1-2-3-4-8-5(6)7/h2-4H2,1H3

> <InChI Key_QSARr>
QQHZPQUHCAKSOL-UHFFFAOYSA-N

> <OH>
1.71E-12

> <OH Temperature>
25.0

> <OH Data Type>
EXP

> <OH Reference>
ATKINSON,R (1994)

> <LogOH>
-11.767003889607853

$$$$
100613
  -INDIGO-08031719142D

 12 12  0  0  0  0  0  0  0  0999 V2000
   -1.7322    1.9239    0.0000 O   0  0  0  0  0  0  0  0  0  0  0  0
   -0.1673    1.5912    0.0000 C   0  0  0  0  0  0  0  0  0  0  0  0
    1.0218    2.6618    0.0000 H   0  0  0  0  0  0  0  0  0  0  0  0
    0.0000   -0.0000    0.0000 C   0  0  0  0  0  0  0  0  0  0  0  0
    1.3856   -0.8000    0.0000 C   0  0  0  0  0  0  0  0  0  0  0  0
    2.7713   -1.6000    0.0000 H   0  0  0  0  0  0  0  0  0  0  0  0
    2.7713   -0.0000    0.0000 H   0  0  0  0  0  0  0  0  0  0  0  0
    1.3856   -2.4000    0.0000 H   0  0  0  0  0  0  0  0  0  0  0  0
   -1.4617   -0.6508    0.0000 C   0  0  0  0  0  0  0  0  0  0  0  0
   -1.7943   -2.2158    0.0000 H   0  0  0  0  0  0  0  0  0  0  0  0
   -2.5322    0.5382    0.0000 C   0  0  0  0  0  0  0  0  0  0  0  0
   -4.1235    0.3710    0.0000 H   0  0  0  0  0  0  0  0  0  0  0  0
  1  2  1  0  0  0  0
  2  3  1  0  0  0  0
  2  4  2  0  0  0  0
  4  5  1  0  0  0  0
  5  6  1  0  0  0  0
  5  7  1  0  0  0  0
  5  8  1  0  0  0  0
  4  9  1  0  0  0  0
  9 10  1  0  0  0  0
  9 11  2  0  0  0  0
 11  1  1  0  0  0  0
 11 12  1  0  0  0  0
M  END
> <ChemID>
100613

> <source_casrn>
930-27-8

> <CAS>
930-27-8

> <SMILES>
Cc1cocc1

> <NAME>
3-METHYLFURAN

> <preferred_name>
3-Methylfuran

> <iupac>
3-METHYLFURAN

> <MPID>
99131

> <dsstox_substance_id>
DTXSID10239228

> <Canonical_QSARr>
Cc1cocc1

> <InChI_Code_QSARr>
InChI=1S/C5H6O/c1-5-2-3-6-4-5/h2-4H,1H3

> <InChI Key_QSARr>
KJRRQXYWFQKJIP-UHFFFAOYSA-N

> <OH>
9.350000000000001E-11

> <OH Temperature>
25.0

> <OH Data Type>
EXP

> <OH Reference>
ATKINSON,R (1989)

> <LogOH>
-10.029188389127478

$$$$
100615
  -INDIGO-08031719142D

 20 21  0  0  0  0  0  0  0  0999 V2000
   -0.0000    0.0000    0.0000 C   0  0  0  0  0  0  0  0  0  0  0  0
    1.3856    0.8000    0.0000 H   0  0  0  0  0  0  0  0  0  0  0  0
   -1.3856    0.8000    0.0000 C   0  0  0  0  0  0  0  0  0  0  0  0
   -0.3572    2.0257    0.0000 H   0  0  0  0  0  0  0  0  0  0  0  0
   -2.4141    2.0257    0.0000 H   0  0  0  0  0  0  0  0  0  0  0  0
   -2.7713    0.0000    0.0000 C   0  0  0  0  0  0  0  0  0  0  0  0
   -3.3185    1.5035    0.0000 H   0  0  0  0  0  0  0  0  0  0  0  0
   -4.3470   -0.2778    0.0000 H   0  0  0  0  0  0  0  0  0  0  0  0
   -2.7713   -1.6000    0.0000 C   0  0  0  0  0  0  0  0  0  0  0  0
   -4.1569   -2.4000    0.0000 H   0  0  0  0  0  0  0  0  0  0  0  0
   -1.3856   -2.4000    0.0000 C   0  0  0  0  0  0  0  0  0  0  0  0
   -1.4837   -3.2719    0.0000 H   0  0  0  0  0  0  0  0  0  0  0  0
   -0.3572   -3.6257    0.0000 H   0  0  0  0  0  0  0  0  0  0  0  0
   -0.0000   -1.6000    0.0000 C   0  0  0  0  0  0  0  0  0  0  0  0
    0.5472   -3.1035    0.0000 H   0  0  0  0  0  0  0  0  0  0  0  0
    0.8041   -1.9511    0.0000 H   0  0  0  0  0  0  0  0  0  0  0  0
   -1.5736   -1.6745    0.0000 C   0  0  0  0  0  0  0  0  0  0  0  0
   -1.9207   -2.4803    0.0000 H   0  0  0  0  0  0  0  0  0  0  0  0
   -0.5343   -1.0744    0.0000 C   0  0  0  0  0  0  0  0  0  0  0  0
    0.3371   -1.1768    0.0000 H   0  0  0  0  0  0  0  0  0  0  0  0
  1  2  1  0  0  0  0
  1  3  1  0  0  0  0
  3  4  1  0  0  0  0
  3  5  1  0  0  0  0
  3  6  1  0  0  0  0
  6  7  1  0  0  0  0
  6  8  1  0  0  0  0
  6  9  1  0  0  0  0
  9 10  1  0  0  0  0
  9 11  1  0  0  0  0
 11 12  1  0  0  0  0
 11 13  1  0  0  0  0
 11 14  1  0  0  0  0
 14  1  1  0  0  0  0
 14 15  1  0  0  0  0
 14 16  1  0  0  0  0
  9 17  1  0  0  0  0
 17 18  1  0  0  0  0
 17 19  2  0  0  0  0
 19  1  1  0  0  0  0
 19 20  1  0  0  0  0
M  END
> <ChemID>
100615

> <source_casrn>
931-64-6

> <CAS>
931-64-6

> <SMILES>
C1CC2CCC1C=C2

> <NAME>
BICYCLO(2.2.2)OCT-2-ENE

> <preferred_name>
Bicyclo(2.2.2)oct-2-ene

> <iupac>
bicyclo[2.2.2]oct-2-ene

> <MPID>
99132

> <dsstox_substance_id>
DTXSID40239271

> <Canonical_QSARr>
C1CC2CCC1C=C2

> <InChI_Code_QSARr>
InChI=1S/C8H12/c1-2-8-5-3-7(1)4-6-8/h1-2,7-8H,3-6H2

> <InChI Key_QSARr>
VIQRCOQXIHFJND-UHFFFAOYSA-N

> <OH>
4.099999999999999E-11

> <OH Temperature>
25.0

> <OH Data Type>
EXP

> <OH Reference>
KWOK,ESC & ATKINSON,R (1994)

> <LogOH>
-10.387216143280245

$$$$
100617
  -INDIGO-08031719142D

 22 21  0  0  0  0  0  0  0  0999 V2000
    2.7713    0.0000    0.0000 C   0  0  0  0  0  0  0  0  0  0  0  0
    4.1570    0.8000    0.0000 C   0  0  0  0  0  0  0  0  0  0  0  0
    4.1570    2.4000    0.0000 H   0  0  0  0  0  0  0  0  0  0  0  0
    5.5426    0.0000    0.0000 C   0  0  0  0  0  0  0  0  0  0  0  0
    5.5426   -1.6000    0.0000 H   0  0  0  0  0  0  0  0  0  0  0  0
    6.9283    0.8000    0.0000 O   0  0  0  0  0  0  0  0  0  0  0  0
    8.3138    0.0000    0.0000 C   0  0  0  0  0  0  0  0  0  0  0  0
    7.7015   -1.4782    0.0000 H   0  0  0  0  0  0  0  0  0  0  0  0
    8.9262   -1.4782    0.0000 H   0  0  0  0  0  0  0  0  0  0  0  0
    9.6996    0.8000    0.0000 C   0  0  0  0  0  0  0  0  0  0  0  0
   11.0851    1.6000    0.0000 H   0  0  0  0  0  0  0  0  0  0  0  0
   11.0851    0.0000    0.0000 H   0  0  0  0  0  0  0  0  0  0  0  0
    9.6996    2.4000    0.0000 H   0  0  0  0  0  0  0  0  0  0  0  0
    1.3857    0.8000    0.0000 O   0  0  0  0  0  0  0  0  0  0  0  0
    0.0000    0.0000    0.0000 C   0  0  0  0  0  0  0  0  0  0  0  0
   -0.6123   -1.4782    0.0000 H   0  0  0  0  0  0  0  0  0  0  0  0
    0.6123   -1.4782    0.0000 H   0  0  0  0  0  0  0  0  0  0  0  0
   -1.3855    0.8000    0.0000 C   0  0  0  0  0  0  0  0  0  0  0  0
   -2.7713    1.6000    0.0000 H   0  0  0  0  0  0  0  0  0  0  0  0
   -2.7713    0.0000    0.0000 H   0  0  0  0  0  0  0  0  0  0  0  0
   -1.3855    2.4000    0.0000 H   0  0  0  0  0  0  0  0  0  0  0  0
    2.7713   -1.6000    0.0000 O   0  0  0  0  0  0  0  0  0  0  0  0
  1  2  1  0  0  0  0
  2  3  1  0  0  0  0
  2  4  2  0  0  0  0
  4  5  1  0  0  0  0
  4  6  1  0  0  0  0
  6  7  1  0  0  0  0
  7  8  1  0  0  0  0
  7  9  1  0  0  0  0
  7 10  1  0  0  0  0
 10 11  1  0  0  0  0
 10 12  1  0  0  0  0
 10 13  1  0  0  0  0
  1 14  1  0  0  0  0
 14 15  1  0  0  0  0
 15 16  1  0  0  0  0
 15 17  1  0  0  0  0
 15 18  1  0  0  0  0
 18 19  1  0  0  0  0
 18 20  1  0  0  0  0
 18 21  1  0  0  0  0
  1 22  2  0  0  0  0
M  END
> <ChemID>
100617

> <source_casrn>
1001-26-9

> <CAS>
1001-26-9

> <SMILES>
CCOC(=O)C=COCC

> <NAME>
Ethyl 3-ethoxy-2-propenoate

> <preferred_name>


> <iupac>


> <MPID>
99134

> <dsstox_substance_id>
DTXSID10878994

> <Canonical_QSARr>
CCOC(=O)C=COCC

> <InChI_Code_QSARr>
InChI=1S/C7H12O3/c1-3-9-6-5-7(8)10-4-2/h5-6H,3-4H2,1-2H3/b6-5+

> <InChI Key_QSARr>
ITQFPVUDTFABDH-AATRIKPKSA-N

> <OH>
3.32E-11

> <OH Temperature>
25.0

> <OH Data Type>
EXP

> <OH Reference>
KWOK,ESC & ATKINSON,R (1994)

> <LogOH>
-10.47886191629596

$$$$
100618
  -INDIGO-08031719142D

 20 19  0  0  0  0  0  0  0  0999 V2000
    5.5425   -0.0000    0.0000 N   0  0  0  0  0  0  0  0  0  0  0  0
    6.9282    0.8000    0.0000 O   0  0  0  0  0  0  0  0  0  0  0  0
    5.5425   -1.6000    0.0000 O   0  0  0  0  0  0  0  0  0  0  0  0
    4.1569    0.8000    0.0000 O   0  0  0  0  0  0  0  0  0  0  0  0
    2.7712   -0.0000    0.0000 C   0  0  0  0  0  0  0  0  0  0  0  0
    3.3835   -1.4782    0.0000 H   0  0  0  0  0  0  0  0  0  0  0  0
    2.1591   -1.4782    0.0000 H   0  0  0  0  0  0  0  0  0  0  0  0
    1.3856    0.8000    0.0000 C   0  0  0  0  0  0  0  0  0  0  0  0
    0.7734    2.2782    0.0000 H   0  0  0  0  0  0  0  0  0  0  0  0
    1.9979    2.2782    0.0000 H   0  0  0  0  0  0  0  0  0  0  0  0
    0.0001   -0.0000    0.0000 C   0  0  0  0  0  0  0  0  0  0  0  0
    0.6122   -1.4782    0.0000 H   0  0  0  0  0  0  0  0  0  0  0  0
   -0.6123   -1.4782    0.0000 H   0  0  0  0  0  0  0  0  0  0  0  0
   -1.3856    0.8000    0.0000 C   0  0  0  0  0  0  0  0  0  0  0  0
   -1.9979    2.2782    0.0000 H   0  0  0  0  0  0  0  0  0  0  0  0
   -0.7733    2.2782    0.0000 H   0  0  0  0  0  0  0  0  0  0  0  0
   -2.7713   -0.0000    0.0000 C   0  0  0  0  0  0  0  0  0  0  0  0
   -4.1569   -0.8000    0.0000 H   0  0  0  0  0  0  0  0  0  0  0  0
   -4.1569    0.8000    0.0000 H   0  0  0  0  0  0  0  0  0  0  0  0
   -2.7713   -1.6000    0.0000 H   0  0  0  0  0  0  0  0  0  0  0  0
  1  2  1  0  0  0  0
  1  3  2  0  0  0  0
  1  4  1  0  0  0  0
  4  5  1  0  0  0  0
  5  6  1  0  0  0  0
  5  7  1  0  0  0  0
  5  8  1  0  0  0  0
  8  9  1  0  0  0  0
  8 10  1  0  0  0  0
  8 11  1  0  0  0  0
 11 12  1  0  0  0  0
 11 13  1  0  0  0  0
 11 14  1  0  0  0  0
 14 15  1  0  0  0  0
 14 16  1  0  0  0  0
 14 17  1  0  0  0  0
 17 18  1  0  0  0  0
 17 19  1  0  0  0  0
 17 20  1  0  0  0  0
M  CHG  2   1   1   2  -1
M  END
> <ChemID>
100618

> <source_casrn>
1002-16-0

> <CAS>
1002-16-0

> <SMILES>
CCCCCO[N+]([O-])=O

> <NAME>
1-PENTYL NITRATE

> <preferred_name>
Amyl nitrate

> <iupac>
Pentyl nitrate

> <MPID>
99135

> <dsstox_substance_id>
DTXSID2058708

> <Canonical_QSARr>
CCCCCO[N+]([O-])=O

> <InChI_Code_QSARr>
InChI=1S/C5H11NO3/c1-2-3-4-5-9-6(7)8/h2-5H2,1H3

> <InChI Key_QSARr>
HSNWZBCBUUSSQD-UHFFFAOYSA-N

> <OH>
3.139999999999999E-12

> <OH Temperature>
25.0

> <OH Data Type>
EXP

> <OH Reference>
KWOK,ESC & ATKINSON,R (1994)

> <LogOH>
-11.50307035192679

$$$$
100619
  -INDIGO-08031719142D

 15 14  0  0  0  0  0  0  0  0999 V2000
    0.8000   -1.3856    0.0000 C   0  0  0  0  0  0  0  0  0  0  0  0
    1.6000   -2.7713    0.0000 H   0  0  0  0  0  0  0  0  0  0  0  0
    0.0000   -2.7713    0.0000 H   0  0  0  0  0  0  0  0  0  0  0  0
    2.4000   -1.3856    0.0000 H   0  0  0  0  0  0  0  0  0  0  0  0
    0.0000    0.0000    0.0000 Si  0  0  0  0  0  0  0  0  0  0  0  0
   -0.8000    1.3856    0.0000 C   0  0  0  0  0  0  0  0  0  0  0  0
   -1.6000    2.7713    0.0000 H   0  0  0  0  0  0  0  0  0  0  0  0
   -2.4000    1.3856    0.0000 H   0  0  0  0  0  0  0  0  0  0  0  0
    0.0000    2.7713    0.0000 H   0  0  0  0  0  0  0  0  0  0  0  0
    1.3856    0.8000    0.0000 C   0  0  0  0  0  0  0  0  0  0  0  0
    2.7713    1.6000    0.0000 H   0  0  0  0  0  0  0  0  0  0  0  0
    2.7713    0.0000    0.0000 H   0  0  0  0  0  0  0  0  0  0  0  0
    1.3856    2.4000    0.0000 H   0  0  0  0  0  0  0  0  0  0  0  0
   -1.3856   -0.8000    0.0000 O   0  0  0  0  0  0  0  0  0  0  0  0
   -1.3856   -2.4000    0.0000 H   0  0  0  0  0  0  0  0  0  0  0  0
  1  2  1  0  0  0  0
  1  3  1  0  0  0  0
  1  4  1  0  0  0  0
  1  5  1  0  0  0  0
  5  6  1  0  0  0  0
  6  7  1  0  0  0  0
  6  8  1  0  0  0  0
  6  9  1  0  0  0  0
  5 10  1  0  0  0  0
 10 11  1  0  0  0  0
 10 12  1  0  0  0  0
 10 13  1  0  0  0  0
  5 14  1  0  0  0  0
 14 15  1  0  0  0  0
M  END
> <ChemID>
100619

> <source_casrn>
1066-40-6

> <CAS>
1066-40-6

> <SMILES>
C[Si](C)(C)O

> <NAME>
Trimethylsilanol

> <preferred_name>
Trimethylsilanol

> <iupac>
C3H10OSi

> <MPID>
99136

> <dsstox_substance_id>
DTXSID7061433

> <Canonical_QSARr>
C[Si](C)(C)O

> <InChI_Code_QSARr>
InChI=1S/C3H10OSi/c1-5(2,3)4/h4H,1-3H3

> <InChI Key_QSARr>
AAPLIUHOKVUFCC-UHFFFAOYSA-N

> <OH>
3.95E-12

> <OH Temperature>
25.0

> <OH Data Type>
EXP

> <OH Reference>
SOMMERIADE,R ET AL. (1993)

> <LogOH>
-11.403402904373532

$$$$
100621
  -INDIGO-08031719142D

 29 28  0  0  0  0  0  0  0  0999 V2000
   -0.8384   -2.3035    0.0000 C   0  0  0  0  0  0  0  0  0  0  0  0
   -0.2912   -3.8070    0.0000 H   0  0  0  0  0  0  0  0  0  0  0  0
   -1.8668   -3.5292    0.0000 H   0  0  0  0  0  0  0  0  0  0  0  0
    0.7372   -2.5813    0.0000 H   0  0  0  0  0  0  0  0  0  0  0  0
   -1.3856   -0.7999    0.0000 C   0  0  0  0  0  0  0  0  0  0  0  0
   -1.9329    0.7035    0.0000 H   0  0  0  0  0  0  0  0  0  0  0  0
    0.0000    0.0000    0.0000 C   0  0  0  0  0  0  0  0  0  0  0  0
    0.8000   -1.3856    0.0000 H   0  0  0  0  0  0  0  0  0  0  0  0
    1.3856    0.8000    0.0000 C   0  0  0  0  0  0  0  0  0  0  0  0
    1.9980    2.2782    0.0000 H   0  0  0  0  0  0  0  0  0  0  0  0
    0.7733    2.2782    0.0000 H   0  0  0  0  0  0  0  0  0  0  0  0
    2.7713    0.0000    0.0000 C   0  0  0  0  0  0  0  0  0  0  0  0
    1.9713   -1.3856    0.0000 H   0  0  0  0  0  0  0  0  0  0  0  0
    4.1569   -0.8001    0.0000 C   0  0  0  0  0  0  0  0  0  0  0  0
    5.5426   -1.6000    0.0000 H   0  0  0  0  0  0  0  0  0  0  0  0
    5.5426    0.0000    0.0000 H   0  0  0  0  0  0  0  0  0  0  0  0
    4.1569   -2.4000    0.0000 H   0  0  0  0  0  0  0  0  0  0  0  0
    3.5713    1.3856    0.0000 C   0  0  0  0  0  0  0  0  0  0  0  0
    4.3713    2.7712    0.0000 H   0  0  0  0  0  0  0  0  0  0  0  0
    3.0240    2.8891    0.0000 H   0  0  0  0  0  0  0  0  0  0  0  0
    5.1713    1.3856    0.0000 H   0  0  0  0  0  0  0  0  0  0  0  0
   -0.8000    1.3856    0.0000 C   0  0  0  0  0  0  0  0  0  0  0  0
   -1.6000    2.7712    0.0000 H   0  0  0  0  0  0  0  0  0  0  0  0
   -0.2527    2.8891    0.0000 H   0  0  0  0  0  0  0  0  0  0  0  0
   -2.3757    1.6634    0.0000 H   0  0  0  0  0  0  0  0  0  0  0  0
   -2.8892   -1.3472    0.0000 C   0  0  0  0  0  0  0  0  0  0  0  0
   -4.3927   -1.8945    0.0000 H   0  0  0  0  0  0  0  0  0  0  0  0
   -3.1670   -2.9229    0.0000 H   0  0  0  0  0  0  0  0  0  0  0  0
   -4.1148   -0.3188    0.0000 H   0  0  0  0  0  0  0  0  0  0  0  0
  1  2  1  0  0  0  0
  1  3  1  0  0  0  0
  1  4  1  0  0  0  0
  1  5  1  0  0  0  0
  5  6  1  0  0  0  0
  5  7  1  0  0  0  0
  7  8  1  0  0  0  0
  7  9  1  0  0  0  0
  9 10  1  0  0  0  0
  9 11  1  0  0  0  0
  9 12  1  0  0  0  0
 12 13  1  0  0  0  0
 12 14  1  0  0  0  0
 14 15  1  0  0  0  0
 14 16  1  0  0  0  0
 14 17  1  0  0  0  0
 12 18  1  0  0  0  0
 18 19  1  0  0  0  0
 18 20  1  0  0  0  0
 18 21  1  0  0  0  0
  7 22  1  0  0  0  0
 22 23  1  0  0  0  0
 22 24  1  0  0  0  0
 22 25  1  0  0  0  0
  5 26  1  0  0  0  0
 26 27  1  0  0  0  0
 26 28  1  0  0  0  0
 26 29  1  0  0  0  0
M  END
> <ChemID>
100621

> <source_casrn>
1069-53-0

> <CAS>
NOCAS_870833

> <SMILES>
CC(C)C(C)CC(C)C

> <NAME>
2,3,5-TRIMETHYLHEXANE

> <preferred_name>


> <iupac>


> <MPID>
99138

> <dsstox_substance_id>
DTXSID70870833

> <Canonical_QSARr>
CC(C)C(C)CC(C)C

> <InChI_Code_QSARr>
InChI=1S/C9H20/c1-7(2)6-9(5)8(3)4/h7-9H,6H2,1-5H3

> <InChI Key_QSARr>
ODGLTLJZCVNPBU-UHFFFAOYSA-N

> <OH>
7.880000000000001E-12

> <OH Temperature>
25.0

> <OH Data Type>
EXP

> <OH Reference>
ATKINSON,R (1989)

> <LogOH>
-11.103473782510461

$$$$
100622
  -INDIGO-08031719142D

 23 22  0  0  0  0  0  0  0  0999 V2000
    5.5427   -0.0000    0.0000 C   0  0  0  0  0  0  0  0  0  0  0  0
    6.9282   -0.8000    0.0000 H   0  0  0  0  0  0  0  0  0  0  0  0
    6.9282    0.8000    0.0000 H   0  0  0  0  0  0  0  0  0  0  0  0
    5.5427   -1.6000    0.0000 H   0  0  0  0  0  0  0  0  0  0  0  0
    4.1569    0.8000    0.0000 O   0  0  0  0  0  0  0  0  0  0  0  0
    2.7714   -0.0000    0.0000 C   0  0  0  0  0  0  0  0  0  0  0  0
    2.7714   -1.6000    0.0000 O   0  0  0  0  0  0  0  0  0  0  0  0
    1.3856    0.8000    0.0000 C   0  0  0  0  0  0  0  0  0  0  0  0
    0.7733    2.2782    0.0000 H   0  0  0  0  0  0  0  0  0  0  0  0
    1.9980    2.2782    0.0000 H   0  0  0  0  0  0  0  0  0  0  0  0
    0.0001   -0.0000    0.0000 C   0  0  0  0  0  0  0  0  0  0  0  0
    0.6122   -1.4782    0.0000 H   0  0  0  0  0  0  0  0  0  0  0  0
   -0.6122   -1.4782    0.0000 H   0  0  0  0  0  0  0  0  0  0  0  0
   -1.3856    0.8000    0.0000 C   0  0  0  0  0  0  0  0  0  0  0  0
   -1.9980    2.2782    0.0000 H   0  0  0  0  0  0  0  0  0  0  0  0
   -0.7733    2.2782    0.0000 H   0  0  0  0  0  0  0  0  0  0  0  0
   -2.7712   -0.0000    0.0000 C   0  0  0  0  0  0  0  0  0  0  0  0
   -2.7712   -1.6000    0.0000 O   0  0  0  0  0  0  0  0  0  0  0  0
   -4.1569    0.8000    0.0000 O   0  0  0  0  0  0  0  0  0  0  0  0
   -5.5425   -0.0000    0.0000 C   0  0  0  0  0  0  0  0  0  0  0  0
   -6.9282   -0.8000    0.0000 H   0  0  0  0  0  0  0  0  0  0  0  0
   -6.9282    0.8000    0.0000 H   0  0  0  0  0  0  0  0  0  0  0  0
   -5.5425   -1.6000    0.0000 H   0  0  0  0  0  0  0  0  0  0  0  0
  1  2  1  0  0  0  0
  1  3  1  0  0  0  0
  1  4  1  0  0  0  0
  1  5  1  0  0  0  0
  5  6  1  0  0  0  0
  6  7  2  0  0  0  0
  6  8  1  0  0  0  0
  8  9  1  0  0  0  0
  8 10  1  0  0  0  0
  8 11  1  0  0  0  0
 11 12  1  0  0  0  0
 11 13  1  0  0  0  0
 11 14  1  0  0  0  0
 14 15  1  0  0  0  0
 14 16  1  0  0  0  0
 14 17  1  0  0  0  0
 17 18  2  0  0  0  0
 17 19  1  0  0  0  0
 19 20  1  0  0  0  0
 20 21  1  0  0  0  0
 20 22  1  0  0  0  0
 20 23  1  0  0  0  0
M  END
> <ChemID>
100622

> <source_casrn>
1119-40-0

> <CAS>
1119-40-0

> <SMILES>
COC(=O)CCCC(=O)OC

> <NAME>
PENTANEDIOIC ACID, DIMETHYL ESTER

> <preferred_name>
Dimethyl glutarate

> <iupac>
C7H12O4

> <MPID>
99139

> <dsstox_substance_id>
DTXSID3025122

> <Canonical_QSARr>
COC(=O)CCCC(=O)OC

> <InChI_Code_QSARr>
InChI=1S/C7H12O4/c1-10-6(8)4-3-5-7(9)11-2/h3-5H2,1-2H3

> <InChI Key_QSARr>
XTDYIOOONNVFMA-UHFFFAOYSA-N

> <OH>
3.3E-12

> <OH Temperature>
25.0

> <OH Data Type>
EXP

> <OH Reference>
ASCHMANN,SM & ATKINSON,R (1998)

> <LogOH>
-11.481486060122105

$$$$
100623
  -INDIGO-08031719142D

 35 34  0  0  0  0  0  0  0  0999 V2000
    6.9283    0.8000    0.0000 C   0  0  0  0  0  0  0  0  0  0  0  0
    8.3138    1.6000    0.0000 H   0  0  0  0  0  0  0  0  0  0  0  0
    8.3138    0.0000    0.0000 H   0  0  0  0  0  0  0  0  0  0  0  0
    6.9283    2.4000    0.0000 H   0  0  0  0  0  0  0  0  0  0  0  0
    5.5427    0.0000    0.0000 C   0  0  0  0  0  0  0  0  0  0  0  0
    6.1549   -1.4782    0.0000 H   0  0  0  0  0  0  0  0  0  0  0  0
    4.9302   -1.4782    0.0000 H   0  0  0  0  0  0  0  0  0  0  0  0
    4.1569    0.8000    0.0000 C   0  0  0  0  0  0  0  0  0  0  0  0
    3.5446    2.2782    0.0000 H   0  0  0  0  0  0  0  0  0  0  0  0
    4.7691    2.2782    0.0000 H   0  0  0  0  0  0  0  0  0  0  0  0
    2.7713    0.0000    0.0000 C   0  0  0  0  0  0  0  0  0  0  0  0
    3.3835   -1.4782    0.0000 H   0  0  0  0  0  0  0  0  0  0  0  0
    2.1590   -1.4782    0.0000 H   0  0  0  0  0  0  0  0  0  0  0  0
    1.3857    0.8000    0.0000 C   0  0  0  0  0  0  0  0  0  0  0  0
    0.7735    2.2782    0.0000 H   0  0  0  0  0  0  0  0  0  0  0  0
    1.9979    2.2782    0.0000 H   0  0  0  0  0  0  0  0  0  0  0  0
    0.0001    0.0000    0.0000 C   0  0  0  0  0  0  0  0  0  0  0  0
    0.6124   -1.4782    0.0000 H   0  0  0  0  0  0  0  0  0  0  0  0
   -0.6124   -1.4782    0.0000 H   0  0  0  0  0  0  0  0  0  0  0  0
   -1.3857    0.8000    0.0000 C   0  0  0  0  0  0  0  0  0  0  0  0
   -1.9979    2.2782    0.0000 H   0  0  0  0  0  0  0  0  0  0  0  0
   -0.7735    2.2782    0.0000 H   0  0  0  0  0  0  0  0  0  0  0  0
   -2.7713    0.0000    0.0000 C   0  0  0  0  0  0  0  0  0  0  0  0
   -2.1590   -1.4782    0.0000 H   0  0  0  0  0  0  0  0  0  0  0  0
   -3.3835   -1.4782    0.0000 H   0  0  0  0  0  0  0  0  0  0  0  0
   -4.1569    0.8000    0.0000 C   0  0  0  0  0  0  0  0  0  0  0  0
   -4.7691    2.2782    0.0000 H   0  0  0  0  0  0  0  0  0  0  0  0
   -3.5446    2.2782    0.0000 H   0  0  0  0  0  0  0  0  0  0  0  0
   -5.5427    0.0000    0.0000 C   0  0  0  0  0  0  0  0  0  0  0  0
   -4.9302   -1.4782    0.0000 H   0  0  0  0  0  0  0  0  0  0  0  0
   -6.1549   -1.4782    0.0000 H   0  0  0  0  0  0  0  0  0  0  0  0
   -6.9283    0.8000    0.0000 C   0  0  0  0  0  0  0  0  0  0  0  0
   -8.3138    1.6000    0.0000 H   0  0  0  0  0  0  0  0  0  0  0  0
   -8.3138    0.0000    0.0000 H   0  0  0  0  0  0  0  0  0  0  0  0
   -6.9283    2.4000    0.0000 H   0  0  0  0  0  0  0  0  0  0  0  0
  1  2  1  0  0  0  0
  1  3  1  0  0  0  0
  1  4  1  0  0  0  0
  1  5  1  0  0  0  0
  5  6  1  0  0  0  0
  5  7  1  0  0  0  0
  5  8  1  0  0  0  0
  8  9  1  0  0  0  0
  8 10  1  0  0  0  0
  8 11  1  0  0  0  0
 11 12  1  0  0  0  0
 11 13  1  0  0  0  0
 11 14  1  0  0  0  0
 14 15  1  0  0  0  0
 14 16  1  0  0  0  0
 14 17  1  0  0  0  0
 17 18  1  0  0  0  0
 17 19  1  0  0  0  0
 17 20  1  0  0  0  0
 20 21  1  0  0  0  0
 20 22  1  0  0  0  0
 20 23  1  0  0  0  0
 23 24  1  0  0  0  0
 23 25  1  0  0  0  0
 23 26  1  0  0  0  0
 26 27  1  0  0  0  0
 26 28  1  0  0  0  0
 26 29  1  0  0  0  0
 29 30  1  0  0  0  0
 29 31  1  0  0  0  0
 29 32  1  0  0  0  0
 32 33  1  0  0  0  0
 32 34  1  0  0  0  0
 32 35  1  0  0  0  0
M  END
> <ChemID>
100623

> <source_casrn>
1120-21-4

> <CAS>
1120-21-4

> <SMILES>
CCCCCCCCCCC

> <NAME>
N-UNDECANE

> <preferred_name>
Undecane

> <iupac>
C11H24

> <MPID>
99140

> <dsstox_substance_id>
DTXSID9021689

> <Canonical_QSARr>
CCCCCCCCCCC

> <InChI_Code_QSARr>
InChI=1S/C11H24/c1-3-5-7-9-11-10-8-6-4-2/h3-11H2,1-2H3

> <InChI Key_QSARr>
RSJKGSCJYJTIGS-UHFFFAOYSA-N

> <OH>
1.32E-11

> <OH Temperature>
25.0

> <OH Data Type>
EXP

> <OH Reference>
KWOK,ESC & ATKINSON,R (1994)

> <LogOH>
-10.879426068794139

$$$$
100626
  -INDIGO-08031719142D

 15 14  0  0  0  0  0  0  0  0999 V2000
   -1.3857    0.8000    0.0000 C   0  0  0  0  0  0  0  0  0  0  0  0
    0.0000    0.0000    0.0000 C   0  0  0  0  0  0  0  0  0  0  0  0
   -0.6122   -1.4782    0.0000 H   0  0  0  0  0  0  0  0  0  0  0  0
    0.6122   -1.4782    0.0000 H   0  0  0  0  0  0  0  0  0  0  0  0
    1.3856    0.8000    0.0000 C   0  0  0  0  0  0  0  0  0  0  0  0
    2.7713    1.6000    0.0000 H   0  0  0  0  0  0  0  0  0  0  0  0
    2.7713    0.0000    0.0000 H   0  0  0  0  0  0  0  0  0  0  0  0
    1.3856    2.4000    0.0000 H   0  0  0  0  0  0  0  0  0  0  0  0
   -2.7713    0.0000    0.0000 N   0  0  0  0  0  0  0  0  0  0  0  0
   -2.7713   -1.6000    0.0000 H   0  0  0  0  0  0  0  0  0  0  0  0
   -4.1569    0.8000    0.0000 C   0  0  0  0  0  0  0  0  0  0  0  0
   -5.5426    1.6000    0.0000 H   0  0  0  0  0  0  0  0  0  0  0  0
   -5.5426    0.0000    0.0000 H   0  0  0  0  0  0  0  0  0  0  0  0
   -4.1569    2.4000    0.0000 H   0  0  0  0  0  0  0  0  0  0  0  0
   -1.3857    2.4000    0.0000 O   0  0  0  0  0  0  0  0  0  0  0  0
  1  2  1  0  0  0  0
  2  3  1  0  0  0  0
  2  4  1  0  0  0  0
  2  5  1  0  0  0  0
  5  6  1  0  0  0  0
  5  7  1  0  0  0  0
  5  8  1  0  0  0  0
  1  9  1  0  0  0  0
  9 10  1  0  0  0  0
  9 11  1  0  0  0  0
 11 12  1  0  0  0  0
 11 13  1  0  0  0  0
 11 14  1  0  0  0  0
  1 15  2  0  0  0  0
M  END
> <ChemID>
100626

> <source_casrn>
1187-58-2

> <CAS>
1187-58-2

> <SMILES>
CCC(=O)NC

> <NAME>
N-METHYL PROPIONAMIDE

> <preferred_name>
Propanamide, N-methyl-

> <iupac>
N-Methylpropanamide

> <MPID>
99142

> <dsstox_substance_id>
DTXSID0061583

> <Canonical_QSARr>
CCC(=O)NC

> <InChI_Code_QSARr>
InChI=1S/C4H9NO/c1-3-4(6)5-2/h3H2,1-2H3,(H,5,6)

> <InChI Key_QSARr>
QJQAMHYHNCADNR-UHFFFAOYSA-N

> <OH>
7.600000000000002E-12

> <OH Temperature>
27.0

> <OH Data Type>
EXP

> <OH Reference>
KOCH,R ET AL. (1997)

> <LogOH>
-11.119186407719225

$$$$
100627
  -INDIGO-08031719142D

 10  9  0  0  0  0  0  0  0  0999 V2000
    0.0000    0.0000    0.0000 C   0  0  0  0  0  0  0  0  0  0  0  0
    1.3856   -0.8000    0.0000 O   0  0  0  0  0  0  0  0  0  0  0  0
    2.7713    0.0000    0.0000 C   0  0  0  0  0  0  0  0  0  0  0  0
    4.1569   -0.8000    0.0000 C   0  0  0  0  0  0  0  0  0  0  0  0
    5.5426    0.0000    0.0000 F   0  0  0  0  0  0  0  0  0  0  0  0
    4.1569   -2.4000    0.0000 F   0  0  0  0  0  0  0  0  0  0  0  0
    2.7713    1.6000    0.0000 F   0  0  0  0  0  0  0  0  0  0  0  0
   -1.3856    0.8000    0.0000 F   0  0  0  0  0  0  0  0  0  0  0  0
    0.0000    1.6000    0.0000 F   0  0  0  0  0  0  0  0  0  0  0  0
   -1.3856   -0.8000    0.0000 F   0  0  0  0  0  0  0  0  0  0  0  0
  1  2  1  0  0  0  0
  2  3  1  0  0  0  0
  3  4  2  0  0  0  0
  4  5  1  0  0  0  0
  4  6  1  0  0  0  0
  3  7  1  0  0  0  0
  1  8  1  0  0  0  0
  1  9  1  0  0  0  0
  1 10  1  0  0  0  0
M  END
> <ChemID>
100627

> <source_casrn>
1187-93-5

> <CAS>
1187-93-5

> <SMILES>
FC(F)=C(F)OC(F)(F)F

> <NAME>
Ethene, trifluoro(trifluoromethoxy)-

> <preferred_name>
Trifluoro(trifluoromethoxy)ethylene

> <iupac>
trifluoromethyl trifluorovinyl ether

> <MPID>
99143

> <dsstox_substance_id>
DTXSID3051599

> <Canonical_QSARr>
FC(F)=C(F)OC(F)(F)F

> <InChI_Code_QSARr>
InChI=1S/C3F6O/c4-1(5)2(6)10-3(7,8)9

> <InChI Key_QSARr>
BLTXWCKMNMYXEA-UHFFFAOYSA-N

> <OH>
3.58E-12

> <OH Temperature>
25.0

> <OH Data Type>
EXP

> <OH Reference>
LI,Z ET AL. (2000)

> <LogOH>
-11.446116973356107

$$$$
100628
  -INDIGO-08031719142D

 11 11  0  0  0  0  0  0  0  0999 V2000
    1.6000    1.6000    0.0000 C   0  0  0  0  0  0  0  0  0  0  0  0
    1.6000    0.0000    0.0000 C   0  0  0  0  0  0  0  0  0  0  0  0
    3.2000    0.0000    0.0000 H   0  0  0  0  0  0  0  0  0  0  0  0
    1.6000   -1.6000    0.0000 H   0  0  0  0  0  0  0  0  0  0  0  0
    0.0000    0.0000    0.0000 C   0  0  0  0  0  0  0  0  0  0  0  0
    0.0000   -1.6000    0.0000 H   0  0  0  0  0  0  0  0  0  0  0  0
   -1.6000    0.0000    0.0000 H   0  0  0  0  0  0  0  0  0  0  0  0
    0.0000    1.6000    0.0000 C   0  0  0  0  0  0  0  0  0  0  0  0
   -1.6000    1.6000    0.0000 H   0  0  0  0  0  0  0  0  0  0  0  0
    0.0000    3.2000    0.0000 H   0  0  0  0  0  0  0  0  0  0  0  0
    2.7314    2.7314    0.0000 O   0  0  0  0  0  0  0  0  0  0  0  0
  1  2  1  0  0  0  0
  2  3  1  0  0  0  0
  2  4  1  0  0  0  0
  2  5  1  0  0  0  0
  5  6  1  0  0  0  0
  5  7  1  0  0  0  0
  5  8  1  0  0  0  0
  8  1  1  0  0  0  0
  8  9  1  0  0  0  0
  8 10  1  0  0  0  0
  1 11  2  0  0  0  0
M  END
> <ChemID>
100628

> <source_casrn>
1191-95-3

> <CAS>
1191-95-3

> <SMILES>
O=C1CCC1

> <NAME>
CYCLOBUTANONE

> <preferred_name>
Cyclobutanone

> <iupac>
CYCLOBUTANONE

> <MPID>
99144

> <dsstox_substance_id>
DTXSID9061592

> <Canonical_QSARr>
O=C1CCC1

> <InChI_Code_QSARr>
InChI=1S/C4H6O/c5-4-2-1-3-4/h1-3H2

> <InChI Key_QSARr>
SHQSVMDWKBRBGB-UHFFFAOYSA-N

> <OH>
8.700000000000003E-13

> <OH Temperature>
25.0

> <OH Data Type>
EXP

> <OH Reference>
ATKINSON,R (1989)

> <LogOH>
-12.0604807473814

$$$$
100630
  -INDIGO-08031719142D

 16 15  0  0  0  0  0  0  0  0999 V2000
   -0.6123   -1.4782    0.0000 F   0  0  0  0  0  0  0  0  0  0  0  0
    0.0000    0.0000    0.0000 C   0  0  0  0  0  0  0  0  0  0  0  0
    0.6123   -1.4782    0.0000 F   0  0  0  0  0  0  0  0  0  0  0  0
   -1.3856    0.8000    0.0000 O   0  0  0  0  0  0  0  0  0  0  0  0
   -2.7713    0.0000    0.0000 C   0  0  0  0  0  0  0  0  0  0  0  0
   -2.1590   -1.4782    0.0000 H   0  0  0  0  0  0  0  0  0  0  0  0
   -3.3836   -1.4782    0.0000 H   0  0  0  0  0  0  0  0  0  0  0  0
   -4.1570    0.8000    0.0000 C   0  0  0  0  0  0  0  0  0  0  0  0
   -4.1570    2.4000    0.0000 H   0  0  0  0  0  0  0  0  0  0  0  0
   -5.5426    0.0000    0.0000 C   0  0  0  0  0  0  0  0  0  0  0  0
   -6.9282    0.8000    0.0000 H   0  0  0  0  0  0  0  0  0  0  0  0
   -5.5426   -1.6000    0.0000 H   0  0  0  0  0  0  0  0  0  0  0  0
    1.3857    0.8000    0.0000 C   0  0  0  0  0  0  0  0  0  0  0  0
    2.7713    1.6000    0.0000 H   0  0  0  0  0  0  0  0  0  0  0  0
    2.7713    0.0000    0.0000 F   0  0  0  0  0  0  0  0  0  0  0  0
    1.3857    2.4000    0.0000 F   0  0  0  0  0  0  0  0  0  0  0  0
  1  2  1  0  0  0  0
  2  3  1  0  0  0  0
  2  4  1  0  0  0  0
  4  5  1  0  0  0  0
  5  6  1  0  0  0  0
  5  7  1  0  0  0  0
  5  8  1  0  0  0  0
  8  9  1  0  0  0  0
  8 10  2  0  0  0  0
 10 11  1  0  0  0  0
 10 12  1  0  0  0  0
  2 13  1  0  0  0  0
 13 14  1  0  0  0  0
 13 15  1  0  0  0  0
 13 16  1  0  0  0  0
M  END
> <ChemID>
100630

> <source_casrn>
1428-33-7

> <CAS>
1428-33-7

> <SMILES>
C=CCOC(F)(F)C(F)F

> <NAME>
CH2=CH-CH2-O-CF2-CF2H

> <preferred_name>
3-(1,1,2,2-Tetrafluoroethoxy)propene

> <iupac>
3-(1,1,2,2-tetrafluoroethoxy)prop-1-ene

> <MPID>
99145

> <dsstox_substance_id>
DTXSID90162186

> <Canonical_QSARr>
C=CCOC(F)(F)C(F)F

> <InChI_Code_QSARr>
InChI=1S/C5H6F4O/c1-2-3-10-5(8,9)4(6)7/h2,4H,1,3H2

> <InChI Key_QSARr>
DTDFWYZVBJYVPL-UHFFFAOYSA-N

> <OH>
1.9E-11

> <OH Temperature>
25.0

> <OH Data Type>
EXP

> <OH Reference>
HEATHFIELD,AE ET AL. (1998)

> <LogOH>
-10.721246399047168

$$$$
100631
  -INDIGO-08031719142D

  4  3  0  0  0  0  0  0  0  0999 V2000
    0.0000    0.0000    0.0000 C   0  0  0  0  0  0  0  0  0  0  0  0
    1.3856    0.8000    0.0000 H   0  0  0  0  0  0  0  0  0  0  0  0
   -1.3856    0.8000    0.0000 O   0  0  0  0  0  0  0  0  0  0  0  0
    0.0000   -1.6000    0.0000 F   0  0  0  0  0  0  0  0  0  0  0  0
  1  2  1  0  0  0  0
  1  3  2  0  0  0  0
  1  4  1  0  0  0  0
M  END
> <ChemID>
100631

> <source_casrn>
1493-02-3

> <CAS>
1493-02-3

> <SMILES>
O=CF

> <NAME>
FORMYL FLUORIDE

> <preferred_name>
Formyl fluoride

> <iupac>
FORMYL FLUORIDE

> <MPID>
99146

> <dsstox_substance_id>
DTXSID6073946

> <Canonical_QSARr>
O=CF

> <InChI_Code_QSARr>
InChI=1S/CHFO/c2-1-3/h1H

> <InChI Key_QSARr>
NHGVZTMBVDFPHJ-UHFFFAOYSA-N

> <OH>
4.0E-15

> <OH Temperature>
25.0

> <OH Data Type>
EXP

> <OH Reference>
WALLINGTON,TJ & HURLEY,MD (1993)

> <LogOH>
-14.397940008672037

$$$$
100632
  -INDIGO-08031719142D

  5  4  0  0  0  0  0  0  0  0999 V2000
    0.0000    0.0000    0.0000 C   0  0  0  0  0  0  0  0  0  0  0  0
    0.8000    1.3856    0.0000 H   0  0  0  0  0  0  0  0  0  0  0  0
   -1.3856    0.8000    0.0000 F   0  0  0  0  0  0  0  0  0  0  0  0
    1.3856   -0.8000    0.0000 F   0  0  0  0  0  0  0  0  0  0  0  0
   -0.8000   -1.3856    0.0000 Br  0  0  0  0  0  0  0  0  0  0  0  0
  1  2  1  0  0  0  0
  1  3  1  0  0  0  0
  1  4  1  0  0  0  0
  1  5  1  0  0  0  0
M  END
> <ChemID>
100632

> <source_casrn>
1511-62-2

> <CAS>
1511-62-2

> <SMILES>
FC(F)Br

> <NAME>
Bromodifluoromethane

> <preferred_name>
Bromodifluoromethane

> <iupac>
bromo-difluoromethane

> <MPID>
99147

> <dsstox_substance_id>
DTXSID5061740

> <Canonical_QSARr>
FC(F)Br

> <InChI_Code_QSARr>
InChI=1S/CHBrF2/c2-1(3)4/h1H

> <InChI Key_QSARr>
GRCDJFHYVYUNHM-UHFFFAOYSA-N

> <OH>
1.0E-14

> <OH Temperature>
25.0

> <OH Data Type>
EXP

> <OH Reference>
TALUKDAR,R ET AL. (1991)

> <LogOH>
-13.99999999999998

$$$$
100635
  -INDIGO-08031719142D

 21 20  0  0  0  0  0  0  0  0999 V2000
   -2.7713    0.0000    0.0000 O   0  0  0  0  0  0  0  0  0  0  0  0
   -1.3856    0.8000    0.0000 C   0  0  0  0  0  0  0  0  0  0  0  0
   -1.9979    2.2782    0.0000 H   0  0  0  0  0  0  0  0  0  0  0  0
   -0.7734    2.2782    0.0000 H   0  0  0  0  0  0  0  0  0  0  0  0
   -0.0001    0.0000    0.0000 C   0  0  0  0  0  0  0  0  0  0  0  0
    0.6123   -1.4782    0.0000 H   0  0  0  0  0  0  0  0  0  0  0  0
   -0.6122   -1.4782    0.0000 H   0  0  0  0  0  0  0  0  0  0  0  0
    1.3856    0.8000    0.0000 C   0  0  0  0  0  0  0  0  0  0  0  0
    0.7733    2.2782    0.0000 H   0  0  0  0  0  0  0  0  0  0  0  0
    1.9980    2.2782    0.0000 H   0  0  0  0  0  0  0  0  0  0  0  0
    2.7713    0.0000    0.0000 C   0  0  0  0  0  0  0  0  0  0  0  0
    2.7713   -1.6000    0.0000 H   0  0  0  0  0  0  0  0  0  0  0  0
    4.1569    0.8000    0.0000 C   0  0  0  0  0  0  0  0  0  0  0  0
    5.5426    0.0000    0.0000 H   0  0  0  0  0  0  0  0  0  0  0  0
    4.1569    2.4000    0.0000 H   0  0  0  0  0  0  0  0  0  0  0  0
   -4.1570    0.8000    0.0000 C   0  0  0  0  0  0  0  0  0  0  0  0
   -4.1570    2.4000    0.0000 O   0  0  0  0  0  0  0  0  0  0  0  0
   -5.5425    0.0000    0.0000 C   0  0  0  0  0  0  0  0  0  0  0  0
   -6.9282   -0.8000    0.0000 H   0  0  0  0  0  0  0  0  0  0  0  0
   -6.9282    0.8000    0.0000 H   0  0  0  0  0  0  0  0  0  0  0  0
   -5.5425   -1.6000    0.0000 H   0  0  0  0  0  0  0  0  0  0  0  0
  1  2  1  0  0  0  0
  2  3  1  0  0  0  0
  2  4  1  0  0  0  0
  2  5  1  0  0  0  0
  5  6  1  0  0  0  0
  5  7  1  0  0  0  0
  5  8  1  0  0  0  0
  8  9  1  0  0  0  0
  8 10  1  0  0  0  0
  8 11  1  0  0  0  0
 11 12  1  0  0  0  0
 11 13  2  0  0  0  0
 13 14  1  0  0  0  0
 13 15  1  0  0  0  0
  1 16  1  0  0  0  0
 16 17  2  0  0  0  0
 16 18  1  0  0  0  0
 18 19  1  0  0  0  0
 18 20  1  0  0  0  0
 18 21  1  0  0  0  0
M  END
> <ChemID>
100635

> <source_casrn>
1576-85-8

> <CAS>
1576-85-8

> <SMILES>
CC(=O)OCCCC=C

> <NAME>
4-Penten-1-yl acetate

> <preferred_name>
4-Pentenyl acetate

> <iupac>
pent-4-enyl acetate

> <MPID>
99149

> <dsstox_substance_id>
DTXSID60166292

> <Canonical_QSARr>
CC(=O)OCCCC=C

> <InChI_Code_QSARr>
InChI=1S/C7H12O2/c1-3-4-5-6-9-7(2)8/h3H,1,4-6H2,2H3

> <InChI Key_QSARr>
LVHDNIMNOMRZMF-UHFFFAOYSA-N

> <OH>
4.34E-11

> <OH Temperature>
25.0

> <OH Data Type>
EXP

> <OH Reference>
KWOK,ESC & ATKINSON,R (1994)

> <LogOH>
-10.362510270487494

$$$$
100638
  -INDIGO-08031719142D

 18 17  0  0  0  0  0  0  0  0999 V2000
    1.3856   -0.8000    0.0000 C   0  0  0  0  0  0  0  0  0  0  0  0
    2.7713   -1.6000    0.0000 H   0  0  0  0  0  0  0  0  0  0  0  0
    2.7713    0.0000    0.0000 H   0  0  0  0  0  0  0  0  0  0  0  0
    1.3856   -2.4000    0.0000 H   0  0  0  0  0  0  0  0  0  0  0  0
    0.0001    0.0000    0.0000 C   0  0  0  0  0  0  0  0  0  0  0  0
    0.8000    1.3856    0.0000 O   0  0  0  0  0  0  0  0  0  0  0  0
    2.4000    1.3856    0.0000 C   0  0  0  0  0  0  0  0  0  0  0  0
    3.2000    2.7713    0.0000 H   0  0  0  0  0  0  0  0  0  0  0  0
    4.0000    1.3856    0.0000 H   0  0  0  0  0  0  0  0  0  0  0  0
    1.6000    2.7713    0.0000 H   0  0  0  0  0  0  0  0  0  0  0  0
   -1.3856    0.8000    0.0000 C   0  0  0  0  0  0  0  0  0  0  0  0
   -2.7713    1.6000    0.0000 H   0  0  0  0  0  0  0  0  0  0  0  0
   -1.3856    2.4000    0.0000 H   0  0  0  0  0  0  0  0  0  0  0  0
   -2.7713    0.0000    0.0000 H   0  0  0  0  0  0  0  0  0  0  0  0
   -0.8000   -1.3856    0.0000 C   0  0  0  0  0  0  0  0  0  0  0  0
   -1.6000   -2.7713    0.0000 H   0  0  0  0  0  0  0  0  0  0  0  0
   -0.0001   -2.7713    0.0000 H   0  0  0  0  0  0  0  0  0  0  0  0
   -2.4000   -1.3856    0.0000 H   0  0  0  0  0  0  0  0  0  0  0  0
  1  2  1  0  0  0  0
  1  3  1  0  0  0  0
  1  4  1  0  0  0  0
  1  5  1  0  0  0  0
  5  6  1  0  0  0  0
  6  7  1  0  0  0  0
  7  8  1  0  0  0  0
  7  9  1  0  0  0  0
  7 10  1  0  0  0  0
  5 11  1  0  0  0  0
 11 12  1  0  0  0  0
 11 13  1  0  0  0  0
 11 14  1  0  0  0  0
  5 15  1  0  0  0  0
 15 16  1  0  0  0  0
 15 17  1  0  0  0  0
 15 18  1  0  0  0  0
M  END
> <ChemID>
100638

> <source_casrn>
1634-04-4

> <CAS>
1634-04-4

> <SMILES>
COC(C)(C)C

> <NAME>
METHYL T-BUTYL ETHER

> <preferred_name>
Methyl tert-butyl ether

> <iupac>
tert-butyl methyl ether

> <MPID>
99150

> <dsstox_substance_id>
DTXSID3020833

> <Canonical_QSARr>
COC(C)(C)C

> <InChI_Code_QSARr>
InChI=1S/C5H12O/c1-5(2,3)6-4/h1-4H3

> <InChI Key_QSARr>
BZLVMXJERCGZMT-UHFFFAOYSA-N

> <OH>
2.939999999999999E-12

> <OH Temperature>
25.0

> <OH Data Type>
EXP

> <OH Reference>
KWOK,ESC & ATKINSON,R (1994)

> <LogOH>
-11.53165266958786

$$$$
100640
  -INDIGO-08031719142D

  9  8  0  0  0  0  0  0  0  0999 V2000
    1.3856   -0.8000    0.0000 O   0  0  0  0  0  0  0  0  0  0  0  0
    2.7713    0.0000    0.0000 C   0  0  0  0  0  0  0  0  0  0  0  0
    4.1569    0.8000    0.0000 H   0  0  0  0  0  0  0  0  0  0  0  0
    4.1569   -0.8000    0.0000 F   0  0  0  0  0  0  0  0  0  0  0  0
    2.7713    1.6000    0.0000 F   0  0  0  0  0  0  0  0  0  0  0  0
    0.0000    0.0000    0.0000 C   0  0  0  0  0  0  0  0  0  0  0  0
   -1.3856    0.8000    0.0000 H   0  0  0  0  0  0  0  0  0  0  0  0
    0.0000    1.6000    0.0000 F   0  0  0  0  0  0  0  0  0  0  0  0
   -1.3856   -0.8000    0.0000 F   0  0  0  0  0  0  0  0  0  0  0  0
  1  2  1  0  0  0  0
  2  3  1  0  0  0  0
  2  4  1  0  0  0  0
  2  5  1  0  0  0  0
  1  6  1  0  0  0  0
  6  7  1  0  0  0  0
  6  8  1  0  0  0  0
  6  9  1  0  0  0  0
M  END
> <ChemID>
100640

> <source_casrn>
1691-17-4

> <CAS>
1691-17-4

> <SMILES>
FC(F)OC(F)F

> <NAME>
Di(difluoromethyl) ether

> <preferred_name>
Methane, oxybis[difluoro-

> <iupac>
difluoromethoxy-difluoromethane

> <MPID>
99152

> <dsstox_substance_id>
DTXSID2073271

> <Canonical_QSARr>
FC(F)OC(F)F

> <InChI_Code_QSARr>
InChI=1S/C2H2F4O/c3-1(4)7-2(5)6/h1-2H

> <InChI Key_QSARr>
IOCGMLSHRBHNCM-UHFFFAOYSA-N

> <OH>
3.000000000000001E-15

> <OH Temperature>
25.0

> <OH Data Type>
EXP

> <OH Reference>
GARLAND,NL ET AL. (1993)

> <LogOH>
-14.522878745280346

$$$$
100642
  -INDIGO-08031719142D

 14 13  0  0  0  0  0  0  0  0999 V2000
   -0.0000    0.0000    0.0000 C   0  0  0  0  0  0  0  0  0  0  0  0
    1.3857   -0.8000    0.0000 H   0  0  0  0  0  0  0  0  0  0  0  0
   -1.3856    0.8000    0.0000 O   0  0  0  0  0  0  0  0  0  0  0  0
   -2.9613    0.5222    0.0000 N   0  0  0  0  0  0  0  0  0  0  0  0
   -3.9898    1.7479    0.0000 O   0  0  0  0  0  0  0  0  0  0  0  0
   -3.5085   -0.9814    0.0000 O   0  0  0  0  0  0  0  0  0  0  0  0
    0.8000    1.3856    0.0000 C   0  0  0  0  0  0  0  0  0  0  0  0
    1.6000    2.7713    0.0000 H   0  0  0  0  0  0  0  0  0  0  0  0
    2.4000    1.3856    0.0000 H   0  0  0  0  0  0  0  0  0  0  0  0
   -0.0000    2.7713    0.0000 H   0  0  0  0  0  0  0  0  0  0  0  0
   -0.8000   -1.3856    0.0000 C   0  0  0  0  0  0  0  0  0  0  0  0
   -1.6000   -2.7713    0.0000 H   0  0  0  0  0  0  0  0  0  0  0  0
   -0.0000   -2.7713    0.0000 H   0  0  0  0  0  0  0  0  0  0  0  0
   -2.4000   -1.3856    0.0000 H   0  0  0  0  0  0  0  0  0  0  0  0
  1  2  1  0  0  0  0
  1  3  1  0  0  0  0
  3  4  1  0  0  0  0
  4  5  2  0  0  0  0
  4  6  1  0  0  0  0
  1  7  1  0  0  0  0
  7  8  1  0  0  0  0
  7  9  1  0  0  0  0
  7 10  1  0  0  0  0
  1 11  1  0  0  0  0
 11 12  1  0  0  0  0
 11 13  1  0  0  0  0
 11 14  1  0  0  0  0
M  CHG  2   4   1   6  -1
M  END
> <ChemID>
100642

> <source_casrn>
1712-64-7

> <CAS>
1712-64-7

> <SMILES>
CC(C)O[N+]([O-])=O

> <NAME>
ISOPROPYL NITRATE

> <preferred_name>
Nitric acid, 1-methylethyl ester

> <iupac>
propan-2-yl nitrate

> <MPID>
99153

> <dsstox_substance_id>
DTXSID5061908

> <Canonical_QSARr>
CC(C)O[N+]([O-])=O

> <InChI_Code_QSARr>
InChI=1S/C3H7NO3/c1-3(2)7-4(5)6/h3H,1-2H3

> <InChI Key_QSARr>
GAPFWGOSHOCNBM-UHFFFAOYSA-N

> <OH>
4.899999999999999E-13

> <OH Temperature>
25.0

> <OH Data Type>
EXP

> <OH Reference>
KWOK,ESC & ATKINSON,R (1994)

> <LogOH>
-12.309803919971479

$$$$
100644
  -INDIGO-08031719142D

 18 19  0  0  0  0  0  0  0  0999 V2000
    0.0001   -0.0000    0.0000 C   0  0  0  0  0  0  0  0  0  0  0  0
    1.3856    0.8000    0.0000 C   0  0  0  0  0  0  0  0  0  0  0  0
    1.3856    2.4000    0.0000 Cl  0  0  0  0  0  0  0  0  0  0  0  0
    2.7713   -0.0000    0.0000 C   0  0  0  0  0  0  0  0  0  0  0  0
    4.1569    0.8000    0.0000 H   0  0  0  0  0  0  0  0  0  0  0  0
    2.7713   -1.6000    0.0000 C   0  0  0  0  0  0  0  0  0  0  0  0
    4.1569   -2.4000    0.0000 H   0  0  0  0  0  0  0  0  0  0  0  0
    1.3856   -2.4000    0.0000 C   0  0  0  0  0  0  0  0  0  0  0  0
    1.3856   -4.0000    0.0000 Cl  0  0  0  0  0  0  0  0  0  0  0  0
    0.0001   -1.6000    0.0000 C   0  0  0  0  0  0  0  0  0  0  0  0
   -1.3856   -2.4000    0.0000 C   0  0  0  0  0  0  0  0  0  0  0  0
   -1.3856   -4.0000    0.0000 H   0  0  0  0  0  0  0  0  0  0  0  0
   -2.7712   -1.6000    0.0000 C   0  0  0  0  0  0  0  0  0  0  0  0
   -4.1569   -2.4000    0.0000 H   0  0  0  0  0  0  0  0  0  0  0  0
   -2.7712   -0.0000    0.0000 C   0  0  0  0  0  0  0  0  0  0  0  0
   -4.1569    0.8000    0.0000 H   0  0  0  0  0  0  0  0  0  0  0  0
   -1.3856    0.8000    0.0000 C   0  0  0  0  0  0  0  0  0  0  0  0
   -1.3856    2.4000    0.0000 H   0  0  0  0  0  0  0  0  0  0  0  0
  1  2  1  0  0  0  0
  2  3  1  0  0  0  0
  2  4  2  0  0  0  0
  4  5  1  0  0  0  0
  4  6  1  0  0  0  0
  6  7  1  0  0  0  0
  6  8  2  0  0  0  0
  8  9  1  0  0  0  0
  8 10  1  0  0  0  0
 10  1  1  0  0  0  0
 10 11  2  0  0  0  0
 11 12  1  0  0  0  0
 11 13  1  0  0  0  0
 13 14  1  0  0  0  0
 13 15  2  0  0  0  0
 15 16  1  0  0  0  0
 15 17  1  0  0  0  0
 17  1  2  0  0  0  0
 17 18  1  0  0  0  0
M  END
> <ChemID>
100644

> <source_casrn>
1825-31-6

> <CAS>
1825-31-6

> <SMILES>
Clc1ccc(Cl)c2ccccc12

> <NAME>
1,4-DICHLORONAPHTHALENE

> <preferred_name>
Naphthalene, 1,4-dichloro-

> <iupac>
1,4-DICHLORONAPHTHALENE

> <MPID>
99155

> <dsstox_substance_id>
DTXSID6061999

> <Canonical_QSARr>
Clc1ccc(Cl)c2ccccc12

> <InChI_Code_QSARr>
InChI=1S/C10H6Cl2/c11-9-5-6-10(12)8-4-2-1-3-7(8)9/h1-6H

> <InChI Key_QSARr>
JDPKCYMVSKDOGS-UHFFFAOYSA-N

> <OH>
5.8E-12

> <OH Temperature>
25.0

> <OH Data Type>
EXP

> <OH Reference>
ATKINSON,R (1989)

> <LogOH>
-11.236572006437074

$$$$
100646
  -INDIGO-08031719142D

 12 11  0  0  0  0  0  0  0  0999 V2000
   -0.0000   -1.6000    0.0000 C   0  0  0  0  0  0  0  0  0  0  0  0
    1.3856   -2.4000    0.0000 H   0  0  0  0  0  0  0  0  0  0  0  0
   -1.3856   -2.4000    0.0000 H   0  0  0  0  0  0  0  0  0  0  0  0
    0.0000    0.0000    0.0000 C   0  0  0  0  0  0  0  0  0  0  0  0
    1.3856    0.8000    0.0000 C   0  0  0  0  0  0  0  0  0  0  0  0
    2.7713    1.6000    0.0000 H   0  0  0  0  0  0  0  0  0  0  0  0
    2.7713    0.0000    0.0000 H   0  0  0  0  0  0  0  0  0  0  0  0
    1.3856    2.4000    0.0000 Cl  0  0  0  0  0  0  0  0  0  0  0  0
   -1.3856    0.8000    0.0000 C   0  0  0  0  0  0  0  0  0  0  0  0
   -2.7713    1.6000    0.0000 H   0  0  0  0  0  0  0  0  0  0  0  0
   -2.7713    0.0000    0.0000 H   0  0  0  0  0  0  0  0  0  0  0  0
   -1.3856    2.4000    0.0000 Cl  0  0  0  0  0  0  0  0  0  0  0  0
  1  2  1  0  0  0  0
  1  3  1  0  0  0  0
  1  4  2  0  0  0  0
  4  5  1  0  0  0  0
  5  6  1  0  0  0  0
  5  7  1  0  0  0  0
  5  8  1  0  0  0  0
  4  9  1  0  0  0  0
  9 10  1  0  0  0  0
  9 11  1  0  0  0  0
  9 12  1  0  0  0  0
M  END
> <ChemID>
100646

> <source_casrn>
1871-57-4

> <CAS>
1871-57-4

> <SMILES>
C=C(CCl)CCl

> <NAME>
2-(CHLOROMETHYL)-3-CHLORO-1-PROPENE

> <preferred_name>
3-Chloro-2-chloromethyl-1-propene

> <iupac>
3-chloro-2-(chloromethyl)prop-1-ene

> <MPID>
99156

> <dsstox_substance_id>
DTXSID3022166

> <Canonical_QSARr>
C=C(CCl)CCl

> <InChI_Code_QSARr>
InChI=1S/C4H6Cl2/c1-4(2-5)3-6/h1-3H2

> <InChI Key_QSARr>
XJFZOSUFGSANIF-UHFFFAOYSA-N

> <OH>
3.349999999999999E-11

> <OH Temperature>
25.0

> <OH Data Type>
EXP

> <OH Reference>
ATKINSON,R (1989)

> <LogOH>
-10.474955192963142

$$$$
100648
  -INDIGO-08031719142D

 12 11  0  0  0  0  0  0  0  0999 V2000
   -1.3856    0.8000    0.0000 C   0  0  0  0  0  0  0  0  0  0  0  0
    0.0000    0.0000    0.0000 C   0  0  0  0  0  0  0  0  0  0  0  0
   -0.6123   -1.4782    0.0000 H   0  0  0  0  0  0  0  0  0  0  0  0
    0.6123   -1.4782    0.0000 H   0  0  0  0  0  0  0  0  0  0  0  0
    1.3856    0.8000    0.0000 O   0  0  0  0  0  0  0  0  0  0  0  0
    2.7713    0.0000    0.0000 C   0  0  0  0  0  0  0  0  0  0  0  0
    4.1569   -0.8000    0.0000 H   0  0  0  0  0  0  0  0  0  0  0  0
    4.1569    0.8000    0.0000 F   0  0  0  0  0  0  0  0  0  0  0  0
    2.7713   -1.6000    0.0000 F   0  0  0  0  0  0  0  0  0  0  0  0
   -2.7713    1.6000    0.0000 F   0  0  0  0  0  0  0  0  0  0  0  0
   -2.7713    0.0000    0.0000 F   0  0  0  0  0  0  0  0  0  0  0  0
   -1.3856    2.4000    0.0000 F   0  0  0  0  0  0  0  0  0  0  0  0
  1  2  1  0  0  0  0
  2  3  1  0  0  0  0
  2  4  1  0  0  0  0
  2  5  1  0  0  0  0
  5  6  1  0  0  0  0
  6  7  1  0  0  0  0
  6  8  1  0  0  0  0
  6  9  1  0  0  0  0
  1 10  1  0  0  0  0
  1 11  1  0  0  0  0
  1 12  1  0  0  0  0
M  END
> <ChemID>
100648

> <source_casrn>
1885-48-9

> <CAS>
1885-48-9

> <SMILES>
FC(F)OCC(F)(F)F

> <NAME>
Difluoromethyl 2,2,2-trifluoroethyl ether

> <preferred_name>
Ethane, 2-(difluoromethoxy)-1,1,1-trifluoro-

> <iupac>
2-(Difluoromethoxy)-1,1,1-trifluoroethane

> <MPID>
99158

> <dsstox_substance_id>
DTXSID5073951

> <Canonical_QSARr>
FC(F)OCC(F)(F)F

> <InChI_Code_QSARr>
InChI=1S/C3H3F5O/c4-2(5)9-1-3(6,7)8/h2H,1H2

> <InChI Key_QSARr>
ZASBKNPRLPFSCA-UHFFFAOYSA-N

> <OH>
1.2E-14

> <OH Temperature>
25.0

> <OH Data Type>
EXP

> <OH Reference>
KWOK,ESC & ATKINSON,R (1994)

> <LogOH>
-13.920818753952378

$$$$
100650
  -INDIGO-08031719142D

 22 23  0  0  0  0  0  0  0  0999 V2000
    0.0001   -0.0000    0.0000 C   0  0  0  0  0  0  0  0  0  0  0  0
    0.8001   -1.3856    0.0000 C   0  0  0  0  0  0  0  0  0  0  0  0
    0.0001   -2.7713    0.0000 H   0  0  0  0  0  0  0  0  0  0  0  0
    2.4000   -1.3856    0.0000 C   0  0  0  0  0  0  0  0  0  0  0  0
    3.2000   -2.7713    0.0000 H   0  0  0  0  0  0  0  0  0  0  0  0
    3.2000   -0.0000    0.0000 C   0  0  0  0  0  0  0  0  0  0  0  0
    4.8000    0.0000    0.0000 H   0  0  0  0  0  0  0  0  0  0  0  0
    2.4000    1.3856    0.0000 C   0  0  0  0  0  0  0  0  0  0  0  0
    3.2000    2.7713    0.0000 Cl  0  0  0  0  0  0  0  0  0  0  0  0
    0.8001    1.3856    0.0000 C   0  0  0  0  0  0  0  0  0  0  0  0
    0.0001    2.7713    0.0000 H   0  0  0  0  0  0  0  0  0  0  0  0
   -1.6001    0.0000    0.0000 C   0  0  0  0  0  0  0  0  0  0  0  0
   -2.4001    1.3856    0.0000 C   0  0  0  0  0  0  0  0  0  0  0  0
   -1.6001    2.7713    0.0000 H   0  0  0  0  0  0  0  0  0  0  0  0
   -4.0000    1.3856    0.0000 C   0  0  0  0  0  0  0  0  0  0  0  0
   -4.8000    2.7713    0.0000 H   0  0  0  0  0  0  0  0  0  0  0  0
   -4.8000    0.0000    0.0000 C   0  0  0  0  0  0  0  0  0  0  0  0
   -6.4000    0.0000    0.0000 H   0  0  0  0  0  0  0  0  0  0  0  0
   -4.0000   -1.3856    0.0000 C   0  0  0  0  0  0  0  0  0  0  0  0
   -4.8000   -2.7713    0.0000 Cl  0  0  0  0  0  0  0  0  0  0  0  0
   -2.4001   -1.3856    0.0000 C   0  0  0  0  0  0  0  0  0  0  0  0
   -1.6001   -2.7713    0.0000 H   0  0  0  0  0  0  0  0  0  0  0  0
  1  2  1  0  0  0  0
  2  3  1  0  0  0  0
  2  4  2  0  0  0  0
  4  5  1  0  0  0  0
  4  6  1  0  0  0  0
  6  7  1  0  0  0  0
  6  8  2  0  0  0  0
  8  9  1  0  0  0  0
  8 10  1  0  0  0  0
 10  1  2  0  0  0  0
 10 11  1  0  0  0  0
  1 12  1  0  0  0  0
 12 13  1  0  0  0  0
 13 14  1  0  0  0  0
 13 15  2  0  0  0  0
 15 16  1  0  0  0  0
 15 17  1  0  0  0  0
 17 18  1  0  0  0  0
 17 19  2  0  0  0  0
 19 20  1  0  0  0  0
 19 21  1  0  0  0  0
 21 12  2  0  0  0  0
 21 22  1  0  0  0  0
M  END
> <ChemID>
100650

> <source_casrn>
2050-67-1

> <CAS>
2050-67-1

> <SMILES>
Clc1cc(ccc1)-c1cc(Cl)ccc1

> <NAME>
3,3'-DICHLOROBIPHENYL

> <preferred_name>
Clophen A 30

> <iupac>
3,3'-dichlorobiphenyl

> <MPID>
99160

> <dsstox_substance_id>
DTXSID70872817

> <Canonical_QSARr>
Clc1cc(ccc1)-c1cc(Cl)ccc1

> <InChI_Code_QSARr>
InChI=1S/C12H8Cl2/c13-11-5-1-3-9(7-11)10-4-2-6-12(14)8-10/h1-8H

> <InChI Key_QSARr>
KTXUOWUHFLBZPW-UHFFFAOYSA-N

> <OH>
4.099999999999999E-12

> <OH Temperature>
24.0

> <OH Data Type>
EXP

> <OH Reference>
KWOK,ESC ET AL. (1995)

> <LogOH>
-11.38721614328027

$$$$
100651
  -INDIGO-08031719142D

 22 23  0  0  0  0  0  0  0  0999 V2000
   -0.0001    0.0000    0.0000 C   0  0  0  0  0  0  0  0  0  0  0  0
    1.6001   -0.0000    0.0000 C   0  0  0  0  0  0  0  0  0  0  0  0
    2.4001   -1.3856    0.0000 C   0  0  0  0  0  0  0  0  0  0  0  0
    1.6001   -2.7713    0.0000 H   0  0  0  0  0  0  0  0  0  0  0  0
    4.0000   -1.3856    0.0000 C   0  0  0  0  0  0  0  0  0  0  0  0
    4.8000   -2.7713    0.0000 H   0  0  0  0  0  0  0  0  0  0  0  0
    4.8000    0.0000    0.0000 C   0  0  0  0  0  0  0  0  0  0  0  0
    6.4000    0.0000    0.0000 Cl  0  0  0  0  0  0  0  0  0  0  0  0
    4.0000    1.3856    0.0000 C   0  0  0  0  0  0  0  0  0  0  0  0
    4.8000    2.7713    0.0000 H   0  0  0  0  0  0  0  0  0  0  0  0
    2.4001    1.3856    0.0000 C   0  0  0  0  0  0  0  0  0  0  0  0
    1.6001    2.7713    0.0000 H   0  0  0  0  0  0  0  0  0  0  0  0
   -0.8001    1.3856    0.0000 C   0  0  0  0  0  0  0  0  0  0  0  0
   -0.0001    2.7713    0.0000 H   0  0  0  0  0  0  0  0  0  0  0  0
   -2.4000    1.3856    0.0000 C   0  0  0  0  0  0  0  0  0  0  0  0
   -3.2000    2.7713    0.0000 H   0  0  0  0  0  0  0  0  0  0  0  0
   -3.2000    0.0000    0.0000 C   0  0  0  0  0  0  0  0  0  0  0  0
   -4.8000   -0.0000    0.0000 Cl  0  0  0  0  0  0  0  0  0  0  0  0
   -2.4000   -1.3856    0.0000 C   0  0  0  0  0  0  0  0  0  0  0  0
   -3.2000   -2.7713    0.0000 H   0  0  0  0  0  0  0  0  0  0  0  0
   -0.8001   -1.3856    0.0000 C   0  0  0  0  0  0  0  0  0  0  0  0
   -0.0001   -2.7713    0.0000 H   0  0  0  0  0  0  0  0  0  0  0  0
  1  2  1  0  0  0  0
  2  3  1  0  0  0  0
  3  4  1  0  0  0  0
  3  5  2  0  0  0  0
  5  6  1  0  0  0  0
  5  7  1  0  0  0  0
  7  8  1  0  0  0  0
  7  9  2  0  0  0  0
  9 10  1  0  0  0  0
  9 11  1  0  0  0  0
 11  2  2  0  0  0  0
 11 12  1  0  0  0  0
  1 13  1  0  0  0  0
 13 14  1  0  0  0  0
 13 15  2  0  0  0  0
 15 16  1  0  0  0  0
 15 17  1  0  0  0  0
 17 18  1  0  0  0  0
 17 19  2  0  0  0  0
 19 20  1  0  0  0  0
 19 21  1  0  0  0  0
 21  1  2  0  0  0  0
 21 22  1  0  0  0  0
M  END
> <ChemID>
100651

> <source_casrn>
2050-68-2

> <CAS>
2050-68-2

> <SMILES>
Clc1ccc(cc1)-c1ccc(Cl)cc1

> <NAME>
4,4'-DICHLOROBIPHENYL

> <preferred_name>
4,4'-Dichlorobiphenyl

> <iupac>
4,4'-dichlorobiphenyl

> <MPID>
99161

> <dsstox_substance_id>
DTXSID0022515

> <Canonical_QSARr>
Clc1ccc(cc1)-c1ccc(Cl)cc1

> <InChI_Code_QSARr>
InChI=1S/C12H8Cl2/c13-11-5-1-9(2-6-11)10-3-7-12(14)8-4-10/h1-8H

> <InChI Key_QSARr>
YTBRNEUEFCNVHC-UHFFFAOYSA-N

> <OH>
2.0E-12

> <OH Temperature>
25.0

> <OH Data Type>
EXP

> <OH Reference>
ANDERSON,PN & HITES,RA (1996)

> <LogOH>
-11.698970004336017

$$$$
100653
  -INDIGO-08031719142D

 22 23  0  0  0  0  0  0  0  0999 V2000
   -0.0001    0.0000    0.0000 C   0  0  0  0  0  0  0  0  0  0  0  0
    1.6001   -0.0000    0.0000 C   0  0  0  0  0  0  0  0  0  0  0  0
    2.4001   -1.3856    0.0000 C   0  0  0  0  0  0  0  0  0  0  0  0
    1.6001   -2.7713    0.0000 H   0  0  0  0  0  0  0  0  0  0  0  0
    4.0000   -1.3856    0.0000 C   0  0  0  0  0  0  0  0  0  0  0  0
    4.8000   -2.7713    0.0000 H   0  0  0  0  0  0  0  0  0  0  0  0
    4.8000    0.0000    0.0000 C   0  0  0  0  0  0  0  0  0  0  0  0
    6.4000    0.0000    0.0000 H   0  0  0  0  0  0  0  0  0  0  0  0
    4.0000    1.3856    0.0000 C   0  0  0  0  0  0  0  0  0  0  0  0
    4.8000    2.7713    0.0000 H   0  0  0  0  0  0  0  0  0  0  0  0
    2.4001    1.3856    0.0000 C   0  0  0  0  0  0  0  0  0  0  0  0
    1.6001    2.7713    0.0000 H   0  0  0  0  0  0  0  0  0  0  0  0
   -0.8001    1.3856    0.0000 C   0  0  0  0  0  0  0  0  0  0  0  0
   -0.0001    2.7713    0.0000 H   0  0  0  0  0  0  0  0  0  0  0  0
   -2.4000    1.3856    0.0000 C   0  0  0  0  0  0  0  0  0  0  0  0
   -3.2000    2.7713    0.0000 Cl  0  0  0  0  0  0  0  0  0  0  0  0
   -3.2000    0.0000    0.0000 C   0  0  0  0  0  0  0  0  0  0  0  0
   -4.8000   -0.0000    0.0000 H   0  0  0  0  0  0  0  0  0  0  0  0
   -2.4000   -1.3856    0.0000 C   0  0  0  0  0  0  0  0  0  0  0  0
   -3.2000   -2.7713    0.0000 H   0  0  0  0  0  0  0  0  0  0  0  0
   -0.8001   -1.3856    0.0000 C   0  0  0  0  0  0  0  0  0  0  0  0
   -0.0001   -2.7713    0.0000 H   0  0  0  0  0  0  0  0  0  0  0  0
  1  2  1  0  0  0  0
  2  3  1  0  0  0  0
  3  4  1  0  0  0  0
  3  5  2  0  0  0  0
  5  6  1  0  0  0  0
  5  7  1  0  0  0  0
  7  8  1  0  0  0  0
  7  9  2  0  0  0  0
  9 10  1  0  0  0  0
  9 11  1  0  0  0  0
 11  2  2  0  0  0  0
 11 12  1  0  0  0  0
  1 13  1  0  0  0  0
 13 14  1  0  0  0  0
 13 15  2  0  0  0  0
 15 16  1  0  0  0  0
 15 17  1  0  0  0  0
 17 18  1  0  0  0  0
 17 19  2  0  0  0  0
 19 20  1  0  0  0  0
 19 21  1  0  0  0  0
 21  1  2  0  0  0  0
 21 22  1  0  0  0  0
M  END
> <ChemID>
100653

> <source_casrn>
2051-61-8

> <CAS>
2051-61-8

> <SMILES>
Clc1cc(ccc1)-c1ccccc1

> <NAME>
3-CHLOROBIPHENYL

> <preferred_name>
3-Chlorobiphenyl

> <iupac>
3-chlorobiphenyl

> <MPID>
99163

> <dsstox_substance_id>
DTXSID1040299

> <Canonical_QSARr>
Clc1cc(ccc1)-c1ccccc1

> <InChI_Code_QSARr>
InChI=1S/C12H9Cl/c13-12-8-4-7-11(9-12)10-5-2-1-3-6-10/h1-9H

> <InChI Key_QSARr>
NMWSKOLWZZWHPL-UHFFFAOYSA-N

> <OH>
5.28E-12

> <OH Temperature>
25.0

> <OH Data Type>
EXP

> <OH Reference>
KWOK,ESC & ATKINSON,R (1994)

> <LogOH>
-11.277366077466196

$$$$
100654
  -INDIGO-08031719142D

 22 23  0  0  0  0  0  0  0  0999 V2000
   -0.0001    0.0000    0.0000 C   0  0  0  0  0  0  0  0  0  0  0  0
    1.6001   -0.0000    0.0000 C   0  0  0  0  0  0  0  0  0  0  0  0
    2.4001   -1.3856    0.0000 C   0  0  0  0  0  0  0  0  0  0  0  0
    1.6001   -2.7713    0.0000 H   0  0  0  0  0  0  0  0  0  0  0  0
    4.0000   -1.3856    0.0000 C   0  0  0  0  0  0  0  0  0  0  0  0
    4.8000   -2.7713    0.0000 H   0  0  0  0  0  0  0  0  0  0  0  0
    4.8000    0.0000    0.0000 C   0  0  0  0  0  0  0  0  0  0  0  0
    6.4000    0.0000    0.0000 H   0  0  0  0  0  0  0  0  0  0  0  0
    4.0000    1.3856    0.0000 C   0  0  0  0  0  0  0  0  0  0  0  0
    4.8000    2.7713    0.0000 H   0  0  0  0  0  0  0  0  0  0  0  0
    2.4001    1.3856    0.0000 C   0  0  0  0  0  0  0  0  0  0  0  0
    1.6001    2.7713    0.0000 H   0  0  0  0  0  0  0  0  0  0  0  0
   -0.8001    1.3856    0.0000 C   0  0  0  0  0  0  0  0  0  0  0  0
   -0.0001    2.7713    0.0000 H   0  0  0  0  0  0  0  0  0  0  0  0
   -2.4000    1.3856    0.0000 C   0  0  0  0  0  0  0  0  0  0  0  0
   -3.2000    2.7713    0.0000 H   0  0  0  0  0  0  0  0  0  0  0  0
   -3.2000    0.0000    0.0000 C   0  0  0  0  0  0  0  0  0  0  0  0
   -4.8000   -0.0000    0.0000 Cl  0  0  0  0  0  0  0  0  0  0  0  0
   -2.4000   -1.3856    0.0000 C   0  0  0  0  0  0  0  0  0  0  0  0
   -3.2000   -2.7713    0.0000 H   0  0  0  0  0  0  0  0  0  0  0  0
   -0.8001   -1.3856    0.0000 C   0  0  0  0  0  0  0  0  0  0  0  0
   -0.0001   -2.7713    0.0000 H   0  0  0  0  0  0  0  0  0  0  0  0
  1  2  1  0  0  0  0
  2  3  1  0  0  0  0
  3  4  1  0  0  0  0
  3  5  2  0  0  0  0
  5  6  1  0  0  0  0
  5  7  1  0  0  0  0
  7  8  1  0  0  0  0
  7  9  2  0  0  0  0
  9 10  1  0  0  0  0
  9 11  1  0  0  0  0
 11  2  2  0  0  0  0
 11 12  1  0  0  0  0
  1 13  1  0  0  0  0
 13 14  1  0  0  0  0
 13 15  2  0  0  0  0
 15 16  1  0  0  0  0
 15 17  1  0  0  0  0
 17 18  1  0  0  0  0
 17 19  2  0  0  0  0
 19 20  1  0  0  0  0
 19 21  1  0  0  0  0
 21  1  2  0  0  0  0
 21 22  1  0  0  0  0
M  END
> <ChemID>
100654

> <source_casrn>
2051-62-9

> <CAS>
2051-62-9

> <SMILES>
Clc1ccc(cc1)-c1ccccc1

> <NAME>
4-CHLOROBIPHENYL

> <preferred_name>
4-Chlorobiphenyl

> <iupac>
4-chlorobiphenyl

> <MPID>
99164

> <dsstox_substance_id>
DTXSID3040300

> <Canonical_QSARr>
Clc1ccc(cc1)-c1ccccc1

> <InChI_Code_QSARr>
InChI=1S/C12H9Cl/c13-12-8-6-11(7-9-12)10-4-2-1-3-5-10/h1-9H

> <InChI Key_QSARr>
FPWNLURCHDRMHC-UHFFFAOYSA-N

> <OH>
3.86E-12

> <OH Temperature>
25.0

> <OH Data Type>
EXP

> <OH Reference>
ATKINSON,R (1989)

> <LogOH>
-11.41341269532824

$$$$
100655
  -INDIGO-08031719142D

 21 21  0  0  0  0  0  0  0  0999 V2000
    2.7291    0.4812    0.0000 N   0  0  0  0  0  0  0  0  0  0  0  0
    3.9549    1.5097    0.0000 O   0  0  0  0  0  0  0  0  0  0  0  0
    3.0070   -1.0945    0.0000 O   0  0  0  0  0  0  0  0  0  0  0  0
    1.2257    1.0285    0.0000 O   0  0  0  0  0  0  0  0  0  0  0  0
   -0.0000   -0.0000    0.0000 C   0  0  0  0  0  0  0  0  0  0  0  0
    1.2257   -1.0285    0.0000 H   0  0  0  0  0  0  0  0  0  0  0  0
   -0.8001    1.3857    0.0000 C   0  0  0  0  0  0  0  0  0  0  0  0
    0.7035    1.9329    0.0000 H   0  0  0  0  0  0  0  0  0  0  0  0
   -1.0778    2.9613    0.0000 H   0  0  0  0  0  0  0  0  0  0  0  0
   -2.3999    1.3857    0.0000 C   0  0  0  0  0  0  0  0  0  0  0  0
   -2.1222    2.9613    0.0000 H   0  0  0  0  0  0  0  0  0  0  0  0
   -3.9035    1.9329    0.0000 H   0  0  0  0  0  0  0  0  0  0  0  0
   -3.2000   -0.0000    0.0000 C   0  0  0  0  0  0  0  0  0  0  0  0
   -4.4257    1.0285    0.0000 H   0  0  0  0  0  0  0  0  0  0  0  0
   -4.4257   -1.0285    0.0000 H   0  0  0  0  0  0  0  0  0  0  0  0
   -2.3999   -1.3857    0.0000 C   0  0  0  0  0  0  0  0  0  0  0  0
   -3.9035   -1.9329    0.0000 H   0  0  0  0  0  0  0  0  0  0  0  0
   -2.1222   -2.9613    0.0000 H   0  0  0  0  0  0  0  0  0  0  0  0
   -0.8001   -1.3857    0.0000 C   0  0  0  0  0  0  0  0  0  0  0  0
   -1.0778   -2.9613    0.0000 H   0  0  0  0  0  0  0  0  0  0  0  0
    0.7035   -1.9329    0.0000 H   0  0  0  0  0  0  0  0  0  0  0  0
  1  2  1  0  0  0  0
  1  3  2  0  0  0  0
  1  4  1  0  0  0  0
  4  5  1  0  0  0  0
  5  6  1  0  0  0  0
  5  7  1  0  0  0  0
  7  8  1  0  0  0  0
  7  9  1  0  0  0  0
  7 10  1  0  0  0  0
 10 11  1  0  0  0  0
 10 12  1  0  0  0  0
 10 13  1  0  0  0  0
 13 14  1  0  0  0  0
 13 15  1  0  0  0  0
 13 16  1  0  0  0  0
 16 17  1  0  0  0  0
 16 18  1  0  0  0  0
 16 19  1  0  0  0  0
 19  5  1  0  0  0  0
 19 20  1  0  0  0  0
 19 21  1  0  0  0  0
M  CHG  2   1   1   2  -1
M  END
> <ChemID>
100655

> <source_casrn>
2108-66-9

> <CAS>
2108-66-9

> <SMILES>
[O-][N+](=O)OC1CCCCC1

> <NAME>
Cyclohexyl nitrate

> <preferred_name>


> <iupac>


> <MPID>
99165

> <dsstox_substance_id>
DTXSID70878834

> <Canonical_QSARr>
[O-][N+](=O)OC1CCCCC1

> <InChI_Code_QSARr>
InChI=1S/C6H11NO3/c8-7(9)10-6-4-2-1-3-5-6/h6H,1-5H2

> <InChI Key_QSARr>
HLYOOCIMLHNMOG-UHFFFAOYSA-N

> <OH>
3.3E-12

> <OH Temperature>
25.0

> <OH Data Type>
EXP

> <OH Reference>
KWOK,ESC & ATKINSON,R (1994)

> <LogOH>
-11.481486060122105

$$$$
100657
  -INDIGO-08031719142D

 11 10  0  0  0  0  0  0  0  0999 V2000
    1.3856   -0.8000    0.0000 C   0  0  0  0  0  0  0  0  0  0  0  0
    2.7712    0.0000    0.0000 O   0  0  0  0  0  0  0  0  0  0  0  0
    4.1569   -0.8000    0.0000 O   0  0  0  0  0  0  0  0  0  0  0  0
    5.5425    0.0000    0.0000 N   0  0  0  0  0  0  0  0  0  0  0  0
    6.9282   -0.8000    0.0000 O   0  0  0  0  0  0  0  0  0  0  0  0
    5.5425    1.6000    0.0000 O   0  0  0  0  0  0  0  0  0  0  0  0
   -0.0001    0.0000    0.0000 C   0  0  0  0  0  0  0  0  0  0  0  0
   -1.3856    0.8000    0.0000 H   0  0  0  0  0  0  0  0  0  0  0  0
   -0.0001    1.6000    0.0000 H   0  0  0  0  0  0  0  0  0  0  0  0
   -1.3856   -0.8000    0.0000 H   0  0  0  0  0  0  0  0  0  0  0  0
    1.3856   -2.4000    0.0000 O   0  0  0  0  0  0  0  0  0  0  0  0
  1  2  1  0  0  0  0
  2  3  1  0  0  0  0
  3  4  1  0  0  0  0
  4  5  2  0  0  0  0
  4  6  1  0  0  0  0
  1  7  1  0  0  0  0
  7  8  1  0  0  0  0
  7  9  1  0  0  0  0
  7 10  1  0  0  0  0
  1 11  2  0  0  0  0
M  CHG  2   4   1   6  -1
M  END
> <ChemID>
100657

> <source_casrn>
2278-22-0

> <CAS>
2278-22-0

> <SMILES>
CC(=O)OO[N+]([O-])=O

> <NAME>
PEROXYACETYLNITRATE

> <preferred_name>
Peroxyacetyl nitrate

> <iupac>
nitro ethaneperoxoate

> <MPID>
99167

> <dsstox_substance_id>
DTXSID4062301

> <Canonical_QSARr>
CC(=O)OO[N+]([O-])=O

> <InChI_Code_QSARr>
InChI=1S/C2H3NO5/c1-2(4)7-8-3(5)6/h1H3

> <InChI Key_QSARr>
VGQXTTSVLMQFHM-UHFFFAOYSA-N

> <OH>
1.0E-13

> <OH Temperature>
25.0

> <OH Data Type>
EXP

> <OH Reference>
ATKINSON,R (1989)

> <LogOH>
-13.000000000000002

$$$$
100658
  -INDIGO-08031719142D

  5  4  0  0  0  0  0  0  0  0999 V2000
    0.0000    0.0000    0.0000 C   0  0  0  0  0  0  0  0  0  0  0  0
    0.8000    1.3856    0.0000 F   0  0  0  0  0  0  0  0  0  0  0  0
   -1.3856    0.8000    0.0000 F   0  0  0  0  0  0  0  0  0  0  0  0
    1.3856   -0.8000    0.0000 F   0  0  0  0  0  0  0  0  0  0  0  0
   -0.8000   -1.3856    0.0000 I   0  0  0  0  0  0  0  0  0  0  0  0
  1  2  1  0  0  0  0
  1  3  1  0  0  0  0
  1  4  1  0  0  0  0
  1  5  1  0  0  0  0
M  END
> <ChemID>
100658

> <source_casrn>
2314-97-8

> <CAS>
2314-97-8

> <SMILES>
FC(F)(F)I

> <NAME>
Methane, trifluoroiodo-

> <preferred_name>
Trifluoroiodomethane

> <iupac>
trifluoro-iodomethane

> <MPID>
99168

> <dsstox_substance_id>
DTXSID2062325

> <Canonical_QSARr>
FC(F)(F)I

> <InChI_Code_QSARr>
InChI=1S/CF3I/c2-1(3,4)5

> <InChI Key_QSARr>
VPAYJEUHKVESSD-UHFFFAOYSA-N

> <OH>
5.2E-14

> <OH Temperature>
25.0

> <OH Data Type>
EXP

> <OH Reference>
BERRY,RJ ET AL. (1998)

> <LogOH>
-13.283996656365218

$$$$
100659
  -INDIGO-08031719142D

 10  9  0  0  0  0  0  0  0  0999 V2000
    1.3856   -0.8000    0.0000 C   0  0  0  0  0  0  0  0  0  0  0  0
    2.7713    0.0000    0.0000 H   0  0  0  0  0  0  0  0  0  0  0  0
    0.0000    0.0000    0.0000 C   0  0  0  0  0  0  0  0  0  0  0  0
    0.0000    1.6000    0.0000 H   0  0  0  0  0  0  0  0  0  0  0  0
   -1.3856   -0.8000    0.0000 C   0  0  0  0  0  0  0  0  0  0  0  0
   -1.3856   -2.4000    0.0000 H   0  0  0  0  0  0  0  0  0  0  0  0
   -2.7713    0.0000    0.0000 C   0  0  0  0  0  0  0  0  0  0  0  0
   -4.1569   -0.8000    0.0000 H   0  0  0  0  0  0  0  0  0  0  0  0
   -2.7713    1.6000    0.0000 O   0  0  0  0  0  0  0  0  0  0  0  0
    1.3856   -2.4000    0.0000 O   0  0  0  0  0  0  0  0  0  0  0  0
  1  2  1  0  0  0  0
  1  3  1  0  0  0  0
  3  4  1  0  0  0  0
  3  5  2  0  0  0  0
  5  6  1  0  0  0  0
  5  7  1  0  0  0  0
  7  8  1  0  0  0  0
  7  9  2  0  0  0  0
  1 10  2  0  0  0  0
M  END
> <ChemID>
100659

> <source_casrn>
2363-83-9|3675-13-6

> <CAS>
2363-83-9|3675-13-6

> <SMILES>
O=C/C=C/C=O

> <NAME>
trans-Butenedial, cis-Butenedial

> <preferred_name>


> <iupac>


> <MPID>
99169|99193

> <dsstox_substance_id>
DTXSID00878721|DTXSID40878720

> <Canonical_QSARr>
O=CC=CC=O

> <InChI_Code_QSARr>
InChI=1S/C4H4O2/c5-3-1-2-4-6/h1-4H/b2-1+

> <InChI Key_QSARr>
JGEMYUOFGVHXKV-OWOJBTEDSA-N

> <OH>
3.81E-11

> <OH Temperature>
25.0

> <OH Data Type>
EXP

> <OH Reference>
BIERBACH,A ET AL. (1994)

> <LogOH>
-10.419075024324384

$$$$
100662
  -INDIGO-08031719142D

 22 23  0  0  0  0  0  0  0  0999 V2000
   -0.0001    0.0000    0.0000 C   0  0  0  0  0  0  0  0  0  0  0  0
    1.6001   -0.0000    0.0000 C   0  0  0  0  0  0  0  0  0  0  0  0
    2.4001   -1.3856    0.0000 C   0  0  0  0  0  0  0  0  0  0  0  0
    1.6001   -2.7713    0.0000 Cl  0  0  0  0  0  0  0  0  0  0  0  0
    4.0000   -1.3856    0.0000 C   0  0  0  0  0  0  0  0  0  0  0  0
    4.8000   -2.7713    0.0000 H   0  0  0  0  0  0  0  0  0  0  0  0
    4.8000    0.0000    0.0000 C   0  0  0  0  0  0  0  0  0  0  0  0
    6.4000    0.0000    0.0000 Cl  0  0  0  0  0  0  0  0  0  0  0  0
    4.0000    1.3856    0.0000 C   0  0  0  0  0  0  0  0  0  0  0  0
    4.8000    2.7713    0.0000 H   0  0  0  0  0  0  0  0  0  0  0  0
    2.4001    1.3856    0.0000 C   0  0  0  0  0  0  0  0  0  0  0  0
    1.6001    2.7713    0.0000 H   0  0  0  0  0  0  0  0  0  0  0  0
   -0.8001    1.3856    0.0000 C   0  0  0  0  0  0  0  0  0  0  0  0
   -0.0001    2.7713    0.0000 Cl  0  0  0  0  0  0  0  0  0  0  0  0
   -2.4000    1.3856    0.0000 C   0  0  0  0  0  0  0  0  0  0  0  0
   -3.2000    2.7713    0.0000 H   0  0  0  0  0  0  0  0  0  0  0  0
   -3.2000    0.0000    0.0000 C   0  0  0  0  0  0  0  0  0  0  0  0
   -4.8000   -0.0000    0.0000 Cl  0  0  0  0  0  0  0  0  0  0  0  0
   -2.4000   -1.3856    0.0000 C   0  0  0  0  0  0  0  0  0  0  0  0
   -3.2000   -2.7713    0.0000 H   0  0  0  0  0  0  0  0  0  0  0  0
   -0.8001   -1.3856    0.0000 C   0  0  0  0  0  0  0  0  0  0  0  0
   -0.0001   -2.7713    0.0000 H   0  0  0  0  0  0  0  0  0  0  0  0
  1  2  1  0  0  0  0
  2  3  1  0  0  0  0
  3  4  1  0  0  0  0
  3  5  2  0  0  0  0
  5  6  1  0  0  0  0
  5  7  1  0  0  0  0
  7  8  1  0  0  0  0
  7  9  2  0  0  0  0
  9 10  1  0  0  0  0
  9 11  1  0  0  0  0
 11  2  2  0  0  0  0
 11 12  1  0  0  0  0
  1 13  1  0  0  0  0
 13 14  1  0  0  0  0
 13 15  2  0  0  0  0
 15 16  1  0  0  0  0
 15 17  1  0  0  0  0
 17 18  1  0  0  0  0
 17 19  2  0  0  0  0
 19 20  1  0  0  0  0
 19 21  1  0  0  0  0
 21  1  2  0  0  0  0
 21 22  1  0  0  0  0
M  END
> <ChemID>
100662

> <source_casrn>
2437-79-8

> <CAS>
2437-79-8

> <SMILES>
Clc1cc(Cl)c(cc1)-c1ccc(Cl)cc1Cl

> <NAME>
2,2',4,4'-TETRACHLOROBIPHENYL

> <preferred_name>
2,2',4,4'-Tetrachlorobiphenyl

> <iupac>
2,2',4,4'-tetrachlorobiphenyl

> <MPID>
99171

> <dsstox_substance_id>
DTXSID0022513

> <Canonical_QSARr>
Clc1cc(Cl)c(cc1)-c1ccc(Cl)cc1Cl

> <InChI_Code_QSARr>
InChI=1S/C12H6Cl4/c13-7-1-3-9(11(15)5-7)10-4-2-8(14)6-12(10)16/h1-6H

> <InChI Key_QSARr>
QORAVNMWUNPXAO-UHFFFAOYSA-N

> <OH>
1.0E-12

> <OH Temperature>
25.0

> <OH Data Type>
EXP

> <OH Reference>
ANDERSON,PN & HITES,RA (1996A)

> <LogOH>
-11.999999999999979

$$$$
100664
  -INDIGO-08031719142D

 19 18  0  0  0  0  0  0  0  0999 V2000
    2.7713    0.0000    0.0000 C   0  0  0  0  0  0  0  0  0  0  0  0
    3.3835   -1.4782    0.0000 H   0  0  0  0  0  0  0  0  0  0  0  0
    2.1590   -1.4782    0.0000 H   0  0  0  0  0  0  0  0  0  0  0  0
    1.3857    0.8000    0.0000 C   0  0  0  0  0  0  0  0  0  0  0  0
    0.7733    2.2782    0.0000 H   0  0  0  0  0  0  0  0  0  0  0  0
    1.9979    2.2782    0.0000 H   0  0  0  0  0  0  0  0  0  0  0  0
    0.0000    0.0000    0.0000 C   0  0  0  0  0  0  0  0  0  0  0  0
    0.8000   -1.3857    0.0000 H   0  0  0  0  0  0  0  0  0  0  0  0
   -1.3856   -0.8000    0.0000 C   0  0  0  0  0  0  0  0  0  0  0  0
   -2.7713   -1.6000    0.0000 H   0  0  0  0  0  0  0  0  0  0  0  0
   -2.7713    0.0000    0.0000 H   0  0  0  0  0  0  0  0  0  0  0  0
   -1.3856   -2.4000    0.0000 H   0  0  0  0  0  0  0  0  0  0  0  0
   -0.8000    1.3857    0.0000 O   0  0  0  0  0  0  0  0  0  0  0  0
   -0.2527    2.8891    0.0000 C   0  0  0  0  0  0  0  0  0  0  0  0
   -1.2812    4.1148    0.0000 H   0  0  0  0  0  0  0  0  0  0  0  0
    0.2944    4.3927    0.0000 H   0  0  0  0  0  0  0  0  0  0  0  0
    1.3229    3.1670    0.0000 H   0  0  0  0  0  0  0  0  0  0  0  0
    4.1570    0.8000    0.0000 O   0  0  0  0  0  0  0  0  0  0  0  0
    5.5426    0.0000    0.0000 H   0  0  0  0  0  0  0  0  0  0  0  0
  1  2  1  0  0  0  0
  1  3  1  0  0  0  0
  1  4  1  0  0  0  0
  4  5  1  0  0  0  0
  4  6  1  0  0  0  0
  4  7  1  0  0  0  0
  7  8  1  0  0  0  0
  7  9  1  0  0  0  0
  9 10  1  0  0  0  0
  9 11  1  0  0  0  0
  9 12  1  0  0  0  0
  7 13  1  0  0  0  0
 13 14  1  0  0  0  0
 14 15  1  0  0  0  0
 14 16  1  0  0  0  0
 14 17  1  0  0  0  0
  1 18  1  0  0  0  0
 18 19  1  0  0  0  0
M  END
> <ChemID>
100664

> <source_casrn>
2517-43-3

> <CAS>
2517-43-3

> <SMILES>
COC(C)CCO

> <NAME>
3-METHOXY-1-BUTANOL

> <preferred_name>
3-Methoxybutan-1-ol

> <iupac>
3-methoxybutan-1-ol

> <MPID>
99172

> <dsstox_substance_id>
DTXSID0044812

> <Canonical_QSARr>
COC(C)CCO

> <InChI_Code_QSARr>
InChI=1S/C5H12O2/c1-5(7-2)3-4-6/h5-6H,3-4H2,1-2H3

> <InChI Key_QSARr>
JSGVZVOGOQILFM-UHFFFAOYSA-N

> <OH>
2.36E-11

> <OH Temperature>
25.0

> <OH Data Type>
EXP

> <OH Reference>
ATKINSON,R (1989)

> <LogOH>
-10.627087997029898

$$$$
100666
  -INDIGO-08031719142D

 18 18  0  0  0  0  0  0  0  0999 V2000
    4.8000    0.0000    0.0000 O   0  0  0  0  0  0  0  0  0  0  0  0
    4.0000   -1.3857    0.0000 N   0  0  0  0  0  0  0  0  0  0  0  0
    4.8000   -2.7713    0.0000 O   0  0  0  0  0  0  0  0  0  0  0  0
    2.4000   -1.3857    0.0000 C   0  0  0  0  0  0  0  0  0  0  0  0
    1.6000    0.0000    0.0000 C   0  0  0  0  0  0  0  0  0  0  0  0
    3.1036    0.5472    0.0000 H   0  0  0  0  0  0  0  0  0  0  0  0
    1.3221    1.5757    0.0000 H   0  0  0  0  0  0  0  0  0  0  0  0
    0.0000    0.0000    0.0000 C   0  0  0  0  0  0  0  0  0  0  0  0
    0.2779    1.5757    0.0000 H   0  0  0  0  0  0  0  0  0  0  0  0
   -1.5036    0.5472    0.0000 H   0  0  0  0  0  0  0  0  0  0  0  0
   -0.8000   -1.3857    0.0000 C   0  0  0  0  0  0  0  0  0  0  0  0
   -2.0257   -0.3571    0.0000 H   0  0  0  0  0  0  0  0  0  0  0  0
   -2.0257   -2.4141    0.0000 H   0  0  0  0  0  0  0  0  0  0  0  0
    0.0000   -2.7713    0.0000 C   0  0  0  0  0  0  0  0  0  0  0  0
   -1.5036   -3.3185    0.0000 H   0  0  0  0  0  0  0  0  0  0  0  0
    0.2779   -4.3470    0.0000 H   0  0  0  0  0  0  0  0  0  0  0  0
    1.6000   -2.7713    0.0000 C   0  0  0  0  0  0  0  0  0  0  0  0
    2.4000   -4.1569    0.0000 H   0  0  0  0  0  0  0  0  0  0  0  0
  1  2  1  0  0  0  0
  2  3  2  0  0  0  0
  2  4  1  0  0  0  0
  4  5  1  0  0  0  0
  5  6  1  0  0  0  0
  5  7  1  0  0  0  0
  5  8  1  0  0  0  0
  8  9  1  0  0  0  0
  8 10  1  0  0  0  0
  8 11  1  0  0  0  0
 11 12  1  0  0  0  0
 11 13  1  0  0  0  0
 11 14  1  0  0  0  0
 14 15  1  0  0  0  0
 14 16  1  0  0  0  0
 14 17  1  0  0  0  0
 17  4  2  0  0  0  0
 17 18  1  0  0  0  0
M  CHG  2   1  -1   2   1
M  END
> <ChemID>
100666

> <source_casrn>
2562-37-0

> <CAS>
2562-37-0

> <SMILES>
[O-][N+](=O)C1CCCCC=1

> <NAME>
1-Nitrocyclohexene

> <preferred_name>
1-Nitrocyclohex-1-ene

> <iupac>
1-nitrocyclohexene

> <MPID>
99174

> <dsstox_substance_id>
DTXSID40180294

> <Canonical_QSARr>
[O-][N+](=O)C1CCCCC=1

> <InChI_Code_QSARr>
InChI=1S/C6H9NO2/c8-7(9)6-4-2-1-3-5-6/h4H,1-3,5H2

> <InChI Key_QSARr>
DJBRXNRKYAWTBL-UHFFFAOYSA-N

> <OH>
4.37E-11

> <OH Temperature>
25.0

> <OH Data Type>
EXP

> <OH Reference>
ATKINSON,R (1994)

> <LogOH>
-10.359518563029575

$$$$
100667
  -INDIGO-08031719142D

  4  3  0  0  0  0  0  0  0  0999 V2000
    0.0000   -1.6000    0.0000 Cl  0  0  0  0  0  0  0  0  0  0  0  0
    0.0000    0.0000    0.0000 C   0  0  0  0  0  0  0  0  0  0  0  0
    1.3856    0.8000    0.0000 H   0  0  0  0  0  0  0  0  0  0  0  0
   -1.3856    0.8000    0.0000 O   0  0  0  0  0  0  0  0  0  0  0  0
  1  2  1  0  0  0  0
  2  3  1  0  0  0  0
  2  4  2  0  0  0  0
M  END
> <ChemID>
100667

> <source_casrn>
2565-30-2

> <CAS>
2565-30-2

> <SMILES>
O=CCl

> <NAME>
Formyl chloride

> <preferred_name>
Formyl chloride

> <iupac>
Formyl chloride

> <MPID>
99175

> <dsstox_substance_id>
DTXSID30180344

> <Canonical_QSARr>
O=CCl

> <InChI_Code_QSARr>
InChI=1S/CHClO/c2-1-3/h1H

> <InChI Key_QSARr>
GFAUNYMRSKVDJL-UHFFFAOYSA-N

> <OH>
3.2E-13

> <OH Temperature>
25.0

> <OH Data Type>
EXP

> <OH Reference>
KWOK,ESC & ATKINSON,R (1994)

> <LogOH>
-12.494850021680088

$$$$
100668
  -INDIGO-08031719142D

 31 30  0  0  0  0  0  0  0  0999 V2000
    4.1568    0.8000    0.0000 C   0  0  0  0  0  0  0  0  0  0  0  0
    4.7693    2.2782    0.0000 H   0  0  0  0  0  0  0  0  0  0  0  0
    3.5446    2.2782    0.0000 H   0  0  0  0  0  0  0  0  0  0  0  0
    5.5426   -0.0000    0.0000 O   0  0  0  0  0  0  0  0  0  0  0  0
    6.9282    0.8000    0.0000 C   0  0  0  0  0  0  0  0  0  0  0  0
    7.5404    2.2782    0.0000 H   0  0  0  0  0  0  0  0  0  0  0  0
    6.3160    2.2782    0.0000 H   0  0  0  0  0  0  0  0  0  0  0  0
    8.3138   -0.0000    0.0000 C   0  0  0  0  0  0  0  0  0  0  0  0
    7.7015   -1.4782    0.0000 H   0  0  0  0  0  0  0  0  0  0  0  0
    8.9260   -1.4782    0.0000 H   0  0  0  0  0  0  0  0  0  0  0  0
    9.6994    0.8000    0.0000 C   0  0  0  0  0  0  0  0  0  0  0  0
   10.3118    2.2782    0.0000 H   0  0  0  0  0  0  0  0  0  0  0  0
    9.0871    2.2782    0.0000 H   0  0  0  0  0  0  0  0  0  0  0  0
   11.0852   -0.0000    0.0000 C   0  0  0  0  0  0  0  0  0  0  0  0
   12.4708   -0.8000    0.0000 H   0  0  0  0  0  0  0  0  0  0  0  0
   12.4708    0.8000    0.0000 H   0  0  0  0  0  0  0  0  0  0  0  0
   11.0852   -1.6000    0.0000 H   0  0  0  0  0  0  0  0  0  0  0  0
    2.7712   -0.0000    0.0000 O   0  0  0  0  0  0  0  0  0  0  0  0
    1.3856    0.8000    0.0000 C   0  0  0  0  0  0  0  0  0  0  0  0
    1.9979    2.2782    0.0000 H   0  0  0  0  0  0  0  0  0  0  0  0
    0.7734    2.2782    0.0000 H   0  0  0  0  0  0  0  0  0  0  0  0
    0.0001   -0.0000    0.0000 C   0  0  0  0  0  0  0  0  0  0  0  0
   -0.6122   -1.4782    0.0000 H   0  0  0  0  0  0  0  0  0  0  0  0
    0.6123   -1.4782    0.0000 H   0  0  0  0  0  0  0  0  0  0  0  0
   -1.3855    0.8000    0.0000 C   0  0  0  0  0  0  0  0  0  0  0  0
   -0.7733    2.2782    0.0000 H   0  0  0  0  0  0  0  0  0  0  0  0
   -1.9980    2.2782    0.0000 H   0  0  0  0  0  0  0  0  0  0  0  0
   -2.7713   -0.0000    0.0000 C   0  0  0  0  0  0  0  0  0  0  0  0
   -4.1569   -0.8000    0.0000 H   0  0  0  0  0  0  0  0  0  0  0  0
   -4.1569    0.8000    0.0000 H   0  0  0  0  0  0  0  0  0  0  0  0
   -2.7713   -1.6000    0.0000 H   0  0  0  0  0  0  0  0  0  0  0  0
  1  2  1  0  0  0  0
  1  3  1  0  0  0  0
  1  4  1  0  0  0  0
  4  5  1  0  0  0  0
  5  6  1  0  0  0  0
  5  7  1  0  0  0  0
  5  8  1  0  0  0  0
  8  9  1  0  0  0  0
  8 10  1  0  0  0  0
  8 11  1  0  0  0  0
 11 12  1  0  0  0  0
 11 13  1  0  0  0  0
 11 14  1  0  0  0  0
 14 15  1  0  0  0  0
 14 16  1  0  0  0  0
 14 17  1  0  0  0  0
  1 18  1  0  0  0  0
 18 19  1  0  0  0  0
 19 20  1  0  0  0  0
 19 21  1  0  0  0  0
 19 22  1  0  0  0  0
 22 23  1  0  0  0  0
 22 24  1  0  0  0  0
 22 25  1  0  0  0  0
 25 26  1  0  0  0  0
 25 27  1  0  0  0  0
 25 28  1  0  0  0  0
 28 29  1  0  0  0  0
 28 30  1  0  0  0  0
 28 31  1  0  0  0  0
M  END
> <ChemID>
100668

> <source_casrn>
2568-90-3

> <CAS>
2568-90-3

> <SMILES>
CCCCOCOCCCC

> <NAME>
Butane, 1,1'- methylenebis(oxy) bis-

> <preferred_name>
Butane, 1,1'-[methylenebis(oxy)]bis-

> <iupac>
1-(butoxymethoxy)butane

> <MPID>
99176

> <dsstox_substance_id>
DTXSID3062528

> <Canonical_QSARr>
CCCCOCOCCCC

> <InChI_Code_QSARr>
InChI=1S/C9H20O2/c1-3-5-7-10-9-11-8-6-4-2/h3-9H2,1-2H3

> <InChI Key_QSARr>
QLCJOAMJPCOIDI-UHFFFAOYSA-N

> <OH>
3.389999999999999E-11

> <OH Temperature>
25.0

> <OH Data Type>
EXP

> <OH Reference>
BECKER,KH ET AL. (1999)

> <LogOH>
-10.469800301796898

$$$$
100672
  -INDIGO-08031719142D

 19 18  0  0  0  0  0  0  0  0999 V2000
    5.5425    0.0000    0.0000 C   0  0  0  0  0  0  0  0  0  0  0  0
    6.1548   -1.4782    0.0000 H   0  0  0  0  0  0  0  0  0  0  0  0
    4.9302   -1.4782    0.0000 H   0  0  0  0  0  0  0  0  0  0  0  0
    4.1569    0.8000    0.0000 C   0  0  0  0  0  0  0  0  0  0  0  0
    3.5447    2.2782    0.0000 H   0  0  0  0  0  0  0  0  0  0  0  0
    4.7692    2.2782    0.0000 H   0  0  0  0  0  0  0  0  0  0  0  0
    2.7714    0.0000    0.0000 O   0  0  0  0  0  0  0  0  0  0  0  0
    1.3857    0.8000    0.0000 C   0  0  0  0  0  0  0  0  0  0  0  0
    0.7734    2.2782    0.0000 H   0  0  0  0  0  0  0  0  0  0  0  0
    1.9979    2.2782    0.0000 H   0  0  0  0  0  0  0  0  0  0  0  0
    0.0000    0.0000    0.0000 C   0  0  0  0  0  0  0  0  0  0  0  0
    0.6124   -1.4782    0.0000 H   0  0  0  0  0  0  0  0  0  0  0  0
   -0.6123   -1.4782    0.0000 H   0  0  0  0  0  0  0  0  0  0  0  0
   -1.3856    0.8000    0.0000 C   0  0  0  0  0  0  0  0  0  0  0  0
   -2.7713    1.6000    0.0000 H   0  0  0  0  0  0  0  0  0  0  0  0
   -2.7713    0.0000    0.0000 H   0  0  0  0  0  0  0  0  0  0  0  0
   -1.3856    2.4000    0.0000 H   0  0  0  0  0  0  0  0  0  0  0  0
    6.9282    0.8000    0.0000 O   0  0  0  0  0  0  0  0  0  0  0  0
    8.3138    0.0000    0.0000 H   0  0  0  0  0  0  0  0  0  0  0  0
  1  2  1  0  0  0  0
  1  3  1  0  0  0  0
  1  4  1  0  0  0  0
  4  5  1  0  0  0  0
  4  6  1  0  0  0  0
  4  7  1  0  0  0  0
  7  8  1  0  0  0  0
  8  9  1  0  0  0  0
  8 10  1  0  0  0  0
  8 11  1  0  0  0  0
 11 12  1  0  0  0  0
 11 13  1  0  0  0  0
 11 14  1  0  0  0  0
 14 15  1  0  0  0  0
 14 16  1  0  0  0  0
 14 17  1  0  0  0  0
  1 18  1  0  0  0  0
 18 19  1  0  0  0  0
M  END
> <ChemID>
100672

> <source_casrn>
2807-30-9

> <CAS>
2807-30-9

> <SMILES>
CCCOCCO

> <NAME>
ETHYLENE GLYCOL MONOPROPYL ETHER

> <preferred_name>
2-Propoxyethanol

> <iupac>
2-propoxyethanol

> <MPID>
99179

> <dsstox_substance_id>
DTXSID1027500

> <Canonical_QSARr>
CCCOCCO

> <InChI_Code_QSARr>
InChI=1S/C5H12O2/c1-2-4-7-5-3-6/h6H,2-5H2,1H3

> <InChI Key_QSARr>
YEYKMVJDLWJFOA-UHFFFAOYSA-N

> <OH>
2.140000000000001E-11

> <OH Temperature>
25.0

> <OH Data Type>
EXP

> <OH Reference>
KWOK,ESC & ATKINSON,R (1994)

> <LogOH>
-10.66958622665079

$$$$
100673
  -INDIGO-08031719142D

  8  7  0  0  0  0  0  0  0  0999 V2000
    0.0000    0.0000    0.0000 C   0  0  0  0  0  0  0  0  0  0  0  0
    1.6000    0.0000    0.0000 C   0  0  0  0  0  0  0  0  0  0  0  0
    3.2000    0.0000    0.0000 H   0  0  0  0  0  0  0  0  0  0  0  0
    2.4000   -1.3856    0.0000 Cl  0  0  0  0  0  0  0  0  0  0  0  0
    2.4000    1.3856    0.0000 F   0  0  0  0  0  0  0  0  0  0  0  0
   -1.6000   -0.0000    0.0000 F   0  0  0  0  0  0  0  0  0  0  0  0
   -0.8000   -1.3856    0.0000 F   0  0  0  0  0  0  0  0  0  0  0  0
   -0.8000    1.3856    0.0000 F   0  0  0  0  0  0  0  0  0  0  0  0
  1  2  1  0  0  0  0
  2  3  1  0  0  0  0
  2  4  1  0  0  0  0
  2  5  1  0  0  0  0
  1  6  1  0  0  0  0
  1  7  1  0  0  0  0
  1  8  1  0  0  0  0
M  END
> <ChemID>
100673

> <source_casrn>
2837-89-0

> <CAS>
2837-89-0

> <SMILES>
FC(Cl)C(F)(F)F

> <NAME>
1-Chloro-1,2,2,2-Tetrafluoroethane

> <preferred_name>
2-Chloro-1,1,1,2-tetrafluoroethane

> <iupac>
2-chloro-1,1,1,2-tetrafluoroethane

> <MPID>
99180

> <dsstox_substance_id>
DTXSID7029245

> <Canonical_QSARr>
FC(Cl)C(F)(F)F

> <InChI_Code_QSARr>
InChI=1S/C2HClF4/c3-1(4)2(5,6)7/h1H

> <InChI Key_QSARr>
BOUGCJDAQLKBQH-UHFFFAOYSA-N

> <OH>
9.500000000000002E-15

> <OH Temperature>
25.0

> <OH Data Type>
EXP

> <OH Reference>
KWOK,ESC & ATKINSON,R (1994)

> <LogOH>
-14.022276394711156

$$$$
100674
  -INDIGO-08031719142D

 17 16  0  0  0  0  0  0  0  0999 V2000
    0.0001    0.0000    0.0000 P   0  0  0  0  0  0  0  0  0  0  0  0
    1.6001    0.0000    0.0000 O   0  0  0  0  0  0  0  0  0  0  0  0
    2.4000   -1.3856    0.0000 C   0  0  0  0  0  0  0  0  0  0  0  0
    4.0000   -1.3856    0.0000 H   0  0  0  0  0  0  0  0  0  0  0  0
    3.2001   -2.7713    0.0000 H   0  0  0  0  0  0  0  0  0  0  0  0
    1.6001   -2.7713    0.0000 H   0  0  0  0  0  0  0  0  0  0  0  0
    0.8000    1.3856    0.0000 O   0  0  0  0  0  0  0  0  0  0  0  0
    0.0001    2.7713    0.0000 C   0  0  0  0  0  0  0  0  0  0  0  0
   -0.8000    4.1569    0.0000 H   0  0  0  0  0  0  0  0  0  0  0  0
    0.8000    4.1569    0.0000 H   0  0  0  0  0  0  0  0  0  0  0  0
   -1.5999    2.7713    0.0000 H   0  0  0  0  0  0  0  0  0  0  0  0
    0.8000   -1.3856    0.0000 S   0  0  0  0  0  0  0  0  0  0  0  0
   -1.5999    0.0000    0.0000 S   0  0  0  0  0  0  0  0  0  0  0  0
   -2.4000   -1.3856    0.0000 C   0  0  0  0  0  0  0  0  0  0  0  0
   -3.2001   -2.7713    0.0000 H   0  0  0  0  0  0  0  0  0  0  0  0
   -4.0000   -1.3856    0.0000 H   0  0  0  0  0  0  0  0  0  0  0  0
   -1.5999   -2.7713    0.0000 H   0  0  0  0  0  0  0  0  0  0  0  0
  1  2  1  0  0  0  0
  2  3  1  0  0  0  0
  3  4  1  0  0  0  0
  3  5  1  0  0  0  0
  3  6  1  0  0  0  0
  1  7  1  0  0  0  0
  7  8  1  0  0  0  0
  8  9  1  0  0  0  0
  8 10  1  0  0  0  0
  8 11  1  0  0  0  0
  1 12  2  0  0  0  0
  1 13  1  0  0  0  0
 13 14  1  0  0  0  0
 14 15  1  0  0  0  0
 14 16  1  0  0  0  0
 14 17  1  0  0  0  0
M  END
> <ChemID>
100674

> <source_casrn>
2953-29-9

> <CAS>
2953-29-9

> <SMILES>
CSP(=S)(OC)OC

> <NAME>
PHOSPHORODITHIOIC ACID, O,O,S-TRIMETHYL ESTER

> <preferred_name>
O,O,S- Trimethyl dithiophosphate

> <iupac>
O,O,S-trimethyl phosphorodithioate

> <MPID>
99181

> <dsstox_substance_id>
DTXSID2042226

> <Canonical_QSARr>
CSP(=S)(OC)OC

> <InChI_Code_QSARr>
InChI=1S/C3H9O2PS2/c1-4-6(7,5-2)8-3/h1-3H3

> <InChI Key_QSARr>
ILDHFYGNYDICFB-UHFFFAOYSA-N

> <OH>
5.599999999999999E-11

> <OH Temperature>
25.0

> <OH Data Type>
EXP

> <OH Reference>
ATKINSON,R (1989)

> <LogOH>
-10.2518119729938

$$$$
100676
  -INDIGO-08031719142D

  7  6  0  0  0  0  0  0  0  0999 V2000
    1.3857   -0.8000    0.0000 O   0  0  0  0  0  0  0  0  0  0  0  0
    2.7713    0.0000    0.0000 O   0  0  0  0  0  0  0  0  0  0  0  0
    4.1569   -0.8000    0.0000 H   0  0  0  0  0  0  0  0  0  0  0  0
    0.0000    0.0000    0.0000 C   0  0  0  0  0  0  0  0  0  0  0  0
   -1.3856    0.8000    0.0000 H   0  0  0  0  0  0  0  0  0  0  0  0
    0.0000    1.6000    0.0000 H   0  0  0  0  0  0  0  0  0  0  0  0
   -1.3856   -0.8000    0.0000 H   0  0  0  0  0  0  0  0  0  0  0  0
  1  2  1  0  0  0  0
  2  3  1  0  0  0  0
  1  4  1  0  0  0  0
  4  5  1  0  0  0  0
  4  6  1  0  0  0  0
  4  7  1  0  0  0  0
M  END
> <ChemID>
100676

> <source_casrn>
3031-73-0

> <CAS>
3031-73-0

> <SMILES>
COO

> <NAME>
METHYLHYDROPEROXIDE

> <preferred_name>
Methyl hydroperoxide

> <iupac>
hydroperoxymethane

> <MPID>
99183

> <dsstox_substance_id>
DTXSID10184401

> <Canonical_QSARr>
COO

> <InChI_Code_QSARr>
InChI=1S/CH4O2/c1-3-2/h2H,1H3

> <InChI Key_QSARr>
MEUKEBNAABNAEX-UHFFFAOYSA-N

> <OH>
5.54E-12

> <OH Temperature>
25.0

> <OH Data Type>
EXP

> <OH Reference>
ATKINSON,R (1989)

> <LogOH>
-11.256490235271588

$$$$
100677
  -INDIGO-08031719142D

 27 27  0  0  0  0  0  0  0  0999 V2000
    0.0000    0.0000    0.0000 C   0  0  0  0  0  0  0  0  0  0  0  0
    1.3857    0.8000    0.0000 C   0  0  0  0  0  0  0  0  0  0  0  0
    0.3572    2.0257    0.0000 H   0  0  0  0  0  0  0  0  0  0  0  0
    2.4141    2.0257    0.0000 H   0  0  0  0  0  0  0  0  0  0  0  0
    2.7713    0.0000    0.0000 C   0  0  0  0  0  0  0  0  0  0  0  0
    3.3185    1.5035    0.0000 H   0  0  0  0  0  0  0  0  0  0  0  0
    4.3470    0.2778    0.0000 C   0  0  0  0  0  0  0  0  0  0  0  0
    5.9227    0.5556    0.0000 H   0  0  0  0  0  0  0  0  0  0  0  0
    5.3755   -0.9478    0.0000 H   0  0  0  0  0  0  0  0  0  0  0  0
    4.8942    1.7814    0.0000 H   0  0  0  0  0  0  0  0  0  0  0  0
    2.7713   -1.6000    0.0000 C   0  0  0  0  0  0  0  0  0  0  0  0
    4.3470   -1.3222    0.0000 H   0  0  0  0  0  0  0  0  0  0  0  0
    3.3185   -3.1035    0.0000 H   0  0  0  0  0  0  0  0  0  0  0  0
    1.3856   -2.4000    0.0000 C   0  0  0  0  0  0  0  0  0  0  0  0
    2.4141   -3.6257    0.0000 H   0  0  0  0  0  0  0  0  0  0  0  0
    0.3572   -3.6257    0.0000 H   0  0  0  0  0  0  0  0  0  0  0  0
    0.0000   -1.6000    0.0000 C   0  0  0  0  0  0  0  0  0  0  0  0
   -0.5472   -3.1035    0.0000 H   0  0  0  0  0  0  0  0  0  0  0  0
   -1.5757   -1.3222    0.0000 H   0  0  0  0  0  0  0  0  0  0  0  0
   -1.5757   -0.2778    0.0000 C   0  0  0  0  0  0  0  0  0  0  0  0
   -3.1514   -0.5557    0.0000 H   0  0  0  0  0  0  0  0  0  0  0  0
   -2.6042    0.9478    0.0000 H   0  0  0  0  0  0  0  0  0  0  0  0
   -2.6042   -1.5035    0.0000 H   0  0  0  0  0  0  0  0  0  0  0  0
   -0.5472    1.5035    0.0000 C   0  0  0  0  0  0  0  0  0  0  0  0
   -1.0944    3.0070    0.0000 H   0  0  0  0  0  0  0  0  0  0  0  0
   -2.1229    1.7814    0.0000 H   0  0  0  0  0  0  0  0  0  0  0  0
    0.0000    3.0070    0.0000 H   0  0  0  0  0  0  0  0  0  0  0  0
  1  2  1  0  0  0  0
  2  3  1  0  0  0  0
  2  4  1  0  0  0  0
  2  5  1  0  0  0  0
  5  6  1  0  0  0  0
  5  7  1  0  0  0  0
  7  8  1  0  0  0  0
  7  9  1  0  0  0  0
  7 10  1  0  0  0  0
  5 11  1  0  0  0  0
 11 12  1  0  0  0  0
 11 13  1  0  0  0  0
 11 14  1  0  0  0  0
 14 15  1  0  0  0  0
 14 16  1  0  0  0  0
 14 17  1  0  0  0  0
 17  1  1  0  0  0  0
 17 18  1  0  0  0  0
 17 19  1  0  0  0  0
  1 20  1  0  0  0  0
 20 21  1  0  0  0  0
 20 22  1  0  0  0  0
 20 23  1  0  0  0  0
  1 24  1  0  0  0  0
 24 25  1  0  0  0  0
 24 26  1  0  0  0  0
 24 27  1  0  0  0  0
M  END
> <ChemID>
100677

> <source_casrn>
3073-66-3

> <CAS>
3073-66-3

> <SMILES>
CC1CC(C)(C)CCC1

> <NAME>
1,1,3-TRIMETHYLCYCLOHEXANE

> <preferred_name>
1,1,3-Trimethylcyclohexane

> <iupac>
C9H18

> <MPID>
99184

> <dsstox_substance_id>
DTXSID60858746

> <Canonical_QSARr>
CC1CC(C)(C)CCC1

> <InChI_Code_QSARr>
InChI=1S/C9H18/c1-8-5-4-6-9(2,3)7-8/h8H,4-7H2,1-3H3

> <InChI Key_QSARr>
PYOLJOJPIPCRDP-UHFFFAOYSA-N

> <OH>
8.729999999999995E-12

> <OH Temperature>
25.0

> <OH Data Type>
EXP

> <OH Reference>
ATKINSON,R (1989)

> <LogOH>
-11.058985756294414

$$$$
100678
  -INDIGO-08031719142D

 15 15  0  0  0  0  0  0  0  0999 V2000
    1.5912   -0.1673    0.0000 C   0  0  0  0  0  0  0  0  0  0  0  0
    2.6619    1.0218    0.0000 C   0  0  0  0  0  0  0  0  0  0  0  0
    2.3291    2.5868    0.0000 H   0  0  0  0  0  0  0  0  0  0  0  0
    4.1236    0.3710    0.0000 C   0  0  0  0  0  0  0  0  0  0  0  0
    5.5092    1.1710    0.0000 H   0  0  0  0  0  0  0  0  0  0  0  0
    3.9563   -1.2202    0.0000 C   0  0  0  0  0  0  0  0  0  0  0  0
    5.1452   -2.2908    0.0000 H   0  0  0  0  0  0  0  0  0  0  0  0
    2.3912   -1.5529    0.0000 O   0  0  0  0  0  0  0  0  0  0  0  0
    0.0000    0.0000    0.0000 C   0  0  0  0  0  0  0  0  0  0  0  0
   -0.0418    1.5994    0.0000 H   0  0  0  0  0  0  0  0  0  0  0  0
   -1.1606    1.1014    0.0000 H   0  0  0  0  0  0  0  0  0  0  0  0
   -0.9405   -1.2944    0.0000 C   0  0  0  0  0  0  0  0  0  0  0  0
   -1.8809   -2.5889    0.0000 H   0  0  0  0  0  0  0  0  0  0  0  0
   -2.5317   -1.1272    0.0000 H   0  0  0  0  0  0  0  0  0  0  0  0
   -0.2897   -2.7561    0.0000 H   0  0  0  0  0  0  0  0  0  0  0  0
  1  2  2  0  0  0  0
  2  3  1  0  0  0  0
  2  4  1  0  0  0  0
  4  5  1  0  0  0  0
  4  6  2  0  0  0  0
  6  7  1  0  0  0  0
  6  8  1  0  0  0  0
  8  1  1  0  0  0  0
  1  9  1  0  0  0  0
  9 10  1  0  0  0  0
  9 11  1  0  0  0  0
  9 12  1  0  0  0  0
 12 13  1  0  0  0  0
 12 14  1  0  0  0  0
 12 15  1  0  0  0  0
M  END
> <ChemID>
100678

> <source_casrn>
3208-16-0

> <CAS>
3208-16-0

> <SMILES>
CCc1ccco1

> <NAME>
2-ETHYLFURAN

> <preferred_name>
Furan, 2-ethyl-

> <iupac>
2-Ethylfuran

> <MPID>
99185

> <dsstox_substance_id>
DTXSID7062906

> <Canonical_QSARr>
CCc1ccco1

> <InChI_Code_QSARr>
InChI=1S/C6H8O/c1-2-6-4-3-5-7-6/h3-5H,2H2,1H3

> <InChI Key_QSARr>
HLPIHRDZBHXTFJ-UHFFFAOYSA-N

> <OH>
1.08E-10

> <OH Temperature>
27.0

> <OH Data Type>
EXP

> <OH Reference>
BIERBACH,A ET AL. (1992)

> <LogOH>
-9.966576244513037

$$$$
100680
  -INDIGO-08031719142D

 25 26  0  0  0  0  0  0  0  0999 V2000
   -0.0000    0.0000    0.0000 C   0  0  0  0  0  0  0  0  0  0  0  0
    0.1672    1.5913    0.0000 H   0  0  0  0  0  0  0  0  0  0  0  0
   -1.3857    0.8000    0.0000 C   0  0  0  0  0  0  0  0  0  0  0  0
   -0.8385    2.3035    0.0000 H   0  0  0  0  0  0  0  0  0  0  0  0
   -2.4140    2.0257    0.0000 H   0  0  0  0  0  0  0  0  0  0  0  0
   -2.7713    0.0000    0.0000 C   0  0  0  0  0  0  0  0  0  0  0  0
   -3.3185    1.5035    0.0000 H   0  0  0  0  0  0  0  0  0  0  0  0
   -4.3470   -0.2778    0.0000 H   0  0  0  0  0  0  0  0  0  0  0  0
   -2.7713   -1.6000    0.0000 C   0  0  0  0  0  0  0  0  0  0  0  0
   -4.3470   -1.3222    0.0000 H   0  0  0  0  0  0  0  0  0  0  0  0
   -3.3185   -3.1035    0.0000 H   0  0  0  0  0  0  0  0  0  0  0  0
   -1.3857   -2.4000    0.0000 C   0  0  0  0  0  0  0  0  0  0  0  0
   -2.4140   -3.6257    0.0000 H   0  0  0  0  0  0  0  0  0  0  0  0
   -0.8385   -3.9035    0.0000 H   0  0  0  0  0  0  0  0  0  0  0  0
   -0.0000   -1.6000    0.0000 C   0  0  0  0  0  0  0  0  0  0  0  0
    0.1672   -3.1913    0.0000 H   0  0  0  0  0  0  0  0  0  0  0  0
    1.5216   -2.0944    0.0000 C   0  0  0  0  0  0  0  0  0  0  0  0
    1.1346   -3.6469    0.0000 H   0  0  0  0  0  0  0  0  0  0  0  0
    2.9073   -2.8944    0.0000 H   0  0  0  0  0  0  0  0  0  0  0  0
    2.4621   -0.8000    0.0000 C   0  0  0  0  0  0  0  0  0  0  0  0
    3.6512   -1.8706    0.0000 H   0  0  0  0  0  0  0  0  0  0  0  0
    3.6512    0.2706    0.0000 H   0  0  0  0  0  0  0  0  0  0  0  0
    1.5216    0.4944    0.0000 C   0  0  0  0  0  0  0  0  0  0  0  0
    2.9073    1.2944    0.0000 H   0  0  0  0  0  0  0  0  0  0  0  0
    1.1346    2.0469    0.0000 H   0  0  0  0  0  0  0  0  0  0  0  0
  1  2  1  0  0  0  0
  1  3  1  0  0  0  0
  3  4  1  0  0  0  0
  3  5  1  0  0  0  0
  3  6  1  0  0  0  0
  6  7  1  0  0  0  0
  6  8  1  0  0  0  0
  6  9  1  0  0  0  0
  9 10  1  0  0  0  0
  9 11  1  0  0  0  0
  9 12  1  0  0  0  0
 12 13  1  0  0  0  0
 12 14  1  0  0  0  0
 12 15  1  0  0  0  0
 15  1  1  0  0  0  0
 15 16  1  0  0  0  0
 15 17  1  0  0  0  0
 17 18  1  0  0  0  0
 17 19  1  0  0  0  0
 17 20  1  0  0  0  0
 20 21  1  0  0  0  0
 20 22  1  0  0  0  0
 20 23  1  0  0  0  0
 23  1  1  0  0  0  0
 23 24  1  0  0  0  0
 23 25  1  0  0  0  0
M  END
> <ChemID>
100680

> <source_casrn>
3296-50-2|4551-51-3

> <CAS>
3296-50-2

> <SMILES>
C1CC[C@@H]2CCCC[C@H]21 |&1:3,8|

> <NAME>
trans-Bicylco[4.3.0]nonane, cis-Bicyclo[4.3.0]nonane

> <preferred_name>
trans-Octahydro-1H-indene

> <iupac>
C9H16

> <MPID>
99187|99204

> <dsstox_substance_id>
DTXSID20858747

> <Canonical_QSARr>
C1CCC2CCCCC21

> <InChI_Code_QSARr>
InChI=1S/C9H16/c1-2-5-9-7-3-6-8(9)4-1/h8-9H,1-7H2

> <InChI Key_QSARr>
BNRNAKTVFSZAFA-UHFFFAOYSA-N

> <OH>
1.74E-11

> <OH Temperature>
25.0

> <OH Data Type>
EXP

> <OH Reference>
KWOK,ESC & ATKINSON,R (1994)

> <LogOH>
-10.759450751717415

$$$$
100681
  -INDIGO-08031719142D

 26 25  0  0  0  0  0  0  0  0999 V2000
   -4.1569   -2.4000    0.0000 C   0  0  0  0  0  0  0  0  0  0  0  0
   -4.1569   -4.0000    0.0000 H   0  0  0  0  0  0  0  0  0  0  0  0
   -5.5426   -1.6000    0.0000 H   0  0  0  0  0  0  0  0  0  0  0  0
   -2.7712   -1.6000    0.0000 C   0  0  0  0  0  0  0  0  0  0  0  0
   -1.3856   -2.4000    0.0000 H   0  0  0  0  0  0  0  0  0  0  0  0
   -2.7712   -0.0000    0.0000 C   0  0  0  0  0  0  0  0  0  0  0  0
   -1.3856    0.8000    0.0000 C   0  0  0  0  0  0  0  0  0  0  0  0
   -1.3856    2.4000    0.0000 H   0  0  0  0  0  0  0  0  0  0  0  0
    0.0001   -0.0000    0.0000 C   0  0  0  0  0  0  0  0  0  0  0  0
    0.6122   -1.4782    0.0000 H   0  0  0  0  0  0  0  0  0  0  0  0
   -0.6122   -1.4782    0.0000 H   0  0  0  0  0  0  0  0  0  0  0  0
    1.3856    0.8000    0.0000 C   0  0  0  0  0  0  0  0  0  0  0  0
    1.3856    2.4000    0.0000 H   0  0  0  0  0  0  0  0  0  0  0  0
    2.7712   -0.0000    0.0000 C   0  0  0  0  0  0  0  0  0  0  0  0
    4.1569    0.8000    0.0000 C   0  0  0  0  0  0  0  0  0  0  0  0
    5.5426    1.6000    0.0000 H   0  0  0  0  0  0  0  0  0  0  0  0
    5.5426   -0.0000    0.0000 H   0  0  0  0  0  0  0  0  0  0  0  0
    4.1569    2.4000    0.0000 H   0  0  0  0  0  0  0  0  0  0  0  0
    2.7712   -1.6000    0.0000 C   0  0  0  0  0  0  0  0  0  0  0  0
    2.7712   -3.2000    0.0000 H   0  0  0  0  0  0  0  0  0  0  0  0
    4.1569   -2.4000    0.0000 H   0  0  0  0  0  0  0  0  0  0  0  0
    1.3856   -2.4000    0.0000 H   0  0  0  0  0  0  0  0  0  0  0  0
   -4.1569    0.8000    0.0000 C   0  0  0  0  0  0  0  0  0  0  0  0
   -5.5426    1.6000    0.0000 H   0  0  0  0  0  0  0  0  0  0  0  0
   -5.5426   -0.0000    0.0000 H   0  0  0  0  0  0  0  0  0  0  0  0
   -4.1569    2.4000    0.0000 H   0  0  0  0  0  0  0  0  0  0  0  0
  1  2  1  0  0  0  0
  1  3  1  0  0  0  0
  1  4  2  0  0  0  0
  4  5  1  0  0  0  0
  4  6  1  0  0  0  0
  6  7  2  0  0  0  0
  7  8  1  0  0  0  0
  7  9  1  0  0  0  0
  9 10  1  0  0  0  0
  9 11  1  0  0  0  0
  9 12  1  0  0  0  0
 12 13  1  0  0  0  0
 12 14  2  0  0  0  0
 14 15  1  0  0  0  0
 15 16  1  0  0  0  0
 15 17  1  0  0  0  0
 15 18  1  0  0  0  0
 14 19  1  0  0  0  0
 19 20  1  0  0  0  0
 19 21  1  0  0  0  0
 19 22  1  0  0  0  0
  6 23  1  0  0  0  0
 23 24  1  0  0  0  0
 23 25  1  0  0  0  0
 23 26  1  0  0  0  0
M  END
> <ChemID>
100681

> <source_casrn>
3338-55-4|3779-61-1|13877-91-3

> <CAS>
3338-55-4|3779-61-1|13877-91-3

> <SMILES>
CC(C)=CC/C=C(/C)\C=C

> <NAME>
cis-Ocimene, trans-Ocimene, 3,7-DIMETHYL-1,3,6-OCTATRIENE

> <preferred_name>
(Z)-3,7-Dimethylocta-1,3,6,-triene

> <iupac>
(3Z)-3,7-dimethylocta-1,3,6-triene

> <MPID>
99188|99196|99233

> <dsstox_substance_id>
DTXSID3052018|DTXSID8040567|DTXSID70274135

> <Canonical_QSARr>
CC(C)=CCC=C(C)C=C

> <InChI_Code_QSARr>
InChI=1S/C10H16/c1-5-10(4)8-6-7-9(2)3/h5,7-8H,1,6H2,2-4H3/b10-8-

> <InChI Key_QSARr>
IHPKGUQCSIINRJ-NTMALXAHSA-N

> <OH>
2.5199999999999996E-10

> <OH Temperature>
24.999999999999996

> <OH Data Type>


> <OH Reference>


> <LogOH>
-9.598599459218445

$$$$
100682
  -INDIGO-08031719142D

 26 27  0  0  0  0  0  0  0  0999 V2000
    2.0945    1.5217    0.0000 C   0  0  0  0  0  0  0  0  0  0  0  0
    3.6594    1.8543    0.0000 H   0  0  0  0  0  0  0  0  0  0  0  0
    1.9272    3.1129    0.0000 H   0  0  0  0  0  0  0  0  0  0  0  0
    2.5889    0.0000    0.0000 C   0  0  0  0  0  0  0  0  0  0  0  0
    4.1106   -0.4944    0.0000 C   0  0  0  0  0  0  0  0  0  0  0  0
    5.2996    0.5762    0.0000 H   0  0  0  0  0  0  0  0  0  0  0  0
    4.4433   -2.0595    0.0000 H   0  0  0  0  0  0  0  0  0  0  0  0
    1.2945   -0.9404    0.0000 C   0  0  0  0  0  0  0  0  0  0  0  0
    2.0945   -2.3261    0.0000 H   0  0  0  0  0  0  0  0  0  0  0  0
    0.0001    0.0000    0.0000 C   0  0  0  0  0  0  0  0  0  0  0  0
   -0.1672   -1.5913    0.0000 C   0  0  0  0  0  0  0  0  0  0  0  0
    0.2198   -3.1437    0.0000 H   0  0  0  0  0  0  0  0  0  0  0  0
   -1.6289   -2.2420    0.0000 H   0  0  0  0  0  0  0  0  0  0  0  0
   -1.5650    0.3326    0.0000 C   0  0  0  0  0  0  0  0  0  0  0  0
   -1.7877    1.9171    0.0000 H   0  0  0  0  0  0  0  0  0  0  0  0
   -2.9219    1.1805    0.0000 C   0  0  0  0  0  0  0  0  0  0  0  0
   -4.2788    2.0284    0.0000 H   0  0  0  0  0  0  0  0  0  0  0  0
   -4.3346    0.4294    0.0000 H   0  0  0  0  0  0  0  0  0  0  0  0
   -2.8660    2.7795    0.0000 H   0  0  0  0  0  0  0  0  0  0  0  0
   -2.1643   -1.1509    0.0000 C   0  0  0  0  0  0  0  0  0  0  0  0
   -3.7488   -1.3735    0.0000 H   0  0  0  0  0  0  0  0  0  0  0  0
   -2.7638   -2.6344    0.0000 H   0  0  0  0  0  0  0  0  0  0  0  0
   -3.1494    0.1100    0.0000 H   0  0  0  0  0  0  0  0  0  0  0  0
    0.4945    1.5217    0.0000 C   0  0  0  0  0  0  0  0  0  0  0  0
   -0.8624    2.3696    0.0000 H   0  0  0  0  0  0  0  0  0  0  0  0
    0.6616    3.1129    0.0000 H   0  0  0  0  0  0  0  0  0  0  0  0
  1  2  1  0  0  0  0
  1  3  1  0  0  0  0
  1  4  1  0  0  0  0
  4  5  2  0  0  0  0
  5  6  1  0  0  0  0
  5  7  1  0  0  0  0
  4  8  1  0  0  0  0
  8  9  1  0  0  0  0
  8 10  1  0  0  0  0
 10 11  1  0  0  0  0
 11  8  1  0  0  0  0
 11 12  1  0  0  0  0
 11 13  1  0  0  0  0
 10 14  1  0  0  0  0
 14 15  1  0  0  0  0
 14 16  1  0  0  0  0
 16 17  1  0  0  0  0
 16 18  1  0  0  0  0
 16 19  1  0  0  0  0
 14 20  1  0  0  0  0
 20 21  1  0  0  0  0
 20 22  1  0  0  0  0
 20 23  1  0  0  0  0
 10 24  1  0  0  0  0
 24  1  1  0  0  0  0
 24 25  1  0  0  0  0
 24 26  1  0  0  0  0
M  END
> <ChemID>
100682

> <source_casrn>
3387-41-5

> <CAS>
NOCAS_863164

> <SMILES>
CC(C)C12CCC(=C)C1C2

> <NAME>
Sabinene

> <preferred_name>


> <iupac>


> <MPID>
99189

> <dsstox_substance_id>
DTXSID70863164

> <Canonical_QSARr>
CC(C)C12CCC(=C)C1C2

> <InChI_Code_QSARr>
InChI=1S/C10H16/c1-7(2)10-5-4-8(3)9(10)6-10/h7,9H,3-6H2,1-2H3

> <InChI Key_QSARr>
NDVASEGYNIMXJL-UHFFFAOYSA-N

> <OH>
1.17E-10

> <OH Temperature>
25.0

> <OH Data Type>
EXP

> <OH Reference>
ATKINSON,R ET AL. (1990A)

> <LogOH>
-9.931814138253841

$$$$
100684
  -INDIGO-08031719142D

 18 18  0  0  0  0  0  0  0  0999 V2000
   -0.0000    0.0000    0.0000 C   0  0  0  0  0  0  0  0  0  0  0  0
    0.2779    1.5757    0.0000 H   0  0  0  0  0  0  0  0  0  0  0  0
   -0.8000   -1.3857    0.0000 C   0  0  0  0  0  0  0  0  0  0  0  0
   -0.0000   -2.7713    0.0000 H   0  0  0  0  0  0  0  0  0  0  0  0
   -2.0257   -2.4141    0.0000 H   0  0  0  0  0  0  0  0  0  0  0  0
   -1.6000    0.0000    0.0000 C   0  0  0  0  0  0  0  0  0  0  0  0
   -3.1035   -0.5472    0.0000 H   0  0  0  0  0  0  0  0  0  0  0  0
   -1.8778    1.5757    0.0000 H   0  0  0  0  0  0  0  0  0  0  0  0
    1.5035   -0.5472    0.0000 C   0  0  0  0  0  0  0  0  0  0  0  0
    0.9563   -2.0507    0.0000 H   0  0  0  0  0  0  0  0  0  0  0  0
    3.0070   -1.0945    0.0000 C   0  0  0  0  0  0  0  0  0  0  0  0
    4.5105   -1.6417    0.0000 H   0  0  0  0  0  0  0  0  0  0  0  0
    4.2327   -0.0660    0.0000 H   0  0  0  0  0  0  0  0  0  0  0  0
    3.2848   -2.6701    0.0000 H   0  0  0  0  0  0  0  0  0  0  0  0
    2.0507    0.9563    0.0000 C   0  0  0  0  0  0  0  0  0  0  0  0
    2.5979    2.4598    0.0000 H   0  0  0  0  0  0  0  0  0  0  0  0
    3.6265    1.2341    0.0000 H   0  0  0  0  0  0  0  0  0  0  0  0
    1.0223    2.1819    0.0000 H   0  0  0  0  0  0  0  0  0  0  0  0
  1  2  1  0  0  0  0
  1  3  1  0  0  0  0
  3  4  1  0  0  0  0
  3  5  1  0  0  0  0
  3  6  1  0  0  0  0
  6  1  1  0  0  0  0
  6  7  1  0  0  0  0
  6  8  1  0  0  0  0
  1  9  1  0  0  0  0
  9 10  1  0  0  0  0
  9 11  1  0  0  0  0
 11 12  1  0  0  0  0
 11 13  1  0  0  0  0
 11 14  1  0  0  0  0
  9 15  1  0  0  0  0
 15 16  1  0  0  0  0
 15 17  1  0  0  0  0
 15 18  1  0  0  0  0
M  END
> <ChemID>
100684

> <source_casrn>
3638-35-5

> <CAS>
3638-35-5

> <SMILES>
CC(C)C1CC1

> <NAME>
ISOPROPYLCYCLOPROPANE

> <preferred_name>
Cyclopropane, (1-methylethyl)-

> <iupac>
propan-2-ylcyclopropane

> <MPID>
99191

> <dsstox_substance_id>
DTXSID20189907

> <Canonical_QSARr>
CC(C)C1CC1

> <InChI_Code_QSARr>
InChI=1S/C6H12/c1-5(2)6-3-4-6/h5-6H,3-4H2,1-2H3

> <InChI Key_QSARr>
HPBROFGYTXOJIO-UHFFFAOYSA-N

> <OH>
2.839999999999998E-12

> <OH Temperature>
25.0

> <OH Data Type>
EXP

> <OH Reference>
ATKINSON,R (1989)

> <LogOH>
-11.546681659952947

$$$$
100685
  -INDIGO-08031719142D

  8  7  0  0  0  0  0  0  0  0999 V2000
    1.3856    0.8000    0.0000 C   0  0  0  0  0  0  0  0  0  0  0  0
    2.7713    0.0000    0.0000 H   0  0  0  0  0  0  0  0  0  0  0  0
    1.3856    2.4000    0.0000 H   0  0  0  0  0  0  0  0  0  0  0  0
    0.0000    0.0000    0.0000 C   0  0  0  0  0  0  0  0  0  0  0  0
    0.0000   -1.6000    0.0000 H   0  0  0  0  0  0  0  0  0  0  0  0
   -1.3856    0.8000    0.0000 N   0  0  0  0  0  0  0  0  0  0  0  0
   -2.7713    0.0000    0.0000 O   0  0  0  0  0  0  0  0  0  0  0  0
   -1.3856    2.4000    0.0000 O   0  0  0  0  0  0  0  0  0  0  0  0
  1  2  1  0  0  0  0
  1  3  1  0  0  0  0
  1  4  2  0  0  0  0
  4  5  1  0  0  0  0
  4  6  1  0  0  0  0
  6  7  2  0  0  0  0
  6  8  1  0  0  0  0
M  CHG  2   6   1   8  -1
M  END
> <ChemID>
100685

> <source_casrn>
3638-64-0

> <CAS>
3638-64-0

> <SMILES>
C=C[N+]([O-])=O

> <NAME>
Nitroethene

> <preferred_name>
Ethene, nitro-

> <iupac>
1-nitroethene

> <MPID>
99192

> <dsstox_substance_id>
DTXSID0075235

> <Canonical_QSARr>
C=C[N+]([O-])=O

> <InChI_Code_QSARr>
InChI=1S/C2H3NO2/c1-2-3(4)5/h2H,1H2

> <InChI Key_QSARr>
RPMXALUWKZHYOV-UHFFFAOYSA-N

> <OH>
1.2E-12

> <OH Temperature>
25.0

> <OH Data Type>
EXP

> <OH Reference>
ATKINSON,R (1994)

> <LogOH>
-11.920818753952377

$$$$
100687
  -INDIGO-08031719142D

 24 23  0  0  0  0  0  0  0  0999 V2000
   -1.3856    0.8000    0.0000 C   0  0  0  0  0  0  0  0  0  0  0  0
   -0.7733    2.2782    0.0000 H   0  0  0  0  0  0  0  0  0  0  0  0
   -1.9980    2.2782    0.0000 H   0  0  0  0  0  0  0  0  0  0  0  0
    0.0001    0.0000    0.0000 C   0  0  0  0  0  0  0  0  0  0  0  0
   -0.6122   -1.4782    0.0000 H   0  0  0  0  0  0  0  0  0  0  0  0
    0.6122   -1.4782    0.0000 H   0  0  0  0  0  0  0  0  0  0  0  0
    1.3856    0.8000    0.0000 C   0  0  0  0  0  0  0  0  0  0  0  0
    1.3856    2.4000    0.0000 H   0  0  0  0  0  0  0  0  0  0  0  0
    2.7714    0.0000    0.0000 C   0  0  0  0  0  0  0  0  0  0  0  0
    2.7714   -1.6000    0.0000 H   0  0  0  0  0  0  0  0  0  0  0  0
    4.1569    0.8000    0.0000 C   0  0  0  0  0  0  0  0  0  0  0  0
    4.7692    2.2782    0.0000 H   0  0  0  0  0  0  0  0  0  0  0  0
    3.5446    2.2782    0.0000 H   0  0  0  0  0  0  0  0  0  0  0  0
    5.5427    0.0000    0.0000 C   0  0  0  0  0  0  0  0  0  0  0  0
    6.9282   -0.8000    0.0000 H   0  0  0  0  0  0  0  0  0  0  0  0
    6.9282    0.8000    0.0000 H   0  0  0  0  0  0  0  0  0  0  0  0
    5.5427   -1.6000    0.0000 H   0  0  0  0  0  0  0  0  0  0  0  0
   -2.7712    0.0000    0.0000 O   0  0  0  0  0  0  0  0  0  0  0  0
   -4.1569    0.8000    0.0000 C   0  0  0  0  0  0  0  0  0  0  0  0
   -5.5425    0.0000    0.0000 C   0  0  0  0  0  0  0  0  0  0  0  0
   -6.9282   -0.8000    0.0000 H   0  0  0  0  0  0  0  0  0  0  0  0
   -6.9282    0.8000    0.0000 H   0  0  0  0  0  0  0  0  0  0  0  0
   -5.5425   -1.6000    0.0000 H   0  0  0  0  0  0  0  0  0  0  0  0
   -4.1569    2.4000    0.0000 O   0  0  0  0  0  0  0  0  0  0  0  0
  1  2  1  0  0  0  0
  1  3  1  0  0  0  0
  1  4  1  0  0  0  0
  4  5  1  0  0  0  0
  4  6  1  0  0  0  0
  4  7  1  0  0  0  0
  7  8  1  0  0  0  0
  7  9  2  0  0  0  0
  9 10  1  0  0  0  0
  9 11  1  0  0  0  0
 11 12  1  0  0  0  0
 11 13  1  0  0  0  0
 11 14  1  0  0  0  0
 14 15  1  0  0  0  0
 14 16  1  0  0  0  0
 14 17  1  0  0  0  0
  1 18  1  0  0  0  0
 18 19  1  0  0  0  0
 19 20  1  0  0  0  0
 20 21  1  0  0  0  0
 20 22  1  0  0  0  0
 20 23  1  0  0  0  0
 19 24  2  0  0  0  0
M  END
> <ChemID>
100687

> <source_casrn>
3681-71-8

> <CAS>
3681-71-8

> <SMILES>
CC/C=C\CCOC(C)=O

> <NAME>
cis-3-Hexenylacetate

> <preferred_name>
(3Z)-3-Hexenyl acetate

> <iupac>
(3Z)-hex-3-en-1-yl acetate

> <MPID>
99194

> <dsstox_substance_id>
DTXSID0041484

> <Canonical_QSARr>
CCC=CCCOC(C)=O

> <InChI_Code_QSARr>
InChI=1S/C8H14O2/c1-3-4-5-6-7-10-8(2)9/h4-5H,3,6-7H2,1-2H3/b5-4+

> <InChI Key_QSARr>
NPFVOOAXDOBMCE-SNAWJCMRSA-N

> <OH>
7.8E-11

> <OH Temperature>
25.0

> <OH Data Type>
EXP

> <OH Reference>
ATKINSON,R ET AL. (1995)

> <LogOH>
-10.107905397309537

$$$$
100690
  -INDIGO-08031719142D

  9  8  0  0  0  0  0  0  0  0999 V2000
    0.0000    0.0000    0.0000 C   0  0  0  0  0  0  0  0  0  0  0  0
    1.3856   -0.8000    0.0000 O   0  0  0  0  0  0  0  0  0  0  0  0
    2.7713    0.0000    0.0000 C   0  0  0  0  0  0  0  0  0  0  0  0
    4.1569    0.8000    0.0000 H   0  0  0  0  0  0  0  0  0  0  0  0
    4.1569   -0.8000    0.0000 F   0  0  0  0  0  0  0  0  0  0  0  0
    2.7713    1.6000    0.0000 F   0  0  0  0  0  0  0  0  0  0  0  0
   -1.3856    0.8000    0.0000 F   0  0  0  0  0  0  0  0  0  0  0  0
    0.0000    1.6000    0.0000 F   0  0  0  0  0  0  0  0  0  0  0  0
   -1.3856   -0.8000    0.0000 F   0  0  0  0  0  0  0  0  0  0  0  0
  1  2  1  0  0  0  0
  2  3  1  0  0  0  0
  3  4  1  0  0  0  0
  3  5  1  0  0  0  0
  3  6  1  0  0  0  0
  1  7  1  0  0  0  0
  1  8  1  0  0  0  0
  1  9  1  0  0  0  0
M  END
> <ChemID>
100690

> <source_casrn>
3822-68-2

> <CAS>
3822-68-2

> <SMILES>
FC(F)OC(F)(F)F

> <NAME>
Pentafluoromethyl ether

> <preferred_name>
Methane, (difluoromethoxy)trifluoro-

> <iupac>
difluoromethoxy-trifluoromethane

> <MPID>
99197

> <dsstox_substance_id>
DTXSID4073968

> <Canonical_QSARr>
FC(F)OC(F)(F)F

> <InChI_Code_QSARr>
InChI=1S/C2HF5O/c3-1(4)8-2(5,6)7/h1H

> <InChI Key_QSARr>
ACYQYBAHTSKBLM-UHFFFAOYSA-N

> <OH>
3.5E-15

> <OH Temperature>
25.0

> <OH Data Type>
EXP

> <OH Reference>
KWOK,ESC & ATKINSON,R (1994)

> <LogOH>
-14.455931955649715

$$$$
100691
  -INDIGO-08031719142D

 39 41  0  0  0  0  0  0  0  0999 V2000
   -0.0000   -0.0000    0.0000 C   0  0  0  0  0  0  0  0  0  0  0  0
   -1.3856    0.8000    0.0000 C   0  0  0  0  0  0  0  0  0  0  0  0
   -1.6634    2.3757    0.0000 H   0  0  0  0  0  0  0  0  0  0  0  0
    1.3857   -2.4000    0.0000 C   0  0  0  0  0  0  0  0  0  0  0  0
    1.3857   -4.0000    0.0000 H   0  0  0  0  0  0  0  0  0  0  0  0
   -0.0000   -1.6000    0.0000 C   0  0  0  0  0  0  0  0  0  0  0  0
   -0.0000   -3.2001    0.0000 H   0  0  0  0  0  0  0  0  0  0  0  0
   -1.3856   -2.4000    0.0000 C   0  0  0  0  0  0  0  0  0  0  0  0
   -2.7712   -1.6000    0.0000 C   0  0  0  0  0  0  0  0  0  0  0  0
   -4.1570   -2.4000    0.0000 H   0  0  0  0  0  0  0  0  0  0  0  0
   -2.7712   -0.0000    0.0000 C   0  0  0  0  0  0  0  0  0  0  0  0
   -3.3185    1.5035    0.0000 H   0  0  0  0  0  0  0  0  0  0  0  0
   -4.3470   -0.2779    0.0000 H   0  0  0  0  0  0  0  0  0  0  0  0
   -1.3856   -4.0000    0.0000 C   0  0  0  0  0  0  0  0  0  0  0  0
   -1.3856   -5.6000    0.0000 H   0  0  0  0  0  0  0  0  0  0  0  0
   -2.7712   -4.8001    0.0000 H   0  0  0  0  0  0  0  0  0  0  0  0
   -0.0000   -4.8001    0.0000 H   0  0  0  0  0  0  0  0  0  0  0  0
    2.7713   -1.6000    0.0000 C   0  0  0  0  0  0  0  0  0  0  0  0
    3.3186   -3.1035    0.0000 H   0  0  0  0  0  0  0  0  0  0  0  0
    4.3469   -1.3222    0.0000 C   0  0  0  0  0  0  0  0  0  0  0  0
    4.3469   -0.2779    0.0000 H   0  0  0  0  0  0  0  0  0  0  0  0
    5.7327   -0.5221    0.0000 C   0  0  0  0  0  0  0  0  0  0  0  0
    7.1183    0.2778    0.0000 H   0  0  0  0  0  0  0  0  0  0  0  0
    7.1183   -1.3222    0.0000 H   0  0  0  0  0  0  0  0  0  0  0  0
    5.7327    1.0779    0.0000 H   0  0  0  0  0  0  0  0  0  0  0  0
    5.1469   -2.7078    0.0000 C   0  0  0  0  0  0  0  0  0  0  0  0
    5.9470   -4.0935    0.0000 H   0  0  0  0  0  0  0  0  0  0  0  0
    4.3469   -4.0935    0.0000 H   0  0  0  0  0  0  0  0  0  0  0  0
    6.7470   -2.7078    0.0000 H   0  0  0  0  0  0  0  0  0  0  0  0
    2.7713   -0.0000    0.0000 C   0  0  0  0  0  0  0  0  0  0  0  0
    3.7997    0.1813    0.0000 H   0  0  0  0  0  0  0  0  0  0  0  0
    3.3186    1.5035    0.0000 H   0  0  0  0  0  0  0  0  0  0  0  0
    1.3857    0.8000    0.0000 C   0  0  0  0  0  0  0  0  0  0  0  0
    2.4141    2.0257    0.0000 H   0  0  0  0  0  0  0  0  0  0  0  0
    0.8385    2.3035    0.0000 H   0  0  0  0  0  0  0  0  0  0  0  0
   -0.0000    0.6400    0.0000 C   0  0  0  0  0  0  0  0  0  0  0  0
   -0.0000    2.2400    0.0000 H   0  0  0  0  0  0  0  0  0  0  0  0
   -1.2257    1.6685    0.0000 H   0  0  0  0  0  0  0  0  0  0  0  0
   -1.3856   -0.1600    0.0000 H   0  0  0  0  0  0  0  0  0  0  0  0
  1  2  1  0  0  0  0
  2  3  1  0  0  0  0
  2  4  1  0  0  0  0
  4  5  1  0  0  0  0
  4  6  1  0  0  0  0
  6  1  1  0  0  0  0
  6  7  1  0  0  0  0
  6  8  1  0  0  0  0
  8  9  2  0  0  0  0
  9 10  1  0  0  0  0
  9 11  1  0  0  0  0
 11  2  1  0  0  0  0
 11 12  1  0  0  0  0
 11 13  1  0  0  0  0
  8 14  1  0  0  0  0
 14 15  1  0  0  0  0
 14 16  1  0  0  0  0
 14 17  1  0  0  0  0
  4 18  1  0  0  0  0
 18 19  1  0  0  0  0
 18 20  1  0  0  0  0
 20 21  1  0  0  0  0
 20 22  1  0  0  0  0
 22 23  1  0  0  0  0
 22 24  1  0  0  0  0
 22 25  1  0  0  0  0
 20 26  1  0  0  0  0
 26 27  1  0  0  0  0
 26 28  1  0  0  0  0
 26 29  1  0  0  0  0
 18 30  1  0  0  0  0
 30 31  1  0  0  0  0
 30 32  1  0  0  0  0
 30 33  1  0  0  0  0
 33  1  1  0  0  0  0
 33 34  1  0  0  0  0
 33 35  1  0  0  0  0
  1 36  1  0  0  0  0
 36 37  1  0  0  0  0
 36 38  1  0  0  0  0
 36 39  1  0  0  0  0
M  END
> <ChemID>
100691

> <source_casrn>
3856-25-5

> <CAS>
947-59-1

> <SMILES>
CC(C)[C@H]1CC[C@]2(C)[C@@H]3[C@H]1[C@H]2CC=C3C

> <NAME>
alpha-COPAENE

> <preferred_name>
UNII-78123715A8

> <iupac>
C15H24

> <MPID>
99198

> <dsstox_substance_id>
DTXSID20348370

> <Canonical_QSARr>
CC(C)C1CCC2(C)C3C1C2CC=C3C

> <InChI_Code_QSARr>
InChI=1S/C15H24/c1-9(2)11-7-8-15(4)12-6-5-10(3)14(15)13(11)12/h5,9,11-14H,6-8H2,1-4H3

> <InChI Key_QSARr>
VLXDPFLIRFYIME-UHFFFAOYSA-N

> <OH>
8.999999999999997E-11

> <OH Temperature>
23.0

> <OH Data Type>
EXP

> <OH Reference>
SHU,Y & ATKINSON,R (1995)

> <LogOH>
-10.045757490560682

$$$$
100692
  -INDIGO-08031719142D

 19 18  0  0  0  0  0  0  0  0999 V2000
   -0.0001    0.0000    0.0000 C   0  0  0  0  0  0  0  0  0  0  0  0
    0.6122   -1.4782    0.0000 H   0  0  0  0  0  0  0  0  0  0  0  0
   -0.6124   -1.4782    0.0000 H   0  0  0  0  0  0  0  0  0  0  0  0
    1.3857    0.8000    0.0000 C   0  0  0  0  0  0  0  0  0  0  0  0
    0.7734    2.2782    0.0000 H   0  0  0  0  0  0  0  0  0  0  0  0
    1.9980    2.2782    0.0000 H   0  0  0  0  0  0  0  0  0  0  0  0
    2.7713    0.0000    0.0000 C   0  0  0  0  0  0  0  0  0  0  0  0
    2.7713   -1.6000    0.0000 H   0  0  0  0  0  0  0  0  0  0  0  0
    4.1569    0.8000    0.0000 C   0  0  0  0  0  0  0  0  0  0  0  0
    5.5426    0.0000    0.0000 H   0  0  0  0  0  0  0  0  0  0  0  0
    4.1569    2.4000    0.0000 H   0  0  0  0  0  0  0  0  0  0  0  0
   -1.3857    0.8000    0.0000 C   0  0  0  0  0  0  0  0  0  0  0  0
   -2.7713    0.0000    0.0000 C   0  0  0  0  0  0  0  0  0  0  0  0
   -4.1569   -0.8000    0.0000 H   0  0  0  0  0  0  0  0  0  0  0  0
   -4.1569    0.8000    0.0000 H   0  0  0  0  0  0  0  0  0  0  0  0
   -2.7713   -1.6000    0.0000 H   0  0  0  0  0  0  0  0  0  0  0  0
   -1.3857    2.4000    0.0000 C   0  0  0  0  0  0  0  0  0  0  0  0
   -2.7713    3.2000    0.0000 H   0  0  0  0  0  0  0  0  0  0  0  0
   -0.0001    3.2000    0.0000 H   0  0  0  0  0  0  0  0  0  0  0  0
  1  2  1  0  0  0  0
  1  3  1  0  0  0  0
  1  4  1  0  0  0  0
  4  5  1  0  0  0  0
  4  6  1  0  0  0  0
  4  7  1  0  0  0  0
  7  8  1  0  0  0  0
  7  9  2  0  0  0  0
  9 10  1  0  0  0  0
  9 11  1  0  0  0  0
  1 12  1  0  0  0  0
 12 13  1  0  0  0  0
 13 14  1  0  0  0  0
 13 15  1  0  0  0  0
 13 16  1  0  0  0  0
 12 17  2  0  0  0  0
 17 18  1  0  0  0  0
 17 19  1  0  0  0  0
M  END
> <ChemID>
100692

> <source_casrn>
4049-81-4

> <CAS>
4049-81-4

> <SMILES>
CC(=C)CCC=C

> <NAME>
2-METHYL-1,5-HEXADIENE

> <preferred_name>
2-Methylhexa-1,5-diene

> <iupac>
2-Methylhexa-1,5-diene

> <MPID>
99199

> <dsstox_substance_id>
DTXSID00193502

> <Canonical_QSARr>
CC(=C)CCC=C

> <InChI_Code_QSARr>
InChI=1S/C7H12/c1-4-5-6-7(2)3/h4H,1-2,5-6H2,3H3

> <InChI Key_QSARr>
SLQMKNPIYMOEGB-UHFFFAOYSA-N

> <OH>
9.600000000000002E-11

> <OH Temperature>
25.0

> <OH Data Type>
EXP

> <OH Reference>
KWOK,ESC & ATKINSON,R (1994)

> <LogOH>
-10.017728766960426

$$$$
100694
  -INDIGO-08031719142D

 12 11  0  0  0  0  0  0  0  0999 V2000
   -1.3856   -2.4000    0.0000 O   0  0  0  0  0  0  0  0  0  0  0  0
   -0.0000   -1.6000    0.0000 N   0  0  0  0  0  0  0  0  0  0  0  0
    1.3856   -2.4000    0.0000 O   0  0  0  0  0  0  0  0  0  0  0  0
    0.0000    0.0000    0.0000 N   0  0  0  0  0  0  0  0  0  0  0  0
    1.3856    0.8000    0.0000 C   0  0  0  0  0  0  0  0  0  0  0  0
    2.7713    1.6000    0.0000 H   0  0  0  0  0  0  0  0  0  0  0  0
    2.7713    0.0000    0.0000 H   0  0  0  0  0  0  0  0  0  0  0  0
    1.3856    2.4000    0.0000 H   0  0  0  0  0  0  0  0  0  0  0  0
   -1.3856    0.8000    0.0000 C   0  0  0  0  0  0  0  0  0  0  0  0
   -2.7713    1.6000    0.0000 H   0  0  0  0  0  0  0  0  0  0  0  0
   -2.7713    0.0000    0.0000 H   0  0  0  0  0  0  0  0  0  0  0  0
   -1.3856    2.4000    0.0000 H   0  0  0  0  0  0  0  0  0  0  0  0
  1  2  1  0  0  0  0
  2  3  2  0  0  0  0
  2  4  1  0  0  0  0
  4  5  1  0  0  0  0
  5  6  1  0  0  0  0
  5  7  1  0  0  0  0
  5  8  1  0  0  0  0
  4  9  1  0  0  0  0
  9 10  1  0  0  0  0
  9 11  1  0  0  0  0
  9 12  1  0  0  0  0
M  CHG  2   1  -1   2   1
M  END
> <ChemID>
100694

> <source_casrn>
4164-28-7

> <CAS>
4164-28-7

> <SMILES>
CN(C)[N+]([O-])=O

> <NAME>
DIMETHYLNITRAMINE

> <preferred_name>
Dimethylnitramine

> <iupac>
N-methyl-N-nitromethanamine

> <MPID>
99201

> <dsstox_substance_id>
DTXSID6020519

> <Canonical_QSARr>
CN(C)[N+]([O-])=O

> <InChI_Code_QSARr>
InChI=1S/C2H6N2O2/c1-3(2)4(5)6/h1-2H3

> <InChI Key_QSARr>
XRWKADIRZXTTLH-UHFFFAOYSA-N

> <OH>
3.840000000000001E-12

> <OH Temperature>
25.0

> <OH Data Type>
EXP

> <OH Reference>
ATKINSON,R (1989)

> <LogOH>
-11.415668775632463

$$$$
100696
  -INDIGO-08031719142D

 16 15  0  0  0  0  0  0  0  0999 V2000
    2.4000   -1.3856    0.0000 C   0  0  0  0  0  0  0  0  0  0  0  0
    3.2000   -2.7713    0.0000 H   0  0  0  0  0  0  0  0  0  0  0  0
    3.2000   -0.0000    0.0000 H   0  0  0  0  0  0  0  0  0  0  0  0
    0.8000   -1.3856    0.0000 C   0  0  0  0  0  0  0  0  0  0  0  0
   -0.0000   -2.7713    0.0000 H   0  0  0  0  0  0  0  0  0  0  0  0
   -0.0000    0.0000    0.0000 C   0  0  0  0  0  0  0  0  0  0  0  0
   -1.6000    0.0000    0.0000 C   0  0  0  0  0  0  0  0  0  0  0  0
   -2.4000    1.3856    0.0000 H   0  0  0  0  0  0  0  0  0  0  0  0
   -2.4000   -1.3856    0.0000 C   0  0  0  0  0  0  0  0  0  0  0  0
   -3.2000   -2.7713    0.0000 H   0  0  0  0  0  0  0  0  0  0  0  0
   -4.0000   -1.3856    0.0000 H   0  0  0  0  0  0  0  0  0  0  0  0
   -1.6000   -2.7713    0.0000 H   0  0  0  0  0  0  0  0  0  0  0  0
    0.8000    1.3856    0.0000 C   0  0  0  0  0  0  0  0  0  0  0  0
    1.6000    2.7713    0.0000 H   0  0  0  0  0  0  0  0  0  0  0  0
    2.4000    1.3856    0.0000 H   0  0  0  0  0  0  0  0  0  0  0  0
   -0.0000    2.7713    0.0000 H   0  0  0  0  0  0  0  0  0  0  0  0
  1  2  1  0  0  0  0
  1  3  1  0  0  0  0
  1  4  2  0  0  0  0
  4  5  1  0  0  0  0
  4  6  1  0  0  0  0
  6  7  2  0  0  0  0
  7  8  1  0  0  0  0
  7  9  1  0  0  0  0
  9 10  1  0  0  0  0
  9 11  1  0  0  0  0
  9 12  1  0  0  0  0
  6 13  1  0  0  0  0
 13 14  1  0  0  0  0
 13 15  1  0  0  0  0
 13 16  1  0  0  0  0
M  END
> <ChemID>
100696

> <source_casrn>
4549-74-0

> <CAS>
NOCAS_871089

> <SMILES>
CC=C(C)C=C

> <NAME>
3-METHYL-1,3-PENTADIENE

> <preferred_name>


> <iupac>


> <MPID>
99203

> <dsstox_substance_id>
DTXSID90871089

> <Canonical_QSARr>
CC=C(C)C=C

> <InChI_Code_QSARr>
InChI=1S/C6H10/c1-4-6(3)5-2/h4-5H,1H2,2-3H3/b6-5-

> <InChI Key_QSARr>
BOGRNZQRTNVZCZ-WAYWQWQTSA-N

> <OH>
1.36E-10

> <OH Temperature>
25.0

> <OH Data Type>
EXP

> <OH Reference>
ATKINSON,R (1989)

> <LogOH>
-9.866461091629784

$$$$
100698
  -INDIGO-08031719142D

 20 19  0  0  0  0  0  0  0  0999 V2000
    4.1569   -0.8000    0.0000 C   0  0  0  0  0  0  0  0  0  0  0  0
    5.5426   -1.6000    0.0000 H   0  0  0  0  0  0  0  0  0  0  0  0
    5.5426    0.0000    0.0000 H   0  0  0  0  0  0  0  0  0  0  0  0
    4.1569   -2.4000    0.0000 H   0  0  0  0  0  0  0  0  0  0  0  0
    2.7713    0.0000    0.0000 C   0  0  0  0  0  0  0  0  0  0  0  0
    3.3836    1.4782    0.0000 H   0  0  0  0  0  0  0  0  0  0  0  0
    2.1590    1.4782    0.0000 H   0  0  0  0  0  0  0  0  0  0  0  0
    1.3856   -0.8000    0.0000 C   0  0  0  0  0  0  0  0  0  0  0  0
    0.0000    0.0000    0.0000 C   0  0  0  0  0  0  0  0  0  0  0  0
   -0.8001   -1.3856    0.0000 H   0  0  0  0  0  0  0  0  0  0  0  0
   -1.5035    0.5472    0.0000 C   0  0  0  0  0  0  0  0  0  0  0  0
   -1.1571    2.1093    0.0000 H   0  0  0  0  0  0  0  0  0  0  0  0
   -2.3633    1.8967    0.0000 H   0  0  0  0  0  0  0  0  0  0  0  0
   -2.7291   -0.4813    0.0000 C   0  0  0  0  0  0  0  0  0  0  0  0
   -3.9548   -1.5097    0.0000 H   0  0  0  0  0  0  0  0  0  0  0  0
   -4.2327    0.0660    0.0000 H   0  0  0  0  0  0  0  0  0  0  0  0
   -2.4514   -2.0569    0.0000 H   0  0  0  0  0  0  0  0  0  0  0  0
    0.8000    1.3856    0.0000 O   0  0  0  0  0  0  0  0  0  0  0  0
    0.0000    2.7713    0.0000 H   0  0  0  0  0  0  0  0  0  0  0  0
    1.3856   -2.4000    0.0000 O   0  0  0  0  0  0  0  0  0  0  0  0
  1  2  1  0  0  0  0
  1  3  1  0  0  0  0
  1  4  1  0  0  0  0
  1  5  1  0  0  0  0
  5  6  1  0  0  0  0
  5  7  1  0  0  0  0
  5  8  1  0  0  0  0
  8  9  1  0  0  0  0
  9 10  1  0  0  0  0
  9 11  1  0  0  0  0
 11 12  1  0  0  0  0
 11 13  1  0  0  0  0
 11 14  1  0  0  0  0
 14 15  1  0  0  0  0
 14 16  1  0  0  0  0
 14 17  1  0  0  0  0
  9 18  1  0  0  0  0
 18 19  1  0  0  0  0
  8 20  2  0  0  0  0
M  END
> <ChemID>
100698

> <source_casrn>
4984-85-4

> <CAS>
NOCAS_863474

> <SMILES>
CCC(=O)C(O)CC

> <NAME>
4-Hydroxy-3-hexanone

> <preferred_name>


> <iupac>


> <MPID>
99205

> <dsstox_substance_id>
DTXSID40863474

> <Canonical_QSARr>
CCC(=O)C(O)CC

> <InChI_Code_QSARr>
InChI=1S/C6H12O2/c1-3-5(7)6(8)4-2/h5,7H,3-4H2,1-2H3

> <InChI Key_QSARr>
SKCYVGUCBRYGTE-UHFFFAOYSA-N

> <OH>
1.51E-11

> <OH Temperature>
23.0

> <OH Data Type>
EXP

> <OH Reference>
ASCHMANN,SM ET AL. (2000)

> <LogOH>
-10.821023052706844

$$$$
100700
  -INDIGO-08031719142D

 25 24  0  0  0  0  0  0  0  0999 V2000
    4.1569    0.8000    0.0000 C   0  0  0  0  0  0  0  0  0  0  0  0
    4.7693    2.2782    0.0000 H   0  0  0  0  0  0  0  0  0  0  0  0
    3.5446    2.2782    0.0000 H   0  0  0  0  0  0  0  0  0  0  0  0
    5.5426    0.0000    0.0000 C   0  0  0  0  0  0  0  0  0  0  0  0
    4.7426   -1.3856    0.0000 H   0  0  0  0  0  0  0  0  0  0  0  0
    6.9281   -0.8000    0.0000 C   0  0  0  0  0  0  0  0  0  0  0  0
    8.3138   -1.6000    0.0000 H   0  0  0  0  0  0  0  0  0  0  0  0
    8.3138    0.0000    0.0000 H   0  0  0  0  0  0  0  0  0  0  0  0
    6.9281   -2.4000    0.0000 H   0  0  0  0  0  0  0  0  0  0  0  0
    6.3426    1.3856    0.0000 O   0  0  0  0  0  0  0  0  0  0  0  0
    7.9426    1.3856    0.0000 H   0  0  0  0  0  0  0  0  0  0  0  0
    2.7712    0.0000    0.0000 O   0  0  0  0  0  0  0  0  0  0  0  0
    1.3857    0.8000    0.0000 C   0  0  0  0  0  0  0  0  0  0  0  0
    1.9979    2.2782    0.0000 H   0  0  0  0  0  0  0  0  0  0  0  0
    0.7733    2.2782    0.0000 H   0  0  0  0  0  0  0  0  0  0  0  0
    0.0000    0.0000    0.0000 C   0  0  0  0  0  0  0  0  0  0  0  0
   -0.6124   -1.4782    0.0000 H   0  0  0  0  0  0  0  0  0  0  0  0
    0.6124   -1.4782    0.0000 H   0  0  0  0  0  0  0  0  0  0  0  0
   -1.3857    0.8000    0.0000 C   0  0  0  0  0  0  0  0  0  0  0  0
   -0.7733    2.2782    0.0000 H   0  0  0  0  0  0  0  0  0  0  0  0
   -1.9979    2.2782    0.0000 H   0  0  0  0  0  0  0  0  0  0  0  0
   -2.7712    0.0000    0.0000 C   0  0  0  0  0  0  0  0  0  0  0  0
   -4.1569   -0.8000    0.0000 H   0  0  0  0  0  0  0  0  0  0  0  0
   -4.1569    0.8000    0.0000 H   0  0  0  0  0  0  0  0  0  0  0  0
   -2.7712   -1.6000    0.0000 H   0  0  0  0  0  0  0  0  0  0  0  0
  1  2  1  0  0  0  0
  1  3  1  0  0  0  0
  1  4  1  0  0  0  0
  4  5  1  0  0  0  0
  4  6  1  0  0  0  0
  6  7  1  0  0  0  0
  6  8  1  0  0  0  0
  6  9  1  0  0  0  0
  4 10  1  0  0  0  0
 10 11  1  0  0  0  0
  1 12  1  0  0  0  0
 12 13  1  0  0  0  0
 13 14  1  0  0  0  0
 13 15  1  0  0  0  0
 13 16  1  0  0  0  0
 16 17  1  0  0  0  0
 16 18  1  0  0  0  0
 16 19  1  0  0  0  0
 19 20  1  0  0  0  0
 19 21  1  0  0  0  0
 19 22  1  0  0  0  0
 22 23  1  0  0  0  0
 22 24  1  0  0  0  0
 22 25  1  0  0  0  0
M  END
> <ChemID>
100700

> <source_casrn>
5131-66-8

> <CAS>
5131-66-8

> <SMILES>
CCCCOCC(C)O

> <NAME>
2-Propanol, 1-butoxy-

> <preferred_name>
1-Butoxy-2-propanol

> <iupac>
1-butoxypropan-2-ol

> <MPID>
99207

> <dsstox_substance_id>
DTXSID8027589

> <Canonical_QSARr>
CCCCOCC(C)O

> <InChI_Code_QSARr>
InChI=1S/C7H16O2/c1-3-4-5-9-6-7(2)8/h7-8H,3-6H2,1-2H3

> <InChI Key_QSARr>
RWNUSVWFHDHRCJ-UHFFFAOYSA-N

> <OH>
3.760000000000001E-11

> <OH Temperature>
23.0

> <OH Data Type>
EXP

> <OH Reference>
ASCHMANN,SM ET AL. (2001)

> <LogOH>
-10.424812155072338

$$$$
100703
  -INDIGO-08031719142D

 24 24  0  0  0  0  0  0  0  0999 V2000
    3.2000   -0.0000    0.0000 C   0  0  0  0  0  0  0  0  0  0  0  0
    2.4000    1.3857    0.0000 C   0  0  0  0  0  0  0  0  0  0  0  0
    3.2000    2.7713    0.0000 H   0  0  0  0  0  0  0  0  0  0  0  0
    0.7999    1.3857    0.0000 C   0  0  0  0  0  0  0  0  0  0  0  0
    1.0778    2.9613    0.0000 H   0  0  0  0  0  0  0  0  0  0  0  0
   -0.7035    1.9329    0.0000 H   0  0  0  0  0  0  0  0  0  0  0  0
   -0.0000   -0.0000    0.0000 C   0  0  0  0  0  0  0  0  0  0  0  0
   -1.2256   -1.0285    0.0000 H   0  0  0  0  0  0  0  0  0  0  0  0
   -1.3857    0.8000    0.0000 C   0  0  0  0  0  0  0  0  0  0  0  0
   -1.6634    2.3757    0.0000 O   0  0  0  0  0  0  0  0  0  0  0  0
   -2.7712   -0.0000    0.0000 C   0  0  0  0  0  0  0  0  0  0  0  0
   -4.1569   -0.8000    0.0000 H   0  0  0  0  0  0  0  0  0  0  0  0
   -4.1569    0.8000    0.0000 H   0  0  0  0  0  0  0  0  0  0  0  0
   -2.7712   -1.6000    0.0000 H   0  0  0  0  0  0  0  0  0  0  0  0
    0.7999   -1.3857    0.0000 C   0  0  0  0  0  0  0  0  0  0  0  0
   -0.7035   -1.9329    0.0000 H   0  0  0  0  0  0  0  0  0  0  0  0
    1.0778   -2.9613    0.0000 H   0  0  0  0  0  0  0  0  0  0  0  0
    2.4000   -1.3857    0.0000 C   0  0  0  0  0  0  0  0  0  0  0  0
    2.1221   -2.9613    0.0000 H   0  0  0  0  0  0  0  0  0  0  0  0
    3.9035   -1.9329    0.0000 H   0  0  0  0  0  0  0  0  0  0  0  0
    4.8001   -0.0000    0.0000 C   0  0  0  0  0  0  0  0  0  0  0  0
    6.4000   -0.0000    0.0000 H   0  0  0  0  0  0  0  0  0  0  0  0
    5.6000    1.3857    0.0000 H   0  0  0  0  0  0  0  0  0  0  0  0
    5.6000   -1.3857    0.0000 H   0  0  0  0  0  0  0  0  0  0  0  0
  1  2  2  0  0  0  0
  2  3  1  0  0  0  0
  2  4  1  0  0  0  0
  4  5  1  0  0  0  0
  4  6  1  0  0  0  0
  4  7  1  0  0  0  0
  7  8  1  0  0  0  0
  7  9  1  0  0  0  0
  9 10  2  0  0  0  0
  9 11  1  0  0  0  0
 11 12  1  0  0  0  0
 11 13  1  0  0  0  0
 11 14  1  0  0  0  0
  7 15  1  0  0  0  0
 15 16  1  0  0  0  0
 15 17  1  0  0  0  0
 15 18  1  0  0  0  0
 18  1  1  0  0  0  0
 18 19  1  0  0  0  0
 18 20  1  0  0  0  0
  1 21  1  0  0  0  0
 21 22  1  0  0  0  0
 21 23  1  0  0  0  0
 21 24  1  0  0  0  0
M  END
> <ChemID>
100703

> <source_casrn>
5259-65-4

> <CAS>
NOCAS_867915

> <SMILES>
CC1CCC(CC=1)C(C)=O

> <NAME>
4-Acetyl-1-methylcyclohexene

> <preferred_name>
4-Methylcyclohex-3-en-1-one

> <iupac>
4-Methylcyclohex-3-en-1-one

> <MPID>
99208

> <dsstox_substance_id>
DTXSID20867915

> <Canonical_QSARr>
CC1CCC(CC=1)C(C)=O

> <InChI_Code_QSARr>
InChI=1S/C9H14O/c1-7-3-5-9(6-4-7)8(2)10/h3,9H,4-6H2,1-2H3

> <InChI Key_QSARr>
HOBBEYSRFFJETF-UHFFFAOYSA-N

> <OH>
1.29E-10

> <OH Temperature>
23.0

> <OH Data Type>
EXP

> <OH Reference>
ALVARADO,A ET AL. (1998)

> <LogOH>
-9.889410289700761

$$$$
100705
  -INDIGO-08031719142D

 13 12  0  0  0  0  0  0  0  0999 V2000
    4.1569    0.8000    0.0000 C   0  0  0  0  0  0  0  0  0  0  0  0
    5.5426    0.0000    0.0000 H   0  0  0  0  0  0  0  0  0  0  0  0
    2.7713    0.0000    0.0000 C   0  0  0  0  0  0  0  0  0  0  0  0
    2.7713   -1.6000    0.0000 H   0  0  0  0  0  0  0  0  0  0  0  0
    1.3857    0.8000    0.0000 C   0  0  0  0  0  0  0  0  0  0  0  0
    1.3857    2.4000    0.0000 H   0  0  0  0  0  0  0  0  0  0  0  0
    0.0000    0.0000    0.0000 C   0  0  0  0  0  0  0  0  0  0  0  0
   -1.3856    0.8000    0.0000 C   0  0  0  0  0  0  0  0  0  0  0  0
   -2.7713    1.6000    0.0000 H   0  0  0  0  0  0  0  0  0  0  0  0
   -2.7713    0.0000    0.0000 H   0  0  0  0  0  0  0  0  0  0  0  0
   -1.3856    2.4000    0.0000 H   0  0  0  0  0  0  0  0  0  0  0  0
    0.0000   -1.6000    0.0000 O   0  0  0  0  0  0  0  0  0  0  0  0
    4.1569    2.4000    0.0000 O   0  0  0  0  0  0  0  0  0  0  0  0
  1  2  1  0  0  0  0
  1  3  1  0  0  0  0
  3  4  1  0  0  0  0
  3  5  2  0  0  0  0
  5  6  1  0  0  0  0
  5  7  1  0  0  0  0
  7  8  1  0  0  0  0
  8  9  1  0  0  0  0
  8 10  1  0  0  0  0
  8 11  1  0  0  0  0
  7 12  2  0  0  0  0
  1 13  2  0  0  0  0
M  END
> <ChemID>
100705

> <source_casrn>
5729-47-5

> <CAS>
5729-47-5

> <SMILES>
CC(=O)C=CC=O

> <NAME>
4-Oxo-2-pentenal

> <preferred_name>


> <iupac>


> <MPID>
99209

> <dsstox_substance_id>
DTXSID40878785

> <Canonical_QSARr>
CC(=O)C=CC=O

> <InChI_Code_QSARr>
InChI=1S/C5H6O2/c1-5(7)3-2-4-6/h2-4H,1H3/b3-2+

> <InChI Key_QSARr>
GBLMMVFQENXAFZ-NSCUHMNNSA-N

> <OH>
5.58E-11

> <OH Temperature>
25.0

> <OH Data Type>
EXP

> <OH Reference>
BIERBACH,A ET AL. (1994)

> <LogOH>
-10.253365801062428

$$$$
100708
  -INDIGO-08031719142D

 31 31  0  0  0  0  0  0  0  0999 V2000
   -2.7713    1.6000    0.0000 N   0  0  0  0  0  0  0  0  0  0  0  0
   -2.7713    0.0001    0.0000 C   0  0  0  0  0  0  0  0  0  0  0  0
   -1.3855   -0.8000    0.0000 N   0  0  0  0  0  0  0  0  0  0  0  0
   -1.3855   -2.4000    0.0000 H   0  0  0  0  0  0  0  0  0  0  0  0
    0.0000   -0.0001    0.0000 C   0  0  0  0  0  0  0  0  0  0  0  0
    1.3857    0.8000    0.0000 C   0  0  0  0  0  0  0  0  0  0  0  0
    2.7713    1.6000    0.0000 H   0  0  0  0  0  0  0  0  0  0  0  0
    2.7713   -0.0001    0.0000 H   0  0  0  0  0  0  0  0  0  0  0  0
    1.6636    2.3757    0.0000 H   0  0  0  0  0  0  0  0  0  0  0  0
    0.8001   -1.3856    0.0000 C   0  0  0  0  0  0  0  0  0  0  0  0
    1.5999   -2.7713    0.0000 H   0  0  0  0  0  0  0  0  0  0  0  0
    2.4000   -1.3856    0.0000 H   0  0  0  0  0  0  0  0  0  0  0  0
    0.0000   -2.7713    0.0000 H   0  0  0  0  0  0  0  0  0  0  0  0
   -0.8001    1.3856    0.0000 C   0  0  0  0  0  0  0  0  0  0  0  0
   -1.8285    2.6113    0.0000 H   0  0  0  0  0  0  0  0  0  0  0  0
   -0.2527    2.8892    0.0000 H   0  0  0  0  0  0  0  0  0  0  0  0
    0.7758    1.6635    0.0000 H   0  0  0  0  0  0  0  0  0  0  0  0
   -4.1568   -0.8000    0.0000 N   0  0  0  0  0  0  0  0  0  0  0  0
   -5.5426    0.0001    0.0000 C   0  0  0  0  0  0  0  0  0  0  0  0
   -6.9283   -0.8000    0.0000 N   0  0  0  0  0  0  0  0  0  0  0  0
   -6.9283   -2.4000    0.0000 H   0  0  0  0  0  0  0  0  0  0  0  0
   -8.3138    0.0001    0.0000 C   0  0  0  0  0  0  0  0  0  0  0  0
   -7.7015    1.4782    0.0000 H   0  0  0  0  0  0  0  0  0  0  0  0
   -8.9262    1.4782    0.0000 H   0  0  0  0  0  0  0  0  0  0  0  0
   -9.6994   -0.8000    0.0000 C   0  0  0  0  0  0  0  0  0  0  0  0
  -11.0851   -1.6000    0.0000 H   0  0  0  0  0  0  0  0  0  0  0  0
  -11.0851    0.0001    0.0000 H   0  0  0  0  0  0  0  0  0  0  0  0
   -9.6994   -2.4000    0.0000 H   0  0  0  0  0  0  0  0  0  0  0  0
   -5.5426    1.6000    0.0000 N   0  0  0  0  0  0  0  0  0  0  0  0
   -4.1568    2.4000    0.0000 C   0  0  0  0  0  0  0  0  0  0  0  0
   -4.1568    4.0000    0.0000 Cl  0  0  0  0  0  0  0  0  0  0  0  0
  1  2  1  0  0  0  0
  2  3  1  0  0  0  0
  3  4  1  0  0  0  0
  3  5  1  0  0  0  0
  5  6  1  0  0  0  0
  6  7  1  0  0  0  0
  6  8  1  0  0  0  0
  6  9  1  0  0  0  0
  5 10  1  0  0  0  0
 10 11  1  0  0  0  0
 10 12  1  0  0  0  0
 10 13  1  0  0  0  0
  5 14  1  0  0  0  0
 14 15  1  0  0  0  0
 14 16  1  0  0  0  0
 14 17  1  0  0  0  0
  2 18  2  0  0  0  0
 18 19  1  0  0  0  0
 19 20  1  0  0  0  0
 20 21  1  0  0  0  0
 20 22  1  0  0  0  0
 22 23  1  0  0  0  0
 22 24  1  0  0  0  0
 22 25  1  0  0  0  0
 25 26  1  0  0  0  0
 25 27  1  0  0  0  0
 25 28  1  0  0  0  0
 19 29  2  0  0  0  0
 29 30  1  0  0  0  0
 30  1  2  0  0  0  0
 30 31  1  0  0  0  0
M  END
> <ChemID>
100708

> <source_casrn>
5915-41-3

> <CAS>
5915-41-3

> <SMILES>
CCNc1[n]c(Cl)[n]c(NC(C)(C)C)[n]1

> <NAME>
TERBUTHYLAZINE

> <preferred_name>
Terbuthylazine

> <iupac>
N-tert-butyl-6-chloro-N'-ethyl-1,3,5-triazine-2,4-diamine

> <MPID>
99211

> <dsstox_substance_id>
DTXSID4027608

> <Canonical_QSARr>
CCNc1[n]c(Cl)[n]c(NC(C)(C)C)[n]1

> <InChI_Code_QSARr>
InChI=1S/C9H16ClN5/c1-5-11-7-12-6(10)13-8(14-7)15-9(2,3)4/h5H2,1-4H3,(H2,11,12,13,14,15)

> <InChI Key_QSARr>
FZXISNSWEXTPMF-UHFFFAOYSA-N

> <OH>
1.1E-11

> <OH Temperature>
25.0

> <OH Data Type>
EXP

> <OH Reference>
PALM,WU ET AL. (1998)

> <LogOH>
-10.958607314841784

$$$$
100709
  -INDIGO-08031719142D

 26 26  0  0  0  0  0  0  0  0999 V2000
    2.7712    0.0000    0.0000 C   0  0  0  0  0  0  0  0  0  0  0  0
    4.1569    0.8000    0.0000 H   0  0  0  0  0  0  0  0  0  0  0  0
    4.1569   -0.8000    0.0000 H   0  0  0  0  0  0  0  0  0  0  0  0
    2.7712    1.6000    0.0000 H   0  0  0  0  0  0  0  0  0  0  0  0
    1.3857   -0.8000    0.0000 C   0  0  0  0  0  0  0  0  0  0  0  0
    1.6634   -2.3757    0.0000 C   0  0  0  0  0  0  0  0  0  0  0  0
    3.1670   -2.9230    0.0000 H   0  0  0  0  0  0  0  0  0  0  0  0
    0.4379   -3.4042    0.0000 H   0  0  0  0  0  0  0  0  0  0  0  0
    0.0000    0.0000    0.0000 C   0  0  0  0  0  0  0  0  0  0  0  0
    1.2256    1.0284    0.0000 H   0  0  0  0  0  0  0  0  0  0  0  0
   -0.7999    1.3857    0.0000 C   0  0  0  0  0  0  0  0  0  0  0  0
    0.7035    1.9329    0.0000 H   0  0  0  0  0  0  0  0  0  0  0  0
   -1.0778    2.9613    0.0000 H   0  0  0  0  0  0  0  0  0  0  0  0
   -2.4000    1.3857    0.0000 C   0  0  0  0  0  0  0  0  0  0  0  0
   -2.1221    2.9613    0.0000 H   0  0  0  0  0  0  0  0  0  0  0  0
   -3.9035    1.9329    0.0000 H   0  0  0  0  0  0  0  0  0  0  0  0
   -3.2000    0.0000    0.0000 C   0  0  0  0  0  0  0  0  0  0  0  0
   -4.8001    0.0000    0.0000 C   0  0  0  0  0  0  0  0  0  0  0  0
   -6.4000    0.0000    0.0000 H   0  0  0  0  0  0  0  0  0  0  0  0
   -5.6000   -1.3857    0.0000 H   0  0  0  0  0  0  0  0  0  0  0  0
   -5.6000    1.3857    0.0000 H   0  0  0  0  0  0  0  0  0  0  0  0
   -2.4000   -1.3857    0.0000 C   0  0  0  0  0  0  0  0  0  0  0  0
   -3.2000   -2.7712    0.0000 H   0  0  0  0  0  0  0  0  0  0  0  0
   -0.7999   -1.3857    0.0000 C   0  0  0  0  0  0  0  0  0  0  0  0
   -1.0778   -2.9613    0.0000 H   0  0  0  0  0  0  0  0  0  0  0  0
    0.7035   -1.9329    0.0000 H   0  0  0  0  0  0  0  0  0  0  0  0
  1  2  1  0  0  0  0
  1  3  1  0  0  0  0
  1  4  1  0  0  0  0
  1  5  1  0  0  0  0
  5  6  2  0  0  0  0
  6  7  1  0  0  0  0
  6  8  1  0  0  0  0
  5  9  1  0  0  0  0
  9 10  1  0  0  0  0
  9 11  1  0  0  0  0
 11 12  1  0  0  0  0
 11 13  1  0  0  0  0
 11 14  1  0  0  0  0
 14 15  1  0  0  0  0
 14 16  1  0  0  0  0
 14 17  1  0  0  0  0
 17 18  1  0  0  0  0
 18 19  1  0  0  0  0
 18 20  1  0  0  0  0
 18 21  1  0  0  0  0
 17 22  2  0  0  0  0
 22 23  1  0  0  0  0
 22 24  1  0  0  0  0
 24  9  1  0  0  0  0
 24 25  1  0  0  0  0
 24 26  1  0  0  0  0
M  END
> <ChemID>
100709

> <source_casrn>
5989-27-5

> <CAS>
5989-27-5

> <SMILES>
CC1CC[C@H](CC=1)C(C)=C

> <NAME>
D-LIMONENE

> <preferred_name>
D-Limonene

> <iupac>
(4R)-1-methyl-4-(prop-1-en-2-yl)cyclohexene

> <MPID>
99212

> <dsstox_substance_id>
DTXSID1020778

> <Canonical_QSARr>
CC1CCC(CC=1)C(C)=C

> <InChI_Code_QSARr>
InChI=1S/C10H16/c1-8(2)10-6-4-9(3)5-7-10/h4,10H,1,5-7H2,2-3H3

> <InChI Key_QSARr>
XMGQYMWWDOXHJM-UHFFFAOYSA-N

> <OH>
1.71E-10

> <OH Temperature>
25.0

> <OH Data Type>
EXP

> <OH Reference>
KWOK,ESC & ATKINSON,R (1994)

> <LogOH>
-9.767003889607851

$$$$
100711
  -INDIGO-08031719142D

  8  7  0  0  0  0  0  0  0  0999 V2000
   -4.1569    0.8000    0.0000 O   0  0  0  0  0  0  0  0  0  0  0  0
   -2.7713    0.0000    0.0000 C   0  0  0  0  0  0  0  0  0  0  0  0
   -1.3856   -0.8000    0.0000 C   0  0  0  0  0  0  0  0  0  0  0  0
   -1.3856   -2.4000    0.0000 H   0  0  0  0  0  0  0  0  0  0  0  0
   -0.0000    0.0000    0.0000 C   0  0  0  0  0  0  0  0  0  0  0  0
    1.3856    0.8000    0.0000 H   0  0  0  0  0  0  0  0  0  0  0  0
   -0.0000    1.6000    0.0000 H   0  0  0  0  0  0  0  0  0  0  0  0
    1.3856   -0.8000    0.0000 H   0  0  0  0  0  0  0  0  0  0  0  0
  1  2  2  0  0  0  0
  2  3  2  0  0  0  0
  3  4  1  0  0  0  0
  3  5  1  0  0  0  0
  5  6  1  0  0  0  0
  5  7  1  0  0  0  0
  5  8  1  0  0  0  0
M  END
> <ChemID>
100711

> <source_casrn>
6004-44-0

> <CAS>
6004-44-0

> <SMILES>
CC=C=O

> <NAME>
1-PROPEN-1-ONE(METHYLKETENE)

> <preferred_name>
Methylketene

> <iupac>
prop-1-en-1-one

> <MPID>
99213

> <dsstox_substance_id>
DTXSID60208767

> <Canonical_QSARr>
CC=C=O

> <InChI_Code_QSARr>
InChI=1S/C3H4O/c1-2-3-4/h2H,1H3

> <InChI Key_QSARr>
UYLUJGRCKKSWHS-UHFFFAOYSA-N

> <OH>
6.999999999999999E-11

> <OH Temperature>
25.0

> <OH Data Type>
EXP

> <OH Reference>
ATKINSON,R (1989)

> <LogOH>
-10.154901959985747

$$$$
100713
  -INDIGO-08031719142D

 16 15  0  0  0  0  0  0  0  0999 V2000
   -4.1570    0.8000    0.0000 O   0  0  0  0  0  0  0  0  0  0  0  0
   -2.7713    0.0000    0.0000 C   0  0  0  0  0  0  0  0  0  0  0  0
   -2.7713   -1.6000    0.0000 O   0  0  0  0  0  0  0  0  0  0  0  0
   -1.3856    0.8000    0.0000 N   0  0  0  0  0  0  0  0  0  0  0  0
   -1.3856    2.4000    0.0000 H   0  0  0  0  0  0  0  0  0  0  0  0
    0.0000    0.0000    0.0000 C   0  0  0  0  0  0  0  0  0  0  0  0
    0.6123   -1.4782    0.0000 H   0  0  0  0  0  0  0  0  0  0  0  0
   -0.6123   -1.4782    0.0000 H   0  0  0  0  0  0  0  0  0  0  0  0
    1.3857    0.8000    0.0000 C   0  0  0  0  0  0  0  0  0  0  0  0
    2.7713    1.6000    0.0000 H   0  0  0  0  0  0  0  0  0  0  0  0
    2.7713    0.0000    0.0000 H   0  0  0  0  0  0  0  0  0  0  0  0
    1.3857    2.4000    0.0000 H   0  0  0  0  0  0  0  0  0  0  0  0
   -5.5426    0.0000    0.0000 C   0  0  0  0  0  0  0  0  0  0  0  0
   -6.9282   -0.8000    0.0000 H   0  0  0  0  0  0  0  0  0  0  0  0
   -6.9282    0.8000    0.0000 H   0  0  0  0  0  0  0  0  0  0  0  0
   -5.5426   -1.6000    0.0000 H   0  0  0  0  0  0  0  0  0  0  0  0
  1  2  1  0  0  0  0
  2  3  2  0  0  0  0
  2  4  1  0  0  0  0
  4  5  1  0  0  0  0
  4  6  1  0  0  0  0
  6  7  1  0  0  0  0
  6  8  1  0  0  0  0
  6  9  1  0  0  0  0
  9 10  1  0  0  0  0
  9 11  1  0  0  0  0
  9 12  1  0  0  0  0
  1 13  1  0  0  0  0
 13 14  1  0  0  0  0
 13 15  1  0  0  0  0
 13 16  1  0  0  0  0
M  END
> <ChemID>
100713

> <source_casrn>
6135-31-5

> <CAS>
6135-31-5

> <SMILES>
CCNC(=O)OC

> <NAME>
N-Ethyl methylcarbamate

> <preferred_name>
Carbamic acid, ethyl-, methyl ester

> <iupac>
methyl N-ethylcarbamate

> <MPID>
99215

> <dsstox_substance_id>
DTXSID80210261

> <Canonical_QSARr>
CCNC(=O)OC

> <InChI_Code_QSARr>
InChI=1S/C4H9NO2/c1-3-5-4(6)7-2/h3H2,1-2H3,(H,5,6)

> <InChI Key_QSARr>
AEARPZNULDFPNQ-UHFFFAOYSA-N

> <OH>
1.05E-11

> <OH Temperature>
25.0

> <OH Data Type>
EXP

> <OH Reference>
KWOK,S ET AL. (1996)

> <LogOH>
-10.978810700930074

$$$$
100715
  -INDIGO-08031719142D

 17 16  0  0  0  0  0  0  0  0999 V2000
   -1.3856    0.8000    0.0000 C   0  0  0  0  0  0  0  0  0  0  0  0
   -0.7733    2.2782    0.0000 H   0  0  0  0  0  0  0  0  0  0  0  0
   -1.9979    2.2782    0.0000 H   0  0  0  0  0  0  0  0  0  0  0  0
    0.0000   -0.0000    0.0000 C   0  0  0  0  0  0  0  0  0  0  0  0
   -0.8000   -1.3856    0.0000 H   0  0  0  0  0  0  0  0  0  0  0  0
    1.3857   -0.8000    0.0000 C   0  0  0  0  0  0  0  0  0  0  0  0
    2.7713   -1.6000    0.0000 H   0  0  0  0  0  0  0  0  0  0  0  0
    1.3857   -2.4000    0.0000 H   0  0  0  0  0  0  0  0  0  0  0  0
    2.7713   -0.0000    0.0000 H   0  0  0  0  0  0  0  0  0  0  0  0
    0.8000    1.3856    0.0000 O   0  0  0  0  0  0  0  0  0  0  0  0
    0.2527    2.8892    0.0000 N   0  0  0  0  0  0  0  0  0  0  0  0
    1.2812    4.1148    0.0000 O   0  0  0  0  0  0  0  0  0  0  0  0
   -1.3229    3.1669    0.0000 O   0  0  0  0  0  0  0  0  0  0  0  0
   -2.7713   -0.0000    0.0000 O   0  0  0  0  0  0  0  0  0  0  0  0
   -4.1569    0.8000    0.0000 N   0  0  0  0  0  0  0  0  0  0  0  0
   -5.5426   -0.0000    0.0000 O   0  0  0  0  0  0  0  0  0  0  0  0
   -4.1569    2.4000    0.0000 O   0  0  0  0  0  0  0  0  0  0  0  0
  1  2  1  0  0  0  0
  1  3  1  0  0  0  0
  1  4  1  0  0  0  0
  4  5  1  0  0  0  0
  4  6  1  0  0  0  0
  6  7  1  0  0  0  0
  6  8  1  0  0  0  0
  6  9  1  0  0  0  0
  4 10  1  0  0  0  0
 10 11  1  0  0  0  0
 11 12  1  0  0  0  0
 11 13  2  0  0  0  0
  1 14  1  0  0  0  0
 14 15  1  0  0  0  0
 15 16  1  0  0  0  0
 15 17  2  0  0  0  0
M  CHG  4  11   1  12  -1  15   1  16  -1
M  END
> <ChemID>
100715

> <source_casrn>
6423-43-4

> <CAS>
6423-43-4

> <SMILES>
CC(CO[N+]([O-])=O)O[N+]([O-])=O

> <NAME>
Propane,1,2-dinitrate

> <preferred_name>
1,2-Propanediol, dinitrate

> <iupac>
propane-1,2-diyl dinitrate

> <MPID>
99216

> <dsstox_substance_id>
DTXSID7027627

> <Canonical_QSARr>
CC(CO[N+]([O-])=O)O[N+]([O-])=O

> <InChI_Code_QSARr>
InChI=1S/C3H6N2O6/c1-3(11-5(8)9)2-10-4(6)7/h3H,2H2,1H3

> <InChI Key_QSARr>
PSXCGTLGGVDWFU-UHFFFAOYSA-N

> <OH>
3.2E-13

> <OH Temperature>
25.0

> <OH Data Type>
EXP

> <OH Reference>
ATKINSON,R (1994); <3.2E-13

> <LogOH>
-12.494850021680088

$$$$
100719
  -INDIGO-08031719142D

 13 12  0  0  0  0  0  0  0  0999 V2000
   -2.7713    0.0000    0.0000 O   0  0  0  0  0  0  0  0  0  0  0  0
   -1.3857    0.8000    0.0000 C   0  0  0  0  0  0  0  0  0  0  0  0
   -1.3857    2.4000    0.0000 O   0  0  0  0  0  0  0  0  0  0  0  0
    0.0000    0.0000    0.0000 N   0  0  0  0  0  0  0  0  0  0  0  0
    0.0000   -1.6000    0.0000 H   0  0  0  0  0  0  0  0  0  0  0  0
    1.3856    0.8000    0.0000 C   0  0  0  0  0  0  0  0  0  0  0  0
    2.7713    1.6000    0.0000 H   0  0  0  0  0  0  0  0  0  0  0  0
    2.7713    0.0000    0.0000 H   0  0  0  0  0  0  0  0  0  0  0  0
    1.3856    2.4000    0.0000 H   0  0  0  0  0  0  0  0  0  0  0  0
   -4.1569    0.8000    0.0000 C   0  0  0  0  0  0  0  0  0  0  0  0
   -5.5426    1.6000    0.0000 H   0  0  0  0  0  0  0  0  0  0  0  0
   -5.5426    0.0000    0.0000 H   0  0  0  0  0  0  0  0  0  0  0  0
   -4.1569    2.4000    0.0000 H   0  0  0  0  0  0  0  0  0  0  0  0
  1  2  1  0  0  0  0
  2  3  2  0  0  0  0
  2  4  1  0  0  0  0
  4  5  1  0  0  0  0
  4  6  1  0  0  0  0
  6  7  1  0  0  0  0
  6  8  1  0  0  0  0
  6  9  1  0  0  0  0
  1 10  1  0  0  0  0
 10 11  1  0  0  0  0
 10 12  1  0  0  0  0
 10 13  1  0  0  0  0
M  END
> <ChemID>
100719

> <source_casrn>
6642-30-4

> <CAS>
6642-30-4

> <SMILES>
CNC(=O)OC

> <NAME>
N,O-DIMETHYLCARBAMATE

> <preferred_name>
Methyl methylcarbamate

> <iupac>
methyl N-methylcarbamate

> <MPID>
99218

> <dsstox_substance_id>
DTXSID80216642

> <Canonical_QSARr>
CNC(=O)OC

> <InChI_Code_QSARr>
InChI=1S/C3H7NO2/c1-4-3(5)6-2/h1-2H3,(H,4,5)

> <InChI Key_QSARr>
NYXHSRNBKJIQQG-UHFFFAOYSA-N

> <OH>
4.300000000000001E-12

> <OH Temperature>
25.0

> <OH Data Type>
EXP

> <OH Reference>
KWOK,ESC ET AL. (1996)

> <LogOH>
-11.366531544420399

$$$$
100720
  -INDIGO-08031719142D

 17 16  0  0  0  0  0  0  0  0999 V2000
    5.5426    0.0000    0.0000 C   0  0  0  0  0  0  0  0  0  0  0  0
    6.9282    0.8000    0.0000 H   0  0  0  0  0  0  0  0  0  0  0  0
    4.1570    0.8000    0.0000 C   0  0  0  0  0  0  0  0  0  0  0  0
    4.1570    2.4000    0.0000 H   0  0  0  0  0  0  0  0  0  0  0  0
    2.7713    0.0000    0.0000 C   0  0  0  0  0  0  0  0  0  0  0  0
    2.7713   -1.6000    0.0000 H   0  0  0  0  0  0  0  0  0  0  0  0
    1.3856    0.8000    0.0000 C   0  0  0  0  0  0  0  0  0  0  0  0
    0.7733    2.2782    0.0000 H   0  0  0  0  0  0  0  0  0  0  0  0
    1.9979    2.2782    0.0000 H   0  0  0  0  0  0  0  0  0  0  0  0
   -0.0000    0.0000    0.0000 C   0  0  0  0  0  0  0  0  0  0  0  0
    0.6123   -1.4782    0.0000 H   0  0  0  0  0  0  0  0  0  0  0  0
   -0.6123   -1.4782    0.0000 H   0  0  0  0  0  0  0  0  0  0  0  0
   -1.3857    0.8000    0.0000 C   0  0  0  0  0  0  0  0  0  0  0  0
   -2.7713    1.6000    0.0000 H   0  0  0  0  0  0  0  0  0  0  0  0
   -2.7713    0.0000    0.0000 H   0  0  0  0  0  0  0  0  0  0  0  0
   -1.3857    2.4000    0.0000 H   0  0  0  0  0  0  0  0  0  0  0  0
    5.5426   -1.6000    0.0000 O   0  0  0  0  0  0  0  0  0  0  0  0
  1  2  1  0  0  0  0
  1  3  1  0  0  0  0
  3  4  1  0  0  0  0
  3  5  2  0  0  0  0
  5  6  1  0  0  0  0
  5  7  1  0  0  0  0
  7  8  1  0  0  0  0
  7  9  1  0  0  0  0
  7 10  1  0  0  0  0
 10 11  1  0  0  0  0
 10 12  1  0  0  0  0
 10 13  1  0  0  0  0
 13 14  1  0  0  0  0
 13 15  1  0  0  0  0
 13 16  1  0  0  0  0
  1 17  2  0  0  0  0
M  END
> <ChemID>
100720

> <source_casrn>
6728-26-3

> <CAS>
6728-26-3

> <SMILES>
CCC/C=C/C=O

> <NAME>
(E)-2-HEXENAL

> <preferred_name>
(2E)-2-Hexenal

> <iupac>
(2E)-hex-2-enal

> <MPID>
99219

> <dsstox_substance_id>
DTXSID1041425

> <Canonical_QSARr>
CCCC=CC=O

> <InChI_Code_QSARr>
InChI=1S/C6H10O/c1-2-3-4-5-6-7/h4-6H,2-3H2,1H3/b5-4+

> <InChI Key_QSARr>
MBDOYVRWFFCFHM-SNAWJCMRSA-N

> <OH>
4.4E-11

> <OH Temperature>
23.0

> <OH Data Type>
EXP

> <OH Reference>
ATKINSON,R ET AL. (1995)

> <LogOH>
-10.356547323513816

$$$$
100723
  -INDIGO-08031719142D

 39 39  0  0  0  0  0  0  0  0999 V2000
   -0.0000    0.0000    0.0000 C   0  0  0  0  0  0  0  0  0  0  0  0
    1.3460   -0.8650    0.0000 C   0  0  0  0  0  0  0  0  0  0  0  0
    1.9874    0.6007    0.0000 H   0  0  0  0  0  0  0  0  0  0  0  0
    2.9387   -0.7129    0.0000 H   0  0  0  0  0  0  0  0  0  0  0  0
    2.0107   -2.3204    0.0000 C   0  0  0  0  0  0  0  0  0  0  0  0
    3.5944   -2.0928    0.0000 H   0  0  0  0  0  0  0  0  0  0  0  0
    1.7830   -3.9041    0.0000 C   0  0  0  0  0  0  0  0  0  0  0  0
    3.2383   -4.5688    0.0000 C   0  0  0  0  0  0  0  0  0  0  0  0
    4.6938   -5.2334    0.0000 H   0  0  0  0  0  0  0  0  0  0  0  0
    4.5417   -3.6407    0.0000 H   0  0  0  0  0  0  0  0  0  0  0  0
    3.3904   -6.1616    0.0000 H   0  0  0  0  0  0  0  0  0  0  0  0
    0.7352   -5.1134    0.0000 C   0  0  0  0  0  0  0  0  0  0  0  0
    2.2206   -5.7080    0.0000 H   0  0  0  0  0  0  0  0  0  0  0  0
    0.6591   -6.7115    0.0000 H   0  0  0  0  0  0  0  0  0  0  0  0
   -0.7999   -5.5641    0.0000 C   0  0  0  0  0  0  0  0  0  0  0  0
   -0.1123   -7.0088    0.0000 H   0  0  0  0  0  0  0  0  0  0  0  0
   -1.7281   -6.8675    0.0000 H   0  0  0  0  0  0  0  0  0  0  0  0
   -2.3352   -5.1134    0.0000 C   0  0  0  0  0  0  0  0  0  0  0  0
   -3.2001   -6.4594    0.0000 H   0  0  0  0  0  0  0  0  0  0  0  0
   -3.3829   -3.9041    0.0000 C   0  0  0  0  0  0  0  0  0  0  0  0
   -4.8383   -4.5688    0.0000 C   0  0  0  0  0  0  0  0  0  0  0  0
   -6.2938   -5.2334    0.0000 H   0  0  0  0  0  0  0  0  0  0  0  0
   -4.9904   -6.1616    0.0000 H   0  0  0  0  0  0  0  0  0  0  0  0
   -6.1417   -3.6407    0.0000 H   0  0  0  0  0  0  0  0  0  0  0  0
   -3.6107   -2.3204    0.0000 C   0  0  0  0  0  0  0  0  0  0  0  0
   -5.0328   -3.0536    0.0000 H   0  0  0  0  0  0  0  0  0  0  0  0
   -4.7686   -1.2163    0.0000 H   0  0  0  0  0  0  0  0  0  0  0  0
   -2.9460   -0.8650    0.0000 C   0  0  0  0  0  0  0  0  0  0  0  0
   -4.1551    0.1828    0.0000 H   0  0  0  0  0  0  0  0  0  0  0  0
   -1.6000    0.0000    0.0000 C   0  0  0  0  0  0  0  0  0  0  0  0
   -2.3105    1.4335    0.0000 H   0  0  0  0  0  0  0  0  0  0  0  0
   -0.5233    1.5121    0.0000 C   0  0  0  0  0  0  0  0  0  0  0  0
   -1.0465    3.0240    0.0000 H   0  0  0  0  0  0  0  0  0  0  0  0
   -1.8961    2.3339    0.0000 H   0  0  0  0  0  0  0  0  0  0  0  0
    0.2986    2.8848    0.0000 H   0  0  0  0  0  0  0  0  0  0  0  0
    1.2576    0.9891    0.0000 C   0  0  0  0  0  0  0  0  0  0  0  0
    2.5154    1.9781    0.0000 H   0  0  0  0  0  0  0  0  0  0  0  0
    1.3084    2.5883    0.0000 H   0  0  0  0  0  0  0  0  0  0  0  0
    2.8237    0.6614    0.0000 H   0  0  0  0  0  0  0  0  0  0  0  0
  1  2  1  0  0  0  0
  2  3  1  0  0  0  0
  2  4  1  0  0  0  0
  2  5  1  0  0  0  0
  5  6  1  0  0  0  0
  5  7  2  0  0  0  0
  7  8  1  0  0  0  0
  8  9  1  0  0  0  0
  8 10  1  0  0  0  0
  8 11  1  0  0  0  0
  7 12  1  0  0  0  0
 12 13  1  0  0  0  0
 12 14  1  0  0  0  0
 12 15  1  0  0  0  0
 15 16  1  0  0  0  0
 15 17  1  0  0  0  0
 15 18  1  0  0  0  0
 18 19  1  0  0  0  0
 18 20  2  0  0  0  0
 20 21  1  0  0  0  0
 21 22  1  0  0  0  0
 21 23  1  0  0  0  0
 21 24  1  0  0  0  0
 20 25  1  0  0  0  0
 25 26  1  0  0  0  0
 25 27  1  0  0  0  0
 25 28  1  0  0  0  0
 28 29  1  0  0  0  0
 28 30  2  0  0  0  0
 30  1  1  0  0  0  0
 30 31  1  0  0  0  0
  1 32  1  0  0  0  0
 32 33  1  0  0  0  0
 32 34  1  0  0  0  0
 32 35  1  0  0  0  0
  1 36  1  0  0  0  0
 36 37  1  0  0  0  0
 36 38  1  0  0  0  0
 36 39  1  0  0  0  0
M  END
> <ChemID>
100723

> <source_casrn>
6753-98-6

> <CAS>
6753-98-6

> <SMILES>
CC1CCC=C(C)CC=CC(C)(C)CC=1 |c:4,14,t:8|

> <NAME>
Humulene

> <preferred_name>
alpha-Humalene

> <iupac>
C15H24

> <MPID>
99220

> <dsstox_substance_id>
DTXSID30858793

> <Canonical_QSARr>
CC1CCC=C(C)CC=CC(C)(C)CC=1

> <InChI_Code_QSARr>
InChI=1S/C15H24/c1-13-7-5-8-14(2)10-12-15(3,4)11-6-9-13/h6-7,10-11H,5,8-9,12H2,1-4H3/b11-6-,13-7-,14-10-

> <InChI Key_QSARr>
FAMPSKZZVDUYOS-KXWHQPPKSA-N

> <OH>
2.9E-10

> <OH Temperature>
23.0

> <OH Data Type>
EXP

> <OH Reference>
SHU,Y & ATKINSON,R (1995)

> <LogOH>
-9.537602002101032

$$$$
100724
  -INDIGO-08031719142D

 22 23  0  0  0  0  0  0  0  0999 V2000
   -0.8001    1.3856    0.0000 C   0  0  0  0  0  0  0  0  0  0  0  0
   -0.0001   -0.0000    0.0000 C   0  0  0  0  0  0  0  0  0  0  0  0
    1.6001    0.0000    0.0000 C   0  0  0  0  0  0  0  0  0  0  0  0
    2.4001    1.3856    0.0000 C   0  0  0  0  0  0  0  0  0  0  0  0
    1.6001    2.7713    0.0000 H   0  0  0  0  0  0  0  0  0  0  0  0
    4.0000    1.3856    0.0000 C   0  0  0  0  0  0  0  0  0  0  0  0
    4.8000    2.7713    0.0000 H   0  0  0  0  0  0  0  0  0  0  0  0
    4.8000    0.0000    0.0000 C   0  0  0  0  0  0  0  0  0  0  0  0
    6.4000    0.0000    0.0000 Cl  0  0  0  0  0  0  0  0  0  0  0  0
    4.0000   -1.3856    0.0000 C   0  0  0  0  0  0  0  0  0  0  0  0
    4.8000   -2.7713    0.0000 H   0  0  0  0  0  0  0  0  0  0  0  0
    2.4001   -1.3856    0.0000 C   0  0  0  0  0  0  0  0  0  0  0  0
    1.6001   -2.7713    0.0000 H   0  0  0  0  0  0  0  0  0  0  0  0
   -0.8001   -1.3856    0.0000 C   0  0  0  0  0  0  0  0  0  0  0  0
   -0.0001   -2.7713    0.0000 H   0  0  0  0  0  0  0  0  0  0  0  0
   -2.4000   -1.3856    0.0000 C   0  0  0  0  0  0  0  0  0  0  0  0
   -3.2000   -2.7713    0.0000 H   0  0  0  0  0  0  0  0  0  0  0  0
   -3.2000   -0.0000    0.0000 C   0  0  0  0  0  0  0  0  0  0  0  0
   -4.8000   -0.0000    0.0000 Cl  0  0  0  0  0  0  0  0  0  0  0  0
   -2.4000    1.3856    0.0000 C   0  0  0  0  0  0  0  0  0  0  0  0
   -3.2000    2.7713    0.0000 H   0  0  0  0  0  0  0  0  0  0  0  0
   -0.0001    2.7713    0.0000 Cl  0  0  0  0  0  0  0  0  0  0  0  0
  1  2  1  0  0  0  0
  2  3  1  0  0  0  0
  3  4  1  0  0  0  0
  4  5  1  0  0  0  0
  4  6  2  0  0  0  0
  6  7  1  0  0  0  0
  6  8  1  0  0  0  0
  8  9  1  0  0  0  0
  8 10  2  0  0  0  0
 10 11  1  0  0  0  0
 10 12  1  0  0  0  0
 12  3  2  0  0  0  0
 12 13  1  0  0  0  0
  2 14  2  0  0  0  0
 14 15  1  0  0  0  0
 14 16  1  0  0  0  0
 16 17  1  0  0  0  0
 16 18  2  0  0  0  0
 18 19  1  0  0  0  0
 18 20  1  0  0  0  0
 20  1  2  0  0  0  0
 20 21  1  0  0  0  0
  1 22  1  0  0  0  0
M  END
> <ChemID>
100724

> <source_casrn>
7012-37-5

> <CAS>
7012-37-5

> <SMILES>
Clc1cc(Cl)ccc1-c1ccc(Cl)cc1

> <NAME>
2,4,4'-TRICHLOROBIPHENYL

> <preferred_name>
2,4,4'-Trichlorobiphenyl

> <iupac>
2,4,4'-trichlorobiphenyl

> <MPID>
99221

> <dsstox_substance_id>
DTXSID2038310

> <Canonical_QSARr>
Clc1cc(Cl)ccc1-c1ccc(Cl)cc1

> <InChI_Code_QSARr>
InChI=1S/C12H7Cl3/c13-9-3-1-8(2-4-9)11-6-5-10(14)7-12(11)15/h1-7H

> <InChI Key_QSARr>
BZTYNSQSZHARAZ-UHFFFAOYSA-N

> <OH>
1.1E-12

> <OH Temperature>
25.0

> <OH Data Type>
EXP

> <OH Reference>
ANDERSON,PN & HITES,RA (1996A)

> <LogOH>
-11.958607314841764

$$$$
100725
  -INDIGO-08031719142D

 28 27  0  0  0  0  0  0  0  0999 V2000
    1.3856   -2.4000    0.0000 C   0  0  0  0  0  0  0  0  0  0  0  0
    2.7713   -3.2000    0.0000 H   0  0  0  0  0  0  0  0  0  0  0  0
    1.3856   -0.8000    0.0000 C   0  0  0  0  0  0  0  0  0  0  0  0
    2.9720   -0.5911    0.0000 H   0  0  0  0  0  0  0  0  0  0  0  0
    2.3596    0.4694    0.0000 H   0  0  0  0  0  0  0  0  0  0  0  0
   -0.0001   -0.0000    0.0000 C   0  0  0  0  0  0  0  0  0  0  0  0
   -0.8001   -1.3857    0.0000 H   0  0  0  0  0  0  0  0  0  0  0  0
   -1.3856    0.7999    0.0000 C   0  0  0  0  0  0  0  0  0  0  0  0
   -0.7734    2.2782    0.0000 H   0  0  0  0  0  0  0  0  0  0  0  0
   -1.9980    2.2782    0.0000 H   0  0  0  0  0  0  0  0  0  0  0  0
   -2.7713   -0.0000    0.0000 C   0  0  0  0  0  0  0  0  0  0  0  0
   -3.3835   -1.4783    0.0000 H   0  0  0  0  0  0  0  0  0  0  0  0
   -2.1589   -1.4783    0.0000 H   0  0  0  0  0  0  0  0  0  0  0  0
   -4.1570    0.7999    0.0000 C   0  0  0  0  0  0  0  0  0  0  0  0
   -5.5425   -0.0000    0.0000 C   0  0  0  0  0  0  0  0  0  0  0  0
   -6.9282   -0.8000    0.0000 H   0  0  0  0  0  0  0  0  0  0  0  0
   -6.9282    0.7999    0.0000 H   0  0  0  0  0  0  0  0  0  0  0  0
   -5.5425   -1.6000    0.0000 H   0  0  0  0  0  0  0  0  0  0  0  0
   -4.1570    2.4000    0.0000 O   0  0  0  0  0  0  0  0  0  0  0  0
    0.8001    1.3856    0.0000 C   0  0  0  0  0  0  0  0  0  0  0  0
    2.3757    1.6634    0.0000 C   0  0  0  0  0  0  0  0  0  0  0  0
    3.4042    0.4378    0.0000 H   0  0  0  0  0  0  0  0  0  0  0  0
    2.9230    3.1670    0.0000 H   0  0  0  0  0  0  0  0  0  0  0  0
    0.2528    2.8892    0.0000 C   0  0  0  0  0  0  0  0  0  0  0  0
   -0.2944    4.3927    0.0000 H   0  0  0  0  0  0  0  0  0  0  0  0
   -1.3229    3.1670    0.0000 H   0  0  0  0  0  0  0  0  0  0  0  0
    1.2812    4.1148    0.0000 H   0  0  0  0  0  0  0  0  0  0  0  0
   -0.0001   -3.2000    0.0000 O   0  0  0  0  0  0  0  0  0  0  0  0
  1  2  1  0  0  0  0
  1  3  1  0  0  0  0
  3  4  1  0  0  0  0
  3  5  1  0  0  0  0
  3  6  1  0  0  0  0
  6  7  1  0  0  0  0
  6  8  1  0  0  0  0
  8  9  1  0  0  0  0
  8 10  1  0  0  0  0
  8 11  1  0  0  0  0
 11 12  1  0  0  0  0
 11 13  1  0  0  0  0
 11 14  1  0  0  0  0
 14 15  1  0  0  0  0
 15 16  1  0  0  0  0
 15 17  1  0  0  0  0
 15 18  1  0  0  0  0
 14 19  2  0  0  0  0
  6 20  1  0  0  0  0
 20 21  2  0  0  0  0
 21 22  1  0  0  0  0
 21 23  1  0  0  0  0
 20 24  1  0  0  0  0
 24 25  1  0  0  0  0
 24 26  1  0  0  0  0
 24 27  1  0  0  0  0
  1 28  2  0  0  0  0
M  END
> <ChemID>
100725

> <source_casrn>
7086-79-5

> <CAS>
7086-79-5

> <SMILES>
CC(=O)CCC(CC=O)C(C)=C

> <NAME>
3-Isopropenyl-6-oxo-heptanal

> <preferred_name>


> <iupac>


> <MPID>
99222

> <dsstox_substance_id>
DTXSID40874121

> <Canonical_QSARr>
CC(=O)CCC(CC=O)C(C)=C

> <InChI_Code_QSARr>
InChI=1S/C10H16O2/c1-8(2)10(6-7-11)5-4-9(3)12/h7,10H,1,4-6H2,2-3H3

> <InChI Key_QSARr>
OGCGCISRMFSLTC-UHFFFAOYSA-N

> <OH>
1.1E-10

> <OH Temperature>
25.0

> <OH Data Type>
EXP

> <OH Reference>
CALOGIROU,A ET AL. (1999)

> <LogOH>
-9.95860731484176

$$$$
100727
  -INDIGO-08031719142D

 16 15  0  0  0  0  0  0  0  0999 V2000
    2.7713    0.0000    0.0000 C   0  0  0  0  0  0  0  0  0  0  0  0
    4.1569    0.8000    0.0000 H   0  0  0  0  0  0  0  0  0  0  0  0
    2.7713   -1.6000    0.0000 H   0  0  0  0  0  0  0  0  0  0  0  0
    1.3857    0.8000    0.0000 C   0  0  0  0  0  0  0  0  0  0  0  0
    1.3857    2.4000    0.0000 H   0  0  0  0  0  0  0  0  0  0  0  0
    0.0001    0.0000    0.0000 C   0  0  0  0  0  0  0  0  0  0  0  0
   -0.6122   -1.4782    0.0000 H   0  0  0  0  0  0  0  0  0  0  0  0
    0.6124   -1.4782    0.0000 H   0  0  0  0  0  0  0  0  0  0  0  0
   -1.3857    0.8000    0.0000 C   0  0  0  0  0  0  0  0  0  0  0  0
   -1.3857    2.4000    0.0000 H   0  0  0  0  0  0  0  0  0  0  0  0
   -2.7713    0.0000    0.0000 C   0  0  0  0  0  0  0  0  0  0  0  0
   -2.7713   -1.6000    0.0000 H   0  0  0  0  0  0  0  0  0  0  0  0
   -4.1569    0.8000    0.0000 C   0  0  0  0  0  0  0  0  0  0  0  0
   -5.5426    1.6000    0.0000 H   0  0  0  0  0  0  0  0  0  0  0  0
   -5.5426    0.0000    0.0000 H   0  0  0  0  0  0  0  0  0  0  0  0
   -4.1569    2.4000    0.0000 H   0  0  0  0  0  0  0  0  0  0  0  0
  1  2  1  0  0  0  0
  1  3  1  0  0  0  0
  1  4  2  0  0  0  0
  4  5  1  0  0  0  0
  4  6  1  0  0  0  0
  6  7  1  0  0  0  0
  6  8  1  0  0  0  0
  6  9  1  0  0  0  0
  9 10  1  0  0  0  0
  9 11  2  0  0  0  0
 11 12  1  0  0  0  0
 11 13  1  0  0  0  0
 13 14  1  0  0  0  0
 13 15  1  0  0  0  0
 13 16  1  0  0  0  0
M  END
> <ChemID>
100727

> <source_casrn>
7319-00-8

> <CAS>
592-45-0

> <SMILES>
C/C=C/CC=C

> <NAME>
TRANS-1,4-HEXADIENE

> <preferred_name>
1,4-Hexadiene

> <iupac>
C6H10

> <MPID>
99224

> <dsstox_substance_id>
DTXSID5027227

> <Canonical_QSARr>
CC=CCC=C

> <InChI_Code_QSARr>
InChI=1S/C6H10/c1-3-5-6-4-2/h3-4,6H,1,5H2,2H3/b6-4+

> <InChI Key_QSARr>
PRBHEGAFLDMLAL-GQCTYLIASA-N

> <OH>
9.06E-11

> <OH Temperature>
25.0

> <OH Data Type>
EXP

> <OH Reference>
KWOK,ESC & ATKINSON,R (1994)

> <LogOH>
-10.04287180232318

$$$$
100730
  -INDIGO-08031719142D

 14 13  0  0  0  0  0  0  0  0999 V2000
    1.3856   -0.8000    0.0000 C   0  0  0  0  0  0  0  0  0  0  0  0
    2.7713   -1.6000    0.0000 H   0  0  0  0  0  0  0  0  0  0  0  0
    2.7713    0.0000    0.0000 H   0  0  0  0  0  0  0  0  0  0  0  0
    1.3856   -2.4000    0.0000 H   0  0  0  0  0  0  0  0  0  0  0  0
    0.0000    0.0000    0.0000 C   0  0  0  0  0  0  0  0  0  0  0  0
    0.6123    1.4782    0.0000 H   0  0  0  0  0  0  0  0  0  0  0  0
   -0.6123    1.4782    0.0000 Cl  0  0  0  0  0  0  0  0  0  0  0  0
   -1.3856   -0.8000    0.0000 C   0  0  0  0  0  0  0  0  0  0  0  0
   -1.9980   -2.2782    0.0000 H   0  0  0  0  0  0  0  0  0  0  0  0
   -0.7733   -2.2782    0.0000 Cl  0  0  0  0  0  0  0  0  0  0  0  0
   -2.7713    0.0000    0.0000 C   0  0  0  0  0  0  0  0  0  0  0  0
   -4.1569    0.8000    0.0000 H   0  0  0  0  0  0  0  0  0  0  0  0
   -4.1569   -0.8000    0.0000 H   0  0  0  0  0  0  0  0  0  0  0  0
   -2.7713    1.6000    0.0000 H   0  0  0  0  0  0  0  0  0  0  0  0
  1  2  1  0  0  0  0
  1  3  1  0  0  0  0
  1  4  1  0  0  0  0
  1  5  1  0  0  0  0
  5  6  1  0  0  0  0
  5  7  1  0  0  0  0
  5  8  1  0  0  0  0
  8  9  1  0  0  0  0
  8 10  1  0  0  0  0
  8 11  1  0  0  0  0
 11 12  1  0  0  0  0
 11 13  1  0  0  0  0
 11 14  1  0  0  0  0
M  END
> <ChemID>
100730

> <source_casrn>
7581-97-7

> <CAS>
7581-97-7

> <SMILES>
CC(Cl)C(C)Cl

> <NAME>
2,3-DICHLOROBUTANE

> <preferred_name>
2,3-Dichlorobutane

> <iupac>
2,3-dichlorobutane

> <MPID>
99225

> <dsstox_substance_id>
DTXSID8021565

> <Canonical_QSARr>
CC(Cl)C(C)Cl

> <InChI_Code_QSARr>
InChI=1S/C4H8Cl2/c1-3(5)4(2)6/h3-4H,1-2H3

> <InChI Key_QSARr>
RMISVOPUIFJTEO-UHFFFAOYSA-N

> <OH>
9.600000000000002E-13

> <OH Temperature>
25.0

> <OH Data Type>
EXP

> <OH Reference>
MILL,T ET AL. (1982)

> <LogOH>
-12.01772876696043

$$$$
100733
  -INDIGO-08031719142D

 19 18  0  0  0  0  0  0  0  0999 V2000
   -1.3856    0.8000    0.0000 C   0  0  0  0  0  0  0  0  0  0  0  0
   -0.7733    2.2782    0.0000 H   0  0  0  0  0  0  0  0  0  0  0  0
   -1.9979    2.2782    0.0000 H   0  0  0  0  0  0  0  0  0  0  0  0
    0.0000    0.0000    0.0000 C   0  0  0  0  0  0  0  0  0  0  0  0
   -0.8000   -1.3857    0.0000 H   0  0  0  0  0  0  0  0  0  0  0  0
    1.3857   -0.8000    0.0000 C   0  0  0  0  0  0  0  0  0  0  0  0
    2.7713   -1.6000    0.0000 H   0  0  0  0  0  0  0  0  0  0  0  0
    1.3857   -2.4000    0.0000 H   0  0  0  0  0  0  0  0  0  0  0  0
    2.7713    0.0000    0.0000 H   0  0  0  0  0  0  0  0  0  0  0  0
    0.8000    1.3857    0.0000 O   0  0  0  0  0  0  0  0  0  0  0  0
    0.2527    2.8891    0.0000 C   0  0  0  0  0  0  0  0  0  0  0  0
    1.2812    4.1148    0.0000 H   0  0  0  0  0  0  0  0  0  0  0  0
   -0.2944    4.3927    0.0000 H   0  0  0  0  0  0  0  0  0  0  0  0
   -1.3229    3.1670    0.0000 H   0  0  0  0  0  0  0  0  0  0  0  0
   -2.7713    0.0000    0.0000 O   0  0  0  0  0  0  0  0  0  0  0  0
   -4.1569    0.8000    0.0000 C   0  0  0  0  0  0  0  0  0  0  0  0
   -5.5426    1.6000    0.0000 H   0  0  0  0  0  0  0  0  0  0  0  0
   -5.5426    0.0000    0.0000 H   0  0  0  0  0  0  0  0  0  0  0  0
   -4.1569    2.4000    0.0000 H   0  0  0  0  0  0  0  0  0  0  0  0
  1  2  1  0  0  0  0
  1  3  1  0  0  0  0
  1  4  1  0  0  0  0
  4  5  1  0  0  0  0
  4  6  1  0  0  0  0
  6  7  1  0  0  0  0
  6  8  1  0  0  0  0
  6  9  1  0  0  0  0
  4 10  1  0  0  0  0
 10 11  1  0  0  0  0
 11 12  1  0  0  0  0
 11 13  1  0  0  0  0
 11 14  1  0  0  0  0
  1 15  1  0  0  0  0
 15 16  1  0  0  0  0
 16 17  1  0  0  0  0
 16 18  1  0  0  0  0
 16 19  1  0  0  0  0
M  END
> <ChemID>
100733

> <source_casrn>
7778-85-0

> <CAS>
NOCAS_871197

> <SMILES>
COC(C)COC

> <NAME>
1,2-DIMETHOXYPROPANE

> <preferred_name>


> <iupac>


> <MPID>
99226

> <dsstox_substance_id>
DTXSID60871197

> <Canonical_QSARr>
COC(C)COC

> <InChI_Code_QSARr>
InChI=1S/C5H12O2/c1-5(7-3)4-6-2/h5H,4H2,1-3H3

> <InChI Key_QSARr>
LEEANUDEDHYDTG-UHFFFAOYSA-N

> <OH>
3.12E-11

> <OH Temperature>
25.0

> <OH Data Type>
EXP

> <OH Reference>
PORTER,E ET AL. (1997)

> <LogOH>
-10.50584540598155

$$$$
100734
  -INDIGO-08031719142D

  9  8  0  0  0  0  0  0  0  0999 V2000
    2.7713    0.0000    0.0000 C   0  0  0  0  0  0  0  0  0  0  0  0
    4.1569   -0.8000    0.0000 H   0  0  0  0  0  0  0  0  0  0  0  0
    1.3857   -0.8000    0.0000 C   0  0  0  0  0  0  0  0  0  0  0  0
    1.3857   -2.4000    0.0000 H   0  0  0  0  0  0  0  0  0  0  0  0
    0.0000    0.0000    0.0000 C   0  0  0  0  0  0  0  0  0  0  0  0
   -1.3856    0.8000    0.0000 H   0  0  0  0  0  0  0  0  0  0  0  0
    0.0000    1.6000    0.0000 H   0  0  0  0  0  0  0  0  0  0  0  0
   -1.3856   -0.8000    0.0000 Cl  0  0  0  0  0  0  0  0  0  0  0  0
    2.7713    1.6000    0.0000 Cl  0  0  0  0  0  0  0  0  0  0  0  0
  1  2  1  0  0  0  0
  1  3  2  0  0  0  0
  3  4  1  0  0  0  0
  3  5  1  0  0  0  0
  5  6  1  0  0  0  0
  5  7  1  0  0  0  0
  5  8  1  0  0  0  0
  1  9  1  0  0  0  0
M  END
> <ChemID>
100734

> <source_casrn>
10061-01-5|10061-02-6

> <CAS>
10061-01-5|10061-02-6

> <SMILES>
Cl/C=C\CCl

> <NAME>
1,3-DICHLOROPROPENE, (Z), 1,3-DICHLOROPROPENE (TRANS)

> <preferred_name>
(Z)-Dichloropropene

> <iupac>
(1Z)-1,3-dichloroprop-1-ene

> <MPID>
99227|99228

> <dsstox_substance_id>
DTXSID1032305|DTXSID2042480

> <Canonical_QSARr>
ClC=CCCl

> <InChI_Code_QSARr>
InChI=1S/C3H4Cl2/c4-2-1-3-5/h1-2H,3H2/b2-1-

> <InChI Key_QSARr>
UOORRWUZONOOLO-UPHRSURJSA-N

> <OH>
1.12E-11

> <OH Temperature>
25.0

> <OH Data Type>
EXP

> <OH Reference>
KWOK,ESC & ATKINSON,R (1994)

> <LogOH>
-10.950781977329818

$$$$
100737
  -INDIGO-08031719142D

 22 23  0  0  0  0  0  0  0  0999 V2000
   -0.0001    0.0000    0.0000 C   0  0  0  0  0  0  0  0  0  0  0  0
    1.6001   -0.0000    0.0000 C   0  0  0  0  0  0  0  0  0  0  0  0
    2.4001   -1.3856    0.0000 C   0  0  0  0  0  0  0  0  0  0  0  0
    1.6001   -2.7713    0.0000 Cl  0  0  0  0  0  0  0  0  0  0  0  0
    4.0000   -1.3856    0.0000 C   0  0  0  0  0  0  0  0  0  0  0  0
    4.8000   -2.7713    0.0000 H   0  0  0  0  0  0  0  0  0  0  0  0
    4.8000    0.0000    0.0000 C   0  0  0  0  0  0  0  0  0  0  0  0
    6.4000    0.0000    0.0000 H   0  0  0  0  0  0  0  0  0  0  0  0
    4.0000    1.3856    0.0000 C   0  0  0  0  0  0  0  0  0  0  0  0
    4.8000    2.7713    0.0000 H   0  0  0  0  0  0  0  0  0  0  0  0
    2.4001    1.3856    0.0000 C   0  0  0  0  0  0  0  0  0  0  0  0
    1.6001    2.7713    0.0000 H   0  0  0  0  0  0  0  0  0  0  0  0
   -0.8001    1.3856    0.0000 C   0  0  0  0  0  0  0  0  0  0  0  0
   -0.0001    2.7713    0.0000 Cl  0  0  0  0  0  0  0  0  0  0  0  0
   -2.4000    1.3856    0.0000 C   0  0  0  0  0  0  0  0  0  0  0  0
   -3.2000    2.7713    0.0000 H   0  0  0  0  0  0  0  0  0  0  0  0
   -3.2000    0.0000    0.0000 C   0  0  0  0  0  0  0  0  0  0  0  0
   -4.8000   -0.0000    0.0000 H   0  0  0  0  0  0  0  0  0  0  0  0
   -2.4000   -1.3856    0.0000 C   0  0  0  0  0  0  0  0  0  0  0  0
   -3.2000   -2.7713    0.0000 H   0  0  0  0  0  0  0  0  0  0  0  0
   -0.8001   -1.3856    0.0000 C   0  0  0  0  0  0  0  0  0  0  0  0
   -0.0001   -2.7713    0.0000 H   0  0  0  0  0  0  0  0  0  0  0  0
  1  2  1  0  0  0  0
  2  3  1  0  0  0  0
  3  4  1  0  0  0  0
  3  5  2  0  0  0  0
  5  6  1  0  0  0  0
  5  7  1  0  0  0  0
  7  8  1  0  0  0  0
  7  9  2  0  0  0  0
  9 10  1  0  0  0  0
  9 11  1  0  0  0  0
 11  2  2  0  0  0  0
 11 12  1  0  0  0  0
  1 13  1  0  0  0  0
 13 14  1  0  0  0  0
 13 15  2  0  0  0  0
 15 16  1  0  0  0  0
 15 17  1  0  0  0  0
 17 18  1  0  0  0  0
 17 19  2  0  0  0  0
 19 20  1  0  0  0  0
 19 21  1  0  0  0  0
 21  1  2  0  0  0  0
 21 22  1  0  0  0  0
M  END
> <ChemID>
100737

> <source_casrn>
13029-08-8

> <CAS>
13029-08-8

> <SMILES>
Clc1ccccc1-c1ccccc1Cl

> <NAME>
2,2'-DICHLOROBIPHENYL

> <preferred_name>
2,2'-Dichlorobiphenyl

> <iupac>
2,2'-dichlorobiphenyl

> <MPID>
99230

> <dsstox_substance_id>
DTXSID4044533

> <Canonical_QSARr>
Clc1ccccc1-c1ccccc1Cl

> <InChI_Code_QSARr>
InChI=1S/C12H8Cl2/c13-11-7-3-1-5-9(11)10-6-2-4-8-12(10)14/h1-8H

> <InChI Key_QSARr>
JAYCNKDKIKZTAF-UHFFFAOYSA-N

> <OH>
2.0E-12

> <OH Temperature>
24.0

> <OH Data Type>
EXP

> <OH Reference>
KWOK,ESC ET AL. (1995)

> <LogOH>
-11.698970004336017

$$$$
100740
  -INDIGO-08031719142D

 26 27  0  0  0  0  0  0  0  0999 V2000
   -1.3857    0.8000    0.0000 C   0  0  0  0  0  0  0  0  0  0  0  0
   -0.5857    2.1857    0.0000 H   0  0  0  0  0  0  0  0  0  0  0  0
   -2.7713    1.6000    0.0000 C   0  0  0  0  0  0  0  0  0  0  0  0
   -1.7428    2.8257    0.0000 H   0  0  0  0  0  0  0  0  0  0  0  0
   -3.7998    2.8257    0.0000 H   0  0  0  0  0  0  0  0  0  0  0  0
   -4.1569    0.8000    0.0000 C   0  0  0  0  0  0  0  0  0  0  0  0
   -5.5426    1.6000    0.0000 C   0  0  0  0  0  0  0  0  0  0  0  0
   -6.9282    2.4000    0.0000 H   0  0  0  0  0  0  0  0  0  0  0  0
   -6.9282    0.8000    0.0000 H   0  0  0  0  0  0  0  0  0  0  0  0
   -5.5426    3.2000    0.0000 H   0  0  0  0  0  0  0  0  0  0  0  0
   -4.1569   -0.8000    0.0000 C   0  0  0  0  0  0  0  0  0  0  0  0
   -5.5426   -1.6000    0.0000 H   0  0  0  0  0  0  0  0  0  0  0  0
   -2.7713   -1.6000    0.0000 C   0  0  0  0  0  0  0  0  0  0  0  0
   -3.7998   -2.8257    0.0000 H   0  0  0  0  0  0  0  0  0  0  0  0
   -1.7428   -2.8257    0.0000 H   0  0  0  0  0  0  0  0  0  0  0  0
   -1.3857   -0.8000    0.0000 C   0  0  0  0  0  0  0  0  0  0  0  0
   -0.5857   -2.1856    0.0000 H   0  0  0  0  0  0  0  0  0  0  0  0
   -0.0001    0.0000    0.0000 C   0  0  0  0  0  0  0  0  0  0  0  0
    1.0284   -1.2256    0.0000 C   0  0  0  0  0  0  0  0  0  0  0  0
    2.0570   -2.4514    0.0000 H   0  0  0  0  0  0  0  0  0  0  0  0
    2.6042   -0.9479    0.0000 H   0  0  0  0  0  0  0  0  0  0  0  0
    0.4812   -2.7292    0.0000 H   0  0  0  0  0  0  0  0  0  0  0  0
    1.0284    1.2256    0.0000 C   0  0  0  0  0  0  0  0  0  0  0  0
    2.0570    2.4514    0.0000 H   0  0  0  0  0  0  0  0  0  0  0  0
    2.6042    0.9479    0.0000 H   0  0  0  0  0  0  0  0  0  0  0  0
    0.4812    2.7291    0.0000 H   0  0  0  0  0  0  0  0  0  0  0  0
  1  2  1  0  0  0  0
  1  3  1  0  0  0  0
  3  4  1  0  0  0  0
  3  5  1  0  0  0  0
  3  6  1  0  0  0  0
  6  7  1  0  0  0  0
  7  8  1  0  0  0  0
  7  9  1  0  0  0  0
  7 10  1  0  0  0  0
  6 11  2  0  0  0  0
 11 12  1  0  0  0  0
 11 13  1  0  0  0  0
 13 14  1  0  0  0  0
 13 15  1  0  0  0  0
 13 16  1  0  0  0  0
 16  1  1  0  0  0  0
 16 17  1  0  0  0  0
 16 18  1  0  0  0  0
 18  1  1  0  0  0  0
 18 19  1  0  0  0  0
 19 20  1  0  0  0  0
 19 21  1  0  0  0  0
 19 22  1  0  0  0  0
 18 23  1  0  0  0  0
 23 24  1  0  0  0  0
 23 25  1  0  0  0  0
 23 26  1  0  0  0  0
M  END
> <ChemID>
100740

> <source_casrn>
13466-78-9

> <CAS>
13466-78-9

> <SMILES>
CC1CC2C(CC=1)C2(C)C

> <NAME>
3-CARENE (DELTA)

> <preferred_name>
3-Carene

> <iupac>
C10H16

> <MPID>
99231

> <dsstox_substance_id>
DTXSID4047462

> <Canonical_QSARr>
CC1CC2C(CC=1)C2(C)C

> <InChI_Code_QSARr>
InChI=1S/C10H16/c1-7-4-5-8-9(6-7)10(8,2)3/h4,8-9H,5-6H2,1-3H3

> <InChI Key_QSARr>
BQOFWKZOCNGFEC-UHFFFAOYSA-N

> <OH>
8.8E-11

> <OH Temperature>
25.0

> <OH Data Type>
EXP

> <OH Reference>
KWOK,ESC & ATKINSON,R (1994)

> <LogOH>
-10.055517327849813

$$$$
100741
  -INDIGO-08031719142D

 12 11  0  0  0  0  0  0  0  0999 V2000
   -0.6123   -1.4782    0.0000 F   0  0  0  0  0  0  0  0  0  0  0  0
    0.0000    0.0000    0.0000 C   0  0  0  0  0  0  0  0  0  0  0  0
    1.3856    0.8000    0.0000 C   0  0  0  0  0  0  0  0  0  0  0  0
    2.7713    1.6000    0.0000 H   0  0  0  0  0  0  0  0  0  0  0  0
    2.7713    0.0000    0.0000 F   0  0  0  0  0  0  0  0  0  0  0  0
    1.3856    2.4000    0.0000 Cl  0  0  0  0  0  0  0  0  0  0  0  0
   -1.3856    0.8000    0.0000 O   0  0  0  0  0  0  0  0  0  0  0  0
   -2.7713    0.0000    0.0000 C   0  0  0  0  0  0  0  0  0  0  0  0
   -4.1569   -0.8000    0.0000 H   0  0  0  0  0  0  0  0  0  0  0  0
   -4.1569    0.8000    0.0000 F   0  0  0  0  0  0  0  0  0  0  0  0
   -2.7713   -1.6000    0.0000 F   0  0  0  0  0  0  0  0  0  0  0  0
    0.6123   -1.4782    0.0000 F   0  0  0  0  0  0  0  0  0  0  0  0
  1  2  1  0  0  0  0
  2  3  1  0  0  0  0
  3  4  1  0  0  0  0
  3  5  1  0  0  0  0
  3  6  1  0  0  0  0
  2  7  1  0  0  0  0
  7  8  1  0  0  0  0
  8  9  1  0  0  0  0
  8 10  1  0  0  0  0
  8 11  1  0  0  0  0
  2 12  1  0  0  0  0
M  END
> <ChemID>
100741

> <source_casrn>
13838-16-9

> <CAS>
13838-16-9

> <SMILES>
FC(F)OC(F)(F)C(F)Cl

> <NAME>
ETHRANE [HALOETHER]

> <preferred_name>
Enflurane

> <iupac>
2-chloro-1-(difluoromethoxy)-1,1,2-trifluoroethane

> <MPID>
99232

> <dsstox_substance_id>
DTXSID1020562

> <Canonical_QSARr>
FC(F)OC(F)(F)C(F)Cl

> <InChI_Code_QSARr>
InChI=1S/C3H2ClF5O/c4-1(5)3(8,9)10-2(6)7/h1-2H

> <InChI Key_QSARr>
JPGQOUSTVILISH-UHFFFAOYSA-N

> <OH>
1.19E-14

> <OH Temperature>
25.0

> <OH Data Type>
EXP

> <OH Reference>
TOKUHASHI,K ET AL. (1999A)

> <LogOH>
-13.924453038607467

$$$$
100744
  -INDIGO-08031719142D

 18 18  0  0  0  0  0  0  0  0999 V2000
    4.1569    2.4000    0.0000 O   0  0  0  0  0  0  0  0  0  0  0  0
    4.1569    0.8000    0.0000 C   0  0  0  0  0  0  0  0  0  0  0  0
    5.5426   -0.0000    0.0000 H   0  0  0  0  0  0  0  0  0  0  0  0
    2.7713   -0.0000    0.0000 C   0  0  0  0  0  0  0  0  0  0  0  0
    2.7713   -1.6000    0.0000 H   0  0  0  0  0  0  0  0  0  0  0  0
    1.3857    0.8000    0.0000 C   0  0  0  0  0  0  0  0  0  0  0  0
    1.3857    2.4000    0.0000 H   0  0  0  0  0  0  0  0  0  0  0  0
   -0.0001   -0.0000    0.0000 C   0  0  0  0  0  0  0  0  0  0  0  0
   -0.0001   -1.6000    0.0000 C   0  0  0  0  0  0  0  0  0  0  0  0
    1.3857   -2.4000    0.0000 H   0  0  0  0  0  0  0  0  0  0  0  0
   -1.3857   -2.4000    0.0000 C   0  0  0  0  0  0  0  0  0  0  0  0
   -1.3857   -4.0000    0.0000 H   0  0  0  0  0  0  0  0  0  0  0  0
   -2.7713   -1.6000    0.0000 C   0  0  0  0  0  0  0  0  0  0  0  0
   -4.1569   -2.4000    0.0000 H   0  0  0  0  0  0  0  0  0  0  0  0
   -2.7713   -0.0000    0.0000 C   0  0  0  0  0  0  0  0  0  0  0  0
   -4.1569    0.8000    0.0000 H   0  0  0  0  0  0  0  0  0  0  0  0
   -1.3857    0.8000    0.0000 C   0  0  0  0  0  0  0  0  0  0  0  0
   -1.3857    2.4000    0.0000 H   0  0  0  0  0  0  0  0  0  0  0  0
  1  2  2  0  0  0  0
  2  3  1  0  0  0  0
  2  4  1  0  0  0  0
  4  5  1  0  0  0  0
  4  6  2  0  0  0  0
  6  7  1  0  0  0  0
  6  8  1  0  0  0  0
  8  9  1  0  0  0  0
  9 10  1  0  0  0  0
  9 11  2  0  0  0  0
 11 12  1  0  0  0  0
 11 13  1  0  0  0  0
 13 14  1  0  0  0  0
 13 15  2  0  0  0  0
 15 16  1  0  0  0  0
 15 17  1  0  0  0  0
 17  8  2  0  0  0  0
 17 18  1  0  0  0  0
M  END
> <ChemID>
100744

> <source_casrn>
14371-10-9

> <CAS>
14371-10-9

> <SMILES>
O=C/C=C/c1ccccc1

> <NAME>
trans-Cinnamaldehyde

> <preferred_name>
(2E)-3-Phenylprop-2-enal

> <iupac>
(2E)-3-phenylprop-2-enal

> <MPID>
99235

> <dsstox_substance_id>
DTXSID6024834

> <Canonical_QSARr>
O=CC=Cc1ccccc1

> <InChI_Code_QSARr>
InChI=1S/C9H8O/c10-8-4-7-9-5-2-1-3-6-9/h1-8H/b7-4+

> <InChI Key_QSARr>
KJPRLNWUNMBNBZ-QPJJXVBHSA-N

> <OH>
4.800000000000001E-11

> <OH Temperature>
23.0

> <OH Data Type>
EXP

> <OH Reference>
SMITH,AM ET AL. (1996)

> <LogOH>
-10.31875876262443

$$$$
100747
  -INDIGO-08031719142D

 22 23  0  0  0  0  0  0  0  0999 V2000
   -0.0001    0.0000    0.0000 C   0  0  0  0  0  0  0  0  0  0  0  0
    1.6001   -0.0000    0.0000 C   0  0  0  0  0  0  0  0  0  0  0  0
    2.4001   -1.3856    0.0000 C   0  0  0  0  0  0  0  0  0  0  0  0
    1.6001   -2.7713    0.0000 H   0  0  0  0  0  0  0  0  0  0  0  0
    4.0000   -1.3856    0.0000 C   0  0  0  0  0  0  0  0  0  0  0  0
    4.8000   -2.7713    0.0000 H   0  0  0  0  0  0  0  0  0  0  0  0
    4.8000    0.0000    0.0000 C   0  0  0  0  0  0  0  0  0  0  0  0
    6.4000    0.0000    0.0000 H   0  0  0  0  0  0  0  0  0  0  0  0
    4.0000    1.3856    0.0000 C   0  0  0  0  0  0  0  0  0  0  0  0
    4.8000    2.7713    0.0000 H   0  0  0  0  0  0  0  0  0  0  0  0
    2.4001    1.3856    0.0000 C   0  0  0  0  0  0  0  0  0  0  0  0
    1.6001    2.7713    0.0000 H   0  0  0  0  0  0  0  0  0  0  0  0
   -0.8001    1.3856    0.0000 C   0  0  0  0  0  0  0  0  0  0  0  0
   -0.0001    2.7713    0.0000 Cl  0  0  0  0  0  0  0  0  0  0  0  0
   -2.4000    1.3856    0.0000 C   0  0  0  0  0  0  0  0  0  0  0  0
   -3.2000    2.7713    0.0000 H   0  0  0  0  0  0  0  0  0  0  0  0
   -3.2000    0.0000    0.0000 C   0  0  0  0  0  0  0  0  0  0  0  0
   -4.8000   -0.0000    0.0000 Cl  0  0  0  0  0  0  0  0  0  0  0  0
   -2.4000   -1.3856    0.0000 C   0  0  0  0  0  0  0  0  0  0  0  0
   -3.2000   -2.7713    0.0000 Cl  0  0  0  0  0  0  0  0  0  0  0  0
   -0.8001   -1.3856    0.0000 C   0  0  0  0  0  0  0  0  0  0  0  0
   -0.0001   -2.7713    0.0000 H   0  0  0  0  0  0  0  0  0  0  0  0
  1  2  1  0  0  0  0
  2  3  1  0  0  0  0
  3  4  1  0  0  0  0
  3  5  2  0  0  0  0
  5  6  1  0  0  0  0
  5  7  1  0  0  0  0
  7  8  1  0  0  0  0
  7  9  2  0  0  0  0
  9 10  1  0  0  0  0
  9 11  1  0  0  0  0
 11  2  2  0  0  0  0
 11 12  1  0  0  0  0
  1 13  1  0  0  0  0
 13 14  1  0  0  0  0
 13 15  2  0  0  0  0
 15 16  1  0  0  0  0
 15 17  1  0  0  0  0
 17 18  1  0  0  0  0
 17 19  2  0  0  0  0
 19 20  1  0  0  0  0
 19 21  1  0  0  0  0
 21  1  2  0  0  0  0
 21 22  1  0  0  0  0
M  END
> <ChemID>
100747

> <source_casrn>
15862-07-4

> <CAS>
15862-07-4

> <SMILES>
Clc1cc(-c2ccccc2)c(Cl)cc1Cl

> <NAME>
2,4,5-TRICHLOROBIPHENYL

> <preferred_name>
2,4,5-Trichlorobiphenyl

> <iupac>
1,2,4-trichloro-5-phenylbenzene

> <MPID>
99236

> <dsstox_substance_id>
DTXSID0073405

> <Canonical_QSARr>
Clc1cc(-c2ccccc2)c(Cl)cc1Cl

> <InChI_Code_QSARr>
InChI=1S/C12H7Cl3/c13-10-7-12(15)11(14)6-9(10)8-4-2-1-3-5-8/h1-7H

> <InChI Key_QSARr>
VGVIKVCCUATMNG-UHFFFAOYSA-N

> <OH>
1.3E-12

> <OH Temperature>
25.0

> <OH Data Type>
EXP

> <OH Reference>
ANDERSON,PN & HITES,RA (1996A)

> <LogOH>
-11.88605664769318

$$$$
100748
  -INDIGO-08031719142D

 22 23  0  0  0  0  0  0  0  0999 V2000
   -0.0001    0.0000    0.0000 C   0  0  0  0  0  0  0  0  0  0  0  0
    1.6001   -0.0000    0.0000 C   0  0  0  0  0  0  0  0  0  0  0  0
    2.4001   -1.3856    0.0000 C   0  0  0  0  0  0  0  0  0  0  0  0
    1.6001   -2.7713    0.0000 H   0  0  0  0  0  0  0  0  0  0  0  0
    4.0000   -1.3856    0.0000 C   0  0  0  0  0  0  0  0  0  0  0  0
    4.8000   -2.7713    0.0000 H   0  0  0  0  0  0  0  0  0  0  0  0
    4.8000    0.0000    0.0000 C   0  0  0  0  0  0  0  0  0  0  0  0
    6.4000    0.0000    0.0000 Cl  0  0  0  0  0  0  0  0  0  0  0  0
    4.0000    1.3856    0.0000 C   0  0  0  0  0  0  0  0  0  0  0  0
    4.8000    2.7713    0.0000 H   0  0  0  0  0  0  0  0  0  0  0  0
    2.4001    1.3856    0.0000 C   0  0  0  0  0  0  0  0  0  0  0  0
    1.6001    2.7713    0.0000 H   0  0  0  0  0  0  0  0  0  0  0  0
   -0.8001    1.3856    0.0000 C   0  0  0  0  0  0  0  0  0  0  0  0
   -0.0001    2.7713    0.0000 Cl  0  0  0  0  0  0  0  0  0  0  0  0
   -2.4000    1.3856    0.0000 C   0  0  0  0  0  0  0  0  0  0  0  0
   -3.2000    2.7713    0.0000 H   0  0  0  0  0  0  0  0  0  0  0  0
   -3.2000    0.0000    0.0000 C   0  0  0  0  0  0  0  0  0  0  0  0
   -4.8000   -0.0000    0.0000 H   0  0  0  0  0  0  0  0  0  0  0  0
   -2.4000   -1.3856    0.0000 C   0  0  0  0  0  0  0  0  0  0  0  0
   -3.2000   -2.7713    0.0000 Cl  0  0  0  0  0  0  0  0  0  0  0  0
   -0.8001   -1.3856    0.0000 C   0  0  0  0  0  0  0  0  0  0  0  0
   -0.0001   -2.7713    0.0000 H   0  0  0  0  0  0  0  0  0  0  0  0
  1  2  1  0  0  0  0
  2  3  1  0  0  0  0
  3  4  1  0  0  0  0
  3  5  2  0  0  0  0
  5  6  1  0  0  0  0
  5  7  1  0  0  0  0
  7  8  1  0  0  0  0
  7  9  2  0  0  0  0
  9 10  1  0  0  0  0
  9 11  1  0  0  0  0
 11  2  2  0  0  0  0
 11 12  1  0  0  0  0
  1 13  1  0  0  0  0
 13 14  1  0  0  0  0
 13 15  2  0  0  0  0
 15 16  1  0  0  0  0
 15 17  1  0  0  0  0
 17 18  1  0  0  0  0
 17 19  2  0  0  0  0
 19 20  1  0  0  0  0
 19 21  1  0  0  0  0
 21  1  2  0  0  0  0
 21 22  1  0  0  0  0
M  END
> <ChemID>
100748

> <source_casrn>
16606-02-3

> <CAS>
16606-02-3

> <SMILES>
Clc1ccc(Cl)cc1-c1ccc(Cl)cc1

> <NAME>
2,4',5-TRICHLOROBIPHENYL

> <preferred_name>
2,4',5-Trichlorobiphenyl

> <iupac>
1,4-dichloro-2-(4-chlorophenyl)benzene

> <MPID>
99237

> <dsstox_substance_id>
DTXSID9073410

> <Canonical_QSARr>
Clc1ccc(Cl)cc1-c1ccc(Cl)cc1

> <InChI_Code_QSARr>
InChI=1S/C12H7Cl3/c13-9-3-1-8(2-4-9)11-7-10(14)5-6-12(11)15/h1-7H

> <InChI Key_QSARr>
VAHKBZSAUKPEOV-UHFFFAOYSA-N

> <OH>
1.2E-12

> <OH Temperature>
25.0

> <OH Data Type>
EXP

> <OH Reference>
ANDERSON,PN & HITES,RA (1996A)

> <LogOH>
-11.920818753952377

$$$$
100751
  -INDIGO-08031719142D

 22 23  0  0  0  0  0  0  0  0999 V2000
    0.0001   -0.0000    0.0000 C   0  0  0  0  0  0  0  0  0  0  0  0
    0.8001   -1.3856    0.0000 C   0  0  0  0  0  0  0  0  0  0  0  0
    0.0001   -2.7713    0.0000 Cl  0  0  0  0  0  0  0  0  0  0  0  0
    2.4000   -1.3856    0.0000 C   0  0  0  0  0  0  0  0  0  0  0  0
    3.2000   -2.7713    0.0000 Cl  0  0  0  0  0  0  0  0  0  0  0  0
    3.2000   -0.0000    0.0000 C   0  0  0  0  0  0  0  0  0  0  0  0
    4.8000    0.0000    0.0000 Cl  0  0  0  0  0  0  0  0  0  0  0  0
    2.4000    1.3856    0.0000 C   0  0  0  0  0  0  0  0  0  0  0  0
    3.2000    2.7713    0.0000 Cl  0  0  0  0  0  0  0  0  0  0  0  0
    0.8001    1.3856    0.0000 C   0  0  0  0  0  0  0  0  0  0  0  0
    0.0001    2.7713    0.0000 Cl  0  0  0  0  0  0  0  0  0  0  0  0
   -1.6001    0.0000    0.0000 C   0  0  0  0  0  0  0  0  0  0  0  0
   -2.4001    1.3856    0.0000 C   0  0  0  0  0  0  0  0  0  0  0  0
   -1.6001    2.7713    0.0000 H   0  0  0  0  0  0  0  0  0  0  0  0
   -4.0000    1.3856    0.0000 C   0  0  0  0  0  0  0  0  0  0  0  0
   -4.8000    2.7713    0.0000 H   0  0  0  0  0  0  0  0  0  0  0  0
   -4.8000    0.0000    0.0000 C   0  0  0  0  0  0  0  0  0  0  0  0
   -6.4000    0.0000    0.0000 H   0  0  0  0  0  0  0  0  0  0  0  0
   -4.0000   -1.3856    0.0000 C   0  0  0  0  0  0  0  0  0  0  0  0
   -4.8000   -2.7713    0.0000 H   0  0  0  0  0  0  0  0  0  0  0  0
   -2.4001   -1.3856    0.0000 C   0  0  0  0  0  0  0  0  0  0  0  0
   -1.6001   -2.7713    0.0000 H   0  0  0  0  0  0  0  0  0  0  0  0
  1  2  1  0  0  0  0
  2  3  1  0  0  0  0
  2  4  2  0  0  0  0
  4  5  1  0  0  0  0
  4  6  1  0  0  0  0
  6  7  1  0  0  0  0
  6  8  2  0  0  0  0
  8  9  1  0  0  0  0
  8 10  1  0  0  0  0
 10  1  2  0  0  0  0
 10 11  1  0  0  0  0
  1 12  1  0  0  0  0
 12 13  1  0  0  0  0
 13 14  1  0  0  0  0
 13 15  2  0  0  0  0
 15 16  1  0  0  0  0
 15 17  1  0  0  0  0
 17 18  1  0  0  0  0
 17 19  2  0  0  0  0
 19 20  1  0  0  0  0
 19 21  1  0  0  0  0
 21 12  2  0  0  0  0
 21 22  1  0  0  0  0
M  END
> <ChemID>
100751

> <source_casrn>
18259-05-7

> <CAS>
18259-05-7

> <SMILES>
Clc1c(Cl)c(Cl)c(-c2ccccc2)c(Cl)c1Cl

> <NAME>
2,3,4,5,6-PCB

> <preferred_name>


> <iupac>


> <MPID>
99239

> <dsstox_substance_id>
DTXSID40864820

> <Canonical_QSARr>
Clc1c(Cl)c(Cl)c(-c2ccccc2)c(Cl)c1Cl

> <InChI_Code_QSARr>
InChI=1S/C12H5Cl5/c13-8-7(6-4-2-1-3-5-6)9(14)11(16)12(17)10(8)15/h1-5H

> <InChI Key_QSARr>
GGMPTLAAIUQMIE-UHFFFAOYSA-N

> <OH>
8.999999999999998E-13

> <OH Temperature>
25.0

> <OH Data Type>
EXP

> <OH Reference>
ANDERSON,PN & HITES,RA (1996A)

> <LogOH>
-12.045757490560685

$$$$
100752
  -INDIGO-08031719142D

 14 13  0  0  0  0  0  0  0  0999 V2000
    2.7713    0.0000    0.0000 C   0  0  0  0  0  0  0  0  0  0  0  0
    4.1569   -0.8000    0.0000 H   0  0  0  0  0  0  0  0  0  0  0  0
    1.3857   -0.8000    0.0000 C   0  0  0  0  0  0  0  0  0  0  0  0
    1.3857   -2.4000    0.0000 H   0  0  0  0  0  0  0  0  0  0  0  0
    0.0001    0.0000    0.0000 C   0  0  0  0  0  0  0  0  0  0  0  0
    0.0001    1.6000    0.0000 H   0  0  0  0  0  0  0  0  0  0  0  0
   -1.3857   -0.8000    0.0000 C   0  0  0  0  0  0  0  0  0  0  0  0
   -1.3857   -2.4000    0.0000 H   0  0  0  0  0  0  0  0  0  0  0  0
   -2.7713    0.0000    0.0000 C   0  0  0  0  0  0  0  0  0  0  0  0
   -2.7713    1.6000    0.0000 H   0  0  0  0  0  0  0  0  0  0  0  0
   -4.1569   -0.8000    0.0000 C   0  0  0  0  0  0  0  0  0  0  0  0
   -5.5426    0.0000    0.0000 H   0  0  0  0  0  0  0  0  0  0  0  0
   -4.1569   -2.4000    0.0000 O   0  0  0  0  0  0  0  0  0  0  0  0
    2.7713    1.6000    0.0000 O   0  0  0  0  0  0  0  0  0  0  0  0
  1  2  1  0  0  0  0
  1  3  1  0  0  0  0
  3  4  1  0  0  0  0
  3  5  2  0  0  0  0
  5  6  1  0  0  0  0
  5  7  1  0  0  0  0
  7  8  1  0  0  0  0
  7  9  2  0  0  0  0
  9 10  1  0  0  0  0
  9 11  1  0  0  0  0
 11 12  1  0  0  0  0
 11 13  2  0  0  0  0
  1 14  2  0  0  0  0
M  END
> <ChemID>
100752

> <source_casrn>
18409-46-6|53042-85-6

> <CAS>
18409-46-6|53042-85-6

> <SMILES>
O=C/C=C/C=C/C=O

> <NAME>
E,E-2,4-Hexadienedial, E,Z-2,4-Hexadienedial

> <preferred_name>


> <iupac>


> <MPID>
99240|99266

> <dsstox_substance_id>
DTXSID20878889|DTXSID60878888

> <Canonical_QSARr>
O=CC=CC=CC=O

> <InChI_Code_QSARr>
InChI=1S/C6H6O2/c7-5-3-1-2-4-6-8/h1-6H/b3-1+,4-2+

> <InChI Key_QSARr>
NDCAAPXLWRAESY-ZPUQHVIOSA-N

> <OH>
9.85E-11

> <OH Temperature>
25.0

> <OH Data Type>
EXP

> <OH Reference>
KLOTZ,BG ET AL. (1995)

> <LogOH>
-10.006563769502385

$$$$
100753
  -INDIGO-08031719142D

 27 26  0  0  0  0  0  0  0  0999 V2000
    2.7713    0.0000    0.0000 C   0  0  0  0  0  0  0  0  0  0  0  0
    4.1569   -0.8000    0.0000 H   0  0  0  0  0  0  0  0  0  0  0  0
    4.1569    0.8000    0.0000 H   0  0  0  0  0  0  0  0  0  0  0  0
    2.7713   -1.6000    0.0000 H   0  0  0  0  0  0  0  0  0  0  0  0
    1.3857   -0.8000    0.0000 C   0  0  0  0  0  0  0  0  0  0  0  0
    0.7734   -2.2782    0.0000 H   0  0  0  0  0  0  0  0  0  0  0  0
    1.9980   -2.2782    0.0000 H   0  0  0  0  0  0  0  0  0  0  0  0
    0.0001    0.0000    0.0000 C   0  0  0  0  0  0  0  0  0  0  0  0
   -1.3857    0.8000    0.0000 C   0  0  0  0  0  0  0  0  0  0  0  0
   -0.7734    2.2782    0.0000 H   0  0  0  0  0  0  0  0  0  0  0  0
   -1.9980    2.2782    0.0000 H   0  0  0  0  0  0  0  0  0  0  0  0
   -2.7713    0.0000    0.0000 C   0  0  0  0  0  0  0  0  0  0  0  0
   -1.9712   -1.3857    0.0000 H   0  0  0  0  0  0  0  0  0  0  0  0
   -4.1569   -0.8000    0.0000 C   0  0  0  0  0  0  0  0  0  0  0  0
   -5.5426   -1.6000    0.0000 H   0  0  0  0  0  0  0  0  0  0  0  0
   -5.5426   -0.0000    0.0000 H   0  0  0  0  0  0  0  0  0  0  0  0
   -4.1569   -2.4000    0.0000 H   0  0  0  0  0  0  0  0  0  0  0  0
   -3.5713    1.3857    0.0000 C   0  0  0  0  0  0  0  0  0  0  0  0
   -4.3713    2.7713    0.0000 H   0  0  0  0  0  0  0  0  0  0  0  0
   -3.0241    2.8891    0.0000 H   0  0  0  0  0  0  0  0  0  0  0  0
   -5.1712    1.3857    0.0000 H   0  0  0  0  0  0  0  0  0  0  0  0
   -0.8000   -1.3857    0.0000 O   0  0  0  0  0  0  0  0  0  0  0  0
   -0.2527   -2.8891    0.0000 H   0  0  0  0  0  0  0  0  0  0  0  0
    0.8000    1.3857    0.0000 C   0  0  0  0  0  0  0  0  0  0  0  0
    1.6000    2.7713    0.0000 H   0  0  0  0  0  0  0  0  0  0  0  0
    0.2527    2.8891    0.0000 H   0  0  0  0  0  0  0  0  0  0  0  0
    2.4000    1.3857    0.0000 H   0  0  0  0  0  0  0  0  0  0  0  0
  1  2  1  0  0  0  0
  1  3  1  0  0  0  0
  1  4  1  0  0  0  0
  1  5  1  0  0  0  0
  5  6  1  0  0  0  0
  5  7  1  0  0  0  0
  5  8  1  0  0  0  0
  8  9  1  0  0  0  0
  9 10  1  0  0  0  0
  9 11  1  0  0  0  0
  9 12  1  0  0  0  0
 12 13  1  0  0  0  0
 12 14  1  0  0  0  0
 14 15  1  0  0  0  0
 14 16  1  0  0  0  0
 14 17  1  0  0  0  0
 12 18  1  0  0  0  0
 18 19  1  0  0  0  0
 18 20  1  0  0  0  0
 18 21  1  0  0  0  0
  8 22  1  0  0  0  0
 22 23  1  0  0  0  0
  8 24  1  0  0  0  0
 24 25  1  0  0  0  0
 24 26  1  0  0  0  0
 24 27  1  0  0  0  0
M  END
> <ChemID>
100753

> <source_casrn>
19113-78-1

> <CAS>
NOCAS_871288

> <SMILES>
CCC(C)(O)CC(C)C

> <NAME>
3,5-Dimethyl-3-hexanol

> <preferred_name>


> <iupac>


> <MPID>
99241

> <dsstox_substance_id>
DTXSID10871288

> <Canonical_QSARr>
CCC(C)(O)CC(C)C

> <InChI_Code_QSARr>
InChI=1S/C8H18O/c1-5-8(4,9)6-7(2)3/h7,9H,5-6H2,1-4H3

> <InChI Key_QSARr>
INMGJWCKWKKMPN-UHFFFAOYSA-N

> <OH>
1.36E-11

> <OH Temperature>
23.0

> <OH Data Type>
EXP

> <OH Reference>
ATKINSON,R & ASCHMANN,SM (1995)

> <LogOH>
-10.866461091629764

$$$$
100757
  -INDIGO-08031719142D

 11 10  0  0  0  0  0  0  0  0999 V2000
   -4.1569   -0.8000    0.0000 O   0  0  0  0  0  0  0  0  0  0  0  0
   -2.7713    0.0000    0.0000 C   0  0  0  0  0  0  0  0  0  0  0  0
   -1.3856    0.8000    0.0000 C   0  0  0  0  0  0  0  0  0  0  0  0
   -1.3856    2.4000    0.0000 H   0  0  0  0  0  0  0  0  0  0  0  0
    0.0000    0.0000    0.0000 C   0  0  0  0  0  0  0  0  0  0  0  0
    0.6123   -1.4782    0.0000 H   0  0  0  0  0  0  0  0  0  0  0  0
   -0.6123   -1.4782    0.0000 H   0  0  0  0  0  0  0  0  0  0  0  0
    1.3856    0.8000    0.0000 C   0  0  0  0  0  0  0  0  0  0  0  0
    2.7713    1.6000    0.0000 H   0  0  0  0  0  0  0  0  0  0  0  0
    2.7713    0.0000    0.0000 H   0  0  0  0  0  0  0  0  0  0  0  0
    1.3856    2.4000    0.0000 H   0  0  0  0  0  0  0  0  0  0  0  0
  1  2  2  0  0  0  0
  2  3  2  0  0  0  0
  3  4  1  0  0  0  0
  3  5  1  0  0  0  0
  5  6  1  0  0  0  0
  5  7  1  0  0  0  0
  5  8  1  0  0  0  0
  8  9  1  0  0  0  0
  8 10  1  0  0  0  0
  8 11  1  0  0  0  0
M  END
> <ChemID>
100757

> <source_casrn>
20334-52-5

> <CAS>
20334-52-5

> <SMILES>
CCC=C=O

> <NAME>
1-BUTEN-1-ONE(ETHYLKETENE)

> <preferred_name>
Ethylketene

> <iupac>
but-1-en-1-one

> <MPID>
99242

> <dsstox_substance_id>
DTXSID90174244

> <Canonical_QSARr>
CCC=C=O

> <InChI_Code_QSARr>
InChI=1S/C4H6O/c1-2-3-4-5/h3H,2H2,1H3

> <InChI Key_QSARr>
JSEMCPMTAXQTJN-UHFFFAOYSA-N

> <OH>
1.18E-10

> <OH Temperature>
25.0

> <OH Data Type>
EXP

> <OH Reference>
ATKINSON,R (1989)

> <LogOH>
-9.928117992693881

$$$$
100759
  -INDIGO-08031719142D

 10 10  0  0  0  0  0  0  0  0999 V2000
   -0.5383    2.5323    0.0000 O   0  0  0  0  0  0  0  0  0  0  0  0
    0.6507    1.4617    0.0000 C   0  0  0  0  0  0  0  0  0  0  0  0
    2.2158    1.7943    0.0000 O   0  0  0  0  0  0  0  0  0  0  0  0
   -0.0000    0.0000    0.0000 C   0  0  0  0  0  0  0  0  0  0  0  0
    1.5217   -0.4944    0.0000 H   0  0  0  0  0  0  0  0  0  0  0  0
   -0.3327   -1.5650    0.0000 H   0  0  0  0  0  0  0  0  0  0  0  0
   -1.5913    0.1672    0.0000 C   0  0  0  0  0  0  0  0  0  0  0  0
   -2.6619   -1.0218    0.0000 H   0  0  0  0  0  0  0  0  0  0  0  0
   -1.9239    1.7323    0.0000 C   0  0  0  0  0  0  0  0  0  0  0  0
   -3.3856    2.3830    0.0000 H   0  0  0  0  0  0  0  0  0  0  0  0
  1  2  1  0  0  0  0
  2  3  2  0  0  0  0
  2  4  1  0  0  0  0
  4  5  1  0  0  0  0
  4  6  1  0  0  0  0
  4  7  1  0  0  0  0
  7  8  1  0  0  0  0
  7  9  2  0  0  0  0
  9  1  1  0  0  0  0
  9 10  1  0  0  0  0
M  END
> <ChemID>
100759

> <source_casrn>
20825-71-2

> <CAS>
20825-71-2

> <SMILES>
O=C1CC=CO1

> <NAME>
3H-Furan-2-one

> <preferred_name>
2(3H)-Furanone

> <iupac>
3H-furan-2-one

> <MPID>
99243

> <dsstox_substance_id>
DTXSID50174942

> <Canonical_QSARr>
O=C1CC=CO1

> <InChI_Code_QSARr>
InChI=1S/C4H4O2/c5-4-2-1-3-6-4/h1,3H,2H2

> <InChI Key_QSARr>
RHDGNLCLDBVESU-UHFFFAOYSA-N

> <OH>
4.45E-11

> <OH Temperature>
23.0

> <OH Data Type>
EXP

> <OH Reference>
BIERBACH,A ET AL. (1994)

> <LogOH>
-10.351639989019088

$$$$
100760
  -INDIGO-08031719142D

 20 19  0  0  0  0  0  0  0  0999 V2000
    5.4584   -0.9625    0.0000 N   0  0  0  0  0  0  0  0  0  0  0  0
    6.9619   -0.4152    0.0000 O   0  0  0  0  0  0  0  0  0  0  0  0
    5.1805   -2.5381    0.0000 O   0  0  0  0  0  0  0  0  0  0  0  0
    4.2327    0.0660    0.0000 O   0  0  0  0  0  0  0  0  0  0  0  0
    2.7292   -0.4812    0.0000 C   0  0  0  0  0  0  0  0  0  0  0  0
    3.0754   -2.0433    0.0000 H   0  0  0  0  0  0  0  0  0  0  0  0
    1.8695   -1.8306    0.0000 H   0  0  0  0  0  0  0  0  0  0  0  0
    1.5035    0.5472    0.0000 C   0  0  0  0  0  0  0  0  0  0  0  0
    1.1572    2.1093    0.0000 H   0  0  0  0  0  0  0  0  0  0  0  0
    2.3631    1.8966    0.0000 H   0  0  0  0  0  0  0  0  0  0  0  0
    0.0001    0.0000    0.0000 C   0  0  0  0  0  0  0  0  0  0  0  0
    0.8000   -1.3856    0.0000 H   0  0  0  0  0  0  0  0  0  0  0  0
   -1.3856   -0.8000    0.0000 C   0  0  0  0  0  0  0  0  0  0  0  0
   -2.7713   -1.6000    0.0000 H   0  0  0  0  0  0  0  0  0  0  0  0
   -1.3856   -2.4000    0.0000 H   0  0  0  0  0  0  0  0  0  0  0  0
   -2.7713    0.0000    0.0000 H   0  0  0  0  0  0  0  0  0  0  0  0
   -0.8000    1.3857    0.0000 C   0  0  0  0  0  0  0  0  0  0  0  0
   -1.6001    2.7713    0.0000 H   0  0  0  0  0  0  0  0  0  0  0  0
    0.0001    2.7713    0.0000 H   0  0  0  0  0  0  0  0  0  0  0  0
   -2.4000    1.3857    0.0000 H   0  0  0  0  0  0  0  0  0  0  0  0
  1  2  1  0  0  0  0
  1  3  2  0  0  0  0
  1  4  1  0  0  0  0
  4  5  1  0  0  0  0
  5  6  1  0  0  0  0
  5  7  1  0  0  0  0
  5  8  1  0  0  0  0
  8  9  1  0  0  0  0
  8 10  1  0  0  0  0
  8 11  1  0  0  0  0
 11 12  1  0  0  0  0
 11 13  1  0  0  0  0
 13 14  1  0  0  0  0
 13 15  1  0  0  0  0
 13 16  1  0  0  0  0
 11 17  1  0  0  0  0
 17 18  1  0  0  0  0
 17 19  1  0  0  0  0
 17 20  1  0  0  0  0
M  CHG  2   1   1   2  -1
M  END
> <ChemID>
100760

> <source_casrn>
21981-48-6

> <CAS>
543-87-3

> <SMILES>
CC(C)CCO[N+]([O-])=O

> <NAME>
ISOPENTYL NITRATE

> <preferred_name>
Isoamyl nitrate

> <iupac>
3-Methylbutyl nitrate

> <MPID>
99244

> <dsstox_substance_id>
DTXSID70110029

> <Canonical_QSARr>
CC(C)CCO[N+]([O-])=O

> <InChI_Code_QSARr>
InChI=1S/C5H11NO3/c1-5(2)3-4-9-6(7)8/h5H,3-4H2,1-2H3

> <InChI Key_QSARr>
NTHGIYFSMNNHSC-UHFFFAOYSA-N

> <OH>
1.85E-12

> <OH Temperature>
25.0

> <OH Data Type>
EXP

> <OH Reference>
KWOK,ESC & ATKINSON,R (1994)

> <LogOH>
-11.73282827159698

$$$$
100763
  -INDIGO-08031719142D

 14 13  0  0  0  0  0  0  0  0999 V2000
   -1.3857    0.8000    0.0000 O   0  0  0  0  0  0  0  0  0  0  0  0
    0.0000    0.0000    0.0000 C   0  0  0  0  0  0  0  0  0  0  0  0
    0.6122   -1.4782    0.0000 H   0  0  0  0  0  0  0  0  0  0  0  0
   -0.6122   -1.4782    0.0000 H   0  0  0  0  0  0  0  0  0  0  0  0
    1.3856    0.8000    0.0000 C   0  0  0  0  0  0  0  0  0  0  0  0
    2.7713    1.6000    0.0000 H   0  0  0  0  0  0  0  0  0  0  0  0
    2.7713    0.0000    0.0000 H   0  0  0  0  0  0  0  0  0  0  0  0
    1.3856    2.4000    0.0000 H   0  0  0  0  0  0  0  0  0  0  0  0
   -2.7713    0.0000    0.0000 C   0  0  0  0  0  0  0  0  0  0  0  0
   -2.1590   -1.4782    0.0000 H   0  0  0  0  0  0  0  0  0  0  0  0
   -3.3835   -1.4782    0.0000 H   0  0  0  0  0  0  0  0  0  0  0  0
   -4.1569    0.8000    0.0000 C   0  0  0  0  0  0  0  0  0  0  0  0
   -5.5426    0.0000    0.0000 H   0  0  0  0  0  0  0  0  0  0  0  0
   -4.1570    2.4000    0.0000 O   0  0  0  0  0  0  0  0  0  0  0  0
  1  2  1  0  0  0  0
  2  3  1  0  0  0  0
  2  4  1  0  0  0  0
  2  5  1  0  0  0  0
  5  6  1  0  0  0  0
  5  7  1  0  0  0  0
  5  8  1  0  0  0  0
  1  9  1  0  0  0  0
  9 10  1  0  0  0  0
  9 11  1  0  0  0  0
  9 12  1  0  0  0  0
 12 13  1  0  0  0  0
 12 14  2  0  0  0  0
M  END
> <ChemID>
100763

> <source_casrn>
22056-82-2

> <CAS>
22056-82-2

> <SMILES>
CCOCC=O

> <NAME>
Ethoxyacetaldehyde

> <preferred_name>
Ethoxyacetaldehyde

> <iupac>
2-ethoxyacetaldehyde

> <MPID>
99245

> <dsstox_substance_id>
DTXSID20176539

> <Canonical_QSARr>
CCOCC=O

> <InChI_Code_QSARr>
InChI=1S/C4H8O2/c1-2-6-4-3-5/h3H,2,4H2,1H3

> <InChI Key_QSARr>
IAHZBRPNDIVNNR-UHFFFAOYSA-N

> <OH>
1.66E-11

> <OH Temperature>
25.0

> <OH Data Type>
EXP

> <OH Reference>
STEMMLER,K ET AL. (1996)

> <LogOH>
-10.779891911959965

$$$$
100764
  -INDIGO-08031719142D

 17 16  0  0  0  0  0  0  0  0999 V2000
   -1.5999    0.0000    0.0000 S   0  0  0  0  0  0  0  0  0  0  0  0
    0.0001    0.0000    0.0000 P   0  0  0  0  0  0  0  0  0  0  0  0
    1.6001    0.0000    0.0000 S   0  0  0  0  0  0  0  0  0  0  0  0
    2.4000   -1.3856    0.0000 C   0  0  0  0  0  0  0  0  0  0  0  0
    4.0000   -1.3856    0.0000 H   0  0  0  0  0  0  0  0  0  0  0  0
    3.2001   -2.7713    0.0000 H   0  0  0  0  0  0  0  0  0  0  0  0
    1.6001   -2.7713    0.0000 H   0  0  0  0  0  0  0  0  0  0  0  0
    0.8000    1.3856    0.0000 O   0  0  0  0  0  0  0  0  0  0  0  0
    0.0001    2.7713    0.0000 C   0  0  0  0  0  0  0  0  0  0  0  0
   -0.8000    4.1569    0.0000 H   0  0  0  0  0  0  0  0  0  0  0  0
    0.8000    4.1569    0.0000 H   0  0  0  0  0  0  0  0  0  0  0  0
   -1.5999    2.7713    0.0000 H   0  0  0  0  0  0  0  0  0  0  0  0
    0.8000   -1.3856    0.0000 O   0  0  0  0  0  0  0  0  0  0  0  0
   -2.4000   -1.3856    0.0000 C   0  0  0  0  0  0  0  0  0  0  0  0
   -3.2001   -2.7713    0.0000 H   0  0  0  0  0  0  0  0  0  0  0  0
   -4.0000   -1.3856    0.0000 H   0  0  0  0  0  0  0  0  0  0  0  0
   -1.5999   -2.7713    0.0000 H   0  0  0  0  0  0  0  0  0  0  0  0
  1  2  1  0  0  0  0
  2  3  1  0  0  0  0
  3  4  1  0  0  0  0
  4  5  1  0  0  0  0
  4  6  1  0  0  0  0
  4  7  1  0  0  0  0
  2  8  1  0  0  0  0
  8  9  1  0  0  0  0
  9 10  1  0  0  0  0
  9 11  1  0  0  0  0
  9 12  1  0  0  0  0
  2 13  2  0  0  0  0
  1 14  1  0  0  0  0
 14 15  1  0  0  0  0
 14 16  1  0  0  0  0
 14 17  1  0  0  0  0
M  END
> <ChemID>
100764

> <source_casrn>
22608-53-3

> <CAS>
22608-53-3

> <SMILES>
COP(=O)(SC)SC

> <NAME>
O,S,S-TRIMETHYL PHOSPHORODITHIOATE

> <preferred_name>
O,S,S-Trimethyl phosphorodithioate

> <iupac>
bis(methylsulfanyl)phosphoryloxymethane

> <MPID>
99246

> <dsstox_substance_id>
DTXSID40177129

> <Canonical_QSARr>
COP(=O)(SC)SC

> <InChI_Code_QSARr>
InChI=1S/C3H9O2PS2/c1-5-6(4,7-2)8-3/h1-3H3

> <InChI Key_QSARr>
NIJIQSOYZWDHAQ-UHFFFAOYSA-N

> <OH>
9.590000000000001E-12

> <OH Temperature>
25.0

> <OH Data Type>
EXP

> <OH Reference>
KWOK,ESC & ATKINSON,R (1994)

> <LogOH>
-11.018181392829336

$$$$
100766
  -INDIGO-08031719142D

 24 25  0  0  0  0  0  0  0  0999 V2000
   -2.4195   -2.0692    0.0000 C   0  0  0  0  0  0  0  0  0  0  0  0
   -3.8602   -2.3308    0.0000 C   0  0  0  0  0  0  0  0  0  0  0  0
   -3.6449   -3.9162    0.0000 H   0  0  0  0  0  0  0  0  0  0  0  0
   -5.4537   -2.4750    0.0000 H   0  0  0  0  0  0  0  0  0  0  0  0
   -3.9266   -0.8742    0.0000 C   0  0  0  0  0  0  0  0  0  0  0  0
   -5.4548   -1.3481    0.0000 H   0  0  0  0  0  0  0  0  0  0  0  0
   -5.1846    0.1143    0.0000 H   0  0  0  0  0  0  0  0  0  0  0  0
   -2.7825    0.3295    0.0000 C   0  0  0  0  0  0  0  0  0  0  0  0
   -4.2901    0.8655    0.0000 H   0  0  0  0  0  0  0  0  0  0  0  0
    0.0000    0.0000    0.0000 C   0  0  0  0  0  0  0  0  0  0  0  0
    0.6524    1.4610    0.0000 C   0  0  0  0  0  0  0  0  0  0  0  0
    1.3049    2.9218    0.0000 H   0  0  0  0  0  0  0  0  0  0  0  0
    2.2439    1.6263    0.0000 H   0  0  0  0  0  0  0  0  0  0  0  0
   -0.2865    2.7565    0.0000 H   0  0  0  0  0  0  0  0  0  0  0  0
    1.2006   -1.0576    0.0000 C   0  0  0  0  0  0  0  0  0  0  0  0
    2.4012   -2.1152    0.0000 H   0  0  0  0  0  0  0  0  0  0  0  0
    2.7168   -0.5467    0.0000 H   0  0  0  0  0  0  0  0  0  0  0  0
    0.8850   -2.6262    0.0000 H   0  0  0  0  0  0  0  0  0  0  0  0
   -1.3891   -0.8450    0.0000 C   0  0  0  0  0  0  0  0  0  0  0  0
   -0.3476   -2.0597    0.0000 H   0  0  0  0  0  0  0  0  0  0  0  0
   -2.9050    1.9203    0.0000 C   0  0  0  0  0  0  0  0  0  0  0  0
   -4.4311    2.4011    0.0000 H   0  0  0  0  0  0  0  0  0  0  0  0
   -1.8899    3.1571    0.0000 H   0  0  0  0  0  0  0  0  0  0  0  0
   -1.6170   -3.4533    0.0000 O   0  0  0  0  0  0  0  0  0  0  0  0
  1  2  1  0  0  0  0
  2  3  1  0  0  0  0
  2  4  1  0  0  0  0
  2  5  1  0  0  0  0
  5  6  1  0  0  0  0
  5  7  1  0  0  0  0
  5  8  1  0  0  0  0
  8  9  1  0  0  0  0
  8 10  1  0  0  0  0
 10 11  1  0  0  0  0
 11 12  1  0  0  0  0
 11 13  1  0  0  0  0
 11 14  1  0  0  0  0
 10 15  1  0  0  0  0
 15 16  1  0  0  0  0
 15 17  1  0  0  0  0
 15 18  1  0  0  0  0
 10 19  1  0  0  0  0
 19  1  1  0  0  0  0
 19 20  1  0  0  0  0
 19 21  1  0  0  0  0
 21  8  1  0  0  0  0
 21 22  1  0  0  0  0
 21 23  1  0  0  0  0
  1 24  2  0  0  0  0
M  END
> <ChemID>
100766

> <source_casrn>
24903-95-5

> <CAS>
NOCAS_865173

> <SMILES>
CC1(C)C2CC1CCC2=O

> <NAME>
Nopinone

> <preferred_name>


> <iupac>


> <MPID>
99247

> <dsstox_substance_id>
DTXSID20865173

> <Canonical_QSARr>
CC1(C)C2CC1CCC2=O

> <InChI_Code_QSARr>
InChI=1S/C9H14O/c1-9(2)6-3-4-8(10)7(9)5-6/h6-7H,3-5H2,1-2H3

> <InChI Key_QSARr>
XZFDKWMYCUEKSS-UHFFFAOYSA-N

> <OH>
1.45E-11

> <OH Temperature>
25.0

> <OH Data Type>
EXP

> <OH Reference>
ALVARADO,A ET AL. (1998)

> <LogOH>
-10.838631997765015

$$$$
100769
  -INDIGO-08031719142D

 12 11  0  0  0  0  0  0  0  0999 V2000
   -1.3856    2.4000    0.0000 F   0  0  0  0  0  0  0  0  0  0  0  0
   -1.3856    0.8000    0.0000 C   0  0  0  0  0  0  0  0  0  0  0  0
    0.0000    0.0000    0.0000 C   0  0  0  0  0  0  0  0  0  0  0  0
   -0.6123   -1.4782    0.0000 H   0  0  0  0  0  0  0  0  0  0  0  0
    1.3856    0.8000    0.0000 O   0  0  0  0  0  0  0  0  0  0  0  0
    2.7713    0.0000    0.0000 C   0  0  0  0  0  0  0  0  0  0  0  0
    4.1569   -0.8000    0.0000 H   0  0  0  0  0  0  0  0  0  0  0  0
    4.1569    0.8000    0.0000 F   0  0  0  0  0  0  0  0  0  0  0  0
    2.7713   -1.6000    0.0000 F   0  0  0  0  0  0  0  0  0  0  0  0
    0.6123   -1.4782    0.0000 Cl  0  0  0  0  0  0  0  0  0  0  0  0
   -2.7713    1.6000    0.0000 F   0  0  0  0  0  0  0  0  0  0  0  0
   -2.7713    0.0000    0.0000 F   0  0  0  0  0  0  0  0  0  0  0  0
  1  2  1  0  0  0  0
  2  3  1  0  0  0  0
  3  4  1  0  0  0  0
  3  5  1  0  0  0  0
  5  6  1  0  0  0  0
  6  7  1  0  0  0  0
  6  8  1  0  0  0  0
  6  9  1  0  0  0  0
  3 10  1  0  0  0  0
  2 11  1  0  0  0  0
  2 12  1  0  0  0  0
M  END
> <ChemID>
100769

> <source_casrn>
26675-46-7

> <CAS>
26675-46-7

> <SMILES>
FC(F)OC(Cl)C(F)(F)F

> <NAME>
ISOFLURANE

> <preferred_name>
Isoflurane

> <iupac>
2-chloro-2-(difluoromethoxy)-1,1,1-trifluoroethane

> <MPID>
99249

> <dsstox_substance_id>
DTXSID3020752

> <Canonical_QSARr>
FC(F)OC(Cl)C(F)(F)F

> <InChI_Code_QSARr>
InChI=1S/C3H2ClF5O/c4-1(3(7,8)9)10-2(5)6/h1-2H

> <InChI Key_QSARr>
PIWKPBJCKXDKJR-UHFFFAOYSA-N

> <OH>
1.509999999999999E-14

> <OH Temperature>
25.0

> <OH Data Type>
EXP

> <OH Reference>
TOKUHASHI,K ET AL. (1999A)

> <LogOH>
-13.821023052706826

$$$$
100770
  -INDIGO-08031719142D

 28 28  0  0  0  0  0  0  0  0999 V2000
   -4.3927   -0.2945    0.0000 O   0  0  0  0  0  0  0  0  0  0  0  0
   -4.1148    1.2812    0.0000 C   0  0  0  0  0  0  0  0  0  0  0  0
   -2.6113    1.8285    0.0000 C   0  0  0  0  0  0  0  0  0  0  0  0
   -2.9576    3.3905    0.0000 H   0  0  0  0  0  0  0  0  0  0  0  0
   -1.7516    3.1778    0.0000 H   0  0  0  0  0  0  0  0  0  0  0  0
   -1.3857    0.8001    0.0000 C   0  0  0  0  0  0  0  0  0  0  0  0
   -2.4141   -0.4256    0.0000 H   0  0  0  0  0  0  0  0  0  0  0  0
   -0.0000    0.0000    0.0000 C   0  0  0  0  0  0  0  0  0  0  0  0
   -0.5472   -1.5035    0.0000 C   0  0  0  0  0  0  0  0  0  0  0  0
   -1.0945   -3.0070    0.0000 H   0  0  0  0  0  0  0  0  0  0  0  0
    0.4812   -2.7292    0.0000 H   0  0  0  0  0  0  0  0  0  0  0  0
   -2.1229   -1.7813    0.0000 H   0  0  0  0  0  0  0  0  0  0  0  0
    1.3856   -0.7999    0.0000 C   0  0  0  0  0  0  0  0  0  0  0  0
    2.7712   -1.6000    0.0000 H   0  0  0  0  0  0  0  0  0  0  0  0
    1.3856   -2.3999    0.0000 H   0  0  0  0  0  0  0  0  0  0  0  0
    2.7712    0.0000    0.0000 H   0  0  0  0  0  0  0  0  0  0  0  0
   -0.0000    1.6000    0.0000 C   0  0  0  0  0  0  0  0  0  0  0  0
   -0.5472    3.1035    0.0000 H   0  0  0  0  0  0  0  0  0  0  0  0
    1.3856    2.4001    0.0000 C   0  0  0  0  0  0  0  0  0  0  0  0
    2.9720    2.1911    0.0000 H   0  0  0  0  0  0  0  0  0  0  0  0
    2.3596    1.1306    0.0000 H   0  0  0  0  0  0  0  0  0  0  0  0
    1.3856    4.0001    0.0000 C   0  0  0  0  0  0  0  0  0  0  0  0
    2.7712    4.8000    0.0000 H   0  0  0  0  0  0  0  0  0  0  0  0
   -0.0000    4.8000    0.0000 O   0  0  0  0  0  0  0  0  0  0  0  0
   -5.3405    2.3096    0.0000 C   0  0  0  0  0  0  0  0  0  0  0  0
   -6.5662    3.3382    0.0000 H   0  0  0  0  0  0  0  0  0  0  0  0
   -6.8440    1.7625    0.0000 H   0  0  0  0  0  0  0  0  0  0  0  0
   -5.0626    3.8853    0.0000 H   0  0  0  0  0  0  0  0  0  0  0  0
  1  2  2  0  0  0  0
  2  3  1  0  0  0  0
  3  4  1  0  0  0  0
  3  5  1  0  0  0  0
  3  6  1  0  0  0  0
  6  7  1  0  0  0  0
  6  8  1  0  0  0  0
  8  9  1  0  0  0  0
  9 10  1  0  0  0  0
  9 11  1  0  0  0  0
  9 12  1  0  0  0  0
  8 13  1  0  0  0  0
 13 14  1  0  0  0  0
 13 15  1  0  0  0  0
 13 16  1  0  0  0  0
  8 17  1  0  0  0  0
 17  6  1  0  0  0  0
 17 18  1  0  0  0  0
 17 19  1  0  0  0  0
 19 20  1  0  0  0  0
 19 21  1  0  0  0  0
 19 22  1  0  0  0  0
 22 23  1  0  0  0  0
 22 24  2  0  0  0  0
  2 25  1  0  0  0  0
 25 26  1  0  0  0  0
 25 27  1  0  0  0  0
 25 28  1  0  0  0  0
M  END
> <ChemID>
100770

> <source_casrn>
26946-56-5

> <CAS>
26946-56-5

> <SMILES>
CC(=O)CC1C(CC=O)C1(C)C

> <NAME>
Caronaldehyde

> <preferred_name>
Cyclopropaneacetaldehyde, 2,2-dimethyl-3-(2-oxopropyl)-

> <iupac>
C10H16O2

> <MPID>
99250

> <dsstox_substance_id>
DTXSID10447169

> <Canonical_QSARr>
CC(=O)CC1C(CC=O)C1(C)C

> <InChI_Code_QSARr>
InChI=1S/C10H16O2/c1-7(12)6-9-8(4-5-11)10(9,2)3/h5,8-9H,4,6H2,1-3H3

> <InChI Key_QSARr>
DINMJPWMECTCJA-UHFFFAOYSA-N

> <OH>
4.8E-11

> <OH Temperature>
25.0

> <OH Data Type>
EXP

> <OH Reference>
ALVARADO,A ET AL. (1998)

> <LogOH>
-10.31875876262443

$$$$
100772
  -INDIGO-08031719142D

 15 14  0  0  0  0  0  0  0  0999 V2000
    0.0001    0.0000    0.0000 C   0  0  0  0  0  0  0  0  0  0  0  0
    0.8000   -1.3856    0.0000 H   0  0  0  0  0  0  0  0  0  0  0  0
    1.3856    0.8000    0.0000 C   0  0  0  0  0  0  0  0  0  0  0  0
    2.7713    1.6000    0.0000 F   0  0  0  0  0  0  0  0  0  0  0  0
    2.7713    0.0000    0.0000 F   0  0  0  0  0  0  0  0  0  0  0  0
    1.3856    2.4000    0.0000 F   0  0  0  0  0  0  0  0  0  0  0  0
   -1.3856   -0.8000    0.0000 C   0  0  0  0  0  0  0  0  0  0  0  0
   -2.7713   -1.6000    0.0000 F   0  0  0  0  0  0  0  0  0  0  0  0
   -1.3856   -2.4000    0.0000 F   0  0  0  0  0  0  0  0  0  0  0  0
   -2.7713    0.0000    0.0000 F   0  0  0  0  0  0  0  0  0  0  0  0
   -0.8000    1.3856    0.0000 O   0  0  0  0  0  0  0  0  0  0  0  0
   -2.4000    1.3856    0.0000 C   0  0  0  0  0  0  0  0  0  0  0  0
   -3.2000    2.7713    0.0000 H   0  0  0  0  0  0  0  0  0  0  0  0
   -4.0000    1.3856    0.0000 H   0  0  0  0  0  0  0  0  0  0  0  0
   -1.6000    2.7713    0.0000 F   0  0  0  0  0  0  0  0  0  0  0  0
  1  2  1  0  0  0  0
  1  3  1  0  0  0  0
  3  4  1  0  0  0  0
  3  5  1  0  0  0  0
  3  6  1  0  0  0  0
  1  7  1  0  0  0  0
  7  8  1  0  0  0  0
  7  9  1  0  0  0  0
  7 10  1  0  0  0  0
  1 11  1  0  0  0  0
 11 12  1  0  0  0  0
 12 13  1  0  0  0  0
 12 14  1  0  0  0  0
 12 15  1  0  0  0  0
M  END
> <ChemID>
100772

> <source_casrn>
28523-86-6

> <CAS>
28523-86-6

> <SMILES>
FCOC(C(F)(F)F)C(F)(F)F

> <NAME>
Sevoflurane

> <preferred_name>
Sevoflurane

> <iupac>
fluoromethyl 1,1,1,3,3,3-hexafluoropropan-2-yl ether

> <MPID>
99251

> <dsstox_substance_id>
DTXSID8046614

> <Canonical_QSARr>
FCOC(C(F)(F)F)C(F)(F)F

> <InChI_Code_QSARr>
InChI=1S/C4H3F7O/c5-1-12-2(3(6,7)8)4(9,10)11/h2H,1H2

> <InChI Key_QSARr>
DFEYYRMXOJXZRJ-UHFFFAOYSA-N

> <OH>
7.3E-14

> <OH Temperature>
25.0

> <OH Data Type>
EXP

> <OH Reference>
BROWN,AC ET AL. (1989)

> <LogOH>
-13.136677139879545

$$$$
100774
  -INDIGO-08031719142D

 22 24  0  0  0  0  0  0  0  0999 V2000
    0.0001   -0.0000    0.0000 C   0  0  0  0  0  0  0  0  0  0  0  0
    1.3857    0.8000    0.0000 O   0  0  0  0  0  0  0  0  0  0  0  0
    2.7712   -0.0000    0.0000 C   0  0  0  0  0  0  0  0  0  0  0  0
    4.1569    0.8000    0.0000 C   0  0  0  0  0  0  0  0  0  0  0  0
    4.1569    2.4000    0.0000 H   0  0  0  0  0  0  0  0  0  0  0  0
    5.5425   -0.0000    0.0000 C   0  0  0  0  0  0  0  0  0  0  0  0
    6.9282    0.8000    0.0000 H   0  0  0  0  0  0  0  0  0  0  0  0
    5.5425   -1.6000    0.0000 C   0  0  0  0  0  0  0  0  0  0  0  0
    6.9282   -2.4000    0.0000 H   0  0  0  0  0  0  0  0  0  0  0  0
    4.1569   -2.4000    0.0000 C   0  0  0  0  0  0  0  0  0  0  0  0
    4.1569   -4.0000    0.0000 H   0  0  0  0  0  0  0  0  0  0  0  0
    2.7712   -1.6000    0.0000 C   0  0  0  0  0  0  0  0  0  0  0  0
    1.3857   -2.4000    0.0000 O   0  0  0  0  0  0  0  0  0  0  0  0
    0.0001   -1.6000    0.0000 C   0  0  0  0  0  0  0  0  0  0  0  0
   -1.3856   -2.4000    0.0000 C   0  0  0  0  0  0  0  0  0  0  0  0
   -1.3856   -4.0000    0.0000 Cl  0  0  0  0  0  0  0  0  0  0  0  0
   -2.7713   -1.6000    0.0000 C   0  0  0  0  0  0  0  0  0  0  0  0
   -4.1569   -2.4000    0.0000 Cl  0  0  0  0  0  0  0  0  0  0  0  0
   -2.7713   -0.0000    0.0000 C   0  0  0  0  0  0  0  0  0  0  0  0
   -4.1569    0.8000    0.0000 Cl  0  0  0  0  0  0  0  0  0  0  0  0
   -1.3856    0.8000    0.0000 C   0  0  0  0  0  0  0  0  0  0  0  0
   -1.3856    2.4000    0.0000 Cl  0  0  0  0  0  0  0  0  0  0  0  0
  1  2  1  0  0  0  0
  2  3  1  0  0  0  0
  3  4  1  0  0  0  0
  4  5  1  0  0  0  0
  4  6  2  0  0  0  0
  6  7  1  0  0  0  0
  6  8  1  0  0  0  0
  8  9  1  0  0  0  0
  8 10  2  0  0  0  0
 10 11  1  0  0  0  0
 10 12  1  0  0  0  0
 12  3  2  0  0  0  0
 12 13  1  0  0  0  0
 13 14  1  0  0  0  0
 14  1  1  0  0  0  0
 14 15  2  0  0  0  0
 15 16  1  0  0  0  0
 15 17  1  0  0  0  0
 17 18  1  0  0  0  0
 17 19  2  0  0  0  0
 19 20  1  0  0  0  0
 19 21  1  0  0  0  0
 21  1  2  0  0  0  0
 21 22  1  0  0  0  0
M  END
> <ChemID>
100774

> <source_casrn>
30746-58-8

> <CAS>
30746-58-8

> <SMILES>
Clc1c2Oc3ccccc3Oc2c(Cl)c(Cl)c1Cl

> <NAME>
1,2,3,4-TETRACHLORODIBENZO-P-DIOXIN

> <preferred_name>
1,2,3,4-Tetrachlorodibenzo-p-dioxin

> <iupac>
1,2,3,4-tetrachlorooxanthrene

> <MPID>
99253

> <dsstox_substance_id>
DTXSID7074030

> <Canonical_QSARr>
Clc1c2Oc3ccccc3Oc2c(Cl)c(Cl)c1Cl

> <InChI_Code_QSARr>
InChI=1S/C12H4Cl4O2/c13-7-8(14)10(16)12-11(9(7)15)17-5-3-1-2-4-6(5)18-12/h1-4H

> <InChI Key_QSARr>
DJHHDLMTUOLVHY-UHFFFAOYSA-N

> <OH>
8.4966E-13

> <OH Temperature>
25.0

> <OH Data Type>
EXP

> <OH Reference>
BRUBAKER,WWJR & HITES,RA (1997)

> <LogOH>
-12.07075482683131

$$$$
100777
  -INDIGO-08031719142D

 22 23  0  0  0  0  0  0  0  0999 V2000
   -0.8001    1.3856    0.0000 C   0  0  0  0  0  0  0  0  0  0  0  0
   -0.0001   -0.0000    0.0000 C   0  0  0  0  0  0  0  0  0  0  0  0
    1.6001    0.0000    0.0000 C   0  0  0  0  0  0  0  0  0  0  0  0
    2.4001    1.3856    0.0000 C   0  0  0  0  0  0  0  0  0  0  0  0
    1.6001    2.7713    0.0000 H   0  0  0  0  0  0  0  0  0  0  0  0
    4.0000    1.3856    0.0000 C   0  0  0  0  0  0  0  0  0  0  0  0
    4.8000    2.7713    0.0000 H   0  0  0  0  0  0  0  0  0  0  0  0
    4.8000    0.0000    0.0000 C   0  0  0  0  0  0  0  0  0  0  0  0
    6.4000    0.0000    0.0000 H   0  0  0  0  0  0  0  0  0  0  0  0
    4.0000   -1.3856    0.0000 C   0  0  0  0  0  0  0  0  0  0  0  0
    4.8000   -2.7713    0.0000 H   0  0  0  0  0  0  0  0  0  0  0  0
    2.4001   -1.3856    0.0000 C   0  0  0  0  0  0  0  0  0  0  0  0
    1.6001   -2.7713    0.0000 H   0  0  0  0  0  0  0  0  0  0  0  0
   -0.8001   -1.3856    0.0000 C   0  0  0  0  0  0  0  0  0  0  0  0
   -0.0001   -2.7713    0.0000 H   0  0  0  0  0  0  0  0  0  0  0  0
   -2.4000   -1.3856    0.0000 C   0  0  0  0  0  0  0  0  0  0  0  0
   -3.2000   -2.7713    0.0000 H   0  0  0  0  0  0  0  0  0  0  0  0
   -3.2000   -0.0000    0.0000 C   0  0  0  0  0  0  0  0  0  0  0  0
   -4.8000   -0.0000    0.0000 Cl  0  0  0  0  0  0  0  0  0  0  0  0
   -2.4000    1.3856    0.0000 C   0  0  0  0  0  0  0  0  0  0  0  0
   -3.2000    2.7713    0.0000 H   0  0  0  0  0  0  0  0  0  0  0  0
   -0.0001    2.7713    0.0000 Cl  0  0  0  0  0  0  0  0  0  0  0  0
  1  2  1  0  0  0  0
  2  3  1  0  0  0  0
  3  4  1  0  0  0  0
  4  5  1  0  0  0  0
  4  6  2  0  0  0  0
  6  7  1  0  0  0  0
  6  8  1  0  0  0  0
  8  9  1  0  0  0  0
  8 10  2  0  0  0  0
 10 11  1  0  0  0  0
 10 12  1  0  0  0  0
 12  3  2  0  0  0  0
 12 13  1  0  0  0  0
  2 14  2  0  0  0  0
 14 15  1  0  0  0  0
 14 16  1  0  0  0  0
 16 17  1  0  0  0  0
 16 18  2  0  0  0  0
 18 19  1  0  0  0  0
 18 20  1  0  0  0  0
 20  1  2  0  0  0  0
 20 21  1  0  0  0  0
  1 22  1  0  0  0  0
M  END
> <ChemID>
100777

> <source_casrn>
33284-50-3

> <CAS>
33284-50-3

> <SMILES>
Clc1cc(Cl)c(cc1)-c1ccccc1

> <NAME>
2,4-DICHLOROBIPHENYL

> <preferred_name>
2,4-Dichlorobiphenyl

> <iupac>
2,4-dichlorobiphenyl

> <MPID>
99254

> <dsstox_substance_id>
DTXSID8040301

> <Canonical_QSARr>
Clc1cc(Cl)c(cc1)-c1ccccc1

> <InChI_Code_QSARr>
InChI=1S/C12H8Cl2/c13-10-6-7-11(12(14)8-10)9-4-2-1-3-5-9/h1-8H

> <InChI Key_QSARr>
WEJZHZJJXPXXMU-UHFFFAOYSA-N

> <OH>
2.6E-12

> <OH Temperature>
25.0

> <OH Data Type>
EXP

> <OH Reference>
ANDERSON,PN & HITES,RA (1996A)

> <LogOH>
-11.585026652029176

$$$$
100780
  -INDIGO-08031719142D

 33 33  0  0  0  0  0  0  0  0999 V2000
    7.2000   -1.3857    0.0000 C   0  0  0  0  0  0  0  0  0  0  0  0
    6.4000    0.0000    0.0000 N   0  0  0  0  0  0  0  0  0  0  0  0
    7.2000    1.3857    0.0000 H   0  0  0  0  0  0  0  0  0  0  0  0
    4.8001    0.0000    0.0000 C   0  0  0  0  0  0  0  0  0  0  0  0
    3.9999    1.3857    0.0000 C   0  0  0  0  0  0  0  0  0  0  0  0
    4.8001    2.7713    0.0000 H   0  0  0  0  0  0  0  0  0  0  0  0
    2.4000    1.3857    0.0000 C   0  0  0  0  0  0  0  0  0  0  0  0
    1.6000    2.7713    0.0000 H   0  0  0  0  0  0  0  0  0  0  0  0
    1.6000    0.0000    0.0000 C   0  0  0  0  0  0  0  0  0  0  0  0
    0.0001    0.0000    0.0000 C   0  0  0  0  0  0  0  0  0  0  0  0
    0.0001   -1.6000    0.0000 H   0  0  0  0  0  0  0  0  0  0  0  0
   -1.5758   -0.2778    0.0000 C   0  0  0  0  0  0  0  0  0  0  0  0
   -3.1514   -0.5556    0.0000 H   0  0  0  0  0  0  0  0  0  0  0  0
   -2.1230   -1.7814    0.0000 H   0  0  0  0  0  0  0  0  0  0  0  0
   -2.6041    0.9479    0.0000 H   0  0  0  0  0  0  0  0  0  0  0  0
    0.0001    1.6000    0.0000 C   0  0  0  0  0  0  0  0  0  0  0  0
    0.0001    3.2000    0.0000 H   0  0  0  0  0  0  0  0  0  0  0  0
   -1.3857    2.4000    0.0000 H   0  0  0  0  0  0  0  0  0  0  0  0
   -1.3857    0.8000    0.0000 H   0  0  0  0  0  0  0  0  0  0  0  0
    2.4000   -1.3857    0.0000 C   0  0  0  0  0  0  0  0  0  0  0  0
    1.6000   -2.7713    0.0000 H   0  0  0  0  0  0  0  0  0  0  0  0
    3.9999   -1.3857    0.0000 C   0  0  0  0  0  0  0  0  0  0  0  0
    4.8001   -2.7713    0.0000 H   0  0  0  0  0  0  0  0  0  0  0  0
    8.8001   -1.3857    0.0000 N   0  0  0  0  0  0  0  0  0  0  0  0
    9.6001   -2.7713    0.0000 C   0  0  0  0  0  0  0  0  0  0  0  0
   10.4000   -4.1569    0.0000 H   0  0  0  0  0  0  0  0  0  0  0  0
   11.2000   -2.7713    0.0000 H   0  0  0  0  0  0  0  0  0  0  0  0
    8.8001   -4.1569    0.0000 H   0  0  0  0  0  0  0  0  0  0  0  0
    9.6001    0.0000    0.0000 C   0  0  0  0  0  0  0  0  0  0  0  0
   10.4000    1.3857    0.0000 H   0  0  0  0  0  0  0  0  0  0  0  0
   11.2000    0.0000    0.0000 H   0  0  0  0  0  0  0  0  0  0  0  0
    8.8001    1.3857    0.0000 H   0  0  0  0  0  0  0  0  0  0  0  0
    6.4000   -2.7713    0.0000 O   0  0  0  0  0  0  0  0  0  0  0  0
  1  2  1  0  0  0  0
  2  3  1  0  0  0  0
  2  4  1  0  0  0  0
  4  5  1  0  0  0  0
  5  6  1  0  0  0  0
  5  7  2  0  0  0  0
  7  8  1  0  0  0  0
  7  9  1  0  0  0  0
  9 10  1  0  0  0  0
 10 11  1  0  0  0  0
 10 12  1  0  0  0  0
 12 13  1  0  0  0  0
 12 14  1  0  0  0  0
 12 15  1  0  0  0  0
 10 16  1  0  0  0  0
 16 17  1  0  0  0  0
 16 18  1  0  0  0  0
 16 19  1  0  0  0  0
  9 20  2  0  0  0  0
 20 21  1  0  0  0  0
 20 22  1  0  0  0  0
 22  4  2  0  0  0  0
 22 23  1  0  0  0  0
  1 24  1  0  0  0  0
 24 25  1  0  0  0  0
 25 26  1  0  0  0  0
 25 27  1  0  0  0  0
 25 28  1  0  0  0  0
 24 29  1  0  0  0  0
 29 30  1  0  0  0  0
 29 31  1  0  0  0  0
 29 32  1  0  0  0  0
  1 33  2  0  0  0  0
M  END
> <ChemID>
100780

> <source_casrn>
34123-59-6

> <CAS>
34123-59-6

> <SMILES>
CN(C)C(=O)Nc1ccc(cc1)C(C)C

> <NAME>
ISOPROTURON

> <preferred_name>
Isoproturon

> <iupac>
1,1-dimethyl-3-[4-(propan-2-yl)phenyl]urea

> <MPID>
99256

> <dsstox_substance_id>
DTXSID1042077

> <Canonical_QSARr>
CN(C)C(=O)Nc1ccc(cc1)C(C)C

> <InChI_Code_QSARr>
InChI=1S/C12H18N2O/c1-9(2)10-5-7-11(8-6-10)13-12(15)14(3)4/h5-9H,1-4H3,(H,13,15)

> <InChI Key_QSARr>
PUIYMUZLKQOUOZ-UHFFFAOYSA-N

> <OH>
1.2E-11

> <OH Temperature>
25.0

> <OH Data Type>
EXP

> <OH Reference>
PALM,WU ET AL. (1998)

> <LogOH>
-10.920818753952396

$$$$
100781
  -INDIGO-08031719142D

 12 11  0  0  0  0  0  0  0  0999 V2000
    1.3856    2.4000    0.0000 Cl  0  0  0  0  0  0  0  0  0  0  0  0
    1.3856    0.8000    0.0000 C   0  0  0  0  0  0  0  0  0  0  0  0
    2.7713    1.6000    0.0000 H   0  0  0  0  0  0  0  0  0  0  0  0
    2.7713    0.0000    0.0000 Cl  0  0  0  0  0  0  0  0  0  0  0  0
    0.0000    0.0000    0.0000 C   0  0  0  0  0  0  0  0  0  0  0  0
    0.6123   -1.4782    0.0000 H   0  0  0  0  0  0  0  0  0  0  0  0
   -0.6123   -1.4782    0.0000 H   0  0  0  0  0  0  0  0  0  0  0  0
   -1.3856    0.8000    0.0000 O   0  0  0  0  0  0  0  0  0  0  0  0
   -2.7713    0.0000    0.0000 C   0  0  0  0  0  0  0  0  0  0  0  0
   -4.1569   -0.8000    0.0000 H   0  0  0  0  0  0  0  0  0  0  0  0
   -4.1569    0.8000    0.0000 H   0  0  0  0  0  0  0  0  0  0  0  0
   -2.7713   -1.6000    0.0000 H   0  0  0  0  0  0  0  0  0  0  0  0
  1  2  1  0  0  0  0
  2  3  1  0  0  0  0
  2  4  1  0  0  0  0
  2  5  1  0  0  0  0
  5  6  1  0  0  0  0
  5  7  1  0  0  0  0
  5  8  1  0  0  0  0
  8  9  1  0  0  0  0
  9 10  1  0  0  0  0
  9 11  1  0  0  0  0
  9 12  1  0  0  0  0
M  END
> <ChemID>
100781

> <source_casrn>
34862-07-2

> <CAS>
34862-07-2

> <SMILES>
COCC(Cl)Cl

> <NAME>
2,2-Dichloroethyl methyl ether

> <preferred_name>
1,1-Dichloro-2-methoxyethane

> <iupac>
1,1-Dichloro-2-methoxyethane

> <MPID>
99257

> <dsstox_substance_id>
DTXSID30188406

> <Canonical_QSARr>
COCC(Cl)Cl

> <InChI_Code_QSARr>
InChI=1S/C3H6Cl2O/c1-6-2-3(4)5/h3H,2H2,1H3

> <InChI Key_QSARr>
QUCLHUUEEKVBGT-UHFFFAOYSA-N

> <OH>
2.27E-12

> <OH Temperature>
25.0

> <OH Data Type>
EXP

> <OH Reference>
KWOK,ESC & ATKINSON,R (1994)

> <LogOH>
-11.643974142806861

$$$$
100782
  -INDIGO-08031719142D

 22 23  0  0  0  0  0  0  0  0999 V2000
   -0.0001    0.0000    0.0000 C   0  0  0  0  0  0  0  0  0  0  0  0
    1.6001   -0.0000    0.0000 C   0  0  0  0  0  0  0  0  0  0  0  0
    2.4001   -1.3856    0.0000 C   0  0  0  0  0  0  0  0  0  0  0  0
    1.6001   -2.7713    0.0000 H   0  0  0  0  0  0  0  0  0  0  0  0
    4.0000   -1.3856    0.0000 C   0  0  0  0  0  0  0  0  0  0  0  0
    4.8000   -2.7713    0.0000 H   0  0  0  0  0  0  0  0  0  0  0  0
    4.8000    0.0000    0.0000 C   0  0  0  0  0  0  0  0  0  0  0  0
    6.4000    0.0000    0.0000 H   0  0  0  0  0  0  0  0  0  0  0  0
    4.0000    1.3856    0.0000 C   0  0  0  0  0  0  0  0  0  0  0  0
    4.8000    2.7713    0.0000 H   0  0  0  0  0  0  0  0  0  0  0  0
    2.4001    1.3856    0.0000 C   0  0  0  0  0  0  0  0  0  0  0  0
    1.6001    2.7713    0.0000 H   0  0  0  0  0  0  0  0  0  0  0  0
   -0.8001    1.3856    0.0000 C   0  0  0  0  0  0  0  0  0  0  0  0
   -0.0001    2.7713    0.0000 H   0  0  0  0  0  0  0  0  0  0  0  0
   -2.4000    1.3856    0.0000 C   0  0  0  0  0  0  0  0  0  0  0  0
   -3.2000    2.7713    0.0000 Cl  0  0  0  0  0  0  0  0  0  0  0  0
   -3.2000    0.0000    0.0000 C   0  0  0  0  0  0  0  0  0  0  0  0
   -4.8000   -0.0000    0.0000 H   0  0  0  0  0  0  0  0  0  0  0  0
   -2.4000   -1.3856    0.0000 C   0  0  0  0  0  0  0  0  0  0  0  0
   -3.2000   -2.7713    0.0000 Cl  0  0  0  0  0  0  0  0  0  0  0  0
   -0.8001   -1.3856    0.0000 C   0  0  0  0  0  0  0  0  0  0  0  0
   -0.0001   -2.7713    0.0000 H   0  0  0  0  0  0  0  0  0  0  0  0
  1  2  1  0  0  0  0
  2  3  1  0  0  0  0
  3  4  1  0  0  0  0
  3  5  2  0  0  0  0
  5  6  1  0  0  0  0
  5  7  1  0  0  0  0
  7  8  1  0  0  0  0
  7  9  2  0  0  0  0
  9 10  1  0  0  0  0
  9 11  1  0  0  0  0
 11  2  2  0  0  0  0
 11 12  1  0  0  0  0
  1 13  1  0  0  0  0
 13 14  1  0  0  0  0
 13 15  2  0  0  0  0
 15 16  1  0  0  0  0
 15 17  1  0  0  0  0
 17 18  1  0  0  0  0
 17 19  2  0  0  0  0
 19 20  1  0  0  0  0
 19 21  1  0  0  0  0
 21  1  2  0  0  0  0
 21 22  1  0  0  0  0
M  END
> <ChemID>
100782

> <source_casrn>
34883-41-5

> <CAS>
34883-41-5

> <SMILES>
Clc1cc(cc(Cl)c1)-c1ccccc1

> <NAME>
3,5-DICHLOROBIPHENYL

> <preferred_name>
3,5-Dichlorobiphenyl

> <iupac>
1,3-dichloro-5-phenylbenzene

> <MPID>
99258

> <dsstox_substance_id>
DTXSID5074137

> <Canonical_QSARr>
Clc1cc(cc(Cl)c1)-c1ccccc1

> <InChI_Code_QSARr>
InChI=1S/C12H8Cl2/c13-11-6-10(7-12(14)8-11)9-4-2-1-3-5-9/h1-8H

> <InChI Key_QSARr>
QHZSDTDMQZPUKC-UHFFFAOYSA-N

> <OH>
4.200000000000001E-12

> <OH Temperature>
24.0

> <OH Data Type>
EXP

> <OH Reference>
KWOK,ESC ET AL. (1995)

> <LogOH>
-11.376750709602087

$$$$
100784
  -INDIGO-08031719142D

 22 23  0  0  0  0  0  0  0  0999 V2000
   -0.0001    0.0000    0.0000 C   0  0  0  0  0  0  0  0  0  0  0  0
    1.6001   -0.0000    0.0000 C   0  0  0  0  0  0  0  0  0  0  0  0
    2.4001   -1.3856    0.0000 C   0  0  0  0  0  0  0  0  0  0  0  0
    1.6001   -2.7713    0.0000 H   0  0  0  0  0  0  0  0  0  0  0  0
    4.0000   -1.3856    0.0000 C   0  0  0  0  0  0  0  0  0  0  0  0
    4.8000   -2.7713    0.0000 Cl  0  0  0  0  0  0  0  0  0  0  0  0
    4.8000    0.0000    0.0000 C   0  0  0  0  0  0  0  0  0  0  0  0
    6.4000    0.0000    0.0000 Cl  0  0  0  0  0  0  0  0  0  0  0  0
    4.0000    1.3856    0.0000 C   0  0  0  0  0  0  0  0  0  0  0  0
    4.8000    2.7713    0.0000 H   0  0  0  0  0  0  0  0  0  0  0  0
    2.4001    1.3856    0.0000 C   0  0  0  0  0  0  0  0  0  0  0  0
    1.6001    2.7713    0.0000 H   0  0  0  0  0  0  0  0  0  0  0  0
   -0.8001    1.3856    0.0000 C   0  0  0  0  0  0  0  0  0  0  0  0
   -0.0001    2.7713    0.0000 Cl  0  0  0  0  0  0  0  0  0  0  0  0
   -2.4000    1.3856    0.0000 C   0  0  0  0  0  0  0  0  0  0  0  0
   -3.2000    2.7713    0.0000 Cl  0  0  0  0  0  0  0  0  0  0  0  0
   -3.2000    0.0000    0.0000 C   0  0  0  0  0  0  0  0  0  0  0  0
   -4.8000   -0.0000    0.0000 H   0  0  0  0  0  0  0  0  0  0  0  0
   -2.4000   -1.3856    0.0000 C   0  0  0  0  0  0  0  0  0  0  0  0
   -3.2000   -2.7713    0.0000 H   0  0  0  0  0  0  0  0  0  0  0  0
   -0.8001   -1.3856    0.0000 C   0  0  0  0  0  0  0  0  0  0  0  0
   -0.0001   -2.7713    0.0000 Cl  0  0  0  0  0  0  0  0  0  0  0  0
  1  2  1  0  0  0  0
  2  3  1  0  0  0  0
  3  4  1  0  0  0  0
  3  5  2  0  0  0  0
  5  6  1  0  0  0  0
  5  7  1  0  0  0  0
  7  8  1  0  0  0  0
  7  9  2  0  0  0  0
  9 10  1  0  0  0  0
  9 11  1  0  0  0  0
 11  2  2  0  0  0  0
 11 12  1  0  0  0  0
  1 13  1  0  0  0  0
 13 14  1  0  0  0  0
 13 15  2  0  0  0  0
 15 16  1  0  0  0  0
 15 17  1  0  0  0  0
 17 18  1  0  0  0  0
 17 19  2  0  0  0  0
 19 20  1  0  0  0  0
 19 21  1  0  0  0  0
 21  1  2  0  0  0  0
 21 22  1  0  0  0  0
M  END
> <ChemID>
100784

> <source_casrn>
38380-03-9

> <CAS>
38380-03-9

> <SMILES>
Clc1c(-c2cc(Cl)c(Cl)cc2)c(Cl)ccc1Cl

> <NAME>
2,3,3',4',6-PENTACHLOROBIPHENYL

> <preferred_name>
2,3,3',4',6-Pentachlorobiphenyl

> <iupac>
2,3,3',4',6-pentachlorobiphenyl

> <MPID>
99260

> <dsstox_substance_id>
DTXSID3038307

> <Canonical_QSARr>
Clc1c(-c2cc(Cl)c(Cl)cc2)c(Cl)ccc1Cl

> <InChI_Code_QSARr>
InChI=1S/C12H5Cl5/c13-7-2-1-6(5-10(7)16)11-8(14)3-4-9(15)12(11)17/h1-5H

> <InChI Key_QSARr>
ARXHIJMGSIYYRZ-UHFFFAOYSA-N

> <OH>
6.000000000000001E-13

> <OH Temperature>
25.0

> <OH Data Type>
EXP

> <OH Reference>
ANDERSON,PN & HITES,RA (1996A)

> <LogOH>
-12.221848749616338

$$$$
100785
  -INDIGO-08031719142D

 22 23  0  0  0  0  0  0  0  0999 V2000
   -0.0001    0.0000    0.0000 C   0  0  0  0  0  0  0  0  0  0  0  0
    1.6001   -0.0000    0.0000 C   0  0  0  0  0  0  0  0  0  0  0  0
    2.4001   -1.3856    0.0000 C   0  0  0  0  0  0  0  0  0  0  0  0
    1.6001   -2.7713    0.0000 Cl  0  0  0  0  0  0  0  0  0  0  0  0
    4.0000   -1.3856    0.0000 C   0  0  0  0  0  0  0  0  0  0  0  0
    4.8000   -2.7713    0.0000 H   0  0  0  0  0  0  0  0  0  0  0  0
    4.8000    0.0000    0.0000 C   0  0  0  0  0  0  0  0  0  0  0  0
    6.4000    0.0000    0.0000 H   0  0  0  0  0  0  0  0  0  0  0  0
    4.0000    1.3856    0.0000 C   0  0  0  0  0  0  0  0  0  0  0  0
    4.8000    2.7713    0.0000 H   0  0  0  0  0  0  0  0  0  0  0  0
    2.4001    1.3856    0.0000 C   0  0  0  0  0  0  0  0  0  0  0  0
    1.6001    2.7713    0.0000 H   0  0  0  0  0  0  0  0  0  0  0  0
   -0.8001    1.3856    0.0000 C   0  0  0  0  0  0  0  0  0  0  0  0
   -0.0001    2.7713    0.0000 H   0  0  0  0  0  0  0  0  0  0  0  0
   -2.4000    1.3856    0.0000 C   0  0  0  0  0  0  0  0  0  0  0  0
   -3.2000    2.7713    0.0000 Cl  0  0  0  0  0  0  0  0  0  0  0  0
   -3.2000    0.0000    0.0000 C   0  0  0  0  0  0  0  0  0  0  0  0
   -4.8000   -0.0000    0.0000 Cl  0  0  0  0  0  0  0  0  0  0  0  0
   -2.4000   -1.3856    0.0000 C   0  0  0  0  0  0  0  0  0  0  0  0
   -3.2000   -2.7713    0.0000 H   0  0  0  0  0  0  0  0  0  0  0  0
   -0.8001   -1.3856    0.0000 C   0  0  0  0  0  0  0  0  0  0  0  0
   -0.0001   -2.7713    0.0000 H   0  0  0  0  0  0  0  0  0  0  0  0
  1  2  1  0  0  0  0
  2  3  1  0  0  0  0
  3  4  1  0  0  0  0
  3  5  2  0  0  0  0
  5  6  1  0  0  0  0
  5  7  1  0  0  0  0
  7  8  1  0  0  0  0
  7  9  2  0  0  0  0
  9 10  1  0  0  0  0
  9 11  1  0  0  0  0
 11  2  2  0  0  0  0
 11 12  1  0  0  0  0
  1 13  1  0  0  0  0
 13 14  1  0  0  0  0
 13 15  2  0  0  0  0
 15 16  1  0  0  0  0
 15 17  1  0  0  0  0
 17 18  1  0  0  0  0
 17 19  2  0  0  0  0
 19 20  1  0  0  0  0
 19 21  1  0  0  0  0
 21  1  2  0  0  0  0
 21 22  1  0  0  0  0
M  END
> <ChemID>
100785

> <source_casrn>
38444-86-9

> <CAS>
38444-86-9

> <SMILES>
Clc1cc(ccc1Cl)-c1ccccc1Cl

> <NAME>
2',3,4-TRICHLOROBIPHENYL

> <preferred_name>
2',3,4-Trichlorobiphenyl

> <iupac>
2,3',4'-trichlorobiphenyl

> <MPID>
99261

> <dsstox_substance_id>
DTXSID8040303

> <Canonical_QSARr>
Clc1cc(ccc1Cl)-c1ccccc1Cl

> <InChI_Code_QSARr>
InChI=1S/C12H7Cl3/c13-10-4-2-1-3-9(10)8-5-6-11(14)12(15)7-8/h1-7H

> <InChI Key_QSARr>
RIMXLXBUOQMDHV-UHFFFAOYSA-N

> <OH>
1.0E-12

> <OH Temperature>
25.0

> <OH Data Type>
EXP

> <OH Reference>
ANDERSON,PN & HITES,RA (1996A)

> <LogOH>
-11.999999999999979

$$$$
100786
  -INDIGO-08031719142D

 22 24  0  0  0  0  0  0  0  0999 V2000
   -1.3856    0.8000    0.0000 O   0  0  0  0  0  0  0  0  0  0  0  0
   -2.7712   -0.0000    0.0000 C   0  0  0  0  0  0  0  0  0  0  0  0
   -2.7712   -1.6000    0.0000 C   0  0  0  0  0  0  0  0  0  0  0  0
   -4.1569   -2.4000    0.0000 C   0  0  0  0  0  0  0  0  0  0  0  0
   -4.1569   -4.0000    0.0000 H   0  0  0  0  0  0  0  0  0  0  0  0
   -5.5425   -1.6000    0.0000 C   0  0  0  0  0  0  0  0  0  0  0  0
   -6.9282   -2.4000    0.0000 H   0  0  0  0  0  0  0  0  0  0  0  0
   -5.5425   -0.0000    0.0000 C   0  0  0  0  0  0  0  0  0  0  0  0
   -6.9282    0.8000    0.0000 H   0  0  0  0  0  0  0  0  0  0  0  0
   -4.1569    0.8000    0.0000 C   0  0  0  0  0  0  0  0  0  0  0  0
   -4.1569    2.4000    0.0000 H   0  0  0  0  0  0  0  0  0  0  0  0
   -1.3856   -2.4000    0.0000 O   0  0  0  0  0  0  0  0  0  0  0  0
   -0.0001   -1.6000    0.0000 C   0  0  0  0  0  0  0  0  0  0  0  0
   -0.0001   -0.0000    0.0000 C   0  0  0  0  0  0  0  0  0  0  0  0
    1.3856    0.8000    0.0000 C   0  0  0  0  0  0  0  0  0  0  0  0
    2.7713   -0.0000    0.0000 C   0  0  0  0  0  0  0  0  0  0  0  0
    4.1569    0.8000    0.0000 H   0  0  0  0  0  0  0  0  0  0  0  0
    2.7713   -1.6000    0.0000 C   0  0  0  0  0  0  0  0  0  0  0  0
    4.1569   -2.4000    0.0000 H   0  0  0  0  0  0  0  0  0  0  0  0
    1.3856   -2.4000    0.0000 C   0  0  0  0  0  0  0  0  0  0  0  0
    1.3856   -4.0000    0.0000 H   0  0  0  0  0  0  0  0  0  0  0  0
    1.3856    2.4000    0.0000 Cl  0  0  0  0  0  0  0  0  0  0  0  0
  1  2  1  0  0  0  0
  2  3  1  0  0  0  0
  3  4  2  0  0  0  0
  4  5  1  0  0  0  0
  4  6  1  0  0  0  0
  6  7  1  0  0  0  0
  6  8  2  0  0  0  0
  8  9  1  0  0  0  0
  8 10  1  0  0  0  0
 10  2  2  0  0  0  0
 10 11  1  0  0  0  0
  3 12  1  0  0  0  0
 12 13  1  0  0  0  0
 13 14  1  0  0  0  0
 14  1  1  0  0  0  0
 14 15  2  0  0  0  0
 15 16  1  0  0  0  0
 16 17  1  0  0  0  0
 16 18  2  0  0  0  0
 18 19  1  0  0  0  0
 18 20  1  0  0  0  0
 20 13  2  0  0  0  0
 20 21  1  0  0  0  0
 15 22  1  0  0  0  0
M  END
> <ChemID>
100786

> <source_casrn>
39227-53-7

> <CAS>
NOCAS_872020

> <SMILES>
Clc1cccc2Oc3ccccc3Oc21

> <NAME>
1-CHLORODIBENZO-P-DIOXIN

> <preferred_name>


> <iupac>


> <MPID>
99262

> <dsstox_substance_id>
DTXSID80872020

> <Canonical_QSARr>
Clc1cccc2Oc3ccccc3Oc21

> <InChI_Code_QSARr>
InChI=1S/C12H7ClO2/c13-8-4-3-7-11-12(8)15-10-6-2-1-5-9(10)14-11/h1-7H

> <InChI Key_QSARr>
VGGGRWRBGXENKI-UHFFFAOYSA-N

> <OH>
4.700000000000001E-12

> <OH Temperature>
24.0

> <OH Data Type>
EXP

> <OH Reference>
KWOK,ESC ET AL. (1995)

> <LogOH>
-11.327902142064266

$$$$
100788
  -INDIGO-08031719142D

 22 23  0  0  0  0  0  0  0  0999 V2000
   -0.0001    0.0000    0.0000 C   0  0  0  0  0  0  0  0  0  0  0  0
    1.6001   -0.0000    0.0000 C   0  0  0  0  0  0  0  0  0  0  0  0
    2.4001   -1.3856    0.0000 C   0  0  0  0  0  0  0  0  0  0  0  0
    1.6001   -2.7713    0.0000 Cl  0  0  0  0  0  0  0  0  0  0  0  0
    4.0000   -1.3856    0.0000 C   0  0  0  0  0  0  0  0  0  0  0  0
    4.8000   -2.7713    0.0000 H   0  0  0  0  0  0  0  0  0  0  0  0
    4.8000    0.0000    0.0000 C   0  0  0  0  0  0  0  0  0  0  0  0
    6.4000    0.0000    0.0000 H   0  0  0  0  0  0  0  0  0  0  0  0
    4.0000    1.3856    0.0000 C   0  0  0  0  0  0  0  0  0  0  0  0
    4.8000    2.7713    0.0000 Cl  0  0  0  0  0  0  0  0  0  0  0  0
    2.4001    1.3856    0.0000 C   0  0  0  0  0  0  0  0  0  0  0  0
    1.6001    2.7713    0.0000 H   0  0  0  0  0  0  0  0  0  0  0  0
   -0.8001    1.3856    0.0000 C   0  0  0  0  0  0  0  0  0  0  0  0
   -0.0001    2.7713    0.0000 Cl  0  0  0  0  0  0  0  0  0  0  0  0
   -2.4000    1.3856    0.0000 C   0  0  0  0  0  0  0  0  0  0  0  0
   -3.2000    2.7713    0.0000 Cl  0  0  0  0  0  0  0  0  0  0  0  0
   -3.2000    0.0000    0.0000 C   0  0  0  0  0  0  0  0  0  0  0  0
   -4.8000   -0.0000    0.0000 H   0  0  0  0  0  0  0  0  0  0  0  0
   -2.4000   -1.3856    0.0000 C   0  0  0  0  0  0  0  0  0  0  0  0
   -3.2000   -2.7713    0.0000 H   0  0  0  0  0  0  0  0  0  0  0  0
   -0.8001   -1.3856    0.0000 C   0  0  0  0  0  0  0  0  0  0  0  0
   -0.0001   -2.7713    0.0000 H   0  0  0  0  0  0  0  0  0  0  0  0
  1  2  1  0  0  0  0
  2  3  1  0  0  0  0
  3  4  1  0  0  0  0
  3  5  2  0  0  0  0
  5  6  1  0  0  0  0
  5  7  1  0  0  0  0
  7  8  1  0  0  0  0
  7  9  2  0  0  0  0
  9 10  1  0  0  0  0
  9 11  1  0  0  0  0
 11  2  2  0  0  0  0
 11 12  1  0  0  0  0
  1 13  1  0  0  0  0
 13 14  1  0  0  0  0
 13 15  2  0  0  0  0
 15 16  1  0  0  0  0
 15 17  1  0  0  0  0
 17 18  1  0  0  0  0
 17 19  2  0  0  0  0
 19 20  1  0  0  0  0
 19 21  1  0  0  0  0
 21  1  2  0  0  0  0
 21 22  1  0  0  0  0
M  END
> <ChemID>
100788

> <source_casrn>
41464-39-5

> <CAS>
41464-39-5

> <SMILES>
Clc1cc(-c2cccc(Cl)c2Cl)c(Cl)cc1

> <NAME>
2,2',3,5'-TETRACHLOROBIPHENYL

> <preferred_name>
2,2',3,5'-tetrachlorobiphenyl

> <iupac>
2,2',3,5'-tetrachlorobiphenyl

> <MPID>
99264

> <dsstox_substance_id>
DTXSID8038302

> <Canonical_QSARr>
Clc1cc(-c2cccc(Cl)c2Cl)c(Cl)cc1

> <InChI_Code_QSARr>
InChI=1S/C12H6Cl4/c13-7-4-5-10(14)9(6-7)8-2-1-3-11(15)12(8)16/h1-6H

> <InChI Key_QSARr>
ALDJIKXAHSDLLB-UHFFFAOYSA-N

> <OH>
8.000000000000001E-13

> <OH Temperature>
25.0

> <OH Data Type>
EXP

> <OH Reference>
ANDERSON,PN & HITES,RA (1996A)

> <LogOH>
-12.096910013008072

$$$$
100790
  -INDIGO-08031719142D

 21 21  0  0  0  0  0  0  0  0999 V2000
   -1.3857   -0.8000    0.0000 C   0  0  0  0  0  0  0  0  0  0  0  0
   -1.3857   -2.4000    0.0000 C   0  0  0  0  0  0  0  0  0  0  0  0
    0.0001   -3.2000    0.0000 F   0  0  0  0  0  0  0  0  0  0  0  0
   -2.7713   -3.2000    0.0000 C   0  0  0  0  0  0  0  0  0  0  0  0
   -2.7713   -4.8000    0.0000 F   0  0  0  0  0  0  0  0  0  0  0  0
   -4.1569   -2.4000    0.0000 C   0  0  0  0  0  0  0  0  0  0  0  0
   -5.5426   -3.2000    0.0000 F   0  0  0  0  0  0  0  0  0  0  0  0
   -4.1569   -0.8000    0.0000 C   0  0  0  0  0  0  0  0  0  0  0  0
   -5.5426   -0.0000    0.0000 F   0  0  0  0  0  0  0  0  0  0  0  0
   -2.7713   -0.0000    0.0000 C   0  0  0  0  0  0  0  0  0  0  0  0
   -2.7713    1.6000    0.0000 F   0  0  0  0  0  0  0  0  0  0  0  0
    0.0001   -0.0000    0.0000 C   0  0  0  0  0  0  0  0  0  0  0  0
    0.6124    1.4782    0.0000 H   0  0  0  0  0  0  0  0  0  0  0  0
   -0.6122    1.4782    0.0000 H   0  0  0  0  0  0  0  0  0  0  0  0
    1.3857   -0.8000    0.0000 C   0  0  0  0  0  0  0  0  0  0  0  0
    0.7734   -2.2782    0.0000 H   0  0  0  0  0  0  0  0  0  0  0  0
    1.9980   -2.2782    0.0000 H   0  0  0  0  0  0  0  0  0  0  0  0
    2.7713   -0.0000    0.0000 C   0  0  0  0  0  0  0  0  0  0  0  0
    4.1569    0.8000    0.0000 H   0  0  0  0  0  0  0  0  0  0  0  0
    4.1569   -0.8000    0.0000 H   0  0  0  0  0  0  0  0  0  0  0  0
    2.7713    1.6000    0.0000 H   0  0  0  0  0  0  0  0  0  0  0  0
  1  2  1  0  0  0  0
  2  3  1  0  0  0  0
  2  4  2  0  0  0  0
  4  5  1  0  0  0  0
  4  6  1  0  0  0  0
  6  7  1  0  0  0  0
  6  8  2  0  0  0  0
  8  9  1  0  0  0  0
  8 10  1  0  0  0  0
 10  1  2  0  0  0  0
 10 11  1  0  0  0  0
  1 12  1  0  0  0  0
 12 13  1  0  0  0  0
 12 14  1  0  0  0  0
 12 15  1  0  0  0  0
 15 16  1  0  0  0  0
 15 17  1  0  0  0  0
 15 18  1  0  0  0  0
 18 19  1  0  0  0  0
 18 20  1  0  0  0  0
 18 21  1  0  0  0  0
M  END
> <ChemID>
100790

> <source_casrn>
52144-69-1

> <CAS>
52144-69-1

> <SMILES>
CCCc1c(F)c(F)c(F)c(F)c1F

> <NAME>
n-Propylpentafluorobenzene

> <preferred_name>


> <iupac>


> <MPID>
99265

> <dsstox_substance_id>
DTXSID90879686

> <Canonical_QSARr>
CCCc1c(F)c(F)c(F)c(F)c1F

> <InChI_Code_QSARr>
InChI=1S/C9H7F5/c1-2-3-4-5(10)7(12)9(14)8(13)6(4)11/h2-3H2,1H3

> <InChI Key_QSARr>
LJEHGOAHCQTFBY-UHFFFAOYSA-N

> <OH>
3.06E-12

> <OH Temperature>
25.0

> <OH Data Type>
EXP

> <OH Reference>
ATKINSON,R ET AL. (1989)

> <LogOH>
-11.514278573518437

$$$$
100793
  -INDIGO-08031719142D

 12 11  0  0  0  0  0  0  0  0999 V2000
   -1.3856    0.8000    0.0000 C   0  0  0  0  0  0  0  0  0  0  0  0
    0.0000    0.0000    0.0000 C   0  0  0  0  0  0  0  0  0  0  0  0
   -0.6123   -1.4782    0.0000 H   0  0  0  0  0  0  0  0  0  0  0  0
    1.3856    0.8000    0.0000 O   0  0  0  0  0  0  0  0  0  0  0  0
    2.7713    0.0000    0.0000 C   0  0  0  0  0  0  0  0  0  0  0  0
    4.1569   -0.8000    0.0000 H   0  0  0  0  0  0  0  0  0  0  0  0
    4.1569    0.8000    0.0000 F   0  0  0  0  0  0  0  0  0  0  0  0
    2.7713   -1.6000    0.0000 F   0  0  0  0  0  0  0  0  0  0  0  0
    0.6123   -1.4782    0.0000 F   0  0  0  0  0  0  0  0  0  0  0  0
   -2.7713    1.6000    0.0000 F   0  0  0  0  0  0  0  0  0  0  0  0
   -2.7713    0.0000    0.0000 F   0  0  0  0  0  0  0  0  0  0  0  0
   -1.3856    2.4000    0.0000 F   0  0  0  0  0  0  0  0  0  0  0  0
  1  2  1  0  0  0  0
  2  3  1  0  0  0  0
  2  4  1  0  0  0  0
  4  5  1  0  0  0  0
  5  6  1  0  0  0  0
  5  7  1  0  0  0  0
  5  8  1  0  0  0  0
  2  9  1  0  0  0  0
  1 10  1  0  0  0  0
  1 11  1  0  0  0  0
  1 12  1  0  0  0  0
M  END
> <ChemID>
100793

> <source_casrn>
57041-67-5

> <CAS>
NOCAS_866606

> <SMILES>
FC(F)OC(F)C(F)(F)F

> <NAME>
Desflurane

> <preferred_name>


> <iupac>


> <MPID>
99268

> <dsstox_substance_id>
DTXSID80866606

> <Canonical_QSARr>
FC(F)OC(F)C(F)(F)F

> <InChI_Code_QSARr>
InChI=1S/C3H2F6O/c4-1(3(7,8)9)10-2(5)6/h1-2H

> <InChI Key_QSARr>
DPYMFVXJLLWWEU-UHFFFAOYSA-N

> <OH>
4.400000000000001E-15

> <OH Temperature>
25.0

> <OH Data Type>
EXP

> <OH Reference>
LANGBEIN,T ET AL. (1999)

> <LogOH>
-14.356547323513826

$$$$
100794
  -INDIGO-08031719142D

  7  6  0  0  0  0  0  0  0  0999 V2000
    1.6000    0.0000    0.0000 C   0  0  0  0  0  0  0  0  0  0  0  0
    2.4000    1.3856    0.0000 H   0  0  0  0  0  0  0  0  0  0  0  0
    2.4000   -1.3856    0.0000 O   0  0  0  0  0  0  0  0  0  0  0  0
    0.0000    0.0000    0.0000 C   0  0  0  0  0  0  0  0  0  0  0  0
   -1.6000    0.0000    0.0000 Cl  0  0  0  0  0  0  0  0  0  0  0  0
   -0.8000    1.3856    0.0000 Cl  0  0  0  0  0  0  0  0  0  0  0  0
   -0.8000   -1.3856    0.0000 F   0  0  0  0  0  0  0  0  0  0  0  0
  1  2  1  0  0  0  0
  1  3  2  0  0  0  0
  1  4  1  0  0  0  0
  4  5  1  0  0  0  0
  4  6  1  0  0  0  0
  4  7  1  0  0  0  0
M  END
> <ChemID>
100794

> <source_casrn>
63034-44-6

> <CAS>
63034-44-6

> <SMILES>
O=CC(F)(Cl)Cl

> <NAME>
Dichlorofluoroacetaldehyde

> <preferred_name>


> <iupac>


> <MPID>
99269

> <dsstox_substance_id>
DTXSID80878688

> <Canonical_QSARr>
O=CC(F)(Cl)Cl

> <InChI_Code_QSARr>
InChI=1S/C2HCl2FO/c3-2(4,5)1-6/h1H

> <InChI Key_QSARr>
LAVNLOJEYZYMFK-UHFFFAOYSA-N

> <OH>
1.2E-12

> <OH Temperature>
25.0

> <OH Data Type>
EXP

> <OH Reference>
SCOLLARD,DJ ET AL. (1993)

> <LogOH>
-11.920818753952377

$$$$
100803
  -INDIGO-08031719142D

 17 16  0  0  0  0  0  0  0  0999 V2000
   -2.7712   -0.0000    0.0000 C   0  0  0  0  0  0  0  0  0  0  0  0
   -1.3856    0.8000    0.0000 C   0  0  0  0  0  0  0  0  0  0  0  0
    0.0001   -0.0000    0.0000 C   0  0  0  0  0  0  0  0  0  0  0  0
   -0.6123   -1.4782    0.0000 H   0  0  0  0  0  0  0  0  0  0  0  0
    1.3856    0.8000    0.0000 C   0  0  0  0  0  0  0  0  0  0  0  0
    1.9979    2.2782    0.0000 H   0  0  0  0  0  0  0  0  0  0  0  0
    2.7713   -0.0000    0.0000 C   0  0  0  0  0  0  0  0  0  0  0  0
    4.1569   -0.8000    0.0000 F   0  0  0  0  0  0  0  0  0  0  0  0
    4.1569    0.8000    0.0000 F   0  0  0  0  0  0  0  0  0  0  0  0
    2.7713   -1.6000    0.0000 F   0  0  0  0  0  0  0  0  0  0  0  0
    0.7734    2.2782    0.0000 F   0  0  0  0  0  0  0  0  0  0  0  0
    0.6123   -1.4782    0.0000 F   0  0  0  0  0  0  0  0  0  0  0  0
   -0.7734    2.2782    0.0000 F   0  0  0  0  0  0  0  0  0  0  0  0
   -1.9979    2.2782    0.0000 F   0  0  0  0  0  0  0  0  0  0  0  0
   -4.1569   -0.8000    0.0000 F   0  0  0  0  0  0  0  0  0  0  0  0
   -4.1569    0.8000    0.0000 F   0  0  0  0  0  0  0  0  0  0  0  0
   -2.7713   -1.6000    0.0000 F   0  0  0  0  0  0  0  0  0  0  0  0
  1  2  1  0  0  0  0
  2  3  1  0  0  0  0
  3  4  1  0  0  0  0
  3  5  1  0  0  0  0
  5  6  1  0  0  0  0
  5  7  1  0  0  0  0
  7  8  1  0  0  0  0
  7  9  1  0  0  0  0
  7 10  1  0  0  0  0
  5 11  1  0  0  0  0
  3 12  1  0  0  0  0
  2 13  1  0  0  0  0
  2 14  1  0  0  0  0
  1 15  1  0  0  0  0
  1 16  1  0  0  0  0
  1 17  1  0  0  0  0
M  END
> <ChemID>
100803

> <source_casrn>
138495-42-8

> <CAS>
NOCAS_869884

> <SMILES>
FC(F)(F)C(F)C(F)C(F)(F)C(F)(F)F

> <NAME>
1,1,1,2,2,3,4,5,5,5-Decafluoropentane

> <preferred_name>


> <iupac>


> <MPID>
99271

> <dsstox_substance_id>
DTXSID30869884

> <Canonical_QSARr>
FC(F)(F)C(F)C(F)C(F)(F)C(F)(F)F

> <InChI_Code_QSARr>
InChI=1S/C5H2F10/c6-1(2(7)4(10,11)12)3(8,9)5(13,14)15/h1-2H

> <InChI Key_QSARr>
RIQRGMUSBYGDBL-UHFFFAOYSA-N

> <OH>
3.4E-15

> <OH Temperature>
25.0

> <OH Data Type>
EXP

> <OH Reference>
KWOK,ESC & ATKINSON,R (1994)

> <LogOH>
-14.468521082957755

$$$$
100804
  -INDIGO-08031719142D

  7  6  0  0  0  0  0  0  0  0999 V2000
    1.6000    0.0000    0.0000 C   0  0  0  0  0  0  0  0  0  0  0  0
    2.4000    1.3856    0.0000 H   0  0  0  0  0  0  0  0  0  0  0  0
    2.4000   -1.3856    0.0000 O   0  0  0  0  0  0  0  0  0  0  0  0
    0.0000    0.0000    0.0000 C   0  0  0  0  0  0  0  0  0  0  0  0
   -1.6000    0.0000    0.0000 H   0  0  0  0  0  0  0  0  0  0  0  0
   -0.8000    1.3856    0.0000 Cl  0  0  0  0  0  0  0  0  0  0  0  0
   -0.8000   -1.3856    0.0000 F   0  0  0  0  0  0  0  0  0  0  0  0
  1  2  1  0  0  0  0
  1  3  2  0  0  0  0
  1  4  1  0  0  0  0
  4  5  1  0  0  0  0
  4  6  1  0  0  0  0
  4  7  1  0  0  0  0
M  END
> <ChemID>
100804

> <source_casrn>
138689-24-4

> <CAS>
138689-24-4

> <SMILES>
O=CC(F)Cl

> <NAME>
CHLOROFLUOROACETALDEHYDE

> <preferred_name>


> <iupac>


> <MPID>
99272

> <dsstox_substance_id>
DTXSID30875561

> <Canonical_QSARr>
O=CC(F)Cl

> <InChI_Code_QSARr>
InChI=1S/C2H2ClFO/c3-2(4)1-5/h1-2H

> <InChI Key_QSARr>
AVAHZUUYBFUOPN-UHFFFAOYSA-N

> <OH>
2.1E-12

> <OH Temperature>
25.0

> <OH Data Type>
EXP

> <OH Reference>
SCOLLARD,DJ ET AL. (1993)

> <LogOH>
-11.677780705266093

$$$$
100806
  -INDIGO-08031719142D

 10 10  0  0  0  0  0  0  0  0999 V2000
   -1.3857   -0.8000    0.0000 C   0  0  0  0  0  0  0  0  0  0  0  0
   -0.5857   -2.1856    0.0000 O   0  0  0  0  0  0  0  0  0  0  0  0
    0.8000   -1.3856    0.0000 C   0  0  0  0  0  0  0  0  0  0  0  0
    1.6000   -2.7713    0.0000 F   0  0  0  0  0  0  0  0  0  0  0  0
    2.1856   -0.5857    0.0000 F   0  0  0  0  0  0  0  0  0  0  0  0
    0.0000    0.0000    0.0000 C   0  0  0  0  0  0  0  0  0  0  0  0
    1.3856    0.8000    0.0000 H   0  0  0  0  0  0  0  0  0  0  0  0
   -0.8000    1.3856    0.0000 F   0  0  0  0  0  0  0  0  0  0  0  0
   -2.1856    0.5857    0.0000 F   0  0  0  0  0  0  0  0  0  0  0  0
   -2.7713   -1.6000    0.0000 F   0  0  0  0  0  0  0  0  0  0  0  0
  1  2  1  0  0  0  0
  2  3  1  0  0  0  0
  3  4  1  0  0  0  0
  3  5  1  0  0  0  0
  3  6  1  0  0  0  0
  6  1  1  0  0  0  0
  6  7  1  0  0  0  0
  6  8  1  0  0  0  0
  1  9  1  0  0  0  0
  1 10  1  0  0  0  0
M  END
> <ChemID>
100806

> <source_casrn>
144109-03-5

> <CAS>
144109-03-5

> <SMILES>
FC1C(F)(F)OC1(F)F

> <NAME>
2,2,3,4,4-Pentafluoro oxetane

> <preferred_name>
Oxetane, 2,2,3,4,4-pentafluoro-

> <iupac>
2,2,3,4,4-pentafluorooxetane

> <MPID>
99273

> <dsstox_substance_id>
DTXSID6074128

> <Canonical_QSARr>
FC1C(F)(F)OC1(F)F

> <InChI_Code_QSARr>
InChI=1S/C3HF5O/c4-1-2(5,6)9-3(1,7)8/h1H

> <InChI Key_QSARr>
IELDRGPCKXVHLW-UHFFFAOYSA-N

> <OH>
2.45E-15

> <OH Temperature>
25.0

> <OH Data Type>
EXP

> <OH Reference>
KWOK,ESC & ATKINSON,R (1994)

> <LogOH>
-14.610833915635489

$$$$
100815
  -INDIGO-08031719142D

 12 11  0  0  0  0  0  0  0  0999 V2000
   -1.3856    0.8000    0.0000 O   0  0  0  0  0  0  0  0  0  0  0  0
    0.0000    0.0000    0.0000 C   0  0  0  0  0  0  0  0  0  0  0  0
    1.3856    0.8000    0.0000 C   0  0  0  0  0  0  0  0  0  0  0  0
    2.7713    1.6000    0.0000 F   0  0  0  0  0  0  0  0  0  0  0  0
    2.7713    0.0000    0.0000 F   0  0  0  0  0  0  0  0  0  0  0  0
    1.3856    2.4000    0.0000 F   0  0  0  0  0  0  0  0  0  0  0  0
    0.6123   -1.4782    0.0000 F   0  0  0  0  0  0  0  0  0  0  0  0
   -0.6123   -1.4782    0.0000 F   0  0  0  0  0  0  0  0  0  0  0  0
   -2.7713    0.0000    0.0000 C   0  0  0  0  0  0  0  0  0  0  0  0
   -4.1569   -0.8000    0.0000 H   0  0  0  0  0  0  0  0  0  0  0  0
   -4.1569    0.8000    0.0000 H   0  0  0  0  0  0  0  0  0  0  0  0
   -2.7713   -1.6000    0.0000 H   0  0  0  0  0  0  0  0  0  0  0  0
  1  2  1  0  0  0  0
  2  3  1  0  0  0  0
  3  4  1  0  0  0  0
  3  5  1  0  0  0  0
  3  6  1  0  0  0  0
  2  7  1  0  0  0  0
  2  8  1  0  0  0  0
  1  9  1  0  0  0  0
  9 10  1  0  0  0  0
  9 11  1  0  0  0  0
  9 12  1  0  0  0  0
M  END
> <ChemID>
100815

> <source_casrn>
SRC003-80-0

> <CAS>
NOCAS_871517

> <SMILES>
COC(F)(F)C(F)(F)F

> <NAME>
Pentafluoroethyl methyl ether

> <preferred_name>


> <iupac>


> <MPID>
99275

> <dsstox_substance_id>
DTXSID20871517

> <Canonical_QSARr>
COC(F)(F)C(F)(F)F

> <InChI_Code_QSARr>
InChI=1S/C3H3F5O/c1-9-3(7,8)2(4,5)6/h1H3

> <InChI Key_QSARr>
GCDWNCOAODIANN-UHFFFAOYSA-N

> <OH>
1.21E-14

> <OH Temperature>
25.0

> <OH Data Type>
EXP

> <OH Reference>
TOKUHASHI,K ET AL. (1999)

> <LogOH>
-13.917214629683551

$$$$
100817
  -INDIGO-08031719142D

 15 14  0  0  0  0  0  0  0  0999 V2000
   -0.8000   -1.3856    0.0000 F   0  0  0  0  0  0  0  0  0  0  0  0
    0.0001    0.0000    0.0000 C   0  0  0  0  0  0  0  0  0  0  0  0
    0.8000    1.3856    0.0000 O   0  0  0  0  0  0  0  0  0  0  0  0
    2.4000    1.3856    0.0000 C   0  0  0  0  0  0  0  0  0  0  0  0
    3.2000    2.7713    0.0000 H   0  0  0  0  0  0  0  0  0  0  0  0
    4.0000    1.3856    0.0000 H   0  0  0  0  0  0  0  0  0  0  0  0
    1.6000    2.7713    0.0000 H   0  0  0  0  0  0  0  0  0  0  0  0
   -1.3856    0.8000    0.0000 C   0  0  0  0  0  0  0  0  0  0  0  0
   -2.7713    1.6000    0.0000 F   0  0  0  0  0  0  0  0  0  0  0  0
   -2.7713    0.0000    0.0000 F   0  0  0  0  0  0  0  0  0  0  0  0
   -1.3856    2.4000    0.0000 F   0  0  0  0  0  0  0  0  0  0  0  0
    1.3856   -0.8000    0.0000 C   0  0  0  0  0  0  0  0  0  0  0  0
    2.7713   -1.6000    0.0000 F   0  0  0  0  0  0  0  0  0  0  0  0
    1.3856   -2.4000    0.0000 F   0  0  0  0  0  0  0  0  0  0  0  0
    2.7713    0.0000    0.0000 F   0  0  0  0  0  0  0  0  0  0  0  0
  1  2  1  0  0  0  0
  2  3  1  0  0  0  0
  3  4  1  0  0  0  0
  4  5  1  0  0  0  0
  4  6  1  0  0  0  0
  4  7  1  0  0  0  0
  2  8  1  0  0  0  0
  8  9  1  0  0  0  0
  8 10  1  0  0  0  0
  8 11  1  0  0  0  0
  2 12  1  0  0  0  0
 12 13  1  0  0  0  0
 12 14  1  0  0  0  0
 12 15  1  0  0  0  0
M  END
> <ChemID>
100817

> <source_casrn>
SRC003-80-2

> <CAS>
22052-84-2

> <SMILES>
COC(F)(C(F)(F)F)C(F)(F)F

> <NAME>
Heptafluoroisopropyl methyl ether

> <preferred_name>
Heptafluoroisopropyl methyl ether

> <iupac>
C4H3F7O

> <MPID>
99277

> <dsstox_substance_id>
DTXSID30379276

> <Canonical_QSARr>
COC(F)(C(F)(F)F)C(F)(F)F

> <InChI_Code_QSARr>
InChI=1S/C4H3F7O/c1-12-2(5,3(6,7)8)4(9,10)11/h1H3

> <InChI Key_QSARr>
HRXXERHTOVVTQF-UHFFFAOYSA-N

> <OH>
1.52E-14

> <OH Temperature>
25.0

> <OH Data Type>
EXP

> <OH Reference>
TOKUHASHI,K ET AL. (1999)

> <LogOH>
-13.818156412055247

$$$$
