100001
  -INDIGO-08031719362D

 28 29  0  0  0  0  0  0  0  0999 V2000
   -1.3856    0.8000    0.0000 Cl  0  0  0  0  0  0  0  0  0  0  0  0
    0.0001    1.6001    0.0000 C   0  0  0  0  0  0  0  0  0  0  0  0
    0.0001    0.0000    0.0000 C   0  0  0  0  0  0  0  0  0  0  0  0
    0.0001   -1.6000    0.0000 H   0  0  0  0  0  0  0  0  0  0  0  0
   -1.5034   -0.5472    0.0000 C   0  0  0  0  0  0  0  0  0  0  0  0
   -2.7292    0.4813    0.0000 C   0  0  0  0  0  0  0  0  0  0  0  0
   -2.4513    2.0569    0.0000 H   0  0  0  0  0  0  0  0  0  0  0  0
   -4.2327   -0.0660    0.0000 C   0  0  0  0  0  0  0  0  0  0  0  0
   -5.4584    0.9624    0.0000 H   0  0  0  0  0  0  0  0  0  0  0  0
   -4.5106   -1.6416    0.0000 C   0  0  0  0  0  0  0  0  0  0  0  0
   -6.0140   -2.1889    0.0000 Cl  0  0  0  0  0  0  0  0  0  0  0  0
   -3.2848   -2.6701    0.0000 C   0  0  0  0  0  0  0  0  0  0  0  0
   -3.5627   -4.2459    0.0000 H   0  0  0  0  0  0  0  0  0  0  0  0
   -1.7813   -2.1229    0.0000 C   0  0  0  0  0  0  0  0  0  0  0  0
   -0.5557   -3.1514    0.0000 H   0  0  0  0  0  0  0  0  0  0  0  0
    1.5999    0.0000    0.0000 C   0  0  0  0  0  0  0  0  0  0  0  0
    2.4001    1.3857    0.0000 C   0  0  0  0  0  0  0  0  0  0  0  0
    1.5999    2.7713    0.0000 H   0  0  0  0  0  0  0  0  0  0  0  0
    4.0000    1.3857    0.0000 C   0  0  0  0  0  0  0  0  0  0  0  0
    4.7999    2.7713    0.0000 H   0  0  0  0  0  0  0  0  0  0  0  0
    4.7999    0.0000    0.0000 C   0  0  0  0  0  0  0  0  0  0  0  0
    6.4000    0.0000    0.0000 Cl  0  0  0  0  0  0  0  0  0  0  0  0
    4.0000   -1.3857    0.0000 C   0  0  0  0  0  0  0  0  0  0  0  0
    4.7999   -2.7712    0.0000 H   0  0  0  0  0  0  0  0  0  0  0  0
    2.4001   -1.3857    0.0000 C   0  0  0  0  0  0  0  0  0  0  0  0
    1.5999   -2.7712    0.0000 H   0  0  0  0  0  0  0  0  0  0  0  0
    0.0001    3.2000    0.0000 Cl  0  0  0  0  0  0  0  0  0  0  0  0
   -1.3856    2.4000    0.0000 Cl  0  0  0  0  0  0  0  0  0  0  0  0
  1  2  1  0  0  0  0
  2  3  1  0  0  0  0
  3  4  1  0  0  0  0
  3  5  1  0  0  0  0
  5  6  1  0  0  0  0
  6  7  1  0  0  0  0
  6  8  2  0  0  0  0
  8  9  1  0  0  0  0
  8 10  1  0  0  0  0
 10 11  1  0  0  0  0
 10 12  2  0  0  0  0
 12 13  1  0  0  0  0
 12 14  1  0  0  0  0
 14  5  2  0  0  0  0
 14 15  1  0  0  0  0
  3 16  1  0  0  0  0
 16 17  1  0  0  0  0
 17 18  1  0  0  0  0
 17 19  2  0  0  0  0
 19 20  1  0  0  0  0
 19 21  1  0  0  0  0
 21 22  1  0  0  0  0
 21 23  2  0  0  0  0
 23 24  1  0  0  0  0
 23 25  1  0  0  0  0
 25 16  2  0  0  0  0
 25 26  1  0  0  0  0
  2 27  1  0  0  0  0
  2 28  1  0  0  0  0
M  END
> <ChemID>
100001

> <source_casrn>
50-29-3

> <CAS>
50-29-3

> <SMILES>
ClC(Cl)(Cl)C(c1ccc(Cl)cc1)c1ccc(Cl)cc1

> <NAME>
P,P'-DDT

> <preferred_name>
p,p'-DDT

> <iupac>
1,1'-(2,2,2-trichloroethane-1,1-diyl)bis(4-chlorobenzene)

> <MPID>
97934

> <dsstox_substance_id>
DTXSID4020375

> <Canonical_QSARr>
ClC(Cl)(Cl)C(c1ccc(Cl)cc1)c1ccc(Cl)cc1

> <InChI_Code_QSARr>
InChI=1S/C14H9Cl5/c15-11-5-1-9(2-6-11)13(14(17,18)19)10-3-7-12(16)8-4-10/h1-8,13H

> <InChI Key_QSARr>
YVGGHNCTFXOJCH-UHFFFAOYSA-N

> <Salt_Solvent>
?

> <LogBCF>
4.29

$$$$
100002
  -INDIGO-08031719362D

 15 15  0  0  0  0  0  0  0  0999 V2000
   -1.3856    0.8000    0.0000 C   0  0  0  0  0  0  0  0  0  0  0  0
   -1.3856    2.4000    0.0000 O   0  0  0  0  0  0  0  0  0  0  0  0
   -2.7713   -0.0000    0.0000 O   0  0  0  0  0  0  0  0  0  0  0  0
   -4.1569    0.8000    0.0000 H   0  0  0  0  0  0  0  0  0  0  0  0
   -0.0001   -0.0000    0.0000 C   0  0  0  0  0  0  0  0  0  0  0  0
   -0.0001   -1.6000    0.0000 C   0  0  0  0  0  0  0  0  0  0  0  0
   -1.3856   -2.4000    0.0000 Cl  0  0  0  0  0  0  0  0  0  0  0  0
    1.3856   -2.4000    0.0000 C   0  0  0  0  0  0  0  0  0  0  0  0
    1.3856   -4.0000    0.0000 H   0  0  0  0  0  0  0  0  0  0  0  0
    2.7713   -1.6000    0.0000 C   0  0  0  0  0  0  0  0  0  0  0  0
    4.1569   -2.4000    0.0000 H   0  0  0  0  0  0  0  0  0  0  0  0
    2.7712   -0.0000    0.0000 C   0  0  0  0  0  0  0  0  0  0  0  0
    4.1569    0.8000    0.0000 H   0  0  0  0  0  0  0  0  0  0  0  0
    1.3856    0.8000    0.0000 C   0  0  0  0  0  0  0  0  0  0  0  0
    1.3856    2.4000    0.0000 Cl  0  0  0  0  0  0  0  0  0  0  0  0
  1  2  2  0  0  0  0
  1  3  1  0  0  0  0
  3  4  1  0  0  0  0
  1  5  1  0  0  0  0
  5  6  1  0  0  0  0
  6  7  1  0  0  0  0
  6  8  2  0  0  0  0
  8  9  1  0  0  0  0
  8 10  1  0  0  0  0
 10 11  1  0  0  0  0
 10 12  2  0  0  0  0
 12 13  1  0  0  0  0
 12 14  1  0  0  0  0
 14  5  2  0  0  0  0
 14 15  1  0  0  0  0
M  END
> <ChemID>
100002

> <source_casrn>
50-30-6

> <CAS>
50-30-6

> <SMILES>
OC(=O)c1c(Cl)cccc1Cl

> <NAME>
2,6-DICHLOROBENZOIC ACID

> <preferred_name>
2,6-Dichlorobenzoic acid

> <iupac>
2,6-dichlorobenzoic acid

> <MPID>
97935

> <dsstox_substance_id>
DTXSID0024979

> <Canonical_QSARr>
OC(=O)c1c(Cl)cccc1Cl

> <InChI_Code_QSARr>
InChI=1S/C7H4Cl2O2/c8-4-2-1-3-5(9)6(4)7(10)11/h1-3H,(H,10,11)

> <InChI Key_QSARr>
MRUDNSFOFOQZDA-UHFFFAOYSA-N

> <Salt_Solvent>
?

> <LogBCF>
0.26

$$$$
100003
  -INDIGO-08031719362D

 15 15  0  0  0  0  0  0  0  0999 V2000
   -1.3856    0.8000    0.0000 C   0  0  0  0  0  0  0  0  0  0  0  0
   -1.3856    2.4000    0.0000 O   0  0  0  0  0  0  0  0  0  0  0  0
   -0.0001   -0.0000    0.0000 C   0  0  0  0  0  0  0  0  0  0  0  0
   -0.0001   -1.6000    0.0000 C   0  0  0  0  0  0  0  0  0  0  0  0
   -1.3856   -2.4000    0.0000 Cl  0  0  0  0  0  0  0  0  0  0  0  0
    1.3856   -2.4000    0.0000 C   0  0  0  0  0  0  0  0  0  0  0  0
    1.3856   -4.0000    0.0000 Cl  0  0  0  0  0  0  0  0  0  0  0  0
    2.7713   -1.6000    0.0000 C   0  0  0  0  0  0  0  0  0  0  0  0
    4.1569   -2.4000    0.0000 H   0  0  0  0  0  0  0  0  0  0  0  0
    2.7712   -0.0000    0.0000 C   0  0  0  0  0  0  0  0  0  0  0  0
    4.1569    0.8000    0.0000 H   0  0  0  0  0  0  0  0  0  0  0  0
    1.3856    0.8000    0.0000 C   0  0  0  0  0  0  0  0  0  0  0  0
    1.3856    2.4000    0.0000 Cl  0  0  0  0  0  0  0  0  0  0  0  0
   -2.7713   -0.0000    0.0000 O   0  0  0  0  0  0  0  0  0  0  0  0
   -4.1569    0.8000    0.0000 H   0  0  0  0  0  0  0  0  0  0  0  0
  1  2  2  0  0  0  0
  1  3  1  0  0  0  0
  3  4  1  0  0  0  0
  4  5  1  0  0  0  0
  4  6  2  0  0  0  0
  6  7  1  0  0  0  0
  6  8  1  0  0  0  0
  8  9  1  0  0  0  0
  8 10  2  0  0  0  0
 10 11  1  0  0  0  0
 10 12  1  0  0  0  0
 12  3  2  0  0  0  0
 12 13  1  0  0  0  0
  1 14  1  0  0  0  0
 14 15  1  0  0  0  0
M  END
> <ChemID>
100003

> <source_casrn>
50-31-7

> <CAS>
50-31-7

> <SMILES>
OC(=O)c1c(Cl)c(Cl)ccc1Cl

> <NAME>
2,3,6-TRICHLOROBENZOIC ACID

> <preferred_name>
2,3,6-Trichlorobenzoic acid

> <iupac>
2,3,6-trichlorobenzoic acid

> <MPID>
97936

> <dsstox_substance_id>
DTXSID6040296

> <Canonical_QSARr>
OC(=O)c1c(Cl)c(Cl)ccc1Cl

> <InChI_Code_QSARr>
InChI=1S/C7H3Cl3O2/c8-3-1-2-4(9)6(10)5(3)7(11)12/h1-2H,(H,11,12)

> <InChI Key_QSARr>
XZIDTOHMJBOSOX-UHFFFAOYSA-N

> <Salt_Solvent>
?

> <LogBCF>
0.54

$$$$
100004
  -INDIGO-08031719362D

 17 17  0  0  0  0  0  0  0  0999 V2000
    1.3856   -2.4000    0.0000 O   0  0  0  0  0  0  0  0  0  0  0  0
    1.3856   -4.0000    0.0000 H   0  0  0  0  0  0  0  0  0  0  0  0
    0.0000   -1.6000    0.0000 C   0  0  0  0  0  0  0  0  0  0  0  0
    0.0000   -0.0000    0.0000 C   0  0  0  0  0  0  0  0  0  0  0  0
    1.3857    0.8000    0.0000 N   0  0  0  0  0  0  0  0  0  0  0  0
    1.3857    2.4000    0.0000 O   0  0  0  0  0  0  0  0  0  0  0  0
    2.7713   -0.0000    0.0000 O   0  0  0  0  0  0  0  0  0  0  0  0
   -1.3857    0.8000    0.0000 C   0  0  0  0  0  0  0  0  0  0  0  0
   -1.3856    2.4000    0.0000 H   0  0  0  0  0  0  0  0  0  0  0  0
   -2.7713   -0.0000    0.0000 C   0  0  0  0  0  0  0  0  0  0  0  0
   -4.1570    0.8000    0.0000 N   0  0  0  0  0  0  0  0  0  0  0  0
   -5.5426   -0.0000    0.0000 O   0  0  0  0  0  0  0  0  0  0  0  0
   -4.1570    2.4000    0.0000 O   0  0  0  0  0  0  0  0  0  0  0  0
   -2.7713   -1.6000    0.0000 C   0  0  0  0  0  0  0  0  0  0  0  0
   -4.1570   -2.4000    0.0000 H   0  0  0  0  0  0  0  0  0  0  0  0
   -1.3857   -2.4000    0.0000 C   0  0  0  0  0  0  0  0  0  0  0  0
   -1.3856   -4.0000    0.0000 H   0  0  0  0  0  0  0  0  0  0  0  0
  1  2  1  0  0  0  0
  1  3  1  0  0  0  0
  3  4  1  0  0  0  0
  4  5  1  0  0  0  0
  5  6  2  0  0  0  0
  5  7  1  0  0  0  0
  4  8  2  0  0  0  0
  8  9  1  0  0  0  0
  8 10  1  0  0  0  0
 10 11  1  0  0  0  0
 11 12  2  0  0  0  0
 11 13  1  0  0  0  0
 10 14  2  0  0  0  0
 14 15  1  0  0  0  0
 14 16  1  0  0  0  0
 16  3  2  0  0  0  0
 16 17  1  0  0  0  0
M  CHG  4   5   1   7  -1  11   1  13  -1
M  END
> <ChemID>
100004

> <source_casrn>
51-28-5

> <CAS>
51-28-5

> <SMILES>
[O-][N+](=O)c1cc(ccc1O)[N+]([O-])=O

> <NAME>
2,4-DINITROPHENOL

> <preferred_name>
2,4-Dinitrophenol

> <iupac>
2,4-dinitrophenol

> <MPID>
97937

> <dsstox_substance_id>
DTXSID0020523

> <Canonical_QSARr>
[O-][N+](=O)c1cc(ccc1O)[N+]([O-])=O

> <InChI_Code_QSARr>
InChI=1S/C6H4N2O5/c9-6-2-1-4(7(10)11)3-5(6)8(12)13/h1-3,9H

> <InChI Key_QSARr>
UFBJCMHMOXMLKC-UHFFFAOYSA-N

> <Salt_Solvent>
?

> <LogBCF>
0.57

$$$$
100006
  -INDIGO-08031719362D

 31 31  0  0  0  0  0  0  0  0999 V2000
   -5.5426    1.5999    0.0000 S   0  0  0  0  0  0  0  0  0  0  0  0
   -5.5426   -0.0001    0.0000 P   0  0  0  0  0  0  0  0  0  0  0  0
   -4.1569    0.8000    0.0000 O   0  0  0  0  0  0  0  0  0  0  0  0
   -2.7713    0.0001    0.0000 C   0  0  0  0  0  0  0  0  0  0  0  0
   -1.3856    0.8000    0.0000 C   0  0  0  0  0  0  0  0  0  0  0  0
   -1.3856    2.4000    0.0000 H   0  0  0  0  0  0  0  0  0  0  0  0
    0.0001    0.0001    0.0000 C   0  0  0  0  0  0  0  0  0  0  0  0
    1.3856    0.8000    0.0000 C   0  0  0  0  0  0  0  0  0  0  0  0
    2.7713    1.6001    0.0000 H   0  0  0  0  0  0  0  0  0  0  0  0
    1.3856    2.4000    0.0000 H   0  0  0  0  0  0  0  0  0  0  0  0
    2.7713    0.0001    0.0000 H   0  0  0  0  0  0  0  0  0  0  0  0
    0.0001   -1.5999    0.0000 C   0  0  0  0  0  0  0  0  0  0  0  0
    1.3856   -2.4000    0.0000 S   0  0  0  0  0  0  0  0  0  0  0  0
    1.3856   -4.0000    0.0000 C   0  0  0  0  0  0  0  0  0  0  0  0
    2.7713   -4.7999    0.0000 H   0  0  0  0  0  0  0  0  0  0  0  0
    1.3856   -5.6000    0.0000 H   0  0  0  0  0  0  0  0  0  0  0  0
    2.7713   -3.2001    0.0000 H   0  0  0  0  0  0  0  0  0  0  0  0
   -1.3856   -2.4000    0.0000 C   0  0  0  0  0  0  0  0  0  0  0  0
   -1.3856   -4.0000    0.0000 H   0  0  0  0  0  0  0  0  0  0  0  0
   -2.7713   -1.6001    0.0000 C   0  0  0  0  0  0  0  0  0  0  0  0
   -4.1569   -2.4000    0.0000 H   0  0  0  0  0  0  0  0  0  0  0  0
   -6.9283    0.8000    0.0000 O   0  0  0  0  0  0  0  0  0  0  0  0
   -8.3138   -0.0001    0.0000 C   0  0  0  0  0  0  0  0  0  0  0  0
   -9.6995    0.8000    0.0000 H   0  0  0  0  0  0  0  0  0  0  0  0
   -9.6995   -0.8000    0.0000 H   0  0  0  0  0  0  0  0  0  0  0  0
   -8.3138    1.5999    0.0000 H   0  0  0  0  0  0  0  0  0  0  0  0
   -6.9283   -0.8000    0.0000 O   0  0  0  0  0  0  0  0  0  0  0  0
   -6.9283   -2.4000    0.0000 C   0  0  0  0  0  0  0  0  0  0  0  0
   -6.9283   -4.0000    0.0000 H   0  0  0  0  0  0  0  0  0  0  0  0
   -8.3138   -3.2001    0.0000 H   0  0  0  0  0  0  0  0  0  0  0  0
   -5.5426   -3.2001    0.0000 H   0  0  0  0  0  0  0  0  0  0  0  0
  1  2  2  0  0  0  0
  2  3  1  0  0  0  0
  3  4  1  0  0  0  0
  4  5  1  0  0  0  0
  5  6  1  0  0  0  0
  5  7  2  0  0  0  0
  7  8  1  0  0  0  0
  8  9  1  0  0  0  0
  8 10  1  0  0  0  0
  8 11  1  0  0  0  0
  7 12  1  0  0  0  0
 12 13  1  0  0  0  0
 13 14  1  0  0  0  0
 14 15  1  0  0  0  0
 14 16  1  0  0  0  0
 14 17  1  0  0  0  0
 12 18  2  0  0  0  0
 18 19  1  0  0  0  0
 18 20  1  0  0  0  0
 20  4  2  0  0  0  0
 20 21  1  0  0  0  0
  2 22  1  0  0  0  0
 22 23  1  0  0  0  0
 23 24  1  0  0  0  0
 23 25  1  0  0  0  0
 23 26  1  0  0  0  0
  2 27  1  0  0  0  0
 27 28  1  0  0  0  0
 28 29  1  0  0  0  0
 28 30  1  0  0  0  0
 28 31  1  0  0  0  0
M  END
> <ChemID>
100006

> <source_casrn>
55-38-9

> <CAS>
55-38-9

> <SMILES>
Cc1cc(ccc1SC)OP(=S)(OC)OC

> <NAME>
FENTHION

> <preferred_name>
Fenthion

> <iupac>
O,O-dimethyl O-[3-methyl-4-(methylsulfanyl)phenyl] phosphorothioate

> <MPID>
97939

> <dsstox_substance_id>
DTXSID8020620

> <Canonical_QSARr>
Cc1cc(ccc1SC)OP(=S)(OC)OC

> <InChI_Code_QSARr>
InChI=1S/C10H15O3PS2/c1-8-7-9(5-6-10(8)16-4)13-14(15,11-2)12-3/h5-7H,1-4H3

> <InChI Key_QSARr>
PNVJTZOFSHSLTO-UHFFFAOYSA-N

> <Salt_Solvent>
?

> <LogBCF>
2.52

$$$$
100007
  -INDIGO-08031719362D

  5  4  0  0  0  0  0  0  0  0999 V2000
   -0.8000   -1.3856    0.0000 Cl  0  0  0  0  0  0  0  0  0  0  0  0
    0.0000    0.0000    0.0000 C   0  0  0  0  0  0  0  0  0  0  0  0
    0.8000    1.3856    0.0000 Cl  0  0  0  0  0  0  0  0  0  0  0  0
   -1.3856    0.8000    0.0000 Cl  0  0  0  0  0  0  0  0  0  0  0  0
    1.3856   -0.8000    0.0000 Cl  0  0  0  0  0  0  0  0  0  0  0  0
  1  2  1  0  0  0  0
  2  3  1  0  0  0  0
  2  4  1  0  0  0  0
  2  5  1  0  0  0  0
M  END
> <ChemID>
100007

> <source_casrn>
56-23-5

> <CAS>
56-23-5

> <SMILES>
ClC(Cl)(Cl)Cl

> <NAME>
CARBON TETRACHLORIDE

> <preferred_name>
Carbon tetrachloride

> <iupac>
tetrachloromethane

> <MPID>
97940

> <dsstox_substance_id>
DTXSID8020250

> <Canonical_QSARr>
ClC(Cl)(Cl)Cl

> <InChI_Code_QSARr>
InChI=1S/CCl4/c2-1(3,4)5

> <InChI Key_QSARr>
VZGDMQKNWNREIO-UHFFFAOYSA-N

> <Salt_Solvent>
?

> <LogBCF>
0.87

$$$$
100008
  -INDIGO-08031719362D

 32 32  0  0  0  0  0  0  0  0999 V2000
    0.0000    1.6000    0.0000 S   0  0  0  0  0  0  0  0  0  0  0  0
    0.0000    0.0000    0.0000 P   0  0  0  0  0  0  0  0  0  0  0  0
    1.3857    0.8000    0.0000 O   0  0  0  0  0  0  0  0  0  0  0  0
    2.7713    0.0000    0.0000 C   0  0  0  0  0  0  0  0  0  0  0  0
    2.7713   -1.6000    0.0000 C   0  0  0  0  0  0  0  0  0  0  0  0
    1.3857   -2.4000    0.0000 H   0  0  0  0  0  0  0  0  0  0  0  0
    4.1570   -2.4000    0.0000 C   0  0  0  0  0  0  0  0  0  0  0  0
    4.1570   -4.0000    0.0000 H   0  0  0  0  0  0  0  0  0  0  0  0
    5.5426   -1.6000    0.0000 C   0  0  0  0  0  0  0  0  0  0  0  0
    6.9283   -2.4000    0.0000 N   0  0  0  0  0  0  0  0  0  0  0  0
    8.3138   -1.6000    0.0000 O   0  0  0  0  0  0  0  0  0  0  0  0
    6.9283   -4.0000    0.0000 O   0  0  0  0  0  0  0  0  0  0  0  0
    5.5426    0.0000    0.0000 C   0  0  0  0  0  0  0  0  0  0  0  0
    6.9283    0.8000    0.0000 H   0  0  0  0  0  0  0  0  0  0  0  0
    4.1570    0.8000    0.0000 C   0  0  0  0  0  0  0  0  0  0  0  0
    4.1570    2.4000    0.0000 H   0  0  0  0  0  0  0  0  0  0  0  0
   -1.3855    0.8000    0.0000 O   0  0  0  0  0  0  0  0  0  0  0  0
   -2.7713    0.0000    0.0000 C   0  0  0  0  0  0  0  0  0  0  0  0
   -2.1590   -1.4782    0.0000 H   0  0  0  0  0  0  0  0  0  0  0  0
   -3.3836   -1.4782    0.0000 H   0  0  0  0  0  0  0  0  0  0  0  0
   -4.1568    0.8000    0.0000 C   0  0  0  0  0  0  0  0  0  0  0  0
   -5.5426    1.6000    0.0000 H   0  0  0  0  0  0  0  0  0  0  0  0
   -5.5426    0.0000    0.0000 H   0  0  0  0  0  0  0  0  0  0  0  0
   -4.1568    2.4000    0.0000 H   0  0  0  0  0  0  0  0  0  0  0  0
   -1.3855   -0.8000    0.0000 O   0  0  0  0  0  0  0  0  0  0  0  0
   -1.3855   -2.4000    0.0000 C   0  0  0  0  0  0  0  0  0  0  0  0
    0.2007   -2.6089    0.0000 H   0  0  0  0  0  0  0  0  0  0  0  0
   -0.4117   -3.6694    0.0000 H   0  0  0  0  0  0  0  0  0  0  0  0
   -2.7713   -3.2000    0.0000 C   0  0  0  0  0  0  0  0  0  0  0  0
   -4.1568   -4.0000    0.0000 H   0  0  0  0  0  0  0  0  0  0  0  0
   -2.7713   -4.8000    0.0000 H   0  0  0  0  0  0  0  0  0  0  0  0
   -4.1568   -2.4000    0.0000 H   0  0  0  0  0  0  0  0  0  0  0  0
  1  2  2  0  0  0  0
  2  3  1  0  0  0  0
  3  4  1  0  0  0  0
  4  5  1  0  0  0  0
  5  6  1  0  0  0  0
  5  7  2  0  0  0  0
  7  8  1  0  0  0  0
  7  9  1  0  0  0  0
  9 10  1  0  0  0  0
 10 11  2  0  0  0  0
 10 12  1  0  0  0  0
  9 13  2  0  0  0  0
 13 14  1  0  0  0  0
 13 15  1  0  0  0  0
 15  4  2  0  0  0  0
 15 16  1  0  0  0  0
  2 17  1  0  0  0  0
 17 18  1  0  0  0  0
 18 19  1  0  0  0  0
 18 20  1  0  0  0  0
 18 21  1  0  0  0  0
 21 22  1  0  0  0  0
 21 23  1  0  0  0  0
 21 24  1  0  0  0  0
  2 25  1  0  0  0  0
 25 26  1  0  0  0  0
 26 27  1  0  0  0  0
 26 28  1  0  0  0  0
 26 29  1  0  0  0  0
 29 30  1  0  0  0  0
 29 31  1  0  0  0  0
 29 32  1  0  0  0  0
M  CHG  2  10   1  12  -1
M  END
> <ChemID>
100008

> <source_casrn>
56-38-2

> <CAS>
56-38-2

> <SMILES>
CCOP(=S)(Oc1ccc(cc1)[N+]([O-])=O)OCC

> <NAME>
PARATHION

> <preferred_name>
Parathion

> <iupac>
O,O-diethyl O-(4-nitrophenyl) phosphorothioate

> <MPID>
97941

> <dsstox_substance_id>
DTXSID7021100

> <Canonical_QSARr>
CCOP(=S)(Oc1ccc(cc1)[N+]([O-])=O)OCC

> <InChI_Code_QSARr>
InChI=1S/C10H14NO5PS/c1-3-14-17(18,15-4-2)16-10-7-5-9(6-8-10)11(12)13/h5-8H,3-4H2,1-2H3

> <InChI Key_QSARr>
LCCNCVORNKJIRZ-UHFFFAOYSA-N

> <Salt_Solvent>
?

> <LogBCF>
1.99

$$$$
100011
  -INDIGO-08031719362D

 15 14  0  0  0  0  0  0  0  0999 V2000
   -0.8000   -1.3856    0.0000 C   0  0  0  0  0  0  0  0  0  0  0  0
    0.0000    0.0000    0.0000 C   0  0  0  0  0  0  0  0  0  0  0  0
    1.3856   -0.8000    0.0000 O   0  0  0  0  0  0  0  0  0  0  0  0
    1.3856   -2.4000    0.0000 H   0  0  0  0  0  0  0  0  0  0  0  0
    0.8000    1.3856    0.0000 C   0  0  0  0  0  0  0  0  0  0  0  0
    1.6000    2.7713    0.0000 H   0  0  0  0  0  0  0  0  0  0  0  0
    2.4000    1.3856    0.0000 H   0  0  0  0  0  0  0  0  0  0  0  0
    0.0000    2.7713    0.0000 H   0  0  0  0  0  0  0  0  0  0  0  0
   -1.3856    0.8000    0.0000 C   0  0  0  0  0  0  0  0  0  0  0  0
   -2.7713    1.6000    0.0000 H   0  0  0  0  0  0  0  0  0  0  0  0
   -2.7713    0.0000    0.0000 H   0  0  0  0  0  0  0  0  0  0  0  0
   -1.3856    2.4000    0.0000 H   0  0  0  0  0  0  0  0  0  0  0  0
   -1.6000   -2.7713    0.0000 Cl  0  0  0  0  0  0  0  0  0  0  0  0
    0.0000   -2.7713    0.0000 Cl  0  0  0  0  0  0  0  0  0  0  0  0
   -2.4000   -1.3856    0.0000 Cl  0  0  0  0  0  0  0  0  0  0  0  0
  1  2  1  0  0  0  0
  2  3  1  0  0  0  0
  3  4  1  0  0  0  0
  2  5  1  0  0  0  0
  5  6  1  0  0  0  0
  5  7  1  0  0  0  0
  5  8  1  0  0  0  0
  2  9  1  0  0  0  0
  9 10  1  0  0  0  0
  9 11  1  0  0  0  0
  9 12  1  0  0  0  0
  1 13  1  0  0  0  0
  1 14  1  0  0  0  0
  1 15  1  0  0  0  0
M  END
> <ChemID>
100011

> <source_casrn>
57-15-8

> <CAS>
57-15-8

> <SMILES>
OC(C(Cl)(Cl)Cl)(C)C

> <NAME>
B,B,B-TRICHLORO-T-BUTANOL

> <preferred_name>
1,1,1-Trichloro-2-methyl-2-propanol

> <iupac>
1,1,1-trichloro-2-methylpropan-2-ol

> <MPID>
97943

> <dsstox_substance_id>
DTXSID1041217

> <Canonical_QSARr>
CC(C)(O)C(Cl)(Cl)Cl

> <InChI_Code_QSARr>
InChI=1S/C4H7Cl3O/c1-3(2,8)4(5,6)7/h8H,1-2H3

> <InChI Key_QSARr>
OSASVXMJTNOKOY-UHFFFAOYSA-N

> <Salt_Solvent>
?

> <LogBCF>
0.23

$$$$
100012
  -INDIGO-08031719362D

 24 26  0  0  0  0  0  0  0  0999 V2000
    2.2420   -1.2944    0.0000 C   0  0  0  0  0  0  0  0  0  0  0  0
    3.6277   -0.4944    0.0000 H   0  0  0  0  0  0  0  0  0  0  0  0
    1.0530   -2.3650    0.0000 C   0  0  0  0  0  0  0  0  0  0  0  0
    2.2420   -3.4356    0.0000 H   0  0  0  0  0  0  0  0  0  0  0  0
    0.1125   -3.6595    0.0000 H   0  0  0  0  0  0  0  0  0  0  0  0
   -0.3327   -1.5651    0.0000 C   0  0  0  0  0  0  0  0  0  0  0  0
   -0.6653   -3.1301    0.0000 H   0  0  0  0  0  0  0  0  0  0  0  0
    0.0000    0.0000    0.0000 C   0  0  0  0  0  0  0  0  0  0  0  0
    0.3327    1.5651    0.0000 H   0  0  0  0  0  0  0  0  0  0  0  0
   -1.3856    0.8000    0.0000 C   0  0  0  0  0  0  0  0  0  0  0  0
   -2.9769    0.6327    0.0000 C   0  0  0  0  0  0  0  0  0  0  0  0
   -4.0475    1.8218    0.0000 Cl  0  0  0  0  0  0  0  0  0  0  0  0
   -3.3096   -0.9322    0.0000 C   0  0  0  0  0  0  0  0  0  0  0  0
   -4.7712   -1.5831    0.0000 Cl  0  0  0  0  0  0  0  0  0  0  0  0
   -1.9239   -1.7323    0.0000 C   0  0  0  0  0  0  0  0  0  0  0  0
   -2.2566   -3.2974    0.0000 Cl  0  0  0  0  0  0  0  0  0  0  0  0
   -2.5747   -0.2706    0.0000 C   0  0  0  0  0  0  0  0  0  0  0  0
   -4.1504   -0.5484    0.0000 Cl  0  0  0  0  0  0  0  0  0  0  0  0
   -3.9011    0.6241    0.0000 Cl  0  0  0  0  0  0  0  0  0  0  0  0
   -1.0529    2.3650    0.0000 Cl  0  0  0  0  0  0  0  0  0  0  0  0
    1.5912    0.1672    0.0000 C   0  0  0  0  0  0  0  0  0  0  0  0
    1.2585    1.7323    0.0000 H   0  0  0  0  0  0  0  0  0  0  0  0
    3.1130    0.6617    0.0000 Cl  0  0  0  0  0  0  0  0  0  0  0  0
    3.1824   -2.5889    0.0000 Cl  0  0  0  0  0  0  0  0  0  0  0  0
  1  2  1  0  0  0  0
  1  3  1  0  0  0  0
  3  4  1  0  0  0  0
  3  5  1  0  0  0  0
  3  6  1  0  0  0  0
  6  7  1  0  0  0  0
  6  8  1  0  0  0  0
  8  9  1  0  0  0  0
  8 10  1  0  0  0  0
 10 11  1  0  0  0  0
 11 12  1  0  0  0  0
 11 13  2  0  0  0  0
 13 14  1  0  0  0  0
 13 15  1  0  0  0  0
 15  6  1  0  0  0  0
 15 16  1  0  0  0  0
 15 17  1  0  0  0  0
 17 10  1  0  0  0  0
 17 18  1  0  0  0  0
 17 19  1  0  0  0  0
 10 20  1  0  0  0  0
  8 21  1  0  0  0  0
 21  1  1  0  0  0  0
 21 22  1  0  0  0  0
 21 23  1  0  0  0  0
  1 24  1  0  0  0  0
M  END
> <ChemID>
100012

> <source_casrn>
57-74-9|5103-71-9|12789-03-6

> <CAS>
57-74-9|5103-71-9

> <SMILES>
ClC1(Cl)C2(Cl)C3CC(Cl)C(Cl)C3C1(Cl)C(Cl)=C2Cl

> <NAME>
CHLORDANE, ALPHA-CHLORDANE

> <preferred_name>
Chlordane

> <iupac>
C10H6Cl8

> <MPID>
97944|98439|98457

> <dsstox_substance_id>
DTXSID7020267|DTXSID6038326

> <Canonical_QSARr>
ClC1(Cl)C2(Cl)C3CC(Cl)C(Cl)C3C1(Cl)C(Cl)=C2Cl

> <InChI_Code_QSARr>
InChI=1S/C10H6Cl8/c11-3-1-2-4(5(3)12)9(16)7(14)6(13)8(2,15)10(9,17)18/h2-5H,1H2

> <InChI Key_QSARr>
BIWJNBZANLAXMG-UHFFFAOYSA-N

> <Salt_Solvent>
?

> <LogBCF>
4.35333333333333

$$$$
100013
  -INDIGO-08031719362D

 18 18  0  0  0  0  0  0  0  0999 V2000
    0.0000    0.0000    0.0000 C   0  0  0  0  0  0  0  0  0  0  0  0
    1.5757   -0.2778    0.0000 H   0  0  0  0  0  0  0  0  0  0  0  0
   -1.3856    0.8000    0.0000 C   0  0  0  0  0  0  0  0  0  0  0  0
   -0.3571    2.0257    0.0000 H   0  0  0  0  0  0  0  0  0  0  0  0
   -2.4141    2.0257    0.0000 Cl  0  0  0  0  0  0  0  0  0  0  0  0
   -2.7713    0.0000    0.0000 C   0  0  0  0  0  0  0  0  0  0  0  0
   -3.3185    1.5035    0.0000 H   0  0  0  0  0  0  0  0  0  0  0  0
   -4.3470   -0.2778    0.0000 Cl  0  0  0  0  0  0  0  0  0  0  0  0
   -2.7713   -1.6000    0.0000 C   0  0  0  0  0  0  0  0  0  0  0  0
   -4.3470   -1.3222    0.0000 H   0  0  0  0  0  0  0  0  0  0  0  0
   -3.3185   -3.1035    0.0000 Cl  0  0  0  0  0  0  0  0  0  0  0  0
   -1.3856   -2.4000    0.0000 C   0  0  0  0  0  0  0  0  0  0  0  0
   -2.4141   -3.6257    0.0000 H   0  0  0  0  0  0  0  0  0  0  0  0
   -0.3571   -3.6257    0.0000 Cl  0  0  0  0  0  0  0  0  0  0  0  0
    0.0000   -1.6000    0.0000 C   0  0  0  0  0  0  0  0  0  0  0  0
    0.5472   -3.1035    0.0000 H   0  0  0  0  0  0  0  0  0  0  0  0
    1.5757   -1.3222    0.0000 Cl  0  0  0  0  0  0  0  0  0  0  0  0
    0.5472    1.5035    0.0000 Cl  0  0  0  0  0  0  0  0  0  0  0  0
  1  2  1  0  0  0  0
  1  3  1  0  0  0  0
  3  4  1  0  0  0  0
  3  5  1  0  0  0  0
  3  6  1  0  0  0  0
  6  7  1  0  0  0  0
  6  8  1  0  0  0  0
  6  9  1  0  0  0  0
  9 10  1  0  0  0  0
  9 11  1  0  0  0  0
  9 12  1  0  0  0  0
 12 13  1  0  0  0  0
 12 14  1  0  0  0  0
 12 15  1  0  0  0  0
 15  1  1  0  0  0  0
 15 16  1  0  0  0  0
 15 17  1  0  0  0  0
  1 18  1  0  0  0  0
M  END
> <ChemID>
100013

> <source_casrn>
58-89-9|319-84-6|319-85-7|319-86-8|608-73-1

> <CAS>
58-89-9|319-84-6|319-85-7|319-86-8|608-73-1

> <SMILES>
Cl[C@@H]1[C@@H](Cl)[C@H](Cl)[C@H](Cl)[C@@H](Cl)[C@@H]1Cl |&1:1,2,4,6,8,10|

> <NAME>
GAMMA-HEXACHLOROCYCLOHEXANE, ALPHA-HEXACHLOROCYCLOHEXANE, BETA-HEXACHLOROCYCLOHEXANE, DELTA-HEXACHLOROCYCLOHEXANE, 1,2,3,4,5,6-HEXACHLOROCYCLOHEXANE (mixture)

> <preferred_name>
Lindane

> <iupac>
1,2,3,4,5,6-hexachlorocyclohexane

> <MPID>
97945|98262|98263|98264|98308

> <dsstox_substance_id>
DTXSID2020686|DTXSID2020684|DTXSID7020685|DTXSID5024134|DTXSID7020687

> <Canonical_QSARr>
ClC1C(Cl)C(Cl)C(Cl)C(Cl)C1Cl

> <InChI_Code_QSARr>
InChI=1S/C6H6Cl6/c7-1-2(8)4(10)6(12)5(11)3(1)9/h1-6H

> <InChI Key_QSARr>
JLYXXMFPNIAWKQ-UHFFFAOYSA-N

> <Salt_Solvent>
?

> <LogBCF>
3.0400000000000005

$$$$
100015
  -INDIGO-08031719362D

 16 16  0  0  0  0  0  0  0  0999 V2000
    3.2000    2.7713    0.0000 O   0  0  0  0  0  0  0  0  0  0  0  0
    4.8000    2.7713    0.0000 H   0  0  0  0  0  0  0  0  0  0  0  0
    2.4001    1.3856    0.0000 C   0  0  0  0  0  0  0  0  0  0  0  0
    0.7999    1.3856    0.0000 C   0  0  0  0  0  0  0  0  0  0  0  0
    0.0000    2.7713    0.0000 H   0  0  0  0  0  0  0  0  0  0  0  0
    0.0000    0.0000    0.0000 C   0  0  0  0  0  0  0  0  0  0  0  0
   -1.6000    0.0000    0.0000 C   0  0  0  0  0  0  0  0  0  0  0  0
   -3.2000    0.0000    0.0000 H   0  0  0  0  0  0  0  0  0  0  0  0
   -2.4001   -1.3856    0.0000 H   0  0  0  0  0  0  0  0  0  0  0  0
   -2.4001    1.3856    0.0000 H   0  0  0  0  0  0  0  0  0  0  0  0
    0.8001   -1.3856    0.0000 C   0  0  0  0  0  0  0  0  0  0  0  0
    0.0000   -2.7713    0.0000 Cl  0  0  0  0  0  0  0  0  0  0  0  0
    2.4001   -1.3856    0.0000 C   0  0  0  0  0  0  0  0  0  0  0  0
    3.2000   -2.7713    0.0000 H   0  0  0  0  0  0  0  0  0  0  0  0
    3.2000   -0.0000    0.0000 C   0  0  0  0  0  0  0  0  0  0  0  0
    4.8000    0.0000    0.0000 H   0  0  0  0  0  0  0  0  0  0  0  0
  1  2  1  0  0  0  0
  1  3  1  0  0  0  0
  3  4  1  0  0  0  0
  4  5  1  0  0  0  0
  4  6  2  0  0  0  0
  6  7  1  0  0  0  0
  7  8  1  0  0  0  0
  7  9  1  0  0  0  0
  7 10  1  0  0  0  0
  6 11  1  0  0  0  0
 11 12  1  0  0  0  0
 11 13  2  0  0  0  0
 13 14  1  0  0  0  0
 13 15  1  0  0  0  0
 15  3  2  0  0  0  0
 15 16  1  0  0  0  0
M  END
> <ChemID>
100015

> <source_casrn>
59-50-7

> <CAS>
59-50-7

> <SMILES>
Cc1cc(O)ccc1Cl

> <NAME>
3-METHYL-4-CHLOROPHENOL

> <preferred_name>
4-Chloro-3-methylphenol

> <iupac>
4-chloro-3-methylphenol

> <MPID>
97947

> <dsstox_substance_id>
DTXSID4021717

> <Canonical_QSARr>
Cc1cc(O)ccc1Cl

> <InChI_Code_QSARr>
InChI=1S/C7H7ClO/c1-5-4-6(9)2-3-7(5)8/h2-4,9H,1H3

> <InChI Key_QSARr>
CFKMVGJGLGKFKI-UHFFFAOYSA-N

> <Salt_Solvent>
?

> <LogBCF>
0.93

$$$$
100016
  -INDIGO-08031719362D

 15 14  0  0  0  0  0  0  0  0999 V2000
    1.3857    0.8000    0.0000 O   0  0  0  0  0  0  0  0  0  0  0  0
    2.7713    0.0000    0.0000 C   0  0  0  0  0  0  0  0  0  0  0  0
    2.1590   -1.4782    0.0000 H   0  0  0  0  0  0  0  0  0  0  0  0
    3.3835   -1.4782    0.0000 H   0  0  0  0  0  0  0  0  0  0  0  0
    4.1569    0.8000    0.0000 C   0  0  0  0  0  0  0  0  0  0  0  0
    5.5426    1.6000    0.0000 H   0  0  0  0  0  0  0  0  0  0  0  0
    5.5426    0.0000    0.0000 H   0  0  0  0  0  0  0  0  0  0  0  0
    4.1569    2.4000    0.0000 H   0  0  0  0  0  0  0  0  0  0  0  0
    0.0000    0.0000    0.0000 C   0  0  0  0  0  0  0  0  0  0  0  0
   -0.6122   -1.4782    0.0000 H   0  0  0  0  0  0  0  0  0  0  0  0
    0.6122   -1.4782    0.0000 H   0  0  0  0  0  0  0  0  0  0  0  0
   -1.3856    0.8000    0.0000 C   0  0  0  0  0  0  0  0  0  0  0  0
   -2.7713    1.6000    0.0000 H   0  0  0  0  0  0  0  0  0  0  0  0
   -2.7713    0.0000    0.0000 H   0  0  0  0  0  0  0  0  0  0  0  0
   -1.3856    2.4000    0.0000 H   0  0  0  0  0  0  0  0  0  0  0  0
  1  2  1  0  0  0  0
  2  3  1  0  0  0  0
  2  4  1  0  0  0  0
  2  5  1  0  0  0  0
  5  6  1  0  0  0  0
  5  7  1  0  0  0  0
  5  8  1  0  0  0  0
  1  9  1  0  0  0  0
  9 10  1  0  0  0  0
  9 11  1  0  0  0  0
  9 12  1  0  0  0  0
 12 13  1  0  0  0  0
 12 14  1  0  0  0  0
 12 15  1  0  0  0  0
M  END
> <ChemID>
100016

> <source_casrn>
60-29-7

> <CAS>
60-29-7

> <SMILES>
CCOCC

> <NAME>
DIETHYL ETHER

> <preferred_name>
Diethyl ether

> <iupac>
diethyl ether

> <MPID>
97948

> <dsstox_substance_id>
DTXSID3021720

> <Canonical_QSARr>
CCOCC

> <InChI_Code_QSARr>
InChI=1S/C4H10O/c1-3-5-4-2/h3-4H2,1-2H3

> <InChI Key_QSARr>
RTZKZFJDLAIYFH-UHFFFAOYSA-N

> <Salt_Solvent>
?

> <LogBCF>
0.73

$$$$
100017
  -INDIGO-08031719362D

 24 23  0  0  0  0  0  0  0  0999 V2000
    0.0000   -1.5999    0.0000 S   0  0  0  0  0  0  0  0  0  0  0  0
    0.0000    0.0001    0.0000 P   0  0  0  0  0  0  0  0  0  0  0  0
    1.3857    0.8000    0.0000 S   0  0  0  0  0  0  0  0  0  0  0  0
    2.7714    0.0001    0.0000 C   0  0  0  0  0  0  0  0  0  0  0  0
    3.3835   -1.4782    0.0000 H   0  0  0  0  0  0  0  0  0  0  0  0
    2.1590   -1.4782    0.0000 H   0  0  0  0  0  0  0  0  0  0  0  0
    4.1569    0.8000    0.0000 C   0  0  0  0  0  0  0  0  0  0  0  0
    4.1569    2.4000    0.0000 O   0  0  0  0  0  0  0  0  0  0  0  0
    5.5425    0.0001    0.0000 N   0  0  0  0  0  0  0  0  0  0  0  0
    5.5425   -1.5999    0.0000 H   0  0  0  0  0  0  0  0  0  0  0  0
    6.9282    0.8000    0.0000 C   0  0  0  0  0  0  0  0  0  0  0  0
    8.3138    1.6001    0.0000 H   0  0  0  0  0  0  0  0  0  0  0  0
    8.3138    0.0001    0.0000 H   0  0  0  0  0  0  0  0  0  0  0  0
    6.9282    2.4000    0.0000 H   0  0  0  0  0  0  0  0  0  0  0  0
   -1.3856   -0.8000    0.0000 O   0  0  0  0  0  0  0  0  0  0  0  0
   -1.3856   -2.4000    0.0000 C   0  0  0  0  0  0  0  0  0  0  0  0
   -1.3856   -4.0000    0.0000 H   0  0  0  0  0  0  0  0  0  0  0  0
   -2.7713   -3.2001    0.0000 H   0  0  0  0  0  0  0  0  0  0  0  0
    0.0000   -3.2001    0.0000 H   0  0  0  0  0  0  0  0  0  0  0  0
   -1.3856    0.8000    0.0000 O   0  0  0  0  0  0  0  0  0  0  0  0
   -1.3856    2.4000    0.0000 C   0  0  0  0  0  0  0  0  0  0  0  0
   -1.3856    4.0000    0.0000 H   0  0  0  0  0  0  0  0  0  0  0  0
   -2.7713    3.2001    0.0000 H   0  0  0  0  0  0  0  0  0  0  0  0
    0.0000    3.2001    0.0000 H   0  0  0  0  0  0  0  0  0  0  0  0
  1  2  2  0  0  0  0
  2  3  1  0  0  0  0
  3  4  1  0  0  0  0
  4  5  1  0  0  0  0
  4  6  1  0  0  0  0
  4  7  1  0  0  0  0
  7  8  2  0  0  0  0
  7  9  1  0  0  0  0
  9 10  1  0  0  0  0
  9 11  1  0  0  0  0
 11 12  1  0  0  0  0
 11 13  1  0  0  0  0
 11 14  1  0  0  0  0
  2 15  1  0  0  0  0
 15 16  1  0  0  0  0
 16 17  1  0  0  0  0
 16 18  1  0  0  0  0
 16 19  1  0  0  0  0
  2 20  1  0  0  0  0
 20 21  1  0  0  0  0
 21 22  1  0  0  0  0
 21 23  1  0  0  0  0
 21 24  1  0  0  0  0
M  END
> <ChemID>
100017

> <source_casrn>
60-51-5

> <CAS>
60-51-5

> <SMILES>
CNC(=O)CSP(=S)(OC)OC

> <NAME>
DIMETHOATE

> <preferred_name>
Dimethoate

> <iupac>
O,O-dimethyl S-[2-(methylamino)-2-oxoethyl] phosphorodithioate

> <MPID>
97949

> <dsstox_substance_id>
DTXSID7020479

> <Canonical_QSARr>
CNC(=O)CSP(=S)(OC)OC

> <InChI_Code_QSARr>
InChI=1S/C5H12NO3PS2/c1-6-5(7)4-12-10(11,8-2)9-3/h4H2,1-3H3,(H,6,7)

> <InChI Key_QSARr>
MCWXGJITAZMZEV-UHFFFAOYSA-N

> <Salt_Solvent>
?

> <LogBCF>
0.2

$$$$
100019
  -INDIGO-08031719362D

 10 10  0  0  0  0  0  0  0  0999 V2000
    0.0000    0.0000    0.0000 C   0  0  0  0  0  0  0  0  0  0  0  0
    1.0706    1.1890    0.0000 N   0  0  0  0  0  0  0  0  0  0  0  0
    2.5322    0.5382    0.0000 C   0  0  0  0  0  0  0  0  0  0  0  0
    3.9179    1.3383    0.0000 H   0  0  0  0  0  0  0  0  0  0  0  0
    2.3650   -1.0530    0.0000 N   0  0  0  0  0  0  0  0  0  0  0  0
    3.5541   -2.1236    0.0000 H   0  0  0  0  0  0  0  0  0  0  0  0
    0.8000   -1.3856    0.0000 N   0  0  0  0  0  0  0  0  0  0  0  0
   -1.5912    0.1673    0.0000 N   0  0  0  0  0  0  0  0  0  0  0  0
   -2.5317   -1.1272    0.0000 H   0  0  0  0  0  0  0  0  0  0  0  0
   -2.2421    1.6289    0.0000 H   0  0  0  0  0  0  0  0  0  0  0  0
  1  2  1  0  0  0  0
  2  3  2  0  0  0  0
  3  4  1  0  0  0  0
  3  5  1  0  0  0  0
  5  6  1  0  0  0  0
  5  7  1  0  0  0  0
  7  1  2  0  0  0  0
  1  8  1  0  0  0  0
  8  9  1  0  0  0  0
  8 10  1  0  0  0  0
M  END
> <ChemID>
100019

> <source_casrn>
61-82-5

> <CAS>
61-82-5

> <SMILES>
Nc1[n]c[nH][n]1

> <NAME>
AMITROLE

> <preferred_name>
Amitrole

> <iupac>
1H-1,2,4-triazol-3-amine

> <MPID>
97951

> <dsstox_substance_id>
DTXSID0020076

> <Canonical_QSARr>
Nc1[n]c[nH][n]1

> <InChI_Code_QSARr>
InChI=1S/C2H4N4/c3-2-4-1-5-6-2/h1H,(H3,3,4,5,6)

> <InChI Key_QSARr>
KLSJWNVTNUYHDU-UHFFFAOYSA-N

> <Salt_Solvent>
?

> <LogBCF>
0.49

$$$$
100020
  -INDIGO-08031719362D

 26 26  0  0  0  0  0  0  0  0999 V2000
    4.1570    0.8000    0.0000 C   0  0  0  0  0  0  0  0  0  0  0  0
    5.5426    1.6000    0.0000 H   0  0  0  0  0  0  0  0  0  0  0  0
    5.5426   -0.0000    0.0000 H   0  0  0  0  0  0  0  0  0  0  0  0
    4.1570    2.4000    0.0000 H   0  0  0  0  0  0  0  0  0  0  0  0
    2.7713   -0.0000    0.0000 C   0  0  0  0  0  0  0  0  0  0  0  0
    2.7713   -1.6000    0.0000 O   0  0  0  0  0  0  0  0  0  0  0  0
    1.3857    0.8000    0.0000 N   0  0  0  0  0  0  0  0  0  0  0  0
    1.3857    2.4000    0.0000 H   0  0  0  0  0  0  0  0  0  0  0  0
    0.0000   -0.0000    0.0000 C   0  0  0  0  0  0  0  0  0  0  0  0
    0.0000   -1.6000    0.0000 C   0  0  0  0  0  0  0  0  0  0  0  0
    1.3857   -2.4000    0.0000 H   0  0  0  0  0  0  0  0  0  0  0  0
   -1.3855   -2.4000    0.0000 C   0  0  0  0  0  0  0  0  0  0  0  0
   -1.3855   -4.0000    0.0000 H   0  0  0  0  0  0  0  0  0  0  0  0
   -2.7713   -1.6000    0.0000 C   0  0  0  0  0  0  0  0  0  0  0  0
   -4.1568   -2.4000    0.0000 O   0  0  0  0  0  0  0  0  0  0  0  0
   -5.5426   -1.6000    0.0000 C   0  0  0  0  0  0  0  0  0  0  0  0
   -4.9302   -0.1218    0.0000 H   0  0  0  0  0  0  0  0  0  0  0  0
   -6.1549   -0.1218    0.0000 H   0  0  0  0  0  0  0  0  0  0  0  0
   -6.9281   -2.4000    0.0000 C   0  0  0  0  0  0  0  0  0  0  0  0
   -8.3138   -3.2000    0.0000 H   0  0  0  0  0  0  0  0  0  0  0  0
   -8.3138   -1.6000    0.0000 H   0  0  0  0  0  0  0  0  0  0  0  0
   -6.9281   -4.0000    0.0000 H   0  0  0  0  0  0  0  0  0  0  0  0
   -2.7713   -0.0000    0.0000 C   0  0  0  0  0  0  0  0  0  0  0  0
   -4.1568    0.8000    0.0000 H   0  0  0  0  0  0  0  0  0  0  0  0
   -1.3855    0.8000    0.0000 C   0  0  0  0  0  0  0  0  0  0  0  0
   -1.3855    2.4000    0.0000 H   0  0  0  0  0  0  0  0  0  0  0  0
  1  2  1  0  0  0  0
  1  3  1  0  0  0  0
  1  4  1  0  0  0  0
  1  5  1  0  0  0  0
  5  6  2  0  0  0  0
  5  7  1  0  0  0  0
  7  8  1  0  0  0  0
  7  9  1  0  0  0  0
  9 10  1  0  0  0  0
 10 11  1  0  0  0  0
 10 12  2  0  0  0  0
 12 13  1  0  0  0  0
 12 14  1  0  0  0  0
 14 15  1  0  0  0  0
 15 16  1  0  0  0  0
 16 17  1  0  0  0  0
 16 18  1  0  0  0  0
 16 19  1  0  0  0  0
 19 20  1  0  0  0  0
 19 21  1  0  0  0  0
 19 22  1  0  0  0  0
 14 23  2  0  0  0  0
 23 24  1  0  0  0  0
 23 25  1  0  0  0  0
 25  9  2  0  0  0  0
 25 26  1  0  0  0  0
M  END
> <ChemID>
100020

> <source_casrn>
62-44-2

> <CAS>
62-44-2

> <SMILES>
CC(=O)Nc1ccc(cc1)OCC

> <NAME>
P-PHENACETIN

> <preferred_name>
Phenacetin

> <iupac>
N-(4-ethoxyphenyl)acetamide

> <MPID>
97952

> <dsstox_substance_id>
DTXSID1021116

> <Canonical_QSARr>
CC(=O)Nc1ccc(cc1)OCC

> <InChI_Code_QSARr>
InChI=1S/C10H13NO2/c1-3-13-10-6-4-9(5-7-10)11-8(2)12/h4-7H,3H2,1-2H3,(H,11,12)

> <InChI Key_QSARr>
CPJSUEIXXCENMM-UHFFFAOYSA-N

> <Salt_Solvent>
?

> <LogBCF>
1.48

$$$$
100021
  -INDIGO-08031719362D

 14 14  0  0  0  0  0  0  0  0999 V2000
    1.6000   -0.0000    0.0000 N   0  0  0  0  0  0  0  0  0  0  0  0
    2.4000    1.3856    0.0000 H   0  0  0  0  0  0  0  0  0  0  0  0
    2.4000   -1.3856    0.0000 H   0  0  0  0  0  0  0  0  0  0  0  0
    0.0000   -0.0000    0.0000 C   0  0  0  0  0  0  0  0  0  0  0  0
   -0.8000    1.3856    0.0000 C   0  0  0  0  0  0  0  0  0  0  0  0
    0.0000    2.7713    0.0000 H   0  0  0  0  0  0  0  0  0  0  0  0
   -2.4000    1.3856    0.0000 C   0  0  0  0  0  0  0  0  0  0  0  0
   -3.2000    2.7713    0.0000 H   0  0  0  0  0  0  0  0  0  0  0  0
   -3.2000   -0.0000    0.0000 C   0  0  0  0  0  0  0  0  0  0  0  0
   -4.8000   -0.0000    0.0000 H   0  0  0  0  0  0  0  0  0  0  0  0
   -2.4000   -1.3856    0.0000 C   0  0  0  0  0  0  0  0  0  0  0  0
   -3.2000   -2.7713    0.0000 H   0  0  0  0  0  0  0  0  0  0  0  0
   -0.8000   -1.3856    0.0000 C   0  0  0  0  0  0  0  0  0  0  0  0
    0.0000   -2.7713    0.0000 H   0  0  0  0  0  0  0  0  0  0  0  0
  1  2  1  0  0  0  0
  1  3  1  0  0  0  0
  1  4  1  0  0  0  0
  4  5  1  0  0  0  0
  5  6  1  0  0  0  0
  5  7  2  0  0  0  0
  7  8  1  0  0  0  0
  7  9  1  0  0  0  0
  9 10  1  0  0  0  0
  9 11  2  0  0  0  0
 11 12  1  0  0  0  0
 11 13  1  0  0  0  0
 13  4  2  0  0  0  0
 13 14  1  0  0  0  0
M  END
> <ChemID>
100021

> <source_casrn>
62-53-3

> <CAS>
62-53-3

> <SMILES>
Nc1ccccc1

> <NAME>
ANILINE

> <preferred_name>
Aniline

> <iupac>
aniline

> <MPID>
97953

> <dsstox_substance_id>
DTXSID8020090

> <Canonical_QSARr>
Nc1ccccc1

> <InChI_Code_QSARr>
InChI=1S/C6H7N/c7-6-4-2-1-3-5-6/h1-5H,7H2

> <InChI Key_QSARr>
PAYRUJLWNCNPSJ-UHFFFAOYSA-N

> <Salt_Solvent>
?

> <LogBCF>
0.21

$$$$
100023
  -INDIGO-08031719362D

 18 17  0  0  0  0  0  0  0  0999 V2000
   -0.8000    1.3856    0.0000 O   0  0  0  0  0  0  0  0  0  0  0  0
    0.0000    0.0000    0.0000 P   0  0  0  0  0  0  0  0  0  0  0  0
    1.6000    0.0000    0.0000 O   0  0  0  0  0  0  0  0  0  0  0  0
    2.4000   -1.3856    0.0000 C   0  0  0  0  0  0  0  0  0  0  0  0
    1.6000   -2.7713    0.0000 H   0  0  0  0  0  0  0  0  0  0  0  0
    4.0000   -1.3856    0.0000 C   0  0  0  0  0  0  0  0  0  0  0  0
    4.8000   -2.7713    0.0000 Cl  0  0  0  0  0  0  0  0  0  0  0  0
    4.8000    0.0000    0.0000 Cl  0  0  0  0  0  0  0  0  0  0  0  0
    0.8000    1.3856    0.0000 O   0  0  0  0  0  0  0  0  0  0  0  0
    0.0000    2.7713    0.0000 C   0  0  0  0  0  0  0  0  0  0  0  0
    0.8000    4.1569    0.0000 H   0  0  0  0  0  0  0  0  0  0  0  0
   -0.8000    4.1569    0.0000 H   0  0  0  0  0  0  0  0  0  0  0  0
   -1.6000    2.7713    0.0000 H   0  0  0  0  0  0  0  0  0  0  0  0
   -0.8000   -1.3856    0.0000 O   0  0  0  0  0  0  0  0  0  0  0  0
   -2.4001   -1.3856    0.0000 C   0  0  0  0  0  0  0  0  0  0  0  0
   -4.0000   -1.3856    0.0000 H   0  0  0  0  0  0  0  0  0  0  0  0
   -3.2000   -2.7713    0.0000 H   0  0  0  0  0  0  0  0  0  0  0  0
   -3.2000    0.0000    0.0000 H   0  0  0  0  0  0  0  0  0  0  0  0
  1  2  2  0  0  0  0
  2  3  1  0  0  0  0
  3  4  1  0  0  0  0
  4  5  1  0  0  0  0
  4  6  2  0  0  0  0
  6  7  1  0  0  0  0
  6  8  1  0  0  0  0
  2  9  1  0  0  0  0
  9 10  1  0  0  0  0
 10 11  1  0  0  0  0
 10 12  1  0  0  0  0
 10 13  1  0  0  0  0
  2 14  1  0  0  0  0
 14 15  1  0  0  0  0
 15 16  1  0  0  0  0
 15 17  1  0  0  0  0
 15 18  1  0  0  0  0
M  END
> <ChemID>
100023

> <source_casrn>
62-73-7

> <CAS>
62-73-7

> <SMILES>
COP(=O)(OC=C(Cl)Cl)OC

> <NAME>
DICHLORVOS

> <preferred_name>
Dichlorvos

> <iupac>
2,2-dichloroethenyl dimethyl phosphate

> <MPID>
97955

> <dsstox_substance_id>
DTXSID5020449

> <Canonical_QSARr>
COP(=O)(OC=C(Cl)Cl)OC

> <InChI_Code_QSARr>
InChI=1S/C4H7Cl2O4P/c1-8-11(7,9-2)10-3-4(5)6/h3H,1-2H3

> <InChI Key_QSARr>
OEBRKCOSUFCWJD-UHFFFAOYSA-N

> <Salt_Solvent>
?

> <LogBCF>
-0.3

$$$$
100024
  -INDIGO-08031719362D

 26 27  0  0  0  0  0  0  0  0999 V2000
   -4.8000    0.0001    0.0000 O   0  0  0  0  0  0  0  0  0  0  0  0
   -3.9999    1.3856    0.0000 C   0  0  0  0  0  0  0  0  0  0  0  0
   -2.3999    1.3856    0.0000 O   0  0  0  0  0  0  0  0  0  0  0  0
   -1.5999    0.0001    0.0000 C   0  0  0  0  0  0  0  0  0  0  0  0
   -0.0001    0.0001    0.0000 C   0  0  0  0  0  0  0  0  0  0  0  0
    0.7999   -1.3856    0.0000 C   0  0  0  0  0  0  0  0  0  0  0  0
    2.4000   -1.3856    0.0000 C   0  0  0  0  0  0  0  0  0  0  0  0
    3.2000   -2.7712    0.0000 H   0  0  0  0  0  0  0  0  0  0  0  0
    3.2000    0.0001    0.0000 C   0  0  0  0  0  0  0  0  0  0  0  0
    4.8000    0.0001    0.0000 H   0  0  0  0  0  0  0  0  0  0  0  0
    2.4000    1.3856    0.0000 C   0  0  0  0  0  0  0  0  0  0  0  0
    3.2000    2.7712    0.0000 H   0  0  0  0  0  0  0  0  0  0  0  0
    0.7999    1.3856    0.0000 C   0  0  0  0  0  0  0  0  0  0  0  0
   -0.0001    2.7713    0.0000 H   0  0  0  0  0  0  0  0  0  0  0  0
   -0.0001   -2.7712    0.0000 C   0  0  0  0  0  0  0  0  0  0  0  0
    0.7999   -4.1569    0.0000 H   0  0  0  0  0  0  0  0  0  0  0  0
   -1.5999   -2.7712    0.0000 C   0  0  0  0  0  0  0  0  0  0  0  0
   -2.3999   -4.1569    0.0000 H   0  0  0  0  0  0  0  0  0  0  0  0
   -2.3999   -1.3856    0.0000 C   0  0  0  0  0  0  0  0  0  0  0  0
   -3.9999   -1.3856    0.0000 H   0  0  0  0  0  0  0  0  0  0  0  0
   -4.8000    2.7713    0.0000 N   0  0  0  0  0  0  0  0  0  0  0  0
   -3.9999    4.1569    0.0000 H   0  0  0  0  0  0  0  0  0  0  0  0
   -6.4000    2.7713    0.0000 C   0  0  0  0  0  0  0  0  0  0  0  0
   -8.0000    2.7713    0.0000 H   0  0  0  0  0  0  0  0  0  0  0  0
   -7.2000    4.1569    0.0000 H   0  0  0  0  0  0  0  0  0  0  0  0
   -7.2000    1.3856    0.0000 H   0  0  0  0  0  0  0  0  0  0  0  0
  1  2  2  0  0  0  0
  2  3  1  0  0  0  0
  3  4  1  0  0  0  0
  4  5  1  0  0  0  0
  5  6  1  0  0  0  0
  6  7  2  0  0  0  0
  7  8  1  0  0  0  0
  7  9  1  0  0  0  0
  9 10  1  0  0  0  0
  9 11  2  0  0  0  0
 11 12  1  0  0  0  0
 11 13  1  0  0  0  0
 13  5  2  0  0  0  0
 13 14  1  0  0  0  0
  6 15  1  0  0  0  0
 15 16  1  0  0  0  0
 15 17  2  0  0  0  0
 17 18  1  0  0  0  0
 17 19  1  0  0  0  0
 19  4  2  0  0  0  0
 19 20  1  0  0  0  0
  2 21  1  0  0  0  0
 21 22  1  0  0  0  0
 21 23  1  0  0  0  0
 23 24  1  0  0  0  0
 23 25  1  0  0  0  0
 23 26  1  0  0  0  0
M  END
> <ChemID>
100024

> <source_casrn>
63-25-2

> <CAS>
63-25-2

> <SMILES>
O=C(Oc(c(c(ccc1)cc2)c1)c2)NC

> <NAME>
1-NAPHTHYL-N-METHYLCARBAMATE

> <preferred_name>
Carbaryl

> <iupac>
naphthalen-1-yl methylcarbamate

> <MPID>
97956

> <dsstox_substance_id>
DTXSID9020247

> <Canonical_QSARr>
CNC(=O)Oc1cccc2ccccc21

> <InChI_Code_QSARr>
InChI=1S/C12H11NO2/c1-13-12(14)15-11-8-4-6-9-5-2-3-7-10(9)11/h2-8H,1H3,(H,13,14)

> <InChI Key_QSARr>
CVXBEEMKQHEXEN-UHFFFAOYSA-N

> <Salt_Solvent>
?

> <LogBCF>
0.95

$$$$
100025
  -INDIGO-08031719362D

 43 44  0  0  0  0  0  0  0  0999 V2000
   -2.3999    1.3857    0.0000 C   0  0  0  0  0  0  0  0  0  0  0  0
   -2.1222    2.9614    0.0000 H   0  0  0  0  0  0  0  0  0  0  0  0
   -3.2000    0.0001    0.0000 C   0  0  0  0  0  0  0  0  0  0  0  0
   -4.4257    1.0285    0.0000 H   0  0  0  0  0  0  0  0  0  0  0  0
   -4.4257   -1.0284    0.0000 H   0  0  0  0  0  0  0  0  0  0  0  0
   -2.3999   -1.3856    0.0000 C   0  0  0  0  0  0  0  0  0  0  0  0
   -3.9036   -1.9329    0.0000 H   0  0  0  0  0  0  0  0  0  0  0  0
   -2.1222   -2.9614    0.0000 C   0  0  0  0  0  0  0  0  0  0  0  0
   -1.8443   -4.5370    0.0000 H   0  0  0  0  0  0  0  0  0  0  0  0
   -3.3479   -3.9898    0.0000 H   0  0  0  0  0  0  0  0  0  0  0  0
   -0.6186   -3.5086    0.0000 H   0  0  0  0  0  0  0  0  0  0  0  0
   -0.8000   -1.3856    0.0000 C   0  0  0  0  0  0  0  0  0  0  0  0
    0.0001   -2.7712    0.0000 O   0  0  0  0  0  0  0  0  0  0  0  0
    0.0001    0.0001    0.0000 C   0  0  0  0  0  0  0  0  0  0  0  0
    1.2258    1.0285    0.0000 H   0  0  0  0  0  0  0  0  0  0  0  0
    1.5035   -0.5473    0.0000 C   0  0  0  0  0  0  0  0  0  0  0  0
    0.4750   -1.7728    0.0000 H   0  0  0  0  0  0  0  0  0  0  0  0
    2.7292   -1.5757    0.0000 C   0  0  0  0  0  0  0  0  0  0  0  0
    2.7989   -3.1741    0.0000 H   0  0  0  0  0  0  0  0  0  0  0  0
    1.6483   -2.7553    0.0000 H   0  0  0  0  0  0  0  0  0  0  0  0
    4.3048   -1.2978    0.0000 C   0  0  0  0  0  0  0  0  0  0  0  0
    3.7577    0.2056    0.0000 H   0  0  0  0  0  0  0  0  0  0  0  0
    4.3048   -2.8979    0.0000 C   0  0  0  0  0  0  0  0  0  0  0  0
    2.8014   -2.3507    0.0000 H   0  0  0  0  0  0  0  0  0  0  0  0
    3.7577   -4.4014    0.0000 H   0  0  0  0  0  0  0  0  0  0  0  0
    5.6905   -3.6978    0.0000 C   0  0  0  0  0  0  0  0  0  0  0  0
    5.6905   -5.2979    0.0000 O   0  0  0  0  0  0  0  0  0  0  0  0
    7.0761   -2.8979    0.0000 N   0  0  0  0  0  0  0  0  0  0  0  0
    8.4618   -3.6978    0.0000 H   0  0  0  0  0  0  0  0  0  0  0  0
    7.0761   -1.2978    0.0000 C   0  0  0  0  0  0  0  0  0  0  0  0
    8.4618   -0.4978    0.0000 O   0  0  0  0  0  0  0  0  0  0  0  0
    5.6905   -0.4978    0.0000 C   0  0  0  0  0  0  0  0  0  0  0  0
    6.7189    0.7279    0.0000 H   0  0  0  0  0  0  0  0  0  0  0  0
    4.6620    0.7279    0.0000 H   0  0  0  0  0  0  0  0  0  0  0  0
    2.5320    0.6784    0.0000 O   0  0  0  0  0  0  0  0  0  0  0  0
    1.9847    2.1820    0.0000 H   0  0  0  0  0  0  0  0  0  0  0  0
   -0.8000    1.3857    0.0000 C   0  0  0  0  0  0  0  0  0  0  0  0
    0.7034    1.9329    0.0000 H   0  0  0  0  0  0  0  0  0  0  0  0
   -1.0779    2.9614    0.0000 H   0  0  0  0  0  0  0  0  0  0  0  0
   -3.7856    2.1856    0.0000 C   0  0  0  0  0  0  0  0  0  0  0  0
   -5.1713    2.9856    0.0000 H   0  0  0  0  0  0  0  0  0  0  0  0
   -3.7856    3.7856    0.0000 H   0  0  0  0  0  0  0  0  0  0  0  0
   -5.1713    1.3857    0.0000 H   0  0  0  0  0  0  0  0  0  0  0  0
  1  2  1  0  0  0  0
  1  3  1  0  0  0  0
  3  4  1  0  0  0  0
  3  5  1  0  0  0  0
  3  6  1  0  0  0  0
  6  7  1  0  0  0  0
  6  8  1  0  0  0  0
  8  9  1  0  0  0  0
  8 10  1  0  0  0  0
  8 11  1  0  0  0  0
  6 12  1  0  0  0  0
 12 13  2  0  0  0  0
 12 14  1  0  0  0  0
 14 15  1  0  0  0  0
 14 16  1  0  0  0  0
 16 17  1  0  0  0  0
 16 18  1  0  0  0  0
 18 19  1  0  0  0  0
 18 20  1  0  0  0  0
 18 21  1  0  0  0  0
 21 22  1  0  0  0  0
 21 23  1  0  0  0  0
 23 24  1  0  0  0  0
 23 25  1  0  0  0  0
 23 26  1  0  0  0  0
 26 27  2  0  0  0  0
 26 28  1  0  0  0  0
 28 29  1  0  0  0  0
 28 30  1  0  0  0  0
 30 31  2  0  0  0  0
 30 32  1  0  0  0  0
 32 21  1  0  0  0  0
 32 33  1  0  0  0  0
 32 34  1  0  0  0  0
 16 35  1  0  0  0  0
 35 36  1  0  0  0  0
 14 37  1  0  0  0  0
 37  1  1  0  0  0  0
 37 38  1  0  0  0  0
 37 39  1  0  0  0  0
  1 40  1  0  0  0  0
 40 41  1  0  0  0  0
 40 42  1  0  0  0  0
 40 43  1  0  0  0  0
M  END
> <ChemID>
100025

> <source_casrn>
66-81-9

> <CAS>
66-81-9

> <SMILES>
C[C@@H]1C[C@@H]([C@H](O)CC2CC(=O)NC(=O)C2)C(=O)[C@@H](C)C1

> <NAME>
CYCLOHEXIMIDE

> <preferred_name>
Cycloheximide

> <iupac>
4-{(2R)-2-[(1S,3S,5S)-3,5-dimethyl-2-oxocyclohexyl]-2-hydroxyethyl}piperidine-2,6-dione

> <MPID>
97957

> <dsstox_substance_id>
DTXSID6024882

> <Canonical_QSARr>
CC1CC(C(O)CC2CC(=O)NC(=O)C2)C(=O)C(C)C1

> <InChI_Code_QSARr>
InChI=1S/C15H23NO4/c1-8-3-9(2)15(20)11(4-8)12(17)5-10-6-13(18)16-14(19)7-10/h8-12,17H,3-7H2,1-2H3,(H,16,18,19)

> <InChI Key_QSARr>
YPHMISFOHDHNIV-UHFFFAOYSA-N

> <Salt_Solvent>
?

> <LogBCF>
0.45

$$$$
100027
  -INDIGO-08031719362D

 10  9  0  0  0  0  0  0  0  0999 V2000
    1.3856    0.8000    0.0000 C   0  0  0  0  0  0  0  0  0  0  0  0
    2.7713    1.6000    0.0000 H   0  0  0  0  0  0  0  0  0  0  0  0
    2.7713    0.0000    0.0000 H   0  0  0  0  0  0  0  0  0  0  0  0
    1.3856    2.4000    0.0000 H   0  0  0  0  0  0  0  0  0  0  0  0
    0.0000    0.0000    0.0000 S   0  0  0  0  0  0  0  0  0  0  0  0
    0.0000   -1.6000    0.0000 O   0  0  0  0  0  0  0  0  0  0  0  0
   -1.3856    0.8000    0.0000 C   0  0  0  0  0  0  0  0  0  0  0  0
   -2.7713    1.6000    0.0000 H   0  0  0  0  0  0  0  0  0  0  0  0
   -2.7713    0.0000    0.0000 H   0  0  0  0  0  0  0  0  0  0  0  0
   -1.3856    2.4000    0.0000 H   0  0  0  0  0  0  0  0  0  0  0  0
  1  2  1  0  0  0  0
  1  3  1  0  0  0  0
  1  4  1  0  0  0  0
  1  5  1  0  0  0  0
  5  6  2  0  0  0  0
  5  7  1  0  0  0  0
  7  8  1  0  0  0  0
  7  9  1  0  0  0  0
  7 10  1  0  0  0  0
M  END
> <ChemID>
100027

> <source_casrn>
67-68-5

> <CAS>
67-68-5

> <SMILES>
CS(C)=O

> <NAME>
DIMETHYL SULFOXIDE

> <preferred_name>
Dimethyl sulfoxide

> <iupac>
C2H6OS

> <MPID>
97959

> <dsstox_substance_id>
DTXSID2021735

> <Canonical_QSARr>
CS(C)=O

> <InChI_Code_QSARr>
InChI=1S/C2H6OS/c1-4(2)3/h1-2H3

> <InChI Key_QSARr>
IAZDPXIOMUYVGZ-UHFFFAOYSA-N

> <Salt_Solvent>
?

> <LogBCF>
0.6

$$$$
100028
  -INDIGO-08031719362D

  8  7  0  0  0  0  0  0  0  0999 V2000
   -0.8000    1.3856    0.0000 Cl  0  0  0  0  0  0  0  0  0  0  0  0
    0.0000    0.0000    0.0000 C   0  0  0  0  0  0  0  0  0  0  0  0
    1.6000    0.0000    0.0000 C   0  0  0  0  0  0  0  0  0  0  0  0
    3.2000    0.0000    0.0000 Cl  0  0  0  0  0  0  0  0  0  0  0  0
    2.4000   -1.3856    0.0000 Cl  0  0  0  0  0  0  0  0  0  0  0  0
    2.4000    1.3856    0.0000 Cl  0  0  0  0  0  0  0  0  0  0  0  0
   -1.6000   -0.0000    0.0000 Cl  0  0  0  0  0  0  0  0  0  0  0  0
   -0.8000   -1.3856    0.0000 Cl  0  0  0  0  0  0  0  0  0  0  0  0
  1  2  1  0  0  0  0
  2  3  1  0  0  0  0
  3  4  1  0  0  0  0
  3  5  1  0  0  0  0
  3  6  1  0  0  0  0
  2  7  1  0  0  0  0
  2  8  1  0  0  0  0
M  END
> <ChemID>
100028

> <source_casrn>
67-72-1

> <CAS>
67-72-1

> <SMILES>
ClC(Cl)(Cl)C(Cl)(Cl)Cl

> <NAME>
HEXACHLOROETHANE

> <preferred_name>
Hexachloroethane

> <iupac>
hexachloroethane

> <MPID>
97960

> <dsstox_substance_id>
DTXSID7020689

> <Canonical_QSARr>
ClC(Cl)(Cl)C(Cl)(Cl)Cl

> <InChI_Code_QSARr>
InChI=1S/C2Cl6/c3-1(4,5)2(6,7)8

> <InChI Key_QSARr>
VHHHONWQHHHLTI-UHFFFAOYSA-N

> <Salt_Solvent>
?

> <LogBCF>
2.71

$$$$
100029
  -INDIGO-08031719362D

 12 11  0  0  0  0  0  0  0  0999 V2000
    1.3856    0.8000    0.0000 C   0  0  0  0  0  0  0  0  0  0  0  0
    2.7713    1.6000    0.0000 H   0  0  0  0  0  0  0  0  0  0  0  0
    2.7713    0.0000    0.0000 H   0  0  0  0  0  0  0  0  0  0  0  0
    1.3856    2.4000    0.0000 H   0  0  0  0  0  0  0  0  0  0  0  0
    0.0000    0.0000    0.0000 N   0  0  0  0  0  0  0  0  0  0  0  0
    0.0000   -1.6000    0.0000 C   0  0  0  0  0  0  0  0  0  0  0  0
   -1.3856   -2.4000    0.0000 H   0  0  0  0  0  0  0  0  0  0  0  0
    1.3856   -2.4000    0.0000 O   0  0  0  0  0  0  0  0  0  0  0  0
   -1.3856    0.8000    0.0000 C   0  0  0  0  0  0  0  0  0  0  0  0
   -2.7713    1.6000    0.0000 H   0  0  0  0  0  0  0  0  0  0  0  0
   -2.7713    0.0000    0.0000 H   0  0  0  0  0  0  0  0  0  0  0  0
   -1.3856    2.4000    0.0000 H   0  0  0  0  0  0  0  0  0  0  0  0
  1  2  1  0  0  0  0
  1  3  1  0  0  0  0
  1  4  1  0  0  0  0
  1  5  1  0  0  0  0
  5  6  1  0  0  0  0
  6  7  1  0  0  0  0
  6  8  2  0  0  0  0
  5  9  1  0  0  0  0
  9 10  1  0  0  0  0
  9 11  1  0  0  0  0
  9 12  1  0  0  0  0
M  END
> <ChemID>
100029

> <source_casrn>
68-12-2

> <CAS>
68-12-2

> <SMILES>
O=CN(C)C

> <NAME>
N,N'-DIMETHYLFORMAMIDE

> <preferred_name>
N,N-Dimethylformamide

> <iupac>
N,N-dimethylformamide

> <MPID>
97961

> <dsstox_substance_id>
DTXSID6020515

> <Canonical_QSARr>
CN(C)C=O

> <InChI_Code_QSARr>
InChI=1S/C3H7NO/c1-4(2)3-5/h3H,1-2H3

> <InChI Key_QSARr>
ZMXDDKWLCZADIW-UHFFFAOYSA-N

> <Salt_Solvent>
?

> <LogBCF>
-0.1

$$$$
100031
  -INDIGO-08031719362D

 12 12  0  0  0  0  0  0  0  0999 V2000
   -0.0000   -0.0000    0.0000 C   0  0  0  0  0  0  0  0  0  0  0  0
    0.8000    1.3856    0.0000 H   0  0  0  0  0  0  0  0  0  0  0  0
    0.8000   -1.3857    0.0000 C   0  0  0  0  0  0  0  0  0  0  0  0
    2.4000   -1.3857    0.0000 H   0  0  0  0  0  0  0  0  0  0  0  0
   -0.0000   -2.7713    0.0000 C   0  0  0  0  0  0  0  0  0  0  0  0
    0.8000   -4.1569    0.0000 H   0  0  0  0  0  0  0  0  0  0  0  0
   -1.6000   -2.7713    0.0000 C   0  0  0  0  0  0  0  0  0  0  0  0
   -2.4000   -4.1569    0.0000 H   0  0  0  0  0  0  0  0  0  0  0  0
   -2.4000   -1.3856    0.0000 C   0  0  0  0  0  0  0  0  0  0  0  0
   -4.0000   -1.3856    0.0000 H   0  0  0  0  0  0  0  0  0  0  0  0
   -1.6000   -0.0000    0.0000 C   0  0  0  0  0  0  0  0  0  0  0  0
   -2.4000    1.3856    0.0000 H   0  0  0  0  0  0  0  0  0  0  0  0
  1  2  1  0  0  0  0
  1  3  1  0  0  0  0
  3  4  1  0  0  0  0
  3  5  2  0  0  0  0
  5  6  1  0  0  0  0
  5  7  1  0  0  0  0
  7  8  1  0  0  0  0
  7  9  2  0  0  0  0
  9 10  1  0  0  0  0
  9 11  1  0  0  0  0
 11  1  2  0  0  0  0
 11 12  1  0  0  0  0
M  END
> <ChemID>
100031

> <source_casrn>
71-43-2

> <CAS>
71-43-2

> <SMILES>
c1ccccc1

> <NAME>
BENZENE

> <preferred_name>
Benzene

> <iupac>
benzene

> <MPID>
97963

> <dsstox_substance_id>
DTXSID3039242

> <Canonical_QSARr>
c1ccccc1

> <InChI_Code_QSARr>
InChI=1S/C6H6/c1-2-4-6-5-3-1/h1-6H

> <InChI Key_QSARr>
UHOVQNZJYSORNB-UHFFFAOYSA-N

> <Salt_Solvent>
?

> <LogBCF>
0.63

$$$$
100032
  -INDIGO-08031719362D

  8  7  0  0  0  0  0  0  0  0999 V2000
    0.0000    0.0000    0.0000 C   0  0  0  0  0  0  0  0  0  0  0  0
    1.6000   -0.0000    0.0000 H   0  0  0  0  0  0  0  0  0  0  0  0
    0.8000   -1.3856    0.0000 H   0  0  0  0  0  0  0  0  0  0  0  0
    0.8000    1.3856    0.0000 H   0  0  0  0  0  0  0  0  0  0  0  0
   -1.6000    0.0000    0.0000 C   0  0  0  0  0  0  0  0  0  0  0  0
   -3.2000    0.0000    0.0000 Cl  0  0  0  0  0  0  0  0  0  0  0  0
   -2.4000   -1.3856    0.0000 Cl  0  0  0  0  0  0  0  0  0  0  0  0
   -2.4000    1.3856    0.0000 Cl  0  0  0  0  0  0  0  0  0  0  0  0
  1  2  1  0  0  0  0
  1  3  1  0  0  0  0
  1  4  1  0  0  0  0
  1  5  1  0  0  0  0
  5  6  1  0  0  0  0
  5  7  1  0  0  0  0
  5  8  1  0  0  0  0
M  END
> <ChemID>
100032

> <source_casrn>
71-55-6

> <CAS>
71-55-6

> <SMILES>
CC(Cl)(Cl)Cl

> <NAME>
1,1,1-TRICHLOROETHANE

> <preferred_name>
1,1,1-Trichloroethane

> <iupac>
1,1,1-trichloroethane

> <MPID>
97964

> <dsstox_substance_id>
DTXSID0021381

> <Canonical_QSARr>
CC(Cl)(Cl)Cl

> <InChI_Code_QSARr>
InChI=1S/C2H3Cl3/c1-2(3,4)5/h1H3

> <InChI Key_QSARr>
UOCLXMDMGBRAIB-UHFFFAOYSA-N

> <Salt_Solvent>
?

> <LogBCF>
0.7

$$$$
100034
  -INDIGO-08031719362D

 36 37  0  0  0  0  0  0  0  0999 V2000
   -1.0284    1.2257    0.0000 Cl  0  0  0  0  0  0  0  0  0  0  0  0
    0.5472    1.5035    0.0000 C   0  0  0  0  0  0  0  0  0  0  0  0
   -0.0000    0.0000    0.0000 C   0  0  0  0  0  0  0  0  0  0  0  0
   -0.5473   -1.5035    0.0000 H   0  0  0  0  0  0  0  0  0  0  0  0
    1.5034   -0.5472    0.0000 C   0  0  0  0  0  0  0  0  0  0  0  0
    1.7814   -2.1229    0.0000 C   0  0  0  0  0  0  0  0  0  0  0  0
    0.5556   -3.1514    0.0000 H   0  0  0  0  0  0  0  0  0  0  0  0
    3.2849   -2.6702    0.0000 C   0  0  0  0  0  0  0  0  0  0  0  0
    3.5627   -4.2458    0.0000 H   0  0  0  0  0  0  0  0  0  0  0  0
    4.5105   -1.6417    0.0000 C   0  0  0  0  0  0  0  0  0  0  0  0
    6.0139   -2.1889    0.0000 O   0  0  0  0  0  0  0  0  0  0  0  0
    6.2920   -3.7646    0.0000 C   0  0  0  0  0  0  0  0  0  0  0  0
    7.7954   -4.3119    0.0000 H   0  0  0  0  0  0  0  0  0  0  0  0
    6.5697   -5.3403    0.0000 H   0  0  0  0  0  0  0  0  0  0  0  0
    7.5176   -2.7362    0.0000 H   0  0  0  0  0  0  0  0  0  0  0  0
    4.2327   -0.0660    0.0000 C   0  0  0  0  0  0  0  0  0  0  0  0
    5.4583    0.9624    0.0000 H   0  0  0  0  0  0  0  0  0  0  0  0
    2.7293    0.4812    0.0000 C   0  0  0  0  0  0  0  0  0  0  0  0
    2.4512    2.0569    0.0000 H   0  0  0  0  0  0  0  0  0  0  0  0
   -1.5999    0.0000    0.0000 C   0  0  0  0  0  0  0  0  0  0  0  0
   -2.3999    1.3857    0.0000 C   0  0  0  0  0  0  0  0  0  0  0  0
   -1.5999    2.7712    0.0000 H   0  0  0  0  0  0  0  0  0  0  0  0
   -4.0000    1.3857    0.0000 C   0  0  0  0  0  0  0  0  0  0  0  0
   -4.8000    2.7712    0.0000 H   0  0  0  0  0  0  0  0  0  0  0  0
   -4.8000    0.0000    0.0000 C   0  0  0  0  0  0  0  0  0  0  0  0
   -6.3999    0.0000    0.0000 O   0  0  0  0  0  0  0  0  0  0  0  0
   -7.2001   -1.3857    0.0000 C   0  0  0  0  0  0  0  0  0  0  0  0
   -8.8000   -1.3857    0.0000 H   0  0  0  0  0  0  0  0  0  0  0  0
   -8.0000   -2.7712    0.0000 H   0  0  0  0  0  0  0  0  0  0  0  0
   -8.0000    0.0000    0.0000 H   0  0  0  0  0  0  0  0  0  0  0  0
   -4.0000   -1.3857    0.0000 C   0  0  0  0  0  0  0  0  0  0  0  0
   -4.8000   -2.7712    0.0000 H   0  0  0  0  0  0  0  0  0  0  0  0
   -2.3999   -1.3857    0.0000 C   0  0  0  0  0  0  0  0  0  0  0  0
   -1.5999   -2.7712    0.0000 H   0  0  0  0  0  0  0  0  0  0  0  0
    1.0944    3.0070    0.0000 Cl  0  0  0  0  0  0  0  0  0  0  0  0
   -0.4812    2.7292    0.0000 Cl  0  0  0  0  0  0  0  0  0  0  0  0
  1  2  1  0  0  0  0
  2  3  1  0  0  0  0
  3  4  1  0  0  0  0
  3  5  1  0  0  0  0
  5  6  1  0  0  0  0
  6  7  1  0  0  0  0
  6  8  2  0  0  0  0
  8  9  1  0  0  0  0
  8 10  1  0  0  0  0
 10 11  1  0  0  0  0
 11 12  1  0  0  0  0
 12 13  1  0  0  0  0
 12 14  1  0  0  0  0
 12 15  1  0  0  0  0
 10 16  2  0  0  0  0
 16 17  1  0  0  0  0
 16 18  1  0  0  0  0
 18  5  2  0  0  0  0
 18 19  1  0  0  0  0
  3 20  1  0  0  0  0
 20 21  1  0  0  0  0
 21 22  1  0  0  0  0
 21 23  2  0  0  0  0
 23 24  1  0  0  0  0
 23 25  1  0  0  0  0
 25 26  1  0  0  0  0
 26 27  1  0  0  0  0
 27 28  1  0  0  0  0
 27 29  1  0  0  0  0
 27 30  1  0  0  0  0
 25 31  2  0  0  0  0
 31 32  1  0  0  0  0
 31 33  1  0  0  0  0
 33 20  2  0  0  0  0
 33 34  1  0  0  0  0
  2 35  1  0  0  0  0
  2 36  1  0  0  0  0
M  END
> <ChemID>
100034

> <source_casrn>
72-43-5

> <CAS>
72-43-5

> <SMILES>
COc1ccc(cc1)C(c1ccc(cc1)OC)C(Cl)(Cl)Cl

> <NAME>
METHOXYCHLOR

> <preferred_name>
Methoxychlor

> <iupac>
1,1'-(2,2,2-trichloroethane-1,1-diyl)bis(4-methoxybenzene)

> <MPID>
97966

> <dsstox_substance_id>
DTXSID9020827

> <Canonical_QSARr>
COc1ccc(cc1)C(c1ccc(cc1)OC)C(Cl)(Cl)Cl

> <InChI_Code_QSARr>
InChI=1S/C16H15Cl3O2/c1-20-13-7-3-11(4-8-13)15(16(17,18)19)12-5-9-14(21-2)10-6-12/h3-10,15H,1-2H3

> <InChI Key_QSARr>
IAKOZHOLGAGEJT-UHFFFAOYSA-N

> <Salt_Solvent>
?

> <LogBCF>
2.5

$$$$
100036
  -INDIGO-08031719362D

 36 38  0  0  0  0  0  0  0  0999 V2000
   -1.3857    0.8000    0.0000 N   0  0  0  0  0  0  0  0  0  0  0  0
   -1.1079    2.3757    0.0000 H   0  0  0  0  0  0  0  0  0  0  0  0
    0.0001    0.0000    0.0000 C   0  0  0  0  0  0  0  0  0  0  0  0
    1.3855    0.8000    0.0000 C   0  0  0  0  0  0  0  0  0  0  0  0
    1.3855    2.4000    0.0000 H   0  0  0  0  0  0  0  0  0  0  0  0
    2.7712    0.0000    0.0000 C   0  0  0  0  0  0  0  0  0  0  0  0
    4.1569    0.8000    0.0000 H   0  0  0  0  0  0  0  0  0  0  0  0
    2.7712   -1.6000    0.0000 C   0  0  0  0  0  0  0  0  0  0  0  0
    4.1569   -2.4000    0.0000 N   0  0  0  0  0  0  0  0  0  0  0  0
    3.8792   -3.9757    0.0000 H   0  0  0  0  0  0  0  0  0  0  0  0
    5.7326   -2.1221    0.0000 C   0  0  0  0  0  0  0  0  0  0  0  0
    6.2798   -0.6187    0.0000 C   0  0  0  0  0  0  0  0  0  0  0  0
    5.2513    0.6071    0.0000 H   0  0  0  0  0  0  0  0  0  0  0  0
    7.8555   -0.3409    0.0000 C   0  0  0  0  0  0  0  0  0  0  0  0
    8.4027    1.1627    0.0000 H   0  0  0  0  0  0  0  0  0  0  0  0
    8.8840   -1.5665    0.0000 C   0  0  0  0  0  0  0  0  0  0  0  0
   10.4597   -1.2887    0.0000 H   0  0  0  0  0  0  0  0  0  0  0  0
    8.3368   -3.0700    0.0000 C   0  0  0  0  0  0  0  0  0  0  0  0
    9.3653   -4.2957    0.0000 H   0  0  0  0  0  0  0  0  0  0  0  0
    6.7611   -3.3479    0.0000 C   0  0  0  0  0  0  0  0  0  0  0  0
    6.2139   -4.8513    0.0000 H   0  0  0  0  0  0  0  0  0  0  0  0
    1.3855   -2.4000    0.0000 C   0  0  0  0  0  0  0  0  0  0  0  0
    1.3855   -4.0000    0.0000 H   0  0  0  0  0  0  0  0  0  0  0  0
    0.0001   -1.6000    0.0000 C   0  0  0  0  0  0  0  0  0  0  0  0
   -1.3857   -2.4000    0.0000 H   0  0  0  0  0  0  0  0  0  0  0  0
   -2.9613    0.5221    0.0000 C   0  0  0  0  0  0  0  0  0  0  0  0
   -3.5085   -0.9813    0.0000 C   0  0  0  0  0  0  0  0  0  0  0  0
   -2.4801   -2.2071    0.0000 H   0  0  0  0  0  0  0  0  0  0  0  0
   -5.0842   -1.2591    0.0000 C   0  0  0  0  0  0  0  0  0  0  0  0
   -5.6314   -2.7627    0.0000 H   0  0  0  0  0  0  0  0  0  0  0  0
   -6.1127   -0.0335    0.0000 C   0  0  0  0  0  0  0  0  0  0  0  0
   -7.6884   -0.3113    0.0000 H   0  0  0  0  0  0  0  0  0  0  0  0
   -5.5655    1.4700    0.0000 C   0  0  0  0  0  0  0  0  0  0  0  0
   -6.5940    2.6957    0.0000 H   0  0  0  0  0  0  0  0  0  0  0  0
   -3.9898    1.7479    0.0000 C   0  0  0  0  0  0  0  0  0  0  0  0
   -3.4426    3.2513    0.0000 H   0  0  0  0  0  0  0  0  0  0  0  0
  1  2  1  0  0  0  0
  1  3  1  0  0  0  0
  3  4  1  0  0  0  0
  4  5  1  0  0  0  0
  4  6  2  0  0  0  0
  6  7  1  0  0  0  0
  6  8  1  0  0  0  0
  8  9  1  0  0  0  0
  9 10  1  0  0  0  0
  9 11  1  0  0  0  0
 11 12  1  0  0  0  0
 12 13  1  0  0  0  0
 12 14  2  0  0  0  0
 14 15  1  0  0  0  0
 14 16  1  0  0  0  0
 16 17  1  0  0  0  0
 16 18  2  0  0  0  0
 18 19  1  0  0  0  0
 18 20  1  0  0  0  0
 20 11  2  0  0  0  0
 20 21  1  0  0  0  0
  8 22  2  0  0  0  0
 22 23  1  0  0  0  0
 22 24  1  0  0  0  0
 24  3  2  0  0  0  0
 24 25  1  0  0  0  0
  1 26  1  0  0  0  0
 26 27  1  0  0  0  0
 27 28  1  0  0  0  0
 27 29  2  0  0  0  0
 29 30  1  0  0  0  0
 29 31  1  0  0  0  0
 31 32  1  0  0  0  0
 31 33  2  0  0  0  0
 33 34  1  0  0  0  0
 33 35  1  0  0  0  0
 35 26  2  0  0  0  0
 35 36  1  0  0  0  0
M  END
> <ChemID>
100036

> <source_casrn>
74-31-7

> <CAS>
74-31-7

> <SMILES>
N(c(ccc(Nc(cccc1)c1)c2)c2)c(cccc3)c3

> <NAME>
N,N'-DIPHENYL-P-BENZENEDIAMINE

> <preferred_name>
N,N'-Diphenyl-p-phenylenediamine

> <iupac>
N,N'-diphenylbenzene-1,4-diamine

> <MPID>
97968

> <dsstox_substance_id>
DTXSID9020538

> <Canonical_QSARr>
c1cc(ccc1Nc1ccccc1)Nc1ccccc1

> <InChI_Code_QSARr>
InChI=1S/C18H16N2/c1-3-7-15(8-4-1)19-17-11-13-18(14-12-17)20-16-9-5-2-6-10-16/h1-14,19-20H

> <InChI Key_QSARr>
UTGQNNCQYDRXCH-UHFFFAOYSA-N

> <Salt_Solvent>
?

> <LogBCF>
3.12

$$$$
100037
  -INDIGO-08031719362D

  5  4  0  0  0  0  0  0  0  0999 V2000
   -0.8000   -1.3856    0.0000 Cl  0  0  0  0  0  0  0  0  0  0  0  0
    0.0000    0.0000    0.0000 C   0  0  0  0  0  0  0  0  0  0  0  0
    0.8000    1.3856    0.0000 H   0  0  0  0  0  0  0  0  0  0  0  0
   -1.3856    0.8000    0.0000 H   0  0  0  0  0  0  0  0  0  0  0  0
    1.3856   -0.8000    0.0000 Br  0  0  0  0  0  0  0  0  0  0  0  0
  1  2  1  0  0  0  0
  2  3  1  0  0  0  0
  2  4  1  0  0  0  0
  2  5  1  0  0  0  0
M  END
> <ChemID>
100037

> <source_casrn>
74-97-5

> <CAS>
74-97-5

> <SMILES>
ClCBr

> <NAME>
CHLOROBROMOMETHANE

> <preferred_name>
Bromochloromethane

> <iupac>
bromo(chloro)methane

> <MPID>
97969

> <dsstox_substance_id>
DTXSID4021503

> <Canonical_QSARr>
ClCBr

> <InChI_Code_QSARr>
InChI=1S/CH2BrCl/c2-1-3/h1H2

> <InChI Key_QSARr>
JPOXNPPZZKNXOV-UHFFFAOYSA-N

> <Salt_Solvent>
?

> <LogBCF>
0.6

$$$$
100038
  -INDIGO-08031719362D

  5  4  0  0  0  0  0  0  0  0999 V2000
   -0.8000   -1.3856    0.0000 Cl  0  0  0  0  0  0  0  0  0  0  0  0
    0.0000    0.0000    0.0000 C   0  0  0  0  0  0  0  0  0  0  0  0
    0.8000    1.3856    0.0000 H   0  0  0  0  0  0  0  0  0  0  0  0
   -1.3856    0.8000    0.0000 H   0  0  0  0  0  0  0  0  0  0  0  0
    1.3856   -0.8000    0.0000 Cl  0  0  0  0  0  0  0  0  0  0  0  0
  1  2  1  0  0  0  0
  2  3  1  0  0  0  0
  2  4  1  0  0  0  0
  2  5  1  0  0  0  0
M  END
> <ChemID>
100038

> <source_casrn>
75-09-2

> <CAS>
75-09-2

> <SMILES>
ClCCl

> <NAME>
DICHLOROMETHANE

> <preferred_name>
Dichloromethane

> <iupac>
dichloromethane

> <MPID>
97970

> <dsstox_substance_id>
DTXSID0020868

> <Canonical_QSARr>
ClCCl

> <InChI_Code_QSARr>
InChI=1S/CH2Cl2/c2-1-3/h1H2

> <InChI Key_QSARr>
YMWUJEATGCHHMB-UHFFFAOYSA-N

> <Salt_Solvent>
?

> <LogBCF>
1.36

$$$$
100040
  -INDIGO-08031719362D

  5  4  0  0  0  0  0  0  0  0999 V2000
    0.0000    0.0000    0.0000 C   0  0  0  0  0  0  0  0  0  0  0  0
    0.8000    1.3856    0.0000 H   0  0  0  0  0  0  0  0  0  0  0  0
   -1.3856    0.8000    0.0000 Br  0  0  0  0  0  0  0  0  0  0  0  0
    1.3856   -0.8000    0.0000 Br  0  0  0  0  0  0  0  0  0  0  0  0
   -0.8000   -1.3856    0.0000 Br  0  0  0  0  0  0  0  0  0  0  0  0
  1  2  1  0  0  0  0
  1  3  1  0  0  0  0
  1  4  1  0  0  0  0
  1  5  1  0  0  0  0
M  END
> <ChemID>
100040

> <source_casrn>
75-25-2

> <CAS>
75-25-2

> <SMILES>
BrC(Br)Br

> <NAME>
BROMOFORM

> <preferred_name>
Bromoform

> <iupac>
tribromomethane

> <MPID>
97972

> <dsstox_substance_id>
DTXSID1021374

> <Canonical_QSARr>
BrC(Br)Br

> <InChI_Code_QSARr>
InChI=1S/CHBr3/c2-1(3)4/h1H

> <InChI Key_QSARr>
DIKBFYAXUHHXCS-UHFFFAOYSA-N

> <Salt_Solvent>
?

> <LogBCF>
1.13

$$$$
100041
  -INDIGO-08031719362D

  6  5  0  0  0  0  0  0  0  0999 V2000
   -0.0000    0.0000    0.0000 C   0  0  0  0  0  0  0  0  0  0  0  0
    0.8000    1.3856    0.0000 H   0  0  0  0  0  0  0  0  0  0  0  0
    0.8000   -1.3856    0.0000 H   0  0  0  0  0  0  0  0  0  0  0  0
   -1.6000    0.0000    0.0000 C   0  0  0  0  0  0  0  0  0  0  0  0
   -2.4000    1.3856    0.0000 Cl  0  0  0  0  0  0  0  0  0  0  0  0
   -2.4000   -1.3856    0.0000 Cl  0  0  0  0  0  0  0  0  0  0  0  0
  1  2  1  0  0  0  0
  1  3  1  0  0  0  0
  1  4  2  0  0  0  0
  4  5  1  0  0  0  0
  4  6  1  0  0  0  0
M  END
> <ChemID>
100041

> <source_casrn>
75-35-4

> <CAS>
75-35-4

> <SMILES>
C=C(Cl)Cl

> <NAME>
1,1-DICHLOROETHENE

> <preferred_name>
1,1-Dichloroethylene

> <iupac>
1,1-dichloroethene

> <MPID>
97973

> <dsstox_substance_id>
DTXSID8021438

> <Canonical_QSARr>
C=C(Cl)Cl

> <InChI_Code_QSARr>
InChI=1S/C2H2Cl2/c1-2(3)4/h1H2

> <InChI Key_QSARr>
LGXVIGDEPROXKC-UHFFFAOYSA-N

> <Salt_Solvent>
?

> <LogBCF>
1.11

$$$$
100042
  -INDIGO-08031719362D

 15 14  0  0  0  0  0  0  0  0999 V2000
    0.0000    0.0000    0.0000 C   0  0  0  0  0  0  0  0  0  0  0  0
    0.8000    1.3856    0.0000 C   0  0  0  0  0  0  0  0  0  0  0  0
    1.6000    2.7713    0.0000 H   0  0  0  0  0  0  0  0  0  0  0  0
    2.4000    1.3856    0.0000 H   0  0  0  0  0  0  0  0  0  0  0  0
    0.0000    2.7713    0.0000 H   0  0  0  0  0  0  0  0  0  0  0  0
   -1.3856    0.8000    0.0000 C   0  0  0  0  0  0  0  0  0  0  0  0
   -2.7713    1.6000    0.0000 H   0  0  0  0  0  0  0  0  0  0  0  0
   -2.7713    0.0000    0.0000 H   0  0  0  0  0  0  0  0  0  0  0  0
   -1.3856    2.4000    0.0000 H   0  0  0  0  0  0  0  0  0  0  0  0
   -0.8000   -1.3856    0.0000 C   0  0  0  0  0  0  0  0  0  0  0  0
   -1.6000   -2.7713    0.0000 H   0  0  0  0  0  0  0  0  0  0  0  0
    0.0000   -2.7713    0.0000 H   0  0  0  0  0  0  0  0  0  0  0  0
   -2.4000   -1.3856    0.0000 H   0  0  0  0  0  0  0  0  0  0  0  0
    1.3856   -0.8000    0.0000 O   0  0  0  0  0  0  0  0  0  0  0  0
    1.3856   -2.4000    0.0000 H   0  0  0  0  0  0  0  0  0  0  0  0
  1  2  1  0  0  0  0
  2  3  1  0  0  0  0
  2  4  1  0  0  0  0
  2  5  1  0  0  0  0
  1  6  1  0  0  0  0
  6  7  1  0  0  0  0
  6  8  1  0  0  0  0
  6  9  1  0  0  0  0
  1 10  1  0  0  0  0
 10 11  1  0  0  0  0
 10 12  1  0  0  0  0
 10 13  1  0  0  0  0
  1 14  1  0  0  0  0
 14 15  1  0  0  0  0
M  END
> <ChemID>
100042

> <source_casrn>
75-65-0

> <CAS>
75-65-0

> <SMILES>
CC(C)(C)O

> <NAME>
T-BUTANOL

> <preferred_name>
tert-Butyl alcohol

> <iupac>
2-methylpropan-2-ol

> <MPID>
97974

> <dsstox_substance_id>
DTXSID8020204

> <Canonical_QSARr>
CC(C)(C)O

> <InChI_Code_QSARr>
InChI=1S/C4H10O/c1-4(2,3)5/h5H,1-3H3

> <InChI Key_QSARr>
DKGAVHZHDRPRBM-UHFFFAOYSA-N

> <Salt_Solvent>
?

> <LogBCF>
0.7

$$$$
100044
  -INDIGO-08031719362D

 17 16  0  0  0  0  0  0  0  0999 V2000
   -0.8000    1.3856    0.0000 C   0  0  0  0  0  0  0  0  0  0  0  0
    0.0000    0.0000    0.0000 C   0  0  0  0  0  0  0  0  0  0  0  0
    1.3857    0.8000    0.0000 C   0  0  0  0  0  0  0  0  0  0  0  0
    2.7713    1.6000    0.0000 H   0  0  0  0  0  0  0  0  0  0  0  0
    1.3857    2.4000    0.0000 H   0  0  0  0  0  0  0  0  0  0  0  0
    2.7713    0.0000    0.0000 H   0  0  0  0  0  0  0  0  0  0  0  0
    0.8000   -1.3856    0.0000 C   0  0  0  0  0  0  0  0  0  0  0  0
    1.6000   -2.7713    0.0000 H   0  0  0  0  0  0  0  0  0  0  0  0
    0.0000   -2.7713    0.0000 H   0  0  0  0  0  0  0  0  0  0  0  0
    2.4000   -1.3856    0.0000 H   0  0  0  0  0  0  0  0  0  0  0  0
   -1.3856   -0.8000    0.0000 C   0  0  0  0  0  0  0  0  0  0  0  0
   -2.7713   -1.6000    0.0000 H   0  0  0  0  0  0  0  0  0  0  0  0
   -2.7713    0.0000    0.0000 H   0  0  0  0  0  0  0  0  0  0  0  0
   -1.3856   -2.4000    0.0000 H   0  0  0  0  0  0  0  0  0  0  0  0
   -2.4000    1.3856    0.0000 O   0  0  0  0  0  0  0  0  0  0  0  0
   -3.2000    2.7713    0.0000 H   0  0  0  0  0  0  0  0  0  0  0  0
    0.0000    2.7713    0.0000 O   0  0  0  0  0  0  0  0  0  0  0  0
  1  2  1  0  0  0  0
  2  3  1  0  0  0  0
  3  4  1  0  0  0  0
  3  5  1  0  0  0  0
  3  6  1  0  0  0  0
  2  7  1  0  0  0  0
  7  8  1  0  0  0  0
  7  9  1  0  0  0  0
  7 10  1  0  0  0  0
  2 11  1  0  0  0  0
 11 12  1  0  0  0  0
 11 13  1  0  0  0  0
 11 14  1  0  0  0  0
  1 15  1  0  0  0  0
 15 16  1  0  0  0  0
  1 17  2  0  0  0  0
M  END
> <ChemID>
100044

> <source_casrn>
75-98-9

> <CAS>
75-98-9

> <SMILES>
O=C(O)C(C)(C)C

> <NAME>
2,2-Dimethyl propanoic acid

> <preferred_name>
2,2-Dimethylpropanoic acid

> <iupac>
2,2-dimethylpropanoic acid

> <MPID>
97976

> <dsstox_substance_id>
DTXSID8026432

> <Canonical_QSARr>
CC(C)(C)C(O)=O

> <InChI_Code_QSARr>
InChI=1S/C5H10O2/c1-5(2,3)4(6)7/h1-3H3,(H,6,7)

> <InChI Key_QSARr>
IUGYQRQAERSCNH-UHFFFAOYSA-N

> <Salt_Solvent>
?

> <LogBCF>
0.36

$$$$
100045
  -INDIGO-08031719362D

  8  7  0  0  0  0  0  0  0  0999 V2000
   -0.8000   -1.3856    0.0000 Cl  0  0  0  0  0  0  0  0  0  0  0  0
   -0.0000    0.0000    0.0000 C   0  0  0  0  0  0  0  0  0  0  0  0
    1.6000    0.0000    0.0000 C   0  0  0  0  0  0  0  0  0  0  0  0
    2.4000   -1.3856    0.0000 O   0  0  0  0  0  0  0  0  0  0  0  0
    2.4000    1.3856    0.0000 O   0  0  0  0  0  0  0  0  0  0  0  0
    4.0000    1.3856    0.0000 H   0  0  0  0  0  0  0  0  0  0  0  0
   -1.6000    0.0000    0.0000 Cl  0  0  0  0  0  0  0  0  0  0  0  0
   -0.8000    1.3856    0.0000 Cl  0  0  0  0  0  0  0  0  0  0  0  0
  1  2  1  0  0  0  0
  2  3  1  0  0  0  0
  3  4  2  0  0  0  0
  3  5  1  0  0  0  0
  5  6  1  0  0  0  0
  2  7  1  0  0  0  0
  2  8  1  0  0  0  0
M  END
> <ChemID>
100045

> <source_casrn>
76-03-9

> <CAS>
76-03-9

> <SMILES>
OC(=O)C(Cl)(Cl)Cl

> <NAME>
TRICHLOROACETIC ACID

> <preferred_name>
Trichloroacetic acid

> <iupac>
trichloroacetic acid

> <MPID>
97977

> <dsstox_substance_id>
DTXSID1021378

> <Canonical_QSARr>
OC(=O)C(Cl)(Cl)Cl

> <InChI_Code_QSARr>
InChI=1S/C2HCl3O2/c3-2(4,5)1(6)7/h(H,6,7)

> <InChI Key_QSARr>
YNJBWRMUSHSURL-UHFFFAOYSA-N

> <Salt_Solvent>
?

> <LogBCF>
0.23

$$$$
100046
  -INDIGO-08031719362D

  8  7  0  0  0  0  0  0  0  0999 V2000
   -0.8000    1.3856    0.0000 F   0  0  0  0  0  0  0  0  0  0  0  0
    0.0000    0.0000    0.0000 C   0  0  0  0  0  0  0  0  0  0  0  0
    1.6000    0.0000    0.0000 C   0  0  0  0  0  0  0  0  0  0  0  0
    3.2000    0.0000    0.0000 F   0  0  0  0  0  0  0  0  0  0  0  0
    2.4000   -1.3856    0.0000 Cl  0  0  0  0  0  0  0  0  0  0  0  0
    2.4000    1.3856    0.0000 Cl  0  0  0  0  0  0  0  0  0  0  0  0
   -1.6000   -0.0000    0.0000 Cl  0  0  0  0  0  0  0  0  0  0  0  0
   -0.8000   -1.3856    0.0000 Cl  0  0  0  0  0  0  0  0  0  0  0  0
  1  2  1  0  0  0  0
  2  3  1  0  0  0  0
  3  4  1  0  0  0  0
  3  5  1  0  0  0  0
  3  6  1  0  0  0  0
  2  7  1  0  0  0  0
  2  8  1  0  0  0  0
M  END
> <ChemID>
100046

> <source_casrn>
76-12-0

> <CAS>
76-12-0

> <SMILES>
FC(C(F)(Cl)Cl)(Cl)Cl

> <NAME>
1,1,2,2,-TETRACHLORODIFLUOROETHANE

> <preferred_name>
1,2-Difluoro-1,1,2,2-tetrachloroethane

> <iupac>
1,1,2,2-tetrachloro-1,2-difluoroethane

> <MPID>
97978

> <dsstox_substance_id>
DTXSID5026091

> <Canonical_QSARr>
FC(Cl)(Cl)C(F)(Cl)Cl

> <InChI_Code_QSARr>
InChI=1S/C2Cl4F2/c3-1(4,7)2(5,6)8

> <InChI Key_QSARr>
UGCSPKPEHQEOSR-UHFFFAOYSA-N

> <Salt_Solvent>
?

> <LogBCF>
1.77

$$$$
100048
  -INDIGO-08031719362D

 22 24  0  0  0  0  0  0  0  0999 V2000
   -1.6000    0.0000    0.0000 C   0  0  0  0  0  0  0  0  0  0  0  0
   -2.0945   -1.5217    0.0000 C   0  0  0  0  0  0  0  0  0  0  0  0
   -3.6905   -1.4101    0.0000 Cl  0  0  0  0  0  0  0  0  0  0  0  0
   -3.3201   -2.5502    0.0000 Cl  0  0  0  0  0  0  0  0  0  0  0  0
   -0.8000   -2.4621    0.0000 C   0  0  0  0  0  0  0  0  0  0  0  0
   -0.3056   -3.9838    0.0000 Cl  0  0  0  0  0  0  0  0  0  0  0  0
   -2.4000   -2.4621    0.0000 C   0  0  0  0  0  0  0  0  0  0  0  0
   -2.8944   -0.9405    0.0000 C   0  0  0  0  0  0  0  0  0  0  0  0
   -4.4161   -0.4461    0.0000 Cl  0  0  0  0  0  0  0  0  0  0  0  0
   -3.3405   -3.7566    0.0000 Cl  0  0  0  0  0  0  0  0  0  0  0  0
    0.4944   -1.5217    0.0000 C   0  0  0  0  0  0  0  0  0  0  0  0
    0.9889   -3.0434    0.0000 H   0  0  0  0  0  0  0  0  0  0  0  0
    0.0000    0.0000    0.0000 C   0  0  0  0  0  0  0  0  0  0  0  0
   -0.4944    1.5217    0.0000 H   0  0  0  0  0  0  0  0  0  0  0  0
    1.2945    0.9405    0.0000 C   0  0  0  0  0  0  0  0  0  0  0  0
    2.3650    2.1295    0.0000 H   0  0  0  0  0  0  0  0  0  0  0  0
    2.5888    0.0000    0.0000 C   0  0  0  0  0  0  0  0  0  0  0  0
    4.1105    0.4944    0.0000 H   0  0  0  0  0  0  0  0  0  0  0  0
    2.0944   -1.5217    0.0000 C   0  0  0  0  0  0  0  0  0  0  0  0
    3.0349   -2.8161    0.0000 H   0  0  0  0  0  0  0  0  0  0  0  0
    0.2238    2.1295    0.0000 Cl  0  0  0  0  0  0  0  0  0  0  0  0
   -2.0945    1.5217    0.0000 Cl  0  0  0  0  0  0  0  0  0  0  0  0
  1  2  1  0  0  0  0
  2  3  1  0  0  0  0
  2  4  1  0  0  0  0
  2  5  1  0  0  0  0
  5  6  1  0  0  0  0
  5  7  1  0  0  0  0
  7  8  2  0  0  0  0
  8  1  1  0  0  0  0
  8  9  1  0  0  0  0
  7 10  1  0  0  0  0
  5 11  1  0  0  0  0
 11 12  1  0  0  0  0
 11 13  1  0  0  0  0
 13  1  1  0  0  0  0
 13 14  1  0  0  0  0
 13 15  1  0  0  0  0
 15 16  1  0  0  0  0
 15 17  1  0  0  0  0
 17 18  1  0  0  0  0
 17 19  2  0  0  0  0
 19 11  1  0  0  0  0
 19 20  1  0  0  0  0
 15 21  1  0  0  0  0
  1 22  1  0  0  0  0
M  END
> <ChemID>
100048

> <source_casrn>
76-44-8

> <CAS>
76-44-8

> <SMILES>
ClC1(Cl)C2(Cl)C3C=CC(Cl)C3C1(Cl)C(Cl)=C2Cl

> <NAME>
HEPTACHLOR

> <preferred_name>
Heptachlor

> <iupac>
1,4,5,6,7,8,8-heptachloro-3a,4,7,7a-tetrahydro-1H-4,7-methanoindene

> <MPID>
97980

> <dsstox_substance_id>
DTXSID3020679

> <Canonical_QSARr>
ClC1(Cl)C2(Cl)C3C=CC(Cl)C3C1(Cl)C(Cl)=C2Cl

> <InChI_Code_QSARr>
InChI=1S/C10H5Cl7/c11-4-2-1-3-5(4)9(15)7(13)6(12)8(3,14)10(9,16)17/h1-5H

> <InChI Key_QSARr>
FRCCEHPWNOQAEU-UHFFFAOYSA-N

> <Salt_Solvent>
?

> <LogBCF>
3.94

$$$$
100049
  -INDIGO-08031719362D

 35 37  0  0  0  0  0  0  0  0999 V2000
   -0.0001   -0.0000    0.0000 C   0  0  0  0  0  0  0  0  0  0  0  0
    1.5999   -0.0000    0.0000 C   0  0  0  0  0  0  0  0  0  0  0  0
    2.3999    1.3856    0.0000 C   0  0  0  0  0  0  0  0  0  0  0  0
    1.5999    2.7712    0.0000 H   0  0  0  0  0  0  0  0  0  0  0  0
    4.0000    1.3856    0.0000 C   0  0  0  0  0  0  0  0  0  0  0  0
    4.8000    2.7712    0.0000 H   0  0  0  0  0  0  0  0  0  0  0  0
    4.8000   -0.0000    0.0000 C   0  0  0  0  0  0  0  0  0  0  0  0
    6.4000   -0.0000    0.0000 H   0  0  0  0  0  0  0  0  0  0  0  0
    4.0000   -1.3857    0.0000 C   0  0  0  0  0  0  0  0  0  0  0  0
    4.8000   -2.7713    0.0000 H   0  0  0  0  0  0  0  0  0  0  0  0
    2.3999   -1.3857    0.0000 C   0  0  0  0  0  0  0  0  0  0  0  0
    1.5999   -2.7713    0.0000 H   0  0  0  0  0  0  0  0  0  0  0  0
    0.2778    1.5756    0.0000 C   0  0  0  0  0  0  0  0  0  0  0  0
   -0.7507    2.8014    0.0000 C   0  0  0  0  0  0  0  0  0  0  0  0
   -1.5999    2.7712    0.0000 H   0  0  0  0  0  0  0  0  0  0  0  0
   -0.2034    4.3048    0.0000 C   0  0  0  0  0  0  0  0  0  0  0  0
   -1.2318    5.5306    0.0000 H   0  0  0  0  0  0  0  0  0  0  0  0
    1.3724    4.5827    0.0000 C   0  0  0  0  0  0  0  0  0  0  0  0
    1.9195    6.0862    0.0000 H   0  0  0  0  0  0  0  0  0  0  0  0
    2.4007    3.3570    0.0000 C   0  0  0  0  0  0  0  0  0  0  0  0
    3.9765    3.6349    0.0000 H   0  0  0  0  0  0  0  0  0  0  0  0
    1.8534    1.8535    0.0000 C   0  0  0  0  0  0  0  0  0  0  0  0
    2.8820    0.6279    0.0000 H   0  0  0  0  0  0  0  0  0  0  0  0
   -1.5999   -0.0000    0.0000 C   0  0  0  0  0  0  0  0  0  0  0  0
   -2.3999    1.3856    0.0000 C   0  0  0  0  0  0  0  0  0  0  0  0
   -2.3451    2.2338    0.0000 H   0  0  0  0  0  0  0  0  0  0  0  0
   -4.0000    1.3856    0.0000 C   0  0  0  0  0  0  0  0  0  0  0  0
   -4.8000    2.7712    0.0000 H   0  0  0  0  0  0  0  0  0  0  0  0
   -4.8000   -0.0000    0.0000 C   0  0  0  0  0  0  0  0  0  0  0  0
   -6.4000   -0.0000    0.0000 H   0  0  0  0  0  0  0  0  0  0  0  0
   -4.0000   -1.3857    0.0000 C   0  0  0  0  0  0  0  0  0  0  0  0
   -4.8000   -2.7713    0.0000 H   0  0  0  0  0  0  0  0  0  0  0  0
   -2.3999   -1.3857    0.0000 C   0  0  0  0  0  0  0  0  0  0  0  0
   -1.5999   -2.7713    0.0000 H   0  0  0  0  0  0  0  0  0  0  0  0
   -0.0001   -1.6000    0.0000 Cl  0  0  0  0  0  0  0  0  0  0  0  0
  1  2  1  0  0  0  0
  2  3  1  0  0  0  0
  3  4  1  0  0  0  0
  3  5  2  0  0  0  0
  5  6  1  0  0  0  0
  5  7  1  0  0  0  0
  7  8  1  0  0  0  0
  7  9  2  0  0  0  0
  9 10  1  0  0  0  0
  9 11  1  0  0  0  0
 11  2  2  0  0  0  0
 11 12  1  0  0  0  0
  1 13  1  0  0  0  0
 13 14  1  0  0  0  0
 14 15  1  0  0  0  0
 14 16  2  0  0  0  0
 16 17  1  0  0  0  0
 16 18  1  0  0  0  0
 18 19  1  0  0  0  0
 18 20  2  0  0  0  0
 20 21  1  0  0  0  0
 20 22  1  0  0  0  0
 22 13  2  0  0  0  0
 22 23  1  0  0  0  0
  1 24  1  0  0  0  0
 24 25  1  0  0  0  0
 25 26  1  0  0  0  0
 25 27  2  0  0  0  0
 27 28  1  0  0  0  0
 27 29  1  0  0  0  0
 29 30  1  0  0  0  0
 29 31  2  0  0  0  0
 31 32  1  0  0  0  0
 31 33  1  0  0  0  0
 33 24  2  0  0  0  0
 33 34  1  0  0  0  0
  1 35  1  0  0  0  0
M  END
> <ChemID>
100049

> <source_casrn>
76-83-5

> <CAS>
76-83-5

> <SMILES>
ClC(c1ccccc1)(c1ccccc1)c1ccccc1

> <NAME>
BENZENE, 1,1',1''-(CHLOROMETHYLIDYNE)TRIS-

> <preferred_name>
Trityl chloride

> <iupac>
1,1',1''-(chloromethanetriyl)tribenzene

> <MPID>
97981

> <dsstox_substance_id>
DTXSID3052511

> <Canonical_QSARr>
ClC(c1ccccc1)(c1ccccc1)c1ccccc1

> <InChI_Code_QSARr>
InChI=1S/C19H15Cl/c20-19(16-10-4-1-5-11-16,17-12-6-2-7-13-17)18-14-8-3-9-15-18/h1-15H

> <InChI Key_QSARr>
JBWKIWSBJXDJDT-UHFFFAOYSA-N

> <Salt_Solvent>
?

> <LogBCF>
2.63

$$$$
100050
  -INDIGO-08031719362D

 29 30  0  0  0  0  0  0  0  0999 V2000
    0.0000   -0.0001    0.0000 C   0  0  0  0  0  0  0  0  0  0  0  0
    1.5036   -0.5473    0.0000 C   0  0  0  0  0  0  0  0  0  0  0  0
    2.7292    0.4812    0.0000 C   0  0  0  0  0  0  0  0  0  0  0  0
    2.4513    2.0569    0.0000 H   0  0  0  0  0  0  0  0  0  0  0  0
    4.2328   -0.0660    0.0000 C   0  0  0  0  0  0  0  0  0  0  0  0
    5.4584    0.9625    0.0000 H   0  0  0  0  0  0  0  0  0  0  0  0
    4.5105   -1.6417    0.0000 C   0  0  0  0  0  0  0  0  0  0  0  0
    6.0140   -2.1889    0.0000 H   0  0  0  0  0  0  0  0  0  0  0  0
    3.2848   -2.6702    0.0000 C   0  0  0  0  0  0  0  0  0  0  0  0
    3.5627   -4.2459    0.0000 H   0  0  0  0  0  0  0  0  0  0  0  0
    1.7813   -2.1230    0.0000 C   0  0  0  0  0  0  0  0  0  0  0  0
    1.2342   -3.6264    0.0000 H   0  0  0  0  0  0  0  0  0  0  0  0
   -1.5758    0.2779    0.0000 C   0  0  0  0  0  0  0  0  0  0  0  0
   -2.3757    1.6635    0.0000 C   0  0  0  0  0  0  0  0  0  0  0  0
   -2.0979    3.2391    0.0000 H   0  0  0  0  0  0  0  0  0  0  0  0
   -3.9756    1.6635    0.0000 C   0  0  0  0  0  0  0  0  0  0  0  0
   -4.7757    3.0492    0.0000 H   0  0  0  0  0  0  0  0  0  0  0  0
   -4.7757    0.2779    0.0000 C   0  0  0  0  0  0  0  0  0  0  0  0
   -6.3757    0.2779    0.0000 H   0  0  0  0  0  0  0  0  0  0  0  0
   -3.9756   -1.1078    0.0000 C   0  0  0  0  0  0  0  0  0  0  0  0
   -4.7757   -2.4935    0.0000 H   0  0  0  0  0  0  0  0  0  0  0  0
   -2.3757   -1.1078    0.0000 C   0  0  0  0  0  0  0  0  0  0  0  0
   -1.5758   -2.4935    0.0000 H   0  0  0  0  0  0  0  0  0  0  0  0
    0.0000    1.6000    0.0000 C   0  0  0  0  0  0  0  0  0  0  0  0
   -1.3856    2.4000    0.0000 O   0  0  0  0  0  0  0  0  0  0  0  0
    1.3856    2.4000    0.0000 O   0  0  0  0  0  0  0  0  0  0  0  0
    1.3856    4.0000    0.0000 H   0  0  0  0  0  0  0  0  0  0  0  0
   -0.5473   -1.5035    0.0000 O   0  0  0  0  0  0  0  0  0  0  0  0
    0.4811   -2.7292    0.0000 H   0  0  0  0  0  0  0  0  0  0  0  0
  1  2  1  0  0  0  0
  2  3  1  0  0  0  0
  3  4  1  0  0  0  0
  3  5  2  0  0  0  0
  5  6  1  0  0  0  0
  5  7  1  0  0  0  0
  7  8  1  0  0  0  0
  7  9  2  0  0  0  0
  9 10  1  0  0  0  0
  9 11  1  0  0  0  0
 11  2  2  0  0  0  0
 11 12  1  0  0  0  0
  1 13  1  0  0  0  0
 13 14  1  0  0  0  0
 14 15  1  0  0  0  0
 14 16  2  0  0  0  0
 16 17  1  0  0  0  0
 16 18  1  0  0  0  0
 18 19  1  0  0  0  0
 18 20  2  0  0  0  0
 20 21  1  0  0  0  0
 20 22  1  0  0  0  0
 22 13  2  0  0  0  0
 22 23  1  0  0  0  0
  1 24  1  0  0  0  0
 24 25  2  0  0  0  0
 24 26  1  0  0  0  0
 26 27  1  0  0  0  0
  1 28  1  0  0  0  0
 28 29  1  0  0  0  0
M  END
> <ChemID>
100050

> <source_casrn>
76-93-7

> <CAS>
76-93-7

> <SMILES>
OC(=O)C(O)(c1ccccc1)c1ccccc1

> <NAME>
BENZILIC ACID

> <preferred_name>
Benzilic acid

> <iupac>
2-hydroxy-2,2-di(phenyl)acetic acid

> <MPID>
97982

> <dsstox_substance_id>
DTXSID0058805

> <Canonical_QSARr>
OC(=O)C(O)(c1ccccc1)c1ccccc1

> <InChI_Code_QSARr>
InChI=1S/C14H12O3/c15-13(16)14(17,11-7-3-1-4-8-11)12-9-5-2-6-10-12/h1-10,17H,(H,15,16)

> <InChI Key_QSARr>
UKXSKSHDVLQNKG-UHFFFAOYSA-N

> <Salt_Solvent>
?

> <LogBCF>
0.26

$$$$
100053
  -INDIGO-08031719362D

 26 25  0  0  0  0  0  0  0  0999 V2000
    0.8001   -1.3856    0.0000 O   0  0  0  0  0  0  0  0  0  0  0  0
    0.0001    0.0000    0.0000 P   0  0  0  0  0  0  0  0  0  0  0  0
    1.6001    0.0000    0.0000 O   0  0  0  0  0  0  0  0  0  0  0  0
    2.4000   -1.3856    0.0000 C   0  0  0  0  0  0  0  0  0  0  0  0
    1.1306   -2.3596    0.0000 H   0  0  0  0  0  0  0  0  0  0  0  0
    2.1912   -2.9720    0.0000 H   0  0  0  0  0  0  0  0  0  0  0  0
    4.0000   -1.3856    0.0000 C   0  0  0  0  0  0  0  0  0  0  0  0
    5.6000   -1.3856    0.0000 H   0  0  0  0  0  0  0  0  0  0  0  0
    4.8000   -2.7712    0.0000 H   0  0  0  0  0  0  0  0  0  0  0  0
    4.8000    0.0000    0.0000 H   0  0  0  0  0  0  0  0  0  0  0  0
    0.8001    1.3857    0.0000 O   0  0  0  0  0  0  0  0  0  0  0  0
    0.0001    2.7713    0.0000 C   0  0  0  0  0  0  0  0  0  0  0  0
   -1.4782    3.3836    0.0000 H   0  0  0  0  0  0  0  0  0  0  0  0
   -1.4782    2.1590    0.0000 H   0  0  0  0  0  0  0  0  0  0  0  0
    0.8001    4.1569    0.0000 C   0  0  0  0  0  0  0  0  0  0  0  0
    1.6001    5.5426    0.0000 H   0  0  0  0  0  0  0  0  0  0  0  0
    0.0001    5.5426    0.0000 H   0  0  0  0  0  0  0  0  0  0  0  0
    2.4000    4.1569    0.0000 H   0  0  0  0  0  0  0  0  0  0  0  0
   -1.6001    0.0000    0.0000 O   0  0  0  0  0  0  0  0  0  0  0  0
   -2.4000   -1.3856    0.0000 C   0  0  0  0  0  0  0  0  0  0  0  0
   -2.1912   -2.9720    0.0000 H   0  0  0  0  0  0  0  0  0  0  0  0
   -1.1306   -2.3596    0.0000 H   0  0  0  0  0  0  0  0  0  0  0  0
   -4.0000   -1.3856    0.0000 C   0  0  0  0  0  0  0  0  0  0  0  0
   -5.6000   -1.3856    0.0000 H   0  0  0  0  0  0  0  0  0  0  0  0
   -4.8000   -2.7712    0.0000 H   0  0  0  0  0  0  0  0  0  0  0  0
   -4.8000    0.0000    0.0000 H   0  0  0  0  0  0  0  0  0  0  0  0
  1  2  2  0  0  0  0
  2  3  1  0  0  0  0
  3  4  1  0  0  0  0
  4  5  1  0  0  0  0
  4  6  1  0  0  0  0
  4  7  1  0  0  0  0
  7  8  1  0  0  0  0
  7  9  1  0  0  0  0
  7 10  1  0  0  0  0
  2 11  1  0  0  0  0
 11 12  1  0  0  0  0
 12 13  1  0  0  0  0
 12 14  1  0  0  0  0
 12 15  1  0  0  0  0
 15 16  1  0  0  0  0
 15 17  1  0  0  0  0
 15 18  1  0  0  0  0
  2 19  1  0  0  0  0
 19 20  1  0  0  0  0
 20 21  1  0  0  0  0
 20 22  1  0  0  0  0
 20 23  1  0  0  0  0
 23 24  1  0  0  0  0
 23 25  1  0  0  0  0
 23 26  1  0  0  0  0
M  END
> <ChemID>
100053

> <source_casrn>
78-40-0

> <CAS>
78-40-0

> <SMILES>
CCOP(=O)(OCC)OCC

> <NAME>
TRIETHYL PHOSPHATE

> <preferred_name>
Triethyl phosphate

> <iupac>
triethyl phosphate

> <MPID>
97984

> <dsstox_substance_id>
DTXSID8026228

> <Canonical_QSARr>
CCOP(=O)(OCC)OCC

> <InChI_Code_QSARr>
InChI=1S/C6H15O4P/c1-4-8-11(7,9-5-2)10-6-3/h4-6H2,1-3H3

> <InChI Key_QSARr>
DQWPFSLDHJDLRL-UHFFFAOYSA-N

> <Salt_Solvent>
?

> <LogBCF>
0.11

$$$$
100054
  -INDIGO-08031719362D

 80 79  0  0  0  0  0  0  0  0999 V2000
    4.7513   -0.5557    0.0000 O   0  0  0  0  0  0  0  0  0  0  0  0
    4.2043    0.9478    0.0000 P   0  0  0  0  0  0  0  0  0  0  0  0
    5.7798    0.6699    0.0000 O   0  0  0  0  0  0  0  0  0  0  0  0
    6.3272   -0.8336    0.0000 C   0  0  0  0  0  0  0  0  0  0  0  0
    5.8460   -2.3595    0.0000 H   0  0  0  0  0  0  0  0  0  0  0  0
    4.9078   -1.5722    0.0000 H   0  0  0  0  0  0  0  0  0  0  0  0
    7.9027   -1.1114    0.0000 C   0  0  0  0  0  0  0  0  0  0  0  0
    8.1805    0.4643    0.0000 H   0  0  0  0  0  0  0  0  0  0  0  0
    9.4785   -1.3891    0.0000 C   0  0  0  0  0  0  0  0  0  0  0  0
    9.4085    0.2094    0.0000 H   0  0  0  0  0  0  0  0  0  0  0  0
   10.5593   -0.2095    0.0000 H   0  0  0  0  0  0  0  0  0  0  0  0
   10.7041   -2.4176    0.0000 C   0  0  0  0  0  0  0  0  0  0  0  0
   11.0506   -3.9797    0.0000 H   0  0  0  0  0  0  0  0  0  0  0  0
    9.8444   -3.7672    0.0000 H   0  0  0  0  0  0  0  0  0  0  0  0
   12.2077   -1.8705    0.0000 C   0  0  0  0  0  0  0  0  0  0  0  0
   11.8615   -0.3084    0.0000 H   0  0  0  0  0  0  0  0  0  0  0  0
   13.0674   -0.5210    0.0000 H   0  0  0  0  0  0  0  0  0  0  0  0
   13.4332   -2.8988    0.0000 C   0  0  0  0  0  0  0  0  0  0  0  0
   14.6590   -3.9274    0.0000 H   0  0  0  0  0  0  0  0  0  0  0  0
   14.9368   -2.3517    0.0000 H   0  0  0  0  0  0  0  0  0  0  0  0
   13.1554   -4.4746    0.0000 H   0  0  0  0  0  0  0  0  0  0  0  0
    7.6249   -2.6869    0.0000 C   0  0  0  0  0  0  0  0  0  0  0  0
    9.2112   -2.8958    0.0000 H   0  0  0  0  0  0  0  0  0  0  0  0
    8.5989   -3.9563    0.0000 H   0  0  0  0  0  0  0  0  0  0  0  0
    6.2394   -3.4870    0.0000 C   0  0  0  0  0  0  0  0  0  0  0  0
    6.2394   -5.0870    0.0000 H   0  0  0  0  0  0  0  0  0  0  0  0
    4.8536   -4.2870    0.0000 H   0  0  0  0  0  0  0  0  0  0  0  0
    7.6249   -4.2870    0.0000 H   0  0  0  0  0  0  0  0  0  0  0  0
    5.2325    2.1734    0.0000 O   0  0  0  0  0  0  0  0  0  0  0  0
    4.6855    3.6769    0.0000 C   0  0  0  0  0  0  0  0  0  0  0  0
    3.1232    3.3308    0.0000 H   0  0  0  0  0  0  0  0  0  0  0  0
    3.3361    4.5367    0.0000 H   0  0  0  0  0  0  0  0  0  0  0  0
    5.7139    4.9026    0.0000 C   0  0  0  0  0  0  0  0  0  0  0  0
    6.7424    3.6769    0.0000 H   0  0  0  0  0  0  0  0  0  0  0  0
    6.9395    5.9312    0.0000 C   0  0  0  0  0  0  0  0  0  0  0  0
    8.4656    5.4500    0.0000 H   0  0  0  0  0  0  0  0  0  0  0  0
    7.6784    4.5119    0.0000 H   0  0  0  0  0  0  0  0  0  0  0  0
    7.7396    7.3168    0.0000 C   0  0  0  0  0  0  0  0  0  0  0  0
    6.4700    8.2907    0.0000 H   0  0  0  0  0  0  0  0  0  0  0  0
    7.5305    8.9032    0.0000 H   0  0  0  0  0  0  0  0  0  0  0  0
    9.3395    7.3168    0.0000 C   0  0  0  0  0  0  0  0  0  0  0  0
   10.6087    6.3429    0.0000 H   0  0  0  0  0  0  0  0  0  0  0  0
    9.5482    5.7304    0.0000 H   0  0  0  0  0  0  0  0  0  0  0  0
   10.1396    8.7024    0.0000 C   0  0  0  0  0  0  0  0  0  0  0  0
   10.9394   10.0881    0.0000 H   0  0  0  0  0  0  0  0  0  0  0  0
   11.7395    8.7024    0.0000 H   0  0  0  0  0  0  0  0  0  0  0  0
    9.3395   10.0881    0.0000 H   0  0  0  0  0  0  0  0  0  0  0  0
    4.6855    6.1284    0.0000 C   0  0  0  0  0  0  0  0  0  0  0  0
    4.6154    7.7269    0.0000 H   0  0  0  0  0  0  0  0  0  0  0  0
    5.7662    7.3080    0.0000 H   0  0  0  0  0  0  0  0  0  0  0  0
    3.1096    5.8506    0.0000 C   0  0  0  0  0  0  0  0  0  0  0  0
    2.0811    7.0762    0.0000 H   0  0  0  0  0  0  0  0  0  0  0  0
    3.6570    7.3541    0.0000 H   0  0  0  0  0  0  0  0  0  0  0  0
    1.5341    5.5727    0.0000 H   0  0  0  0  0  0  0  0  0  0  0  0
    2.6285    1.2257    0.0000 O   0  0  0  0  0  0  0  0  0  0  0  0
    1.6000    0.0000    0.0000 C   0  0  0  0  0  0  0  0  0  0  0  0
    2.8695   -0.9741    0.0000 H   0  0  0  0  0  0  0  0  0  0  0  0
    1.8087   -1.5864    0.0000 H   0  0  0  0  0  0  0  0  0  0  0  0
    0.0001    0.0000    0.0000 C   0  0  0  0  0  0  0  0  0  0  0  0
   -1.5999    0.0000    0.0000 H   0  0  0  0  0  0  0  0  0  0  0  0
   -0.5473   -1.5035    0.0000 C   0  0  0  0  0  0  0  0  0  0  0  0
    0.8721   -2.2424    0.0000 H   0  0  0  0  0  0  0  0  0  0  0  0
   -0.0662   -3.0294    0.0000 H   0  0  0  0  0  0  0  0  0  0  0  0
   -2.1228   -1.7813    0.0000 C   0  0  0  0  0  0  0  0  0  0  0  0
   -3.5422   -1.0427    0.0000 H   0  0  0  0  0  0  0  0  0  0  0  0
   -2.6040   -0.2554    0.0000 H   0  0  0  0  0  0  0  0  0  0  0  0
   -2.6702   -3.2848    0.0000 C   0  0  0  0  0  0  0  0  0  0  0  0
   -1.2508   -4.0237    0.0000 H   0  0  0  0  0  0  0  0  0  0  0  0
   -2.1890   -4.8108    0.0000 H   0  0  0  0  0  0  0  0  0  0  0  0
   -4.2457   -3.5627    0.0000 C   0  0  0  0  0  0  0  0  0  0  0  0
   -5.8215   -3.8406    0.0000 H   0  0  0  0  0  0  0  0  0  0  0  0
   -4.7930   -5.0662    0.0000 H   0  0  0  0  0  0  0  0  0  0  0  0
   -5.2742   -2.3371    0.0000 H   0  0  0  0  0  0  0  0  0  0  0  0
    0.0001    1.6001    0.0000 C   0  0  0  0  0  0  0  0  0  0  0  0
    0.9741    2.8693    0.0000 H   0  0  0  0  0  0  0  0  0  0  0  0
    1.5863    1.8087    0.0000 H   0  0  0  0  0  0  0  0  0  0  0  0
   -1.3857    2.3999    0.0000 C   0  0  0  0  0  0  0  0  0  0  0  0
   -2.7712    3.1999    0.0000 H   0  0  0  0  0  0  0  0  0  0  0  0
   -1.3857    4.0000    0.0000 H   0  0  0  0  0  0  0  0  0  0  0  0
   -2.7712    1.6001    0.0000 H   0  0  0  0  0  0  0  0  0  0  0  0
  1  2  2  0  0  0  0
  2  3  1  0  0  0  0
  3  4  1  0  0  0  0
  4  5  1  0  0  0  0
  4  6  1  0  0  0  0
  4  7  1  0  0  0  0
  7  8  1  0  0  0  0
  7  9  1  0  0  0  0
  9 10  1  0  0  0  0
  9 11  1  0  0  0  0
  9 12  1  0  0  0  0
 12 13  1  0  0  0  0
 12 14  1  0  0  0  0
 12 15  1  0  0  0  0
 15 16  1  0  0  0  0
 15 17  1  0  0  0  0
 15 18  1  0  0  0  0
 18 19  1  0  0  0  0
 18 20  1  0  0  0  0
 18 21  1  0  0  0  0
  7 22  1  0  0  0  0
 22 23  1  0  0  0  0
 22 24  1  0  0  0  0
 22 25  1  0  0  0  0
 25 26  1  0  0  0  0
 25 27  1  0  0  0  0
 25 28  1  0  0  0  0
  2 29  1  0  0  0  0
 29 30  1  0  0  0  0
 30 31  1  0  0  0  0
 30 32  1  0  0  0  0
 30 33  1  0  0  0  0
 33 34  1  0  0  0  0
 33 35  1  0  0  0  0
 35 36  1  0  0  0  0
 35 37  1  0  0  0  0
 35 38  1  0  0  0  0
 38 39  1  0  0  0  0
 38 40  1  0  0  0  0
 38 41  1  0  0  0  0
 41 42  1  0  0  0  0
 41 43  1  0  0  0  0
 41 44  1  0  0  0  0
 44 45  1  0  0  0  0
 44 46  1  0  0  0  0
 44 47  1  0  0  0  0
 33 48  1  0  0  0  0
 48 49  1  0  0  0  0
 48 50  1  0  0  0  0
 48 51  1  0  0  0  0
 51 52  1  0  0  0  0
 51 53  1  0  0  0  0
 51 54  1  0  0  0  0
  2 55  1  0  0  0  0
 55 56  1  0  0  0  0
 56 57  1  0  0  0  0
 56 58  1  0  0  0  0
 56 59  1  0  0  0  0
 59 60  1  0  0  0  0
 59 61  1  0  0  0  0
 61 62  1  0  0  0  0
 61 63  1  0  0  0  0
 61 64  1  0  0  0  0
 64 65  1  0  0  0  0
 64 66  1  0  0  0  0
 64 67  1  0  0  0  0
 67 68  1  0  0  0  0
 67 69  1  0  0  0  0
 67 70  1  0  0  0  0
 70 71  1  0  0  0  0
 70 72  1  0  0  0  0
 70 73  1  0  0  0  0
 59 74  1  0  0  0  0
 74 75  1  0  0  0  0
 74 76  1  0  0  0  0
 74 77  1  0  0  0  0
 77 78  1  0  0  0  0
 77 79  1  0  0  0  0
 77 80  1  0  0  0  0
M  END
> <ChemID>
100054

> <source_casrn>
78-42-2

> <CAS>
78-42-2

> <SMILES>
CCCCC(COP(=O)(OCC(CCCC)CC)OCC(CCCC)CC)CC

> <NAME>
TRIS(2-ETHYLHEXYL) PHOSPHATE

> <preferred_name>
Tris(2-ethylhexyl) phosphate

> <iupac>
tris(2-ethylhexyl) phosphate

> <MPID>
97985

> <dsstox_substance_id>
DTXSID0021414

> <Canonical_QSARr>
CCCCC(COP(=O)(OCC(CCCC)CC)OCC(CCCC)CC)CC

> <InChI_Code_QSARr>
InChI=1S/C24H51O4P/c1-7-13-16-22(10-4)19-26-29(25,27-20-23(11-5)17-14-8-2)28-21-24(12-6)18-15-9-3/h22-24H,7-21H2,1-6H3

> <InChI Key_QSARr>
GTVWRXDRKAHEAD-UHFFFAOYSA-N

> <Salt_Solvent>
?

> <LogBCF>
1.7

$$$$
100055
  -INDIGO-08031719362D

 65 64  0  0  0  0  0  0  0  0999 V2000
    2.4000   -1.3857    0.0000 C   0  0  0  0  0  0  0  0  0  0  0  0
    3.1998   -2.7713    0.0000 H   0  0  0  0  0  0  0  0  0  0  0  0
    4.0000   -1.3857    0.0000 H   0  0  0  0  0  0  0  0  0  0  0  0
    1.5999   -2.7713    0.0000 H   0  0  0  0  0  0  0  0  0  0  0  0
    1.5999   -0.0000    0.0000 C   0  0  0  0  0  0  0  0  0  0  0  0
    1.8087    1.5863    0.0000 H   0  0  0  0  0  0  0  0  0  0  0  0
    2.8693    0.9741    0.0000 H   0  0  0  0  0  0  0  0  0  0  0  0
   -0.0001   -0.0000    0.0000 C   0  0  0  0  0  0  0  0  0  0  0  0
   -0.2090   -1.5864    0.0000 H   0  0  0  0  0  0  0  0  0  0  0  0
   -1.2692   -0.9739    0.0000 H   0  0  0  0  0  0  0  0  0  0  0  0
   -0.7999    1.3856    0.0000 C   0  0  0  0  0  0  0  0  0  0  0  0
   -0.5911    2.9719    0.0000 H   0  0  0  0  0  0  0  0  0  0  0  0
    0.4695    2.3597    0.0000 H   0  0  0  0  0  0  0  0  0  0  0  0
   -2.3999    1.3856    0.0000 O   0  0  0  0  0  0  0  0  0  0  0  0
   -3.2001    2.7712    0.0000 C   0  0  0  0  0  0  0  0  0  0  0  0
   -2.9912    4.3575    0.0000 H   0  0  0  0  0  0  0  0  0  0  0  0
   -1.9306    3.7454    0.0000 H   0  0  0  0  0  0  0  0  0  0  0  0
   -4.8000    2.7712    0.0000 C   0  0  0  0  0  0  0  0  0  0  0  0
   -5.0089    1.1849    0.0000 H   0  0  0  0  0  0  0  0  0  0  0  0
   -6.0695    1.7973    0.0000 H   0  0  0  0  0  0  0  0  0  0  0  0
   -5.5999    4.1568    0.0000 O   0  0  0  0  0  0  0  0  0  0  0  0
   -7.2002    4.1568    0.0000 P   0  0  0  0  0  0  0  0  0  0  0  0
   -8.0000    2.7712    0.0000 O   0  0  0  0  0  0  0  0  0  0  0  0
   -8.8001    4.1568    0.0000 O   0  0  0  0  0  0  0  0  0  0  0  0
   -9.6000    2.7712    0.0000 C   0  0  0  0  0  0  0  0  0  0  0  0
   -8.3305    1.7973    0.0000 H   0  0  0  0  0  0  0  0  0  0  0  0
   -9.3911    1.1849    0.0000 H   0  0  0  0  0  0  0  0  0  0  0  0
  -11.1999    2.7712    0.0000 C   0  0  0  0  0  0  0  0  0  0  0  0
  -12.4694    3.7454    0.0000 H   0  0  0  0  0  0  0  0  0  0  0  0
  -11.4088    4.3575    0.0000 H   0  0  0  0  0  0  0  0  0  0  0  0
  -12.0001    1.3856    0.0000 O   0  0  0  0  0  0  0  0  0  0  0  0
  -13.6001    1.3856    0.0000 C   0  0  0  0  0  0  0  0  0  0  0  0
  -14.8695    2.3597    0.0000 H   0  0  0  0  0  0  0  0  0  0  0  0
  -13.8089    2.9719    0.0000 H   0  0  0  0  0  0  0  0  0  0  0  0
  -14.3999   -0.0000    0.0000 C   0  0  0  0  0  0  0  0  0  0  0  0
  -13.1308   -0.9739    0.0000 H   0  0  0  0  0  0  0  0  0  0  0  0
  -14.1910   -1.5864    0.0000 H   0  0  0  0  0  0  0  0  0  0  0  0
  -15.9999   -0.0000    0.0000 C   0  0  0  0  0  0  0  0  0  0  0  0
  -17.2693    0.9741    0.0000 H   0  0  0  0  0  0  0  0  0  0  0  0
  -16.2087    1.5863    0.0000 H   0  0  0  0  0  0  0  0  0  0  0  0
  -16.8000   -1.3857    0.0000 C   0  0  0  0  0  0  0  0  0  0  0  0
  -17.5998   -2.7713    0.0000 H   0  0  0  0  0  0  0  0  0  0  0  0
  -18.4000   -1.3857    0.0000 H   0  0  0  0  0  0  0  0  0  0  0  0
  -15.9999   -2.7713    0.0000 H   0  0  0  0  0  0  0  0  0  0  0  0
   -8.0000    5.5424    0.0000 O   0  0  0  0  0  0  0  0  0  0  0  0
   -7.2002    6.9281    0.0000 C   0  0  0  0  0  0  0  0  0  0  0  0
   -5.7219    7.5405    0.0000 H   0  0  0  0  0  0  0  0  0  0  0  0
   -5.7219    6.3159    0.0000 H   0  0  0  0  0  0  0  0  0  0  0  0
   -8.0000    8.3140    0.0000 C   0  0  0  0  0  0  0  0  0  0  0  0
   -9.4783    7.7015    0.0000 H   0  0  0  0  0  0  0  0  0  0  0  0
   -9.4783    8.9261    0.0000 H   0  0  0  0  0  0  0  0  0  0  0  0
   -7.2002    9.6996    0.0000 O   0  0  0  0  0  0  0  0  0  0  0  0
   -8.0000   11.0852    0.0000 C   0  0  0  0  0  0  0  0  0  0  0  0
   -9.4783   10.4728    0.0000 H   0  0  0  0  0  0  0  0  0  0  0  0
   -9.4783   11.6974    0.0000 H   0  0  0  0  0  0  0  0  0  0  0  0
   -7.2002   12.4708    0.0000 C   0  0  0  0  0  0  0  0  0  0  0  0
   -5.7219   13.0830    0.0000 H   0  0  0  0  0  0  0  0  0  0  0  0
   -5.7219   11.8584    0.0000 H   0  0  0  0  0  0  0  0  0  0  0  0
   -8.0000   13.8565    0.0000 C   0  0  0  0  0  0  0  0  0  0  0  0
   -9.4783   13.2440    0.0000 H   0  0  0  0  0  0  0  0  0  0  0  0
   -9.4783   14.4686    0.0000 H   0  0  0  0  0  0  0  0  0  0  0  0
   -7.2002   15.2421    0.0000 C   0  0  0  0  0  0  0  0  0  0  0  0
   -6.4000   16.6277    0.0000 H   0  0  0  0  0  0  0  0  0  0  0  0
   -8.0000   16.6277    0.0000 H   0  0  0  0  0  0  0  0  0  0  0  0
   -5.5999   15.2421    0.0000 H   0  0  0  0  0  0  0  0  0  0  0  0
  1  2  1  0  0  0  0
  1  3  1  0  0  0  0
  1  4  1  0  0  0  0
  1  5  1  0  0  0  0
  5  6  1  0  0  0  0
  5  7  1  0  0  0  0
  5  8  1  0  0  0  0
  8  9  1  0  0  0  0
  8 10  1  0  0  0  0
  8 11  1  0  0  0  0
 11 12  1  0  0  0  0
 11 13  1  0  0  0  0
 11 14  1  0  0  0  0
 14 15  1  0  0  0  0
 15 16  1  0  0  0  0
 15 17  1  0  0  0  0
 15 18  1  0  0  0  0
 18 19  1  0  0  0  0
 18 20  1  0  0  0  0
 18 21  1  0  0  0  0
 21 22  1  0  0  0  0
 22 23  2  0  0  0  0
 22 24  1  0  0  0  0
 24 25  1  0  0  0  0
 25 26  1  0  0  0  0
 25 27  1  0  0  0  0
 25 28  1  0  0  0  0
 28 29  1  0  0  0  0
 28 30  1  0  0  0  0
 28 31  1  0  0  0  0
 31 32  1  0  0  0  0
 32 33  1  0  0  0  0
 32 34  1  0  0  0  0
 32 35  1  0  0  0  0
 35 36  1  0  0  0  0
 35 37  1  0  0  0  0
 35 38  1  0  0  0  0
 38 39  1  0  0  0  0
 38 40  1  0  0  0  0
 38 41  1  0  0  0  0
 41 42  1  0  0  0  0
 41 43  1  0  0  0  0
 41 44  1  0  0  0  0
 22 45  1  0  0  0  0
 45 46  1  0  0  0  0
 46 47  1  0  0  0  0
 46 48  1  0  0  0  0
 46 49  1  0  0  0  0
 49 50  1  0  0  0  0
 49 51  1  0  0  0  0
 49 52  1  0  0  0  0
 52 53  1  0  0  0  0
 53 54  1  0  0  0  0
 53 55  1  0  0  0  0
 53 56  1  0  0  0  0
 56 57  1  0  0  0  0
 56 58  1  0  0  0  0
 56 59  1  0  0  0  0
 59 60  1  0  0  0  0
 59 61  1  0  0  0  0
 59 62  1  0  0  0  0
 62 63  1  0  0  0  0
 62 64  1  0  0  0  0
 62 65  1  0  0  0  0
M  END
> <ChemID>
100055

> <source_casrn>
78-51-3

> <CAS>
78-51-3

> <SMILES>
O=P(OCCOCCCC)(OCCOCCCC)OCCOCCCC

> <NAME>
TRI-2-BUTOXYETHYL PHOSPHATE

> <preferred_name>
Tris(2-butoxyethyl) phosphate

> <iupac>
tris(2-butoxyethyl) phosphate

> <MPID>
97986

> <dsstox_substance_id>
DTXSID5021758

> <Canonical_QSARr>
CCCCOCCOP(=O)(OCCOCCCC)OCCOCCCC

> <InChI_Code_QSARr>
InChI=1S/C18H39O7P/c1-4-7-10-20-13-16-23-26(19,24-17-14-21-11-8-5-2)25-18-15-22-12-9-6-3/h4-18H2,1-3H3

> <InChI Key_QSARr>
WTLBZVNBAKMVDP-UHFFFAOYSA-N

> <Salt_Solvent>
?

> <LogBCF>
0.76

$$$$
100057
  -INDIGO-08031719362D

 54 53  0  0  0  0  0  0  0  0999 V2000
    0.0001   -0.0000    0.0000 C   0  0  0  0  0  0  0  0  0  0  0  0
    0.8001    1.3857    0.0000 C   0  0  0  0  0  0  0  0  0  0  0  0
    1.6001    2.7713    0.0000 H   0  0  0  0  0  0  0  0  0  0  0  0
    0.0001    2.7713    0.0000 H   0  0  0  0  0  0  0  0  0  0  0  0
    2.4001    1.3857    0.0000 H   0  0  0  0  0  0  0  0  0  0  0  0
   -1.2258    1.0285    0.0000 C   0  0  0  0  0  0  0  0  0  0  0  0
   -2.4514    2.0569    0.0000 H   0  0  0  0  0  0  0  0  0  0  0  0
   -2.7292    0.4812    0.0000 H   0  0  0  0  0  0  0  0  0  0  0  0
   -0.9478    2.6041    0.0000 H   0  0  0  0  0  0  0  0  0  0  0  0
    1.3856   -0.8000    0.0000 O   0  0  0  0  0  0  0  0  0  0  0  0
    2.7713   -0.0000    0.0000 O   0  0  0  0  0  0  0  0  0  0  0  0
    4.2747   -0.5472    0.0000 C   0  0  0  0  0  0  0  0  0  0  0  0
    5.7784   -1.0945    0.0000 C   0  0  0  0  0  0  0  0  0  0  0  0
    7.2818   -1.6417    0.0000 H   0  0  0  0  0  0  0  0  0  0  0  0
    7.0040   -0.0661    0.0000 H   0  0  0  0  0  0  0  0  0  0  0  0
    6.0562   -2.6702    0.0000 H   0  0  0  0  0  0  0  0  0  0  0  0
    4.8219    0.9563    0.0000 C   0  0  0  0  0  0  0  0  0  0  0  0
    5.3692    2.4597    0.0000 H   0  0  0  0  0  0  0  0  0  0  0  0
    6.3977    1.2342    0.0000 H   0  0  0  0  0  0  0  0  0  0  0  0
    3.7936    2.1820    0.0000 H   0  0  0  0  0  0  0  0  0  0  0  0
    3.7275   -2.0508    0.0000 C   0  0  0  0  0  0  0  0  0  0  0  0
    4.7561   -3.2765    0.0000 H   0  0  0  0  0  0  0  0  0  0  0  0
    2.1517   -2.3286    0.0000 H   0  0  0  0  0  0  0  0  0  0  0  0
    3.1803   -3.5542    0.0000 H   0  0  0  0  0  0  0  0  0  0  0  0
   -0.5471   -1.5036    0.0000 C   0  0  0  0  0  0  0  0  0  0  0  0
    0.9787   -1.9846    0.0000 H   0  0  0  0  0  0  0  0  0  0  0  0
    0.1914   -2.9227    0.0000 H   0  0  0  0  0  0  0  0  0  0  0  0
   -2.0508   -2.0508    0.0000 C   0  0  0  0  0  0  0  0  0  0  0  0
   -3.3201   -1.0768    0.0000 H   0  0  0  0  0  0  0  0  0  0  0  0
   -2.2596   -0.4645    0.0000 H   0  0  0  0  0  0  0  0  0  0  0  0
   -2.8508   -3.4364    0.0000 C   0  0  0  0  0  0  0  0  0  0  0  0
   -3.6508   -4.8221    0.0000 C   0  0  0  0  0  0  0  0  0  0  0  0
   -4.4508   -6.2077    0.0000 H   0  0  0  0  0  0  0  0  0  0  0  0
   -2.8508   -6.2077    0.0000 H   0  0  0  0  0  0  0  0  0  0  0  0
   -5.2508   -4.8221    0.0000 H   0  0  0  0  0  0  0  0  0  0  0  0
   -1.6251   -4.4649    0.0000 C   0  0  0  0  0  0  0  0  0  0  0  0
   -0.3995   -5.4933    0.0000 H   0  0  0  0  0  0  0  0  0  0  0  0
   -1.9029   -6.0405    0.0000 H   0  0  0  0  0  0  0  0  0  0  0  0
   -0.1215   -3.9175    0.0000 H   0  0  0  0  0  0  0  0  0  0  0  0
   -4.2365   -2.6364    0.0000 O   0  0  0  0  0  0  0  0  0  0  0  0
   -5.6220   -3.4364    0.0000 O   0  0  0  0  0  0  0  0  0  0  0  0
   -7.0077   -2.6364    0.0000 C   0  0  0  0  0  0  0  0  0  0  0  0
   -8.3932   -1.8364    0.0000 C   0  0  0  0  0  0  0  0  0  0  0  0
   -9.7789   -1.0364    0.0000 H   0  0  0  0  0  0  0  0  0  0  0  0
   -8.3932   -0.2364    0.0000 H   0  0  0  0  0  0  0  0  0  0  0  0
   -9.7789   -2.6364    0.0000 H   0  0  0  0  0  0  0  0  0  0  0  0
   -6.2077   -1.2508    0.0000 C   0  0  0  0  0  0  0  0  0  0  0  0
   -5.4077    0.1349    0.0000 H   0  0  0  0  0  0  0  0  0  0  0  0
   -7.0077    0.1349    0.0000 H   0  0  0  0  0  0  0  0  0  0  0  0
   -4.6077   -1.2508    0.0000 H   0  0  0  0  0  0  0  0  0  0  0  0
   -7.8077   -4.0221    0.0000 C   0  0  0  0  0  0  0  0  0  0  0  0
   -7.0077   -5.4077    0.0000 H   0  0  0  0  0  0  0  0  0  0  0  0
   -9.4077   -4.0221    0.0000 H   0  0  0  0  0  0  0  0  0  0  0  0
   -8.6077   -5.4077    0.0000 H   0  0  0  0  0  0  0  0  0  0  0  0
  1  2  1  0  0  0  0
  2  3  1  0  0  0  0
  2  4  1  0  0  0  0
  2  5  1  0  0  0  0
  1  6  1  0  0  0  0
  6  7  1  0  0  0  0
  6  8  1  0  0  0  0
  6  9  1  0  0  0  0
  1 10  1  0  0  0  0
 10 11  1  0  0  0  0
 11 12  1  0  0  0  0
 12 13  1  0  0  0  0
 13 14  1  0  0  0  0
 13 15  1  0  0  0  0
 13 16  1  0  0  0  0
 12 17  1  0  0  0  0
 17 18  1  0  0  0  0
 17 19  1  0  0  0  0
 17 20  1  0  0  0  0
 12 21  1  0  0  0  0
 21 22  1  0  0  0  0
 21 23  1  0  0  0  0
 21 24  1  0  0  0  0
  1 25  1  0  0  0  0
 25 26  1  0  0  0  0
 25 27  1  0  0  0  0
 25 28  1  0  0  0  0
 28 29  1  0  0  0  0
 28 30  1  0  0  0  0
 28 31  1  0  0  0  0
 31 32  1  0  0  0  0
 32 33  1  0  0  0  0
 32 34  1  0  0  0  0
 32 35  1  0  0  0  0
 31 36  1  0  0  0  0
 36 37  1  0  0  0  0
 36 38  1  0  0  0  0
 36 39  1  0  0  0  0
 31 40  1  0  0  0  0
 40 41  1  0  0  0  0
 41 42  1  0  0  0  0
 42 43  1  0  0  0  0
 43 44  1  0  0  0  0
 43 45  1  0  0  0  0
 43 46  1  0  0  0  0
 42 47  1  0  0  0  0
 47 48  1  0  0  0  0
 47 49  1  0  0  0  0
 47 50  1  0  0  0  0
 42 51  1  0  0  0  0
 51 52  1  0  0  0  0
 51 53  1  0  0  0  0
 51 54  1  0  0  0  0
M  END
> <ChemID>
100057

> <source_casrn>
78-63-7

> <CAS>
78-63-7

> <SMILES>
O(OC(C)(C)C)C(CCC(OOC(C)(C)C)(C)C)(C)C

> <NAME>
Varox

> <preferred_name>
2,5-Dimethyl-2,5-di-(tert-butylperoxy)hexane

> <iupac>
2,5-bis(tert-butylperoxy)-2,5-dimethylhexane

> <MPID>
97988

> <dsstox_substance_id>
DTXSID9025110

> <Canonical_QSARr>
CC(C)(C)OOC(C)(C)CCC(C)(C)OOC(C)(C)C

> <InChI_Code_QSARr>
InChI=1S/C16H34O4/c1-13(2,3)17-19-15(7,8)11-12-16(9,10)20-18-14(4,5)6/h11-12H2,1-10H3

> <InChI Key_QSARr>
DMWVYCCGCQPJEA-UHFFFAOYSA-N

> <Salt_Solvent>
?

> <LogBCF>
3.48

$$$$
100058
  -INDIGO-08031719362D

 13 12  0  0  0  0  0  0  0  0999 V2000
    1.3856    0.8000    0.0000 C   0  0  0  0  0  0  0  0  0  0  0  0
    2.7713    1.6000    0.0000 H   0  0  0  0  0  0  0  0  0  0  0  0
    2.7713    0.0000    0.0000 H   0  0  0  0  0  0  0  0  0  0  0  0
    1.3856    2.4000    0.0000 H   0  0  0  0  0  0  0  0  0  0  0  0
    0.0000    0.0000    0.0000 C   0  0  0  0  0  0  0  0  0  0  0  0
    0.0000   -1.6000    0.0000 C   0  0  0  0  0  0  0  0  0  0  0  0
   -1.3856   -2.4000    0.0000 H   0  0  0  0  0  0  0  0  0  0  0  0
    1.3856   -2.4000    0.0000 H   0  0  0  0  0  0  0  0  0  0  0  0
   -1.3856    0.8000    0.0000 C   0  0  0  0  0  0  0  0  0  0  0  0
   -1.3856    2.4000    0.0000 H   0  0  0  0  0  0  0  0  0  0  0  0
   -2.7713   -0.0000    0.0000 C   0  0  0  0  0  0  0  0  0  0  0  0
   -4.1569    0.8000    0.0000 H   0  0  0  0  0  0  0  0  0  0  0  0
   -2.7713   -1.6000    0.0000 H   0  0  0  0  0  0  0  0  0  0  0  0
  1  2  1  0  0  0  0
  1  3  1  0  0  0  0
  1  4  1  0  0  0  0
  1  5  1  0  0  0  0
  5  6  2  0  0  0  0
  6  7  1  0  0  0  0
  6  8  1  0  0  0  0
  5  9  1  0  0  0  0
  9 10  1  0  0  0  0
  9 11  2  0  0  0  0
 11 12  1  0  0  0  0
 11 13  1  0  0  0  0
M  END
> <ChemID>
100058

> <source_casrn>
78-79-5

> <CAS>
78-79-5

> <SMILES>
CC(=C)C=C

> <NAME>
2-METHYL-1,3-BUTADIENE

> <preferred_name>
Isoprene

> <iupac>
2-methylbuta-1,3-diene

> <MPID>
97989

> <dsstox_substance_id>
DTXSID2020761

> <Canonical_QSARr>
CC(=C)C=C

> <InChI_Code_QSARr>
InChI=1S/C5H8/c1-4-5(2)3/h4H,1-2H2,3H3

> <InChI Key_QSARr>
RRHGJUQNOFWUDK-UHFFFAOYSA-N

> <Salt_Solvent>
?

> <LogBCF>
1.3

$$$$
100059
  -INDIGO-08031719362D

 11 10  0  0  0  0  0  0  0  0999 V2000
    1.3856    0.8000    0.0000 C   0  0  0  0  0  0  0  0  0  0  0  0
    2.7713    1.6000    0.0000 H   0  0  0  0  0  0  0  0  0  0  0  0
    2.7713    0.0000    0.0000 H   0  0  0  0  0  0  0  0  0  0  0  0
    1.3856    2.4000    0.0000 H   0  0  0  0  0  0  0  0  0  0  0  0
    0.0000    0.0000    0.0000 C   0  0  0  0  0  0  0  0  0  0  0  0
    0.6123   -1.4782    0.0000 H   0  0  0  0  0  0  0  0  0  0  0  0
   -1.3856    0.8000    0.0000 C   0  0  0  0  0  0  0  0  0  0  0  0
   -2.7713    1.6000    0.0000 H   0  0  0  0  0  0  0  0  0  0  0  0
   -2.7713    0.0000    0.0000 H   0  0  0  0  0  0  0  0  0  0  0  0
   -1.3856    2.4000    0.0000 Cl  0  0  0  0  0  0  0  0  0  0  0  0
   -0.6123   -1.4782    0.0000 Cl  0  0  0  0  0  0  0  0  0  0  0  0
  1  2  1  0  0  0  0
  1  3  1  0  0  0  0
  1  4  1  0  0  0  0
  1  5  1  0  0  0  0
  5  6  1  0  0  0  0
  5  7  1  0  0  0  0
  7  8  1  0  0  0  0
  7  9  1  0  0  0  0
  7 10  1  0  0  0  0
  5 11  1  0  0  0  0
M  END
> <ChemID>
100059

> <source_casrn>
78-87-5

> <CAS>
78-87-5

> <SMILES>
CC(Cl)CCl

> <NAME>
1,2-DICHLOROPROPANE

> <preferred_name>
1,2-Dichloropropane

> <iupac>
1,2-dichloropropane

> <MPID>
97990

> <dsstox_substance_id>
DTXSID0020448

> <Canonical_QSARr>
CC(Cl)CCl

> <InChI_Code_QSARr>
InChI=1S/C3H6Cl2/c1-3(5)2-4/h3H,2H2,1H3

> <InChI Key_QSARr>
KNKRKFALVUDBJE-UHFFFAOYSA-N

> <Salt_Solvent>
?

> <LogBCF>
0.85

$$$$
100061
  -INDIGO-08031719362D

  6  5  0  0  0  0  0  0  0  0999 V2000
   -0.8000   -1.3856    0.0000 Cl  0  0  0  0  0  0  0  0  0  0  0  0
    0.0000    0.0000    0.0000 C   0  0  0  0  0  0  0  0  0  0  0  0
    1.6000    0.0000    0.0000 C   0  0  0  0  0  0  0  0  0  0  0  0
    2.4000    1.3856    0.0000 H   0  0  0  0  0  0  0  0  0  0  0  0
    2.4000   -1.3856    0.0000 Cl  0  0  0  0  0  0  0  0  0  0  0  0
   -0.8000    1.3856    0.0000 Cl  0  0  0  0  0  0  0  0  0  0  0  0
  1  2  1  0  0  0  0
  2  3  2  0  0  0  0
  3  4  1  0  0  0  0
  3  5  1  0  0  0  0
  2  6  1  0  0  0  0
M  END
> <ChemID>
100061

> <source_casrn>
79-01-6

> <CAS>
79-01-6

> <SMILES>
ClC=C(Cl)Cl

> <NAME>
TRICHLOROETHENE

> <preferred_name>
Trichloroethylene

> <iupac>
1,1,2-trichloroethene

> <MPID>
97992

> <dsstox_substance_id>
DTXSID0021383

> <Canonical_QSARr>
ClC=C(Cl)Cl

> <InChI_Code_QSARr>
InChI=1S/C2HCl3/c3-1-2(4)5/h1H

> <InChI Key_QSARr>
XSTXAVWGXDQKEL-UHFFFAOYSA-N

> <Salt_Solvent>
?

> <LogBCF>
1.2

$$$$
100062
  -INDIGO-08031719362D

  8  7  0  0  0  0  0  0  0  0999 V2000
    0.0000    0.0000    0.0000 C   0  0  0  0  0  0  0  0  0  0  0  0
    1.6000   -0.0000    0.0000 H   0  0  0  0  0  0  0  0  0  0  0  0
    0.8000   -1.3856    0.0000 Br  0  0  0  0  0  0  0  0  0  0  0  0
    0.8000    1.3856    0.0000 Br  0  0  0  0  0  0  0  0  0  0  0  0
   -1.6000    0.0000    0.0000 C   0  0  0  0  0  0  0  0  0  0  0  0
   -3.2000    0.0000    0.0000 H   0  0  0  0  0  0  0  0  0  0  0  0
   -2.4000   -1.3856    0.0000 Br  0  0  0  0  0  0  0  0  0  0  0  0
   -2.4000    1.3856    0.0000 Br  0  0  0  0  0  0  0  0  0  0  0  0
  1  2  1  0  0  0  0
  1  3  1  0  0  0  0
  1  4  1  0  0  0  0
  1  5  1  0  0  0  0
  5  6  1  0  0  0  0
  5  7  1  0  0  0  0
  5  8  1  0  0  0  0
M  END
> <ChemID>
100062

> <source_casrn>
79-27-6

> <CAS>
79-27-6

> <SMILES>
BrC(Br)C(Br)Br

> <NAME>
1,1,2,2-TETRABROMOETHANE

> <preferred_name>
1,1,2,2-Tetrabromoethane

> <iupac>
1,1,2,2-tetrabromoethane

> <MPID>
97993

> <dsstox_substance_id>
DTXSID1026083

> <Canonical_QSARr>
BrC(Br)C(Br)Br

> <InChI_Code_QSARr>
InChI=1S/C2H2Br4/c3-1(4)2(5)6/h1-2H

> <InChI Key_QSARr>
QXSZNDIIPUOQMB-UHFFFAOYSA-N

> <Salt_Solvent>
?

> <LogBCF>
0.74

$$$$
100063
  -INDIGO-08031719362D

  8  7  0  0  0  0  0  0  0  0999 V2000
    0.8000    1.3856    0.0000 Cl  0  0  0  0  0  0  0  0  0  0  0  0
    0.0000    0.0000    0.0000 C   0  0  0  0  0  0  0  0  0  0  0  0
    1.6000   -0.0000    0.0000 H   0  0  0  0  0  0  0  0  0  0  0  0
   -1.6000    0.0000    0.0000 C   0  0  0  0  0  0  0  0  0  0  0  0
   -3.2000    0.0000    0.0000 H   0  0  0  0  0  0  0  0  0  0  0  0
   -2.4000   -1.3856    0.0000 Cl  0  0  0  0  0  0  0  0  0  0  0  0
   -2.4000    1.3856    0.0000 Cl  0  0  0  0  0  0  0  0  0  0  0  0
    0.8000   -1.3856    0.0000 Cl  0  0  0  0  0  0  0  0  0  0  0  0
  1  2  1  0  0  0  0
  2  3  1  0  0  0  0
  2  4  1  0  0  0  0
  4  5  1  0  0  0  0
  4  6  1  0  0  0  0
  4  7  1  0  0  0  0
  2  8  1  0  0  0  0
M  END
> <ChemID>
100063

> <source_casrn>
79-34-5

> <CAS>
79-34-5

> <SMILES>
ClC(Cl)C(Cl)Cl

> <NAME>
1,1,2,2-TETRACHLOROETHANE

> <preferred_name>
1,1,2,2-Tetrachloroethane

> <iupac>
1,1,2,2-tetrachloroethane

> <MPID>
97994

> <dsstox_substance_id>
DTXSID7021318

> <Canonical_QSARr>
ClC(Cl)C(Cl)Cl

> <InChI_Code_QSARr>
InChI=1S/C2H2Cl4/c3-1(4)2(5)6/h1-2H

> <InChI Key_QSARr>
QPFMBZIOSGYJDE-UHFFFAOYSA-N

> <Salt_Solvent>
?

> <LogBCF>
1.11

$$$$
100065
  -INDIGO-08031719362D

 26 27  0  0  0  0  0  0  0  0999 V2000
    1.1108   -2.3805    0.0000 C   0  0  0  0  0  0  0  0  0  0  0  0
    1.9794   -3.7242    0.0000 H   0  0  0  0  0  0  0  0  0  0  0  0
   -0.2412   -3.2361    0.0000 H   0  0  0  0  0  0  0  0  0  0  0  0
    2.4829   -1.4746    0.0000 C   0  0  0  0  0  0  0  0  0  0  0  0
    3.3282   -2.8330    0.0000 H   0  0  0  0  0  0  0  0  0  0  0  0
    3.8635   -0.6660    0.0000 H   0  0  0  0  0  0  0  0  0  0  0  0
    1.7072   -0.0645    0.0000 C   0  0  0  0  0  0  0  0  0  0  0  0
    3.2968    0.1174    0.0000 H   0  0  0  0  0  0  0  0  0  0  0  0
    2.1205    1.3999    0.0000 C   0  0  0  0  0  0  0  0  0  0  0  0
    3.7053    1.6190    0.0000 H   0  0  0  0  0  0  0  0  0  0  0  0
    1.9184    2.3156    0.0000 H   0  0  0  0  0  0  0  0  0  0  0  0
    0.3466   -1.1466    0.0000 C   0  0  0  0  0  0  0  0  0  0  0  0
   -0.5484   -2.4729    0.0000 H   0  0  0  0  0  0  0  0  0  0  0  0
   -1.2301   -0.8745    0.0000 C   0  0  0  0  0  0  0  0  0  0  0  0
   -0.0000    0.0000    0.0000 C   0  0  0  0  0  0  0  0  0  0  0  0
    0.5378    1.5069    0.0000 C   0  0  0  0  0  0  0  0  0  0  0  0
   -0.4984    2.7261    0.0000 H   0  0  0  0  0  0  0  0  0  0  0  0
    0.8057    3.0843    0.0000 H   0  0  0  0  0  0  0  0  0  0  0  0
    1.0862    2.2675    0.0000 H   0  0  0  0  0  0  0  0  0  0  0  0
   -1.2758    0.9655    0.0000 C   0  0  0  0  0  0  0  0  0  0  0  0
   -2.5517    1.9310    0.0000 H   0  0  0  0  0  0  0  0  0  0  0  0
   -2.7499    0.3434    0.0000 H   0  0  0  0  0  0  0  0  0  0  0  0
   -1.3564    2.5635    0.0000 H   0  0  0  0  0  0  0  0  0  0  0  0
   -2.7904   -1.2291    0.0000 C   0  0  0  0  0  0  0  0  0  0  0  0
   -3.2634   -2.7576    0.0000 H   0  0  0  0  0  0  0  0  0  0  0  0
   -3.8776   -0.0553    0.0000 H   0  0  0  0  0  0  0  0  0  0  0  0
  1  2  1  0  0  0  0
  1  3  1  0  0  0  0
  1  4  1  0  0  0  0
  4  5  1  0  0  0  0
  4  6  1  0  0  0  0
  4  7  1  0  0  0  0
  7  8  1  0  0  0  0
  7  9  1  0  0  0  0
  9 10  1  0  0  0  0
  9 11  1  0  0  0  0
  9 12  1  0  0  0  0
 12  1  1  0  0  0  0
 12 13  1  0  0  0  0
 12 14  1  0  0  0  0
 14 15  1  0  0  0  0
 15  7  1  0  0  0  0
 15 16  1  0  0  0  0
 16 17  1  0  0  0  0
 16 18  1  0  0  0  0
 16 19  1  0  0  0  0
 15 20  1  0  0  0  0
 20 21  1  0  0  0  0
 20 22  1  0  0  0  0
 20 23  1  0  0  0  0
 14 24  2  0  0  0  0
 24 25  1  0  0  0  0
 24 26  1  0  0  0  0
M  END
> <ChemID>
100065

> <source_casrn>
79-92-5

> <CAS>
79-92-5

> <SMILES>
CC1(C)C2CC(CC2)C1=C

> <NAME>
CAMPHENE

> <preferred_name>
Camphene

> <iupac>
C10H16

> <MPID>
97996

> <dsstox_substance_id>
DTXSID8026488

> <Canonical_QSARr>
CC1(C)C2CC(CC2)C1=C

> <InChI_Code_QSARr>
InChI=1S/C10H16/c1-7-8-4-5-9(6-8)10(7,2)3/h8-9H,1,4-6H2,2-3H3

> <InChI Key_QSARr>
CRPUJAZIXJMDBK-UHFFFAOYSA-N

> <Salt_Solvent>
?

> <LogBCF>
2.98

$$$$
100066
  -INDIGO-08031719362D

 33 34  0  0  0  0  0  0  0  0999 V2000
    0.0001    0.0000    0.0000 C   0  0  0  0  0  0  0  0  0  0  0  0
    0.2778    1.5757    0.0000 C   0  0  0  0  0  0  0  0  0  0  0  0
    0.5556    3.1514    0.0000 H   0  0  0  0  0  0  0  0  0  0  0  0
   -0.9478    2.6042    0.0000 H   0  0  0  0  0  0  0  0  0  0  0  0
   -1.2258    1.0284    0.0000 H   0  0  0  0  0  0  0  0  0  0  0  0
   -0.2779   -1.5757    0.0000 C   0  0  0  0  0  0  0  0  0  0  0  0
   -0.5556   -3.1514    0.0000 H   0  0  0  0  0  0  0  0  0  0  0  0
   -1.7812   -2.1229    0.0000 H   0  0  0  0  0  0  0  0  0  0  0  0
    1.2258   -1.0284    0.0000 H   0  0  0  0  0  0  0  0  0  0  0  0
   -1.6000   -0.0000    0.0000 C   0  0  0  0  0  0  0  0  0  0  0  0
   -2.4000    1.3856    0.0000 C   0  0  0  0  0  0  0  0  0  0  0  0
   -2.1223    2.9613    0.0000 H   0  0  0  0  0  0  0  0  0  0  0  0
   -4.0001    1.3856    0.0000 C   0  0  0  0  0  0  0  0  0  0  0  0
   -4.7999    2.7713    0.0000 Br  0  0  0  0  0  0  0  0  0  0  0  0
   -4.7999   -0.0000    0.0000 C   0  0  0  0  0  0  0  0  0  0  0  0
   -6.4000   -0.0000    0.0000 O   0  0  0  0  0  0  0  0  0  0  0  0
   -7.2000    1.3856    0.0000 H   0  0  0  0  0  0  0  0  0  0  0  0
   -4.0001   -1.3856    0.0000 C   0  0  0  0  0  0  0  0  0  0  0  0
   -4.7999   -2.7713    0.0000 Br  0  0  0  0  0  0  0  0  0  0  0  0
   -2.4000   -1.3856    0.0000 C   0  0  0  0  0  0  0  0  0  0  0  0
   -2.4000   -2.9857    0.0000 H   0  0  0  0  0  0  0  0  0  0  0  0
    1.6000    0.0000    0.0000 C   0  0  0  0  0  0  0  0  0  0  0  0
    2.4000    1.3856    0.0000 C   0  0  0  0  0  0  0  0  0  0  0  0
    1.6000    2.7713    0.0000 H   0  0  0  0  0  0  0  0  0  0  0  0
    4.0001    1.3856    0.0000 C   0  0  0  0  0  0  0  0  0  0  0  0
    4.8001    2.7713    0.0000 Br  0  0  0  0  0  0  0  0  0  0  0  0
    4.8001    0.0000    0.0000 C   0  0  0  0  0  0  0  0  0  0  0  0
    6.4000    0.0000    0.0000 O   0  0  0  0  0  0  0  0  0  0  0  0
    7.2000    1.3856    0.0000 H   0  0  0  0  0  0  0  0  0  0  0  0
    4.0001   -1.3856    0.0000 C   0  0  0  0  0  0  0  0  0  0  0  0
    4.8001   -2.7713    0.0000 Br  0  0  0  0  0  0  0  0  0  0  0  0
    2.4000   -1.3856    0.0000 C   0  0  0  0  0  0  0  0  0  0  0  0
    1.6000   -2.7713    0.0000 H   0  0  0  0  0  0  0  0  0  0  0  0
  1  2  1  0  0  0  0
  2  3  1  0  0  0  0
  2  4  1  0  0  0  0
  2  5  1  0  0  0  0
  1  6  1  0  0  0  0
  6  7  1  0  0  0  0
  6  8  1  0  0  0  0
  6  9  1  0  0  0  0
  1 10  1  0  0  0  0
 10 11  1  0  0  0  0
 11 12  1  0  0  0  0
 11 13  2  0  0  0  0
 13 14  1  0  0  0  0
 13 15  1  0  0  0  0
 15 16  1  0  0  0  0
 16 17  1  0  0  0  0
 15 18  2  0  0  0  0
 18 19  1  0  0  0  0
 18 20  1  0  0  0  0
 20 10  2  0  0  0  0
 20 21  1  0  0  0  0
  1 22  1  0  0  0  0
 22 23  1  0  0  0  0
 23 24  1  0  0  0  0
 23 25  2  0  0  0  0
 25 26  1  0  0  0  0
 25 27  1  0  0  0  0
 27 28  1  0  0  0  0
 28 29  1  0  0  0  0
 27 30  2  0  0  0  0
 30 31  1  0  0  0  0
 30 32  1  0  0  0  0
 32 22  2  0  0  0  0
 32 33  1  0  0  0  0
M  END
> <ChemID>
100066

> <source_casrn>
79-94-7

> <CAS>
79-94-7

> <SMILES>
CC(C)(c1cc(Br)c(O)c(Br)c1)c1cc(Br)c(O)c(Br)c1

> <NAME>
2,2-BIS(4-HYDROXY-3,5-DIBROMOPHENYL)PROPANE

> <preferred_name>
3,3',5,5'-Tetrabromobisphenol A

> <iupac>
4,4'-propane-2,2-diylbis(2,6-dibromophenol)

> <MPID>
97997

> <dsstox_substance_id>
DTXSID1026081

> <Canonical_QSARr>
CC(C)(c1cc(Br)c(O)c(Br)c1)c1cc(Br)c(O)c(Br)c1

> <InChI_Code_QSARr>
InChI=1S/C15H12Br4O2/c1-15(2,7-3-9(16)13(20)10(17)4-7)8-5-11(18)14(21)12(19)6-8/h3-6,20-21H,1-2H3

> <InChI Key_QSARr>
VEORPZCZECFIRK-UHFFFAOYSA-N

> <Salt_Solvent>
?

> <LogBCF>
2.43

$$$$
100067
  -INDIGO-08031719362D

 33 34  0  0  0  0  0  0  0  0999 V2000
    0.0001   -1.6000    0.0000 C   0  0  0  0  0  0  0  0  0  0  0  0
    0.0001   -3.2000    0.0000 H   0  0  0  0  0  0  0  0  0  0  0  0
    1.3857   -2.4000    0.0000 H   0  0  0  0  0  0  0  0  0  0  0  0
   -1.5035   -1.0528    0.0000 H   0  0  0  0  0  0  0  0  0  0  0  0
    0.0001    0.0000    0.0000 C   0  0  0  0  0  0  0  0  0  0  0  0
    1.5757   -0.2778    0.0000 C   0  0  0  0  0  0  0  0  0  0  0  0
    2.6041    0.9479    0.0000 C   0  0  0  0  0  0  0  0  0  0  0  0
    2.0569    2.4513    0.0000 H   0  0  0  0  0  0  0  0  0  0  0  0
    4.1797    0.6700    0.0000 C   0  0  0  0  0  0  0  0  0  0  0  0
    5.2084    1.8957    0.0000 H   0  0  0  0  0  0  0  0  0  0  0  0
    4.7270   -0.8335    0.0000 C   0  0  0  0  0  0  0  0  0  0  0  0
    6.3028   -1.1114    0.0000 O   0  0  0  0  0  0  0  0  0  0  0  0
    7.3312    0.1143    0.0000 H   0  0  0  0  0  0  0  0  0  0  0  0
    3.6986   -2.0591    0.0000 C   0  0  0  0  0  0  0  0  0  0  0  0
    4.2458   -3.5627    0.0000 H   0  0  0  0  0  0  0  0  0  0  0  0
    2.1230   -1.7814    0.0000 C   0  0  0  0  0  0  0  0  0  0  0  0
    1.8451   -3.3571    0.0000 H   0  0  0  0  0  0  0  0  0  0  0  0
   -1.5999    0.0000    0.0000 C   0  0  0  0  0  0  0  0  0  0  0  0
   -2.3999    1.3857    0.0000 C   0  0  0  0  0  0  0  0  0  0  0  0
   -1.5999    2.7713    0.0000 H   0  0  0  0  0  0  0  0  0  0  0  0
   -4.0000    1.3857    0.0000 C   0  0  0  0  0  0  0  0  0  0  0  0
   -4.8000    2.7713    0.0000 H   0  0  0  0  0  0  0  0  0  0  0  0
   -4.8000    0.0000    0.0000 C   0  0  0  0  0  0  0  0  0  0  0  0
   -6.4000    0.0000    0.0000 O   0  0  0  0  0  0  0  0  0  0  0  0
   -7.2000    1.3857    0.0000 H   0  0  0  0  0  0  0  0  0  0  0  0
   -4.0000   -1.3856    0.0000 C   0  0  0  0  0  0  0  0  0  0  0  0
   -4.8000   -2.7713    0.0000 H   0  0  0  0  0  0  0  0  0  0  0  0
   -2.3999   -1.3856    0.0000 C   0  0  0  0  0  0  0  0  0  0  0  0
   -1.5999   -2.7713    0.0000 H   0  0  0  0  0  0  0  0  0  0  0  0
   -0.2777    1.5757    0.0000 C   0  0  0  0  0  0  0  0  0  0  0  0
   -0.5556    3.1514    0.0000 H   0  0  0  0  0  0  0  0  0  0  0  0
    0.9478    2.6042    0.0000 H   0  0  0  0  0  0  0  0  0  0  0  0
    1.2256    1.0284    0.0000 H   0  0  0  0  0  0  0  0  0  0  0  0
  1  2  1  0  0  0  0
  1  3  1  0  0  0  0
  1  4  1  0  0  0  0
  1  5  1  0  0  0  0
  5  6  1  0  0  0  0
  6  7  1  0  0  0  0
  7  8  1  0  0  0  0
  7  9  2  0  0  0  0
  9 10  1  0  0  0  0
  9 11  1  0  0  0  0
 11 12  1  0  0  0  0
 12 13  1  0  0  0  0
 11 14  2  0  0  0  0
 14 15  1  0  0  0  0
 14 16  1  0  0  0  0
 16  6  2  0  0  0  0
 16 17  1  0  0  0  0
  5 18  1  0  0  0  0
 18 19  1  0  0  0  0
 19 20  1  0  0  0  0
 19 21  2  0  0  0  0
 21 22  1  0  0  0  0
 21 23  1  0  0  0  0
 23 24  1  0  0  0  0
 24 25  1  0  0  0  0
 23 26  2  0  0  0  0
 26 27  1  0  0  0  0
 26 28  1  0  0  0  0
 28 18  2  0  0  0  0
 28 29  1  0  0  0  0
  5 30  1  0  0  0  0
 30 31  1  0  0  0  0
 30 32  1  0  0  0  0
 30 33  1  0  0  0  0
M  END
> <ChemID>
100067

> <source_casrn>
80-05-7

> <CAS>
80-05-7

> <SMILES>
CC(C)(c1ccc(O)cc1)c1ccc(O)cc1

> <NAME>
DIPHENYLOLPROPANE

> <preferred_name>
Bisphenol A

> <iupac>
4,4'-propane-2,2-diyldiphenol

> <MPID>
97998

> <dsstox_substance_id>
DTXSID7020182

> <Canonical_QSARr>
CC(C)(c1ccc(O)cc1)c1ccc(O)cc1

> <InChI_Code_QSARr>
InChI=1S/C15H16O2/c1-15(2,11-3-7-13(16)8-4-11)12-5-9-14(17)10-6-12/h3-10,16-17H,1-2H3

> <InChI Key_QSARr>
IISBACLAFKSPIT-UHFFFAOYSA-N

> <Salt_Solvent>
?

> <LogBCF>
1.64

$$$$
100069
  -INDIGO-08031719362D

 36 36  0  0  0  0  0  0  0  0999 V2000
   -0.0001   -1.6000    0.0000 C   0  0  0  0  0  0  0  0  0  0  0  0
    1.3857   -2.4000    0.0000 H   0  0  0  0  0  0  0  0  0  0  0  0
    1.5036   -1.0528    0.0000 H   0  0  0  0  0  0  0  0  0  0  0  0
   -1.5035   -1.0528    0.0000 H   0  0  0  0  0  0  0  0  0  0  0  0
   -0.0001   -0.0001    0.0000 C   0  0  0  0  0  0  0  0  0  0  0  0
   -1.6000   -0.0001    0.0000 C   0  0  0  0  0  0  0  0  0  0  0  0
   -2.4000    1.3856    0.0000 C   0  0  0  0  0  0  0  0  0  0  0  0
   -1.6000    2.7713    0.0000 N   0  0  0  0  0  0  0  0  0  0  0  0
   -2.4000    4.1569    0.0000 O   0  0  0  0  0  0  0  0  0  0  0  0
   -0.0001    2.7713    0.0000 O   0  0  0  0  0  0  0  0  0  0  0  0
   -3.9999    1.3856    0.0000 C   0  0  0  0  0  0  0  0  0  0  0  0
   -4.8001    2.7713    0.0000 C   0  0  0  0  0  0  0  0  0  0  0  0
   -5.6000    4.1569    0.0000 H   0  0  0  0  0  0  0  0  0  0  0  0
   -6.4000    2.7713    0.0000 H   0  0  0  0  0  0  0  0  0  0  0  0
   -3.9999    4.1569    0.0000 H   0  0  0  0  0  0  0  0  0  0  0  0
   -4.8001   -0.0001    0.0000 C   0  0  0  0  0  0  0  0  0  0  0  0
   -6.4000   -0.0001    0.0000 N   0  0  0  0  0  0  0  0  0  0  0  0
   -7.2000    1.3856    0.0000 O   0  0  0  0  0  0  0  0  0  0  0  0
   -7.2000   -1.3856    0.0000 O   0  0  0  0  0  0  0  0  0  0  0  0
   -3.9999   -1.3856    0.0000 C   0  0  0  0  0  0  0  0  0  0  0  0
   -4.8001   -2.7712    0.0000 C   0  0  0  0  0  0  0  0  0  0  0  0
   -5.6000   -4.1569    0.0000 H   0  0  0  0  0  0  0  0  0  0  0  0
   -6.4000   -2.7713    0.0000 H   0  0  0  0  0  0  0  0  0  0  0  0
   -3.9999   -4.1569    0.0000 H   0  0  0  0  0  0  0  0  0  0  0  0
   -2.4000   -1.3856    0.0000 C   0  0  0  0  0  0  0  0  0  0  0  0
   -1.6000   -2.7713    0.0000 N   0  0  0  0  0  0  0  0  0  0  0  0
   -2.4000   -4.1569    0.0000 O   0  0  0  0  0  0  0  0  0  0  0  0
   -0.0001   -2.7713    0.0000 O   0  0  0  0  0  0  0  0  0  0  0  0
    1.6000   -0.0001    0.0000 C   0  0  0  0  0  0  0  0  0  0  0  0
    3.2000   -0.0001    0.0000 H   0  0  0  0  0  0  0  0  0  0  0  0
    2.4000   -1.3856    0.0000 H   0  0  0  0  0  0  0  0  0  0  0  0
    2.4000    1.3856    0.0000 H   0  0  0  0  0  0  0  0  0  0  0  0
   -0.0001    1.6000    0.0000 C   0  0  0  0  0  0  0  0  0  0  0  0
    1.3857    2.4000    0.0000 H   0  0  0  0  0  0  0  0  0  0  0  0
    1.5036    1.0528    0.0000 H   0  0  0  0  0  0  0  0  0  0  0  0
   -1.5035    1.0528    0.0000 H   0  0  0  0  0  0  0  0  0  0  0  0
  1  2  1  0  0  0  0
  1  3  1  0  0  0  0
  1  4  1  0  0  0  0
  1  5  1  0  0  0  0
  5  6  1  0  0  0  0
  6  7  1  0  0  0  0
  7  8  1  0  0  0  0
  8  9  2  0  0  0  0
  8 10  1  0  0  0  0
  7 11  2  0  0  0  0
 11 12  1  0  0  0  0
 12 13  1  0  0  0  0
 12 14  1  0  0  0  0
 12 15  1  0  0  0  0
 11 16  1  0  0  0  0
 16 17  1  0  0  0  0
 17 18  2  0  0  0  0
 17 19  1  0  0  0  0
 16 20  2  0  0  0  0
 20 21  1  0  0  0  0
 21 22  1  0  0  0  0
 21 23  1  0  0  0  0
 21 24  1  0  0  0  0
 20 25  1  0  0  0  0
 25  6  2  0  0  0  0
 25 26  1  0  0  0  0
 26 27  2  0  0  0  0
 26 28  1  0  0  0  0
  5 29  1  0  0  0  0
 29 30  1  0  0  0  0
 29 31  1  0  0  0  0
 29 32  1  0  0  0  0
  5 33  1  0  0  0  0
 33 34  1  0  0  0  0
 33 35  1  0  0  0  0
 33 36  1  0  0  0  0
M  CHG  6   8   1  10  -1  17   1  19  -1  26   1  28  -1
M  END
> <ChemID>
100069

> <source_casrn>
81-15-2

> <CAS>
81-15-2

> <SMILES>
N(=O)(=O)c(c(c(N(=O)(=O))c(c1N(=O)(=O))C(C)(C)C)C)c1C

> <NAME>
5-tert-Butyl-2,4,6-trinitroxylene

> <preferred_name>
2,4,6-Trinitro-1,3-dimethyl-5-tert-butylbenzene

> <iupac>
1-tert-butyl-3,5-dimethyl-2,4,6-trinitrobenzene

> <MPID>
98000

> <dsstox_substance_id>
DTXSID1021405

> <Canonical_QSARr>
CC(C)(C)c1c(c(C)c(c(C)c1[N+]([O-])=O)[N+]([O-])=O)[N+]([O-])=O

> <InChI_Code_QSARr>
InChI=1S/C12H15N3O6/c1-6-9(13(16)17)7(2)11(15(20)21)8(12(3,4)5)10(6)14(18)19/h1-5H3

> <InChI Key_QSARr>
XMWRWTSZNLOZFN-UHFFFAOYSA-N

> <Salt_Solvent>
?

> <LogBCF>
3.61

$$$$
100070
  -INDIGO-08031719362D

 24 25  0  0  0  0  0  0  0  0999 V2000
    0.0000    0.0000    0.0000 C   0  0  0  0  0  0  0  0  0  0  0  0
    1.6001    0.0000    0.0000 C   0  0  0  0  0  0  0  0  0  0  0  0
    2.4000   -1.3856    0.0000 C   0  0  0  0  0  0  0  0  0  0  0  0
    4.0000   -1.3856    0.0000 C   0  0  0  0  0  0  0  0  0  0  0  0
    4.8001   -2.7713    0.0000 H   0  0  0  0  0  0  0  0  0  0  0  0
    4.8001    0.0000    0.0000 C   0  0  0  0  0  0  0  0  0  0  0  0
    6.4000    0.0000    0.0000 H   0  0  0  0  0  0  0  0  0  0  0  0
    4.0000    1.3856    0.0000 C   0  0  0  0  0  0  0  0  0  0  0  0
    4.8001    2.7713    0.0000 H   0  0  0  0  0  0  0  0  0  0  0  0
    2.4000    1.3856    0.0000 C   0  0  0  0  0  0  0  0  0  0  0  0
    1.6001    2.7713    0.0000 H   0  0  0  0  0  0  0  0  0  0  0  0
    1.6001   -2.7713    0.0000 C   0  0  0  0  0  0  0  0  0  0  0  0
    2.4000   -4.1569    0.0000 H   0  0  0  0  0  0  0  0  0  0  0  0
    0.0000   -2.7713    0.0000 C   0  0  0  0  0  0  0  0  0  0  0  0
   -0.8000   -4.1569    0.0000 H   0  0  0  0  0  0  0  0  0  0  0  0
   -0.8000   -1.3856    0.0000 C   0  0  0  0  0  0  0  0  0  0  0  0
   -2.4000   -1.3856    0.0000 N   0  0  0  0  0  0  0  0  0  0  0  0
   -3.2000   -2.7713    0.0000 H   0  0  0  0  0  0  0  0  0  0  0  0
   -3.2000    0.0000    0.0000 H   0  0  0  0  0  0  0  0  0  0  0  0
   -0.8000    1.3856    0.0000 S   0  0  0  0  0  0  0  0  0  0  0  0
   -2.1856    0.5857    0.0000 O   0  0  0  0  0  0  0  0  0  0  0  0
   -1.5999    2.7713    0.0000 O   0  0  0  0  0  0  0  0  0  0  0  0
   -3.2000    2.7713    0.0000 H   0  0  0  0  0  0  0  0  0  0  0  0
    0.5857    2.1856    0.0000 O   0  0  0  0  0  0  0  0  0  0  0  0
  1  2  1  0  0  0  0
  2  3  1  0  0  0  0
  3  4  2  0  0  0  0
  4  5  1  0  0  0  0
  4  6  1  0  0  0  0
  6  7  1  0  0  0  0
  6  8  2  0  0  0  0
  8  9  1  0  0  0  0
  8 10  1  0  0  0  0
 10  2  2  0  0  0  0
 10 11  1  0  0  0  0
  3 12  1  0  0  0  0
 12 13  1  0  0  0  0
 12 14  2  0  0  0  0
 14 15  1  0  0  0  0
 14 16  1  0  0  0  0
 16  1  2  0  0  0  0
 16 17  1  0  0  0  0
 17 18  1  0  0  0  0
 17 19  1  0  0  0  0
  1 20  1  0  0  0  0
 20 21  2  0  0  0  0
 20 22  1  0  0  0  0
 22 23  1  0  0  0  0
 20 24  2  0  0  0  0
M  END
> <ChemID>
100070

> <source_casrn>
81-16-3

> <CAS>
81-16-3

> <SMILES>
Nc1ccc2ccccc2c1S(O)(=O)=O

> <NAME>
2-AMINO-1-NAPHTHALENESULFONIC ACID

> <preferred_name>
2-Amino-1-naphthalenesulfonic acid

> <iupac>
2-aminonaphthalene-1-sulfonic acid

> <MPID>
98001

> <dsstox_substance_id>
DTXSID7020922

> <Canonical_QSARr>
Nc1ccc2ccccc2c1S(O)(=O)=O

> <InChI_Code_QSARr>
InChI=1S/C10H9NO3S/c11-9-6-5-7-3-1-2-4-8(7)10(9)15(12,13)14/h1-6H,11H2,(H,12,13,14)

> <InChI Key_QSARr>
GWIAAIUASRVOIA-UHFFFAOYSA-N

> <Salt_Solvent>
?

> <LogBCF>
0.78

$$$$
100072
  -INDIGO-08031719362D

 28 31  0  0  0  0  0  0  0  0999 V2000
   -2.4001    1.3856    0.0000 C   0  0  0  0  0  0  0  0  0  0  0  0
   -3.2001    2.7713    0.0000 C   0  0  0  0  0  0  0  0  0  0  0  0
   -2.4001    4.1569    0.0000 H   0  0  0  0  0  0  0  0  0  0  0  0
   -4.8000    2.7712    0.0000 C   0  0  0  0  0  0  0  0  0  0  0  0
   -5.6000    4.1569    0.0000 H   0  0  0  0  0  0  0  0  0  0  0  0
   -5.6000    1.3856    0.0000 C   0  0  0  0  0  0  0  0  0  0  0  0
   -7.2000    1.3856    0.0000 H   0  0  0  0  0  0  0  0  0  0  0  0
   -4.8000    0.0001    0.0000 C   0  0  0  0  0  0  0  0  0  0  0  0
   -5.6000   -1.3856    0.0000 H   0  0  0  0  0  0  0  0  0  0  0  0
   -3.2001    0.0001    0.0000 C   0  0  0  0  0  0  0  0  0  0  0  0
   -2.4001   -1.3856    0.0000 C   0  0  0  0  0  0  0  0  0  0  0  0
   -3.2001   -2.7712    0.0000 O   0  0  0  0  0  0  0  0  0  0  0  0
   -0.7999   -1.3856    0.0000 C   0  0  0  0  0  0  0  0  0  0  0  0
    0.0001    0.0001    0.0000 C   0  0  0  0  0  0  0  0  0  0  0  0
    1.6000    0.0001    0.0000 C   0  0  0  0  0  0  0  0  0  0  0  0
    2.4000    1.3856    0.0000 C   0  0  0  0  0  0  0  0  0  0  0  0
    4.0000    1.3856    0.0000 H   0  0  0  0  0  0  0  0  0  0  0  0
    1.6000    2.7712    0.0000 C   0  0  0  0  0  0  0  0  0  0  0  0
    2.4000    4.1569    0.0000 H   0  0  0  0  0  0  0  0  0  0  0  0
    0.0001    2.7713    0.0000 C   0  0  0  0  0  0  0  0  0  0  0  0
   -0.7999    4.1569    0.0000 H   0  0  0  0  0  0  0  0  0  0  0  0
   -0.7999    1.3856    0.0000 C   0  0  0  0  0  0  0  0  0  0  0  0
    2.4000   -1.3856    0.0000 C   0  0  0  0  0  0  0  0  0  0  0  0
    4.0000   -1.3856    0.0000 H   0  0  0  0  0  0  0  0  0  0  0  0
    1.6000   -2.7712    0.0000 C   0  0  0  0  0  0  0  0  0  0  0  0
    2.4000   -4.1569    0.0000 H   0  0  0  0  0  0  0  0  0  0  0  0
    0.0001   -2.7712    0.0000 C   0  0  0  0  0  0  0  0  0  0  0  0
   -0.7999   -4.1569    0.0000 H   0  0  0  0  0  0  0  0  0  0  0  0
  1  2  1  0  0  0  0
  2  3  1  0  0  0  0
  2  4  2  0  0  0  0
  4  5  1  0  0  0  0
  4  6  1  0  0  0  0
  6  7  1  0  0  0  0
  6  8  2  0  0  0  0
  8  9  1  0  0  0  0
  8 10  1  0  0  0  0
 10  1  2  0  0  0  0
 10 11  1  0  0  0  0
 11 12  2  0  0  0  0
 11 13  1  0  0  0  0
 13 14  1  0  0  0  0
 14 15  2  0  0  0  0
 15 16  1  0  0  0  0
 16 17  1  0  0  0  0
 16 18  2  0  0  0  0
 18 19  1  0  0  0  0
 18 20  1  0  0  0  0
 20 21  1  0  0  0  0
 20 22  2  0  0  0  0
 22  1  1  0  0  0  0
 22 14  1  0  0  0  0
 15 23  1  0  0  0  0
 23 24  1  0  0  0  0
 23 25  2  0  0  0  0
 25 26  1  0  0  0  0
 25 27  1  0  0  0  0
 27 13  2  0  0  0  0
 27 28  1  0  0  0  0
M  END
> <ChemID>
100072

> <source_casrn>
82-05-3

> <CAS>
82-05-3

> <SMILES>
O=C1c2cccc3cccc(c32)-c2ccccc21

> <NAME>
BENZANTHRONE

> <preferred_name>
Benz[de]anthracen-7-one

> <iupac>
7H-benzo[de]anthracen-7-one

> <MPID>
98003

> <dsstox_substance_id>
DTXSID8052566

> <Canonical_QSARr>
O=C1c2cccc3cccc(c32)-c2ccccc21

> <InChI_Code_QSARr>
InChI=1S/C17H10O/c18-17-14-8-2-1-7-12(14)13-9-3-5-11-6-4-10-15(17)16(11)13/h1-10H

> <InChI Key_QSARr>
HUKPVYBUJRAUAG-UHFFFAOYSA-N

> <Salt_Solvent>
?

> <LogBCF>
2.09

$$$$
100074
  -INDIGO-08031719362D

 26 28  0  0  0  0  0  0  0  0999 V2000
    0.0001   -0.0000    0.0000 C   0  0  0  0  0  0  0  0  0  0  0  0
   -1.3856    0.8000    0.0000 C   0  0  0  0  0  0  0  0  0  0  0  0
   -1.3856    2.4000    0.0000 N   0  0  0  0  0  0  0  0  0  0  0  0
   -2.7713    3.2000    0.0000 H   0  0  0  0  0  0  0  0  0  0  0  0
    0.0001    3.2000    0.0000 H   0  0  0  0  0  0  0  0  0  0  0  0
   -2.7713   -0.0000    0.0000 C   0  0  0  0  0  0  0  0  0  0  0  0
   -4.1569    0.8000    0.0000 H   0  0  0  0  0  0  0  0  0  0  0  0
   -2.7713   -1.6000    0.0000 C   0  0  0  0  0  0  0  0  0  0  0  0
   -4.1569   -2.4000    0.0000 H   0  0  0  0  0  0  0  0  0  0  0  0
   -1.3856   -2.4000    0.0000 C   0  0  0  0  0  0  0  0  0  0  0  0
   -1.3856   -4.0000    0.0000 H   0  0  0  0  0  0  0  0  0  0  0  0
    0.0001   -1.6000    0.0000 C   0  0  0  0  0  0  0  0  0  0  0  0
    1.3857   -2.4000    0.0000 C   0  0  0  0  0  0  0  0  0  0  0  0
    1.3857   -4.0000    0.0000 O   0  0  0  0  0  0  0  0  0  0  0  0
    2.7712   -1.6000    0.0000 C   0  0  0  0  0  0  0  0  0  0  0  0
    2.7712   -0.0000    0.0000 C   0  0  0  0  0  0  0  0  0  0  0  0
    4.1569    0.8000    0.0000 C   0  0  0  0  0  0  0  0  0  0  0  0
    4.1569    2.4000    0.0000 H   0  0  0  0  0  0  0  0  0  0  0  0
    5.5425   -0.0000    0.0000 C   0  0  0  0  0  0  0  0  0  0  0  0
    6.9282    0.8000    0.0000 H   0  0  0  0  0  0  0  0  0  0  0  0
    5.5425   -1.6000    0.0000 C   0  0  0  0  0  0  0  0  0  0  0  0
    6.9282   -2.4000    0.0000 H   0  0  0  0  0  0  0  0  0  0  0  0
    4.1569   -2.4000    0.0000 C   0  0  0  0  0  0  0  0  0  0  0  0
    4.1569   -4.0000    0.0000 H   0  0  0  0  0  0  0  0  0  0  0  0
    1.3857    0.8000    0.0000 C   0  0  0  0  0  0  0  0  0  0  0  0
    1.3856    2.4000    0.0000 O   0  0  0  0  0  0  0  0  0  0  0  0
  1  2  1  0  0  0  0
  2  3  1  0  0  0  0
  3  4  1  0  0  0  0
  3  5  1  0  0  0  0
  2  6  2  0  0  0  0
  6  7  1  0  0  0  0
  6  8  1  0  0  0  0
  8  9  1  0  0  0  0
  8 10  2  0  0  0  0
 10 11  1  0  0  0  0
 10 12  1  0  0  0  0
 12  1  2  0  0  0  0
 12 13  1  0  0  0  0
 13 14  2  0  0  0  0
 13 15  1  0  0  0  0
 15 16  1  0  0  0  0
 16 17  2  0  0  0  0
 17 18  1  0  0  0  0
 17 19  1  0  0  0  0
 19 20  1  0  0  0  0
 19 21  2  0  0  0  0
 21 22  1  0  0  0  0
 21 23  1  0  0  0  0
 23 15  2  0  0  0  0
 23 24  1  0  0  0  0
 16 25  1  0  0  0  0
 25  1  1  0  0  0  0
 25 26  2  0  0  0  0
M  END
> <ChemID>
100074

> <source_casrn>
82-45-1

> <CAS>
82-45-1

> <SMILES>
Nc1cccc2c1C(=O)c1ccccc1C2=O

> <NAME>
1-AMINOANTHRAQUINONE

> <preferred_name>
1-Aminoanthraquinone

> <iupac>
1-amino-9,10-anthraquinone

> <MPID>
98005

> <dsstox_substance_id>
DTXSID2052572

> <Canonical_QSARr>
Nc1cccc2c1C(=O)c1ccccc1C2=O

> <InChI_Code_QSARr>
InChI=1S/C14H9NO2/c15-11-7-3-6-10-12(11)14(17)9-5-2-1-4-8(9)13(10)16/h1-7H,15H2

> <InChI Key_QSARr>
KHUFHLFHOQVFGB-UHFFFAOYSA-N

> <Salt_Solvent>
?

> <LogBCF>
1.98

$$$$
100075
  -INDIGO-08031719362D

 14 14  0  0  0  0  0  0  0  0999 V2000
    0.0000    2.7713    0.0000 Cl  0  0  0  0  0  0  0  0  0  0  0  0
   -0.8000    1.3856    0.0000 C   0  0  0  0  0  0  0  0  0  0  0  0
    0.0000   -0.0000    0.0000 C   0  0  0  0  0  0  0  0  0  0  0  0
    1.6000   -0.0000    0.0000 N   0  0  0  0  0  0  0  0  0  0  0  0
    2.4000    1.3856    0.0000 O   0  0  0  0  0  0  0  0  0  0  0  0
    2.4000   -1.3856    0.0000 O   0  0  0  0  0  0  0  0  0  0  0  0
   -0.8000   -1.3856    0.0000 C   0  0  0  0  0  0  0  0  0  0  0  0
    0.0000   -2.7713    0.0000 Cl  0  0  0  0  0  0  0  0  0  0  0  0
   -2.4000   -1.3856    0.0000 C   0  0  0  0  0  0  0  0  0  0  0  0
   -3.2000   -2.7713    0.0000 Cl  0  0  0  0  0  0  0  0  0  0  0  0
   -3.2000   -0.0000    0.0000 C   0  0  0  0  0  0  0  0  0  0  0  0
   -4.8000   -0.0000    0.0000 Cl  0  0  0  0  0  0  0  0  0  0  0  0
   -2.4000    1.3856    0.0000 C   0  0  0  0  0  0  0  0  0  0  0  0
   -3.2000    2.7713    0.0000 Cl  0  0  0  0  0  0  0  0  0  0  0  0
  1  2  1  0  0  0  0
  2  3  1  0  0  0  0
  3  4  1  0  0  0  0
  4  5  2  0  0  0  0
  4  6  1  0  0  0  0
  3  7  2  0  0  0  0
  7  8  1  0  0  0  0
  7  9  1  0  0  0  0
  9 10  1  0  0  0  0
  9 11  2  0  0  0  0
 11 12  1  0  0  0  0
 11 13  1  0  0  0  0
 13  2  2  0  0  0  0
 13 14  1  0  0  0  0
M  CHG  2   4   1   6  -1
M  END
> <ChemID>
100075

> <source_casrn>
82-68-8

> <CAS>
82-68-8

> <SMILES>
[O-][N+](=O)c1c(Cl)c(Cl)c(Cl)c(Cl)c1Cl

> <NAME>
PENTACHLORONITROBENZENE

> <preferred_name>
Pentachloronitrobenzene

> <iupac>
1,2,3,4,5-pentachloro-6-nitrobenzene

> <MPID>
98006

> <dsstox_substance_id>
DTXSID2021105

> <Canonical_QSARr>
[O-][N+](=O)c1c(Cl)c(Cl)c(Cl)c(Cl)c1Cl

> <InChI_Code_QSARr>
InChI=1S/C6Cl5NO2/c7-1-2(8)4(10)6(12(13)14)5(11)3(1)9

> <InChI Key_QSARr>
LKPLKUMXSAEKID-UHFFFAOYSA-N

> <Salt_Solvent>
?

> <LogBCF>
2.74

$$$$
100076
  -INDIGO-08031719362D

 22 24  0  0  0  0  0  0  0  0999 V2000
    2.4000    1.3856    0.0000 C   0  0  0  0  0  0  0  0  0  0  0  0
    3.2001    2.7713    0.0000 H   0  0  0  0  0  0  0  0  0  0  0  0
    3.2001    0.0000    0.0000 C   0  0  0  0  0  0  0  0  0  0  0  0
    4.8000    0.0000    0.0000 H   0  0  0  0  0  0  0  0  0  0  0  0
    2.4000   -1.3857    0.0000 C   0  0  0  0  0  0  0  0  0  0  0  0
    3.2001   -2.7712    0.0000 H   0  0  0  0  0  0  0  0  0  0  0  0
    0.8000   -1.3857    0.0000 C   0  0  0  0  0  0  0  0  0  0  0  0
    0.0000   -2.7712    0.0000 C   0  0  0  0  0  0  0  0  0  0  0  0
    0.8000   -4.1569    0.0000 H   0  0  0  0  0  0  0  0  0  0  0  0
   -1.6000   -2.7712    0.0000 C   0  0  0  0  0  0  0  0  0  0  0  0
   -2.4001   -4.1569    0.0000 H   0  0  0  0  0  0  0  0  0  0  0  0
   -2.4001   -1.3857    0.0000 C   0  0  0  0  0  0  0  0  0  0  0  0
   -4.0000   -1.3857    0.0000 H   0  0  0  0  0  0  0  0  0  0  0  0
   -1.6000    0.0000    0.0000 C   0  0  0  0  0  0  0  0  0  0  0  0
    0.0000    0.0000    0.0000 C   0  0  0  0  0  0  0  0  0  0  0  0
    0.8000    1.3856    0.0000 C   0  0  0  0  0  0  0  0  0  0  0  0
   -0.4517    2.3823    0.0000 C   0  0  0  0  0  0  0  0  0  0  0  0
   -1.4181    3.6575    0.0000 H   0  0  0  0  0  0  0  0  0  0  0  0
    0.6932    3.5001    0.0000 H   0  0  0  0  0  0  0  0  0  0  0  0
   -1.8373    1.5823    0.0000 C   0  0  0  0  0  0  0  0  0  0  0  0
   -3.3777    1.1497    0.0000 H   0  0  0  0  0  0  0  0  0  0  0  0
   -2.4585    3.0569    0.0000 H   0  0  0  0  0  0  0  0  0  0  0  0
  1  2  1  0  0  0  0
  1  3  1  0  0  0  0
  3  4  1  0  0  0  0
  3  5  2  0  0  0  0
  5  6  1  0  0  0  0
  5  7  1  0  0  0  0
  7  8  2  0  0  0  0
  8  9  1  0  0  0  0
  8 10  1  0  0  0  0
 10 11  1  0  0  0  0
 10 12  2  0  0  0  0
 12 13  1  0  0  0  0
 12 14  1  0  0  0  0
 14 15  2  0  0  0  0
 15  7  1  0  0  0  0
 15 16  1  0  0  0  0
 16  1  2  0  0  0  0
 16 17  1  0  0  0  0
 17 18  1  0  0  0  0
 17 19  1  0  0  0  0
 17 20  1  0  0  0  0
 20 14  1  0  0  0  0
 20 21  1  0  0  0  0
 20 22  1  0  0  0  0
M  END
> <ChemID>
100076

> <source_casrn>
83-32-9

> <CAS>
83-32-9

> <SMILES>
C1Cc2cccc3cccc1c23

> <NAME>
ACENAPHTHENE

> <preferred_name>
Acenaphthene

> <iupac>
1,2-dihydroacenaphthylene

> <MPID>
98007

> <dsstox_substance_id>
DTXSID3021774

> <Canonical_QSARr>
C1Cc2cccc3cccc1c23

> <InChI_Code_QSARr>
InChI=1S/C12H10/c1-3-9-4-2-6-11-8-7-10(5-1)12(9)11/h1-6H,7-8H2

> <InChI Key_QSARr>
CWRYPZZKDGJXCA-UHFFFAOYSA-N

> <Salt_Solvent>
?

> <LogBCF>
2.88

$$$$
100078
  -INDIGO-08031719362D

 51 55  0  0  0  0  0  0  0  0999 V2000
   -3.2000    0.0000    0.0000 C   0  0  0  0  0  0  0  0  0  0  0  0
   -4.8000    0.0000    0.0000 C   0  0  0  0  0  0  0  0  0  0  0  0
   -5.6002    1.3856    0.0000 C   0  0  0  0  0  0  0  0  0  0  0  0
   -7.1651    1.0530    0.0000 O   0  0  0  0  0  0  0  0  0  0  0  0
   -7.3323   -0.5382    0.0000 C   0  0  0  0  0  0  0  0  0  0  0  0
   -7.8266   -2.0599    0.0000 H   0  0  0  0  0  0  0  0  0  0  0  0
   -5.8707   -1.1890    0.0000 C   0  0  0  0  0  0  0  0  0  0  0  0
   -4.5763   -2.1295    0.0000 H   0  0  0  0  0  0  0  0  0  0  0  0
   -6.6706   -2.5747    0.0000 H   0  0  0  0  0  0  0  0  0  0  0  0
   -8.8973   -0.2056    0.0000 C   0  0  0  0  0  0  0  0  0  0  0  0
   -9.3919    1.3161    0.0000 C   0  0  0  0  0  0  0  0  0  0  0  0
  -10.9568    1.6488    0.0000 H   0  0  0  0  0  0  0  0  0  0  0  0
   -8.3211    2.5052    0.0000 H   0  0  0  0  0  0  0  0  0  0  0  0
   -9.9680   -1.3946    0.0000 C   0  0  0  0  0  0  0  0  0  0  0  0
  -11.0384   -2.5836    0.0000 H   0  0  0  0  0  0  0  0  0  0  0  0
  -11.5330   -1.0619    0.0000 H   0  0  0  0  0  0  0  0  0  0  0  0
   -9.4735   -2.9164    0.0000 H   0  0  0  0  0  0  0  0  0  0  0  0
   -4.8000    2.7713    0.0000 C   0  0  0  0  0  0  0  0  0  0  0  0
   -5.6002    4.1569    0.0000 H   0  0  0  0  0  0  0  0  0  0  0  0
   -3.2000    2.7713    0.0000 C   0  0  0  0  0  0  0  0  0  0  0  0
   -2.4001    4.1569    0.0000 H   0  0  0  0  0  0  0  0  0  0  0  0
   -2.4001    1.3856    0.0000 C   0  0  0  0  0  0  0  0  0  0  0  0
   -0.8001    1.3856    0.0000 C   0  0  0  0  0  0  0  0  0  0  0  0
    0.0001    2.7713    0.0000 O   0  0  0  0  0  0  0  0  0  0  0  0
    0.0001    0.0000    0.0000 C   0  0  0  0  0  0  0  0  0  0  0  0
    0.7999    1.3856    0.0000 H   0  0  0  0  0  0  0  0  0  0  0  0
   -0.8001   -1.3857    0.0000 C   0  0  0  0  0  0  0  0  0  0  0  0
   -1.6000   -2.7713    0.0000 H   0  0  0  0  0  0  0  0  0  0  0  0
    0.0001   -2.7713    0.0000 C   0  0  0  0  0  0  0  0  0  0  0  0
    0.2777   -4.3470    0.0000 H   0  0  0  0  0  0  0  0  0  0  0  0
   -1.2258   -3.7998    0.0000 H   0  0  0  0  0  0  0  0  0  0  0  0
    1.6001   -2.7713    0.0000 O   0  0  0  0  0  0  0  0  0  0  0  0
    2.3999   -1.3857    0.0000 C   0  0  0  0  0  0  0  0  0  0  0  0
    1.6001    0.0000    0.0000 C   0  0  0  0  0  0  0  0  0  0  0  0
    2.3999    1.3856    0.0000 C   0  0  0  0  0  0  0  0  0  0  0  0
    1.6001    2.7713    0.0000 H   0  0  0  0  0  0  0  0  0  0  0  0
    4.0000    1.3856    0.0000 C   0  0  0  0  0  0  0  0  0  0  0  0
    4.8001    2.7713    0.0000 O   0  0  0  0  0  0  0  0  0  0  0  0
    6.4001    2.7713    0.0000 C   0  0  0  0  0  0  0  0  0  0  0  0
    7.2000    4.1569    0.0000 H   0  0  0  0  0  0  0  0  0  0  0  0
    8.0001    2.7713    0.0000 H   0  0  0  0  0  0  0  0  0  0  0  0
    5.6000    4.1569    0.0000 H   0  0  0  0  0  0  0  0  0  0  0  0
    4.8001    0.0000    0.0000 C   0  0  0  0  0  0  0  0  0  0  0  0
    6.4001    0.0000    0.0000 O   0  0  0  0  0  0  0  0  0  0  0  0
    7.2000   -1.3857    0.0000 C   0  0  0  0  0  0  0  0  0  0  0  0
    8.8000   -1.3857    0.0000 H   0  0  0  0  0  0  0  0  0  0  0  0
    8.0001   -2.7713    0.0000 H   0  0  0  0  0  0  0  0  0  0  0  0
    8.0001    0.0000    0.0000 H   0  0  0  0  0  0  0  0  0  0  0  0
    4.0000   -1.3857    0.0000 C   0  0  0  0  0  0  0  0  0  0  0  0
    4.8001   -2.7713    0.0000 H   0  0  0  0  0  0  0  0  0  0  0  0
   -2.4001   -1.3857    0.0000 O   0  0  0  0  0  0  0  0  0  0  0  0
  1  2  1  0  0  0  0
  2  3  2  0  0  0  0
  3  4  1  0  0  0  0
  4  5  1  0  0  0  0
  5  6  1  0  0  0  0
  5  7  1  0  0  0  0
  7  2  1  0  0  0  0
  7  8  1  0  0  0  0
  7  9  1  0  0  0  0
  5 10  1  0  0  0  0
 10 11  2  0  0  0  0
 11 12  1  0  0  0  0
 11 13  1  0  0  0  0
 10 14  1  0  0  0  0
 14 15  1  0  0  0  0
 14 16  1  0  0  0  0
 14 17  1  0  0  0  0
  3 18  1  0  0  0  0
 18 19  1  0  0  0  0
 18 20  2  0  0  0  0
 20 21  1  0  0  0  0
 20 22  1  0  0  0  0
 22  1  2  0  0  0  0
 22 23  1  0  0  0  0
 23 24  2  0  0  0  0
 23 25  1  0  0  0  0
 25 26  1  0  0  0  0
 25 27  1  0  0  0  0
 27 28  1  0  0  0  0
 27 29  1  0  0  0  0
 29 30  1  0  0  0  0
 29 31  1  0  0  0  0
 29 32  1  0  0  0  0
 32 33  1  0  0  0  0
 33 34  1  0  0  0  0
 34 25  1  0  0  0  0
 34 35  2  0  0  0  0
 35 36  1  0  0  0  0
 35 37  1  0  0  0  0
 37 38  1  0  0  0  0
 38 39  1  0  0  0  0
 39 40  1  0  0  0  0
 39 41  1  0  0  0  0
 39 42  1  0  0  0  0
 37 43  2  0  0  0  0
 43 44  1  0  0  0  0
 44 45  1  0  0  0  0
 45 46  1  0  0  0  0
 45 47  1  0  0  0  0
 45 48  1  0  0  0  0
 43 49  1  0  0  0  0
 49 33  2  0  0  0  0
 49 50  1  0  0  0  0
 27 51  1  0  0  0  0
 51  1  1  0  0  0  0
M  END
> <ChemID>
100078

> <source_casrn>
83-79-4

> <CAS>
83-79-4

> <SMILES>
CC(=C)[C@H]1Cc2c3O[C@@H]4COc5cc(OC)c(cc5[C@@H]4C(=O)c3ccc2O1)OC

> <NAME>
ROTENONE

> <preferred_name>
Rotenone

> <iupac>
(2R,6aS,12aS)-8,9-dimethoxy-2-(prop-1-en-2-yl)-1,2,12,12a-tetrahydrochromeno[3,4-b]furo[2,3-h]chromen-6(6aH)-one

> <MPID>
98009

> <dsstox_substance_id>
DTXSID6021248

> <Canonical_QSARr>
CC(=C)C1Cc2c3OC4COc5cc(OC)c(cc5C4C(=O)c3ccc2O1)OC

> <InChI_Code_QSARr>
InChI=1S/C23H22O6/c1-11(2)16-8-14-15(28-16)6-5-12-22(24)21-13-7-18(25-3)19(26-4)9-17(13)27-10-20(21)29-23(12)14/h5-7,9,16,20-21H,1,8,10H2,2-4H3

> <InChI Key_QSARr>
JUVIOZPCNVVQFO-UHFFFAOYSA-N

> <Salt_Solvent>
?

> <LogBCF>
1.41

$$$$
100079
  -INDIGO-08031719362D

 32 34  0  0  0  0  0  0  0  0999 V2000
    0.0001   -0.0001    0.0000 C   0  0  0  0  0  0  0  0  0  0  0  0
    1.5999   -0.0001    0.0000 C   0  0  0  0  0  0  0  0  0  0  0  0
    2.6284    1.2256    0.0000 C   0  0  0  0  0  0  0  0  0  0  0  0
    4.2042    0.9479    0.0000 C   0  0  0  0  0  0  0  0  0  0  0  0
    4.7514   -0.5557    0.0000 H   0  0  0  0  0  0  0  0  0  0  0  0
    5.2327    2.1734    0.0000 C   0  0  0  0  0  0  0  0  0  0  0  0
    6.8083    1.8957    0.0000 H   0  0  0  0  0  0  0  0  0  0  0  0
    4.6853    3.6770    0.0000 C   0  0  0  0  0  0  0  0  0  0  0  0
    5.7138    4.9027    0.0000 H   0  0  0  0  0  0  0  0  0  0  0  0
    3.1097    3.9549    0.0000 C   0  0  0  0  0  0  0  0  0  0  0  0
    2.5624    5.4584    0.0000 H   0  0  0  0  0  0  0  0  0  0  0  0
    2.0812    2.7292    0.0000 C   0  0  0  0  0  0  0  0  0  0  0  0
    0.6956    3.5291    0.0000 H   0  0  0  0  0  0  0  0  0  0  0  0
    2.3999   -1.3857    0.0000 C   0  0  0  0  0  0  0  0  0  0  0  0
    3.9999   -1.3857    0.0000 H   0  0  0  0  0  0  0  0  0  0  0  0
    1.5999   -2.7713    0.0000 C   0  0  0  0  0  0  0  0  0  0  0  0
    2.3999   -4.1569    0.0000 H   0  0  0  0  0  0  0  0  0  0  0  0
    0.0001   -2.7713    0.0000 C   0  0  0  0  0  0  0  0  0  0  0  0
   -0.7999   -4.1569    0.0000 H   0  0  0  0  0  0  0  0  0  0  0  0
   -0.7999   -1.3857    0.0000 C   0  0  0  0  0  0  0  0  0  0  0  0
   -2.3999   -1.3857    0.0000 H   0  0  0  0  0  0  0  0  0  0  0  0
   -1.0284    1.2256    0.0000 C   0  0  0  0  0  0  0  0  0  0  0  0
   -2.6042    0.9479    0.0000 C   0  0  0  0  0  0  0  0  0  0  0  0
   -3.1514   -0.5557    0.0000 H   0  0  0  0  0  0  0  0  0  0  0  0
   -3.6327    2.1734    0.0000 C   0  0  0  0  0  0  0  0  0  0  0  0
   -5.2083    1.8957    0.0000 H   0  0  0  0  0  0  0  0  0  0  0  0
   -3.0853    3.6770    0.0000 C   0  0  0  0  0  0  0  0  0  0  0  0
   -4.1138    4.9027    0.0000 H   0  0  0  0  0  0  0  0  0  0  0  0
   -1.5097    3.9549    0.0000 C   0  0  0  0  0  0  0  0  0  0  0  0
   -0.9624    5.4584    0.0000 H   0  0  0  0  0  0  0  0  0  0  0  0
   -0.4812    2.7292    0.0000 C   0  0  0  0  0  0  0  0  0  0  0  0
    1.0944    2.4513    0.0000 H   0  0  0  0  0  0  0  0  0  0  0  0
  1  2  1  0  0  0  0
  2  3  1  0  0  0  0
  3  4  1  0  0  0  0
  4  5  1  0  0  0  0
  4  6  2  0  0  0  0
  6  7  1  0  0  0  0
  6  8  1  0  0  0  0
  8  9  1  0  0  0  0
  8 10  2  0  0  0  0
 10 11  1  0  0  0  0
 10 12  1  0  0  0  0
 12  3  2  0  0  0  0
 12 13  1  0  0  0  0
  2 14  2  0  0  0  0
 14 15  1  0  0  0  0
 14 16  1  0  0  0  0
 16 17  1  0  0  0  0
 16 18  2  0  0  0  0
 18 19  1  0  0  0  0
 18 20  1  0  0  0  0
 20  1  2  0  0  0  0
 20 21  1  0  0  0  0
  1 22  1  0  0  0  0
 22 23  1  0  0  0  0
 23 24  1  0  0  0  0
 23 25  2  0  0  0  0
 25 26  1  0  0  0  0
 25 27  1  0  0  0  0
 27 28  1  0  0  0  0
 27 29  2  0  0  0  0
 29 30  1  0  0  0  0
 29 31  1  0  0  0  0
 31 22  2  0  0  0  0
 31 32  1  0  0  0  0
M  END
> <ChemID>
100079

> <source_casrn>
84-15-1

> <CAS>
84-15-1

> <SMILES>
c1ccccc1-c1ccccc1-c1ccccc1

> <NAME>
O-TERPHENYL

> <preferred_name>
o-Terphenyl

> <iupac>
1,1':2',1''-terphenyl

> <MPID>
98010

> <dsstox_substance_id>
DTXSID1049697

> <Canonical_QSARr>
c1ccccc1-c1ccccc1-c1ccccc1

> <InChI_Code_QSARr>
InChI=1S/C18H14/c1-3-9-15(10-4-1)17-13-7-8-14-18(17)16-11-5-2-6-12-16/h1-14H

> <InChI Key_QSARr>
OIAQMFOKAXHPNH-UHFFFAOYSA-N

> <Salt_Solvent>
?

> <LogBCF>
3.48

$$$$
100080
  -INDIGO-08031719362D

 30 32  0  0  0  0  0  0  0  0999 V2000
    1.3856    2.4000    0.0000 C   0  0  0  0  0  0  0  0  0  0  0  0
    0.0001    1.6000    0.0000 C   0  0  0  0  0  0  0  0  0  0  0  0
    0.0001    0.0000    0.0000 C   0  0  0  0  0  0  0  0  0  0  0  0
   -1.3856   -0.8000    0.0000 C   0  0  0  0  0  0  0  0  0  0  0  0
   -1.3856   -2.4000    0.0000 H   0  0  0  0  0  0  0  0  0  0  0  0
   -2.7714    0.0000    0.0000 C   0  0  0  0  0  0  0  0  0  0  0  0
   -2.7714    1.6000    0.0000 C   0  0  0  0  0  0  0  0  0  0  0  0
   -4.1569    2.4000    0.0000 H   0  0  0  0  0  0  0  0  0  0  0  0
   -1.3856    2.4000    0.0000 C   0  0  0  0  0  0  0  0  0  0  0  0
   -1.3856    4.0000    0.0000 H   0  0  0  0  0  0  0  0  0  0  0  0
   -4.1569   -0.8000    0.0000 C   0  0  0  0  0  0  0  0  0  0  0  0
   -3.5446   -2.2782    0.0000 H   0  0  0  0  0  0  0  0  0  0  0  0
   -4.7692   -2.2782    0.0000 H   0  0  0  0  0  0  0  0  0  0  0  0
   -5.5427    0.0000    0.0000 C   0  0  0  0  0  0  0  0  0  0  0  0
   -6.9282   -0.8000    0.0000 H   0  0  0  0  0  0  0  0  0  0  0  0
   -6.9282    0.8000    0.0000 H   0  0  0  0  0  0  0  0  0  0  0  0
   -5.5425   -1.6000    0.0000 H   0  0  0  0  0  0  0  0  0  0  0  0
    1.3856   -0.8000    0.0000 C   0  0  0  0  0  0  0  0  0  0  0  0
    1.3856   -2.4000    0.0000 O   0  0  0  0  0  0  0  0  0  0  0  0
    2.7714    0.0000    0.0000 C   0  0  0  0  0  0  0  0  0  0  0  0
    2.7714    1.6000    0.0000 C   0  0  0  0  0  0  0  0  0  0  0  0
    4.1569    2.4000    0.0000 C   0  0  0  0  0  0  0  0  0  0  0  0
    4.1569    4.0000    0.0000 H   0  0  0  0  0  0  0  0  0  0  0  0
    5.5427    1.6000    0.0000 C   0  0  0  0  0  0  0  0  0  0  0  0
    6.9282    2.4000    0.0000 H   0  0  0  0  0  0  0  0  0  0  0  0
    5.5427    0.0000    0.0000 C   0  0  0  0  0  0  0  0  0  0  0  0
    6.9282   -0.8000    0.0000 H   0  0  0  0  0  0  0  0  0  0  0  0
    4.1569   -0.8000    0.0000 C   0  0  0  0  0  0  0  0  0  0  0  0
    4.1569   -2.4000    0.0000 H   0  0  0  0  0  0  0  0  0  0  0  0
    1.3856    4.0000    0.0000 O   0  0  0  0  0  0  0  0  0  0  0  0
  1  2  1  0  0  0  0
  2  3  1  0  0  0  0
  3  4  2  0  0  0  0
  4  5  1  0  0  0  0
  4  6  1  0  0  0  0
  6  7  2  0  0  0  0
  7  8  1  0  0  0  0
  7  9  1  0  0  0  0
  9  2  2  0  0  0  0
  9 10  1  0  0  0  0
  6 11  1  0  0  0  0
 11 12  1  0  0  0  0
 11 13  1  0  0  0  0
 11 14  1  0  0  0  0
 14 15  1  0  0  0  0
 14 16  1  0  0  0  0
 14 17  1  0  0  0  0
  3 18  1  0  0  0  0
 18 19  2  0  0  0  0
 18 20  1  0  0  0  0
 20 21  1  0  0  0  0
 21  1  1  0  0  0  0
 21 22  2  0  0  0  0
 22 23  1  0  0  0  0
 22 24  1  0  0  0  0
 24 25  1  0  0  0  0
 24 26  2  0  0  0  0
 26 27  1  0  0  0  0
 26 28  1  0  0  0  0
 28 20  2  0  0  0  0
 28 29  1  0  0  0  0
  1 30  2  0  0  0  0
M  END
> <ChemID>
100080

> <source_casrn>
84-51-5

> <CAS>
84-51-5

> <SMILES>
CCc1cc2c(cc1)C(=O)c1ccccc1C2=O

> <NAME>
2-ETHYLANTHRAQUINONE

> <preferred_name>
2-Ethylanthracene-9,10-dione

> <iupac>
2-ethylanthracene-9,10-dione

> <MPID>
98011

> <dsstox_substance_id>
DTXSID5044994

> <Canonical_QSARr>
CCc1cc2c(cc1)C(=O)c1ccccc1C2=O

> <InChI_Code_QSARr>
InChI=1S/C16H12O2/c1-2-10-7-8-13-14(9-10)16(18)12-6-4-3-5-11(12)15(13)17/h3-9H,2H2,1H3

> <InChI Key_QSARr>
SJEBAWHUJDUKQK-UHFFFAOYSA-N

> <Salt_Solvent>
?

> <LogBCF>
0.98

$$$$
100082
  -INDIGO-08031719362D

 42 42  0  0  0  0  0  0  0  0999 V2000
   -4.8000    5.5426    0.0000 C   0  0  0  0  0  0  0  0  0  0  0  0
   -3.9999    6.9282    0.0000 H   0  0  0  0  0  0  0  0  0  0  0  0
   -6.4000    5.5426    0.0000 C   0  0  0  0  0  0  0  0  0  0  0  0
   -7.2001    6.9282    0.0000 H   0  0  0  0  0  0  0  0  0  0  0  0
   -7.2001    4.1569    0.0000 C   0  0  0  0  0  0  0  0  0  0  0  0
   -8.8000    4.1569    0.0000 H   0  0  0  0  0  0  0  0  0  0  0  0
   -6.4000    2.7713    0.0000 C   0  0  0  0  0  0  0  0  0  0  0  0
   -7.2001    1.3856    0.0000 C   0  0  0  0  0  0  0  0  0  0  0  0
   -6.4000   -0.0000    0.0000 O   0  0  0  0  0  0  0  0  0  0  0  0
   -8.8000    1.3856    0.0000 O   0  0  0  0  0  0  0  0  0  0  0  0
   -9.6001   -0.0000    0.0000 C   0  0  0  0  0  0  0  0  0  0  0  0
   -8.3307   -0.9739    0.0000 H   0  0  0  0  0  0  0  0  0  0  0  0
   -9.3912   -1.5864    0.0000 H   0  0  0  0  0  0  0  0  0  0  0  0
  -11.2000   -0.0000    0.0000 C   0  0  0  0  0  0  0  0  0  0  0  0
  -12.4695    0.9741    0.0000 H   0  0  0  0  0  0  0  0  0  0  0  0
  -11.4089    1.5863    0.0000 H   0  0  0  0  0  0  0  0  0  0  0  0
  -12.0001   -1.3856    0.0000 C   0  0  0  0  0  0  0  0  0  0  0  0
  -10.7307   -2.3597    0.0000 H   0  0  0  0  0  0  0  0  0  0  0  0
  -11.7913   -2.9720    0.0000 H   0  0  0  0  0  0  0  0  0  0  0  0
  -13.6001   -1.3856    0.0000 C   0  0  0  0  0  0  0  0  0  0  0  0
  -15.2000   -1.3856    0.0000 H   0  0  0  0  0  0  0  0  0  0  0  0
  -14.3999   -2.7713    0.0000 H   0  0  0  0  0  0  0  0  0  0  0  0
  -14.3999   -0.0000    0.0000 H   0  0  0  0  0  0  0  0  0  0  0  0
   -4.8000    2.7713    0.0000 C   0  0  0  0  0  0  0  0  0  0  0  0
   -3.9999    1.3856    0.0000 C   0  0  0  0  0  0  0  0  0  0  0  0
   -4.8000   -0.0000    0.0000 O   0  0  0  0  0  0  0  0  0  0  0  0
   -2.4000    1.3856    0.0000 O   0  0  0  0  0  0  0  0  0  0  0  0
   -1.5999   -0.0000    0.0000 C   0  0  0  0  0  0  0  0  0  0  0  0
   -1.8088   -1.5864    0.0000 H   0  0  0  0  0  0  0  0  0  0  0  0
   -2.8693   -0.9739    0.0000 H   0  0  0  0  0  0  0  0  0  0  0  0
    0.0000   -0.0000    0.0000 C   0  0  0  0  0  0  0  0  0  0  0  0
    0.2089    1.5863    0.0000 H   0  0  0  0  0  0  0  0  0  0  0  0
    1.2695    0.9741    0.0000 H   0  0  0  0  0  0  0  0  0  0  0  0
    0.8001   -1.3856    0.0000 C   0  0  0  0  0  0  0  0  0  0  0  0
    0.5913   -2.9720    0.0000 H   0  0  0  0  0  0  0  0  0  0  0  0
   -0.4693   -2.3597    0.0000 H   0  0  0  0  0  0  0  0  0  0  0  0
    2.4001   -1.3856    0.0000 C   0  0  0  0  0  0  0  0  0  0  0  0
    4.0000   -1.3856    0.0000 H   0  0  0  0  0  0  0  0  0  0  0  0
    3.1999   -2.7713    0.0000 H   0  0  0  0  0  0  0  0  0  0  0  0
    3.1999   -0.0000    0.0000 H   0  0  0  0  0  0  0  0  0  0  0  0
   -3.9999    4.1569    0.0000 C   0  0  0  0  0  0  0  0  0  0  0  0
   -2.4000    4.1569    0.0000 H   0  0  0  0  0  0  0  0  0  0  0  0
  1  2  1  0  0  0  0
  1  3  1  0  0  0  0
  3  4  1  0  0  0  0
  3  5  2  0  0  0  0
  5  6  1  0  0  0  0
  5  7  1  0  0  0  0
  7  8  1  0  0  0  0
  8  9  2  0  0  0  0
  8 10  1  0  0  0  0
 10 11  1  0  0  0  0
 11 12  1  0  0  0  0
 11 13  1  0  0  0  0
 11 14  1  0  0  0  0
 14 15  1  0  0  0  0
 14 16  1  0  0  0  0
 14 17  1  0  0  0  0
 17 18  1  0  0  0  0
 17 19  1  0  0  0  0
 17 20  1  0  0  0  0
 20 21  1  0  0  0  0
 20 22  1  0  0  0  0
 20 23  1  0  0  0  0
  7 24  2  0  0  0  0
 24 25  1  0  0  0  0
 25 26  2  0  0  0  0
 25 27  1  0  0  0  0
 27 28  1  0  0  0  0
 28 29  1  0  0  0  0
 28 30  1  0  0  0  0
 28 31  1  0  0  0  0
 31 32  1  0  0  0  0
 31 33  1  0  0  0  0
 31 34  1  0  0  0  0
 34 35  1  0  0  0  0
 34 36  1  0  0  0  0
 34 37  1  0  0  0  0
 37 38  1  0  0  0  0
 37 39  1  0  0  0  0
 37 40  1  0  0  0  0
 24 41  1  0  0  0  0
 41  1  2  0  0  0  0
 41 42  1  0  0  0  0
M  END
> <ChemID>
100082

> <source_casrn>
84-74-2

> <CAS>
84-74-2

> <SMILES>
CCCCOC(=O)c1ccccc1C(=O)OCCCC

> <NAME>
DIBUTYL PHTHALATE

> <preferred_name>
Dibutyl phthalate

> <iupac>
dibutyl benzene-1,2-dicarboxylate

> <MPID>
98013

> <dsstox_substance_id>
DTXSID2021781

> <Canonical_QSARr>
CCCCOC(=O)c1ccccc1C(=O)OCCCC

> <InChI_Code_QSARr>
InChI=1S/C16H22O4/c1-3-5-11-19-15(17)13-9-7-8-10-14(13)16(18)20-12-6-4-2/h7-10H,3-6,11-12H2,1-2H3

> <InChI Key_QSARr>
DOIRQSBPFJWKBE-UHFFFAOYSA-N

> <Salt_Solvent>
?

> <LogBCF>
2.22

$$$$
100083
  -INDIGO-08031719362D

 14 16  0  0  0  0  0  0  0  0999 V2000
    1.6000    2.7713    0.0000 C   0  0  0  0  0  0  0  0  0  0  0  0
    2.4001    1.3856    0.0000 N   0  0  0  0  0  0  0  0  0  0  0  0
    1.6000    0.0000    0.0000 C   0  0  0  0  0  0  0  0  0  0  0  0
    2.4001   -1.3856    0.0000 C   0  0  0  0  0  0  0  0  0  0  0  0
    4.0001   -1.3856    0.0000 C   0  0  0  0  0  0  0  0  0  0  0  0
    4.8000    0.0000    0.0000 C   0  0  0  0  0  0  0  0  0  0  0  0
    4.0001    1.3856    0.0000 C   0  0  0  0  0  0  0  0  0  0  0  0
    0.0000    0.0000    0.0000 C   0  0  0  0  0  0  0  0  0  0  0  0
   -0.8001    1.3856    0.0000 N   0  0  0  0  0  0  0  0  0  0  0  0
   -2.4001    1.3856    0.0000 C   0  0  0  0  0  0  0  0  0  0  0  0
   -3.2000    0.0000    0.0000 C   0  0  0  0  0  0  0  0  0  0  0  0
   -2.4001   -1.3856    0.0000 C   0  0  0  0  0  0  0  0  0  0  0  0
   -0.8001   -1.3856    0.0000 C   0  0  0  0  0  0  0  0  0  0  0  0
    0.0000    2.7713    0.0000 C   0  0  0  0  0  0  0  0  0  0  0  0
  1  2  1  0  0  0  0
  2  3  1  0  0  0  0
  3  4  2  0  0  0  0
  4  5  1  0  0  0  0
  5  6  2  0  0  0  0
  6  7  1  0  0  0  0
  7  2  2  0  0  0  0
  3  8  1  0  0  0  0
  8  9  1  0  0  0  0
  9 10  2  0  0  0  0
 10 11  1  0  0  0  0
 11 12  2  0  0  0  0
 12 13  1  0  0  0  0
 13  8  2  0  0  0  0
  9 14  1  0  0  0  0
 14  1  1  0  0  0  0
M  CHG  2   2   1   9   1
M  END
> <ChemID>
100083

> <source_casrn>
85-00-7

> <CAS>
85-00-7

> <SMILES>
[Br-].[Br-].C1C[n+]2ccccc2-c2cccc[n+]21

> <NAME>
DIQUAT DIBROMIDE

> <preferred_name>
Diquat dibromide

> <iupac>
6,7-dihydrodipyrido[1,2-a:2',1'-c]pyrazinediium dibromide

> <MPID>
98014

> <dsstox_substance_id>
DTXSID3024075

> <Canonical_QSARr>
C1C[n+]2ccccc2-c2cccc[n+]21

> <InChI_Code_QSARr>
InChI=1S/C12H12N2/c1-3-7-13-9-10-14-8-4-2-6-12(14)11(13)5-1/h1-8H,9-10H2/q+2

> <InChI Key_QSARr>
SYJFEGQWDCRVNX-UHFFFAOYSA-N

> <Salt_Solvent>
[Br-].[Br-]

> <LogBCF>
0.76

$$$$
100084
  -INDIGO-08031719362D

 24 26  0  0  0  0  0  0  0  0999 V2000
   -0.0001    0.0000    0.0000 C   0  0  0  0  0  0  0  0  0  0  0  0
    1.6001    0.0000    0.0000 C   0  0  0  0  0  0  0  0  0  0  0  0
    2.4001   -1.3856    0.0000 C   0  0  0  0  0  0  0  0  0  0  0  0
    4.0000   -1.3856    0.0000 C   0  0  0  0  0  0  0  0  0  0  0  0
    4.8000   -2.7713    0.0000 H   0  0  0  0  0  0  0  0  0  0  0  0
    4.8000    0.0000    0.0000 C   0  0  0  0  0  0  0  0  0  0  0  0
    6.4000    0.0000    0.0000 H   0  0  0  0  0  0  0  0  0  0  0  0
    4.0000    1.3856    0.0000 C   0  0  0  0  0  0  0  0  0  0  0  0
    4.8000    2.7713    0.0000 H   0  0  0  0  0  0  0  0  0  0  0  0
    2.4001    1.3856    0.0000 C   0  0  0  0  0  0  0  0  0  0  0  0
    1.6001    2.7713    0.0000 H   0  0  0  0  0  0  0  0  0  0  0  0
    1.6001   -2.7713    0.0000 C   0  0  0  0  0  0  0  0  0  0  0  0
    2.4001   -4.1569    0.0000 H   0  0  0  0  0  0  0  0  0  0  0  0
   -0.0001   -2.7713    0.0000 C   0  0  0  0  0  0  0  0  0  0  0  0
   -0.8001   -4.1569    0.0000 H   0  0  0  0  0  0  0  0  0  0  0  0
   -0.8001   -1.3856    0.0000 C   0  0  0  0  0  0  0  0  0  0  0  0
   -2.4000   -1.3856    0.0000 C   0  0  0  0  0  0  0  0  0  0  0  0
   -3.2000   -2.7713    0.0000 H   0  0  0  0  0  0  0  0  0  0  0  0
   -3.2000    0.0000    0.0000 C   0  0  0  0  0  0  0  0  0  0  0  0
   -4.8000    0.0000    0.0000 H   0  0  0  0  0  0  0  0  0  0  0  0
   -2.4000    1.3856    0.0000 C   0  0  0  0  0  0  0  0  0  0  0  0
   -3.2000    2.7713    0.0000 H   0  0  0  0  0  0  0  0  0  0  0  0
   -0.8001    1.3856    0.0000 C   0  0  0  0  0  0  0  0  0  0  0  0
   -0.0001    2.7713    0.0000 H   0  0  0  0  0  0  0  0  0  0  0  0
  1  2  1  0  0  0  0
  2  3  1  0  0  0  0
  3  4  2  0  0  0  0
  4  5  1  0  0  0  0
  4  6  1  0  0  0  0
  6  7  1  0  0  0  0
  6  8  2  0  0  0  0
  8  9  1  0  0  0  0
  8 10  1  0  0  0  0
 10  2  2  0  0  0  0
 10 11  1  0  0  0  0
  3 12  1  0  0  0  0
 12 13  1  0  0  0  0
 12 14  2  0  0  0  0
 14 15  1  0  0  0  0
 14 16  1  0  0  0  0
 16  1  1  0  0  0  0
 16 17  2  0  0  0  0
 17 18  1  0  0  0  0
 17 19  1  0  0  0  0
 19 20  1  0  0  0  0
 19 21  2  0  0  0  0
 21 22  1  0  0  0  0
 21 23  1  0  0  0  0
 23  1  2  0  0  0  0
 23 24  1  0  0  0  0
M  END
> <ChemID>
100084

> <source_casrn>
85-01-8

> <CAS>
85-01-8

> <SMILES>
c1cc2ccccc2c2ccccc21

> <NAME>
PHENANTHRENE

> <preferred_name>
Phenanthrene

> <iupac>
phenanthrenato

> <MPID>
98015

> <dsstox_substance_id>
DTXSID6024254

> <Canonical_QSARr>
c1cc2ccccc2c2ccccc21

> <InChI_Code_QSARr>
InChI=1S/C14H10/c1-3-7-13-11(5-1)9-10-12-6-2-4-8-14(12)13/h1-10H

> <InChI Key_QSARr>
YNPNZTXNASCQKK-UHFFFAOYSA-N

> <Salt_Solvent>
?

> <LogBCF>
3.4

$$$$
100085
  -INDIGO-08031719362D

 18 18  0  0  0  0  0  0  0  0999 V2000
    0.8001   -1.3856    0.0000 C   0  0  0  0  0  0  0  0  0  0  0  0
    2.4000   -1.3856    0.0000 H   0  0  0  0  0  0  0  0  0  0  0  0
    1.6000   -2.7713    0.0000 H   0  0  0  0  0  0  0  0  0  0  0  0
    1.6000   -0.0000    0.0000 H   0  0  0  0  0  0  0  0  0  0  0  0
    0.0000   -0.0000    0.0000 C   0  0  0  0  0  0  0  0  0  0  0  0
    0.2088    1.5863    0.0000 H   0  0  0  0  0  0  0  0  0  0  0  0
    1.2694    0.9740    0.0000 H   0  0  0  0  0  0  0  0  0  0  0  0
   -1.6000    0.0000    0.0000 C   0  0  0  0  0  0  0  0  0  0  0  0
   -2.4000    1.3856    0.0000 C   0  0  0  0  0  0  0  0  0  0  0  0
   -1.6000    2.7713    0.0000 Br  0  0  0  0  0  0  0  0  0  0  0  0
   -4.0000    1.3856    0.0000 C   0  0  0  0  0  0  0  0  0  0  0  0
   -4.8001    2.7713    0.0000 Br  0  0  0  0  0  0  0  0  0  0  0  0
   -4.8001    0.0000    0.0000 C   0  0  0  0  0  0  0  0  0  0  0  0
   -6.4000    0.0000    0.0000 Br  0  0  0  0  0  0  0  0  0  0  0  0
   -4.0000   -1.3856    0.0000 C   0  0  0  0  0  0  0  0  0  0  0  0
   -4.8001   -2.7713    0.0000 Br  0  0  0  0  0  0  0  0  0  0  0  0
   -2.4000   -1.3856    0.0000 C   0  0  0  0  0  0  0  0  0  0  0  0
   -1.6000   -2.7713    0.0000 Br  0  0  0  0  0  0  0  0  0  0  0  0
  1  2  1  0  0  0  0
  1  3  1  0  0  0  0
  1  4  1  0  0  0  0
  1  5  1  0  0  0  0
  5  6  1  0  0  0  0
  5  7  1  0  0  0  0
  5  8  1  0  0  0  0
  8  9  1  0  0  0  0
  9 10  1  0  0  0  0
  9 11  2  0  0  0  0
 11 12  1  0  0  0  0
 11 13  1  0  0  0  0
 13 14  1  0  0  0  0
 13 15  2  0  0  0  0
 15 16  1  0  0  0  0
 15 17  1  0  0  0  0
 17  8  2  0  0  0  0
 17 18  1  0  0  0  0
M  END
> <ChemID>
100085

> <source_casrn>
85-22-3

> <CAS>
85-22-3

> <SMILES>
c(c(c(c(c1Br)Br)Br)Br)(c1Br)CC

> <NAME>
PENTABROMOETHYLBENZENE

> <preferred_name>
2,3,4,5,6-Pentabromoethylbenzene

> <iupac>
1,2,3,4,5-pentabromo-6-ethylbenzene

> <MPID>
98016

> <dsstox_substance_id>
DTXSID7021782

> <Canonical_QSARr>
CCc1c(Br)c(Br)c(Br)c(Br)c1Br

> <InChI_Code_QSARr>
InChI=1S/C8H5Br5/c1-2-3-4(9)6(11)8(13)7(12)5(3)10/h2H2,1H3

> <InChI Key_QSARr>
FIAXCDIQXHJNIX-UHFFFAOYSA-N

> <Salt_Solvent>
?

> <LogBCF>
2.52

$$$$
100087
  -INDIGO-08031719362D

 25 26  0  0  0  0  0  0  0  0999 V2000
    1.8669    3.5292    0.0000 O   0  0  0  0  0  0  0  0  0  0  0  0
    0.8384    2.3036    0.0000 N   0  0  0  0  0  0  0  0  0  0  0  0
    1.3857    0.8000    0.0000 N   0  0  0  0  0  0  0  0  0  0  0  0
    2.9613    0.5222    0.0000 C   0  0  0  0  0  0  0  0  0  0  0  0
    3.5086   -0.9813    0.0000 C   0  0  0  0  0  0  0  0  0  0  0  0
    2.4802   -2.2071    0.0000 H   0  0  0  0  0  0  0  0  0  0  0  0
    5.0842   -1.2592    0.0000 C   0  0  0  0  0  0  0  0  0  0  0  0
    5.6315   -2.7627    0.0000 H   0  0  0  0  0  0  0  0  0  0  0  0
    6.1126   -0.0335    0.0000 C   0  0  0  0  0  0  0  0  0  0  0  0
    7.6884   -0.3113    0.0000 H   0  0  0  0  0  0  0  0  0  0  0  0
    5.5655    1.4700    0.0000 C   0  0  0  0  0  0  0  0  0  0  0  0
    6.5940    2.6957    0.0000 H   0  0  0  0  0  0  0  0  0  0  0  0
    3.9898    1.7478    0.0000 C   0  0  0  0  0  0  0  0  0  0  0  0
    3.4426    3.2514    0.0000 H   0  0  0  0  0  0  0  0  0  0  0  0
   -0.0001    0.0001    0.0000 C   0  0  0  0  0  0  0  0  0  0  0  0
   -0.0001   -1.6000    0.0000 C   0  0  0  0  0  0  0  0  0  0  0  0
    1.3857   -2.4000    0.0000 H   0  0  0  0  0  0  0  0  0  0  0  0
   -1.3857   -2.4000    0.0000 C   0  0  0  0  0  0  0  0  0  0  0  0
   -1.3857   -4.0000    0.0000 H   0  0  0  0  0  0  0  0  0  0  0  0
   -2.7713   -1.6000    0.0000 C   0  0  0  0  0  0  0  0  0  0  0  0
   -4.1569   -2.4000    0.0000 H   0  0  0  0  0  0  0  0  0  0  0  0
   -2.7713    0.0001    0.0000 C   0  0  0  0  0  0  0  0  0  0  0  0
   -4.1569    0.8000    0.0000 H   0  0  0  0  0  0  0  0  0  0  0  0
   -1.3857    0.8000    0.0000 C   0  0  0  0  0  0  0  0  0  0  0  0
   -1.3857    2.3999    0.0000 H   0  0  0  0  0  0  0  0  0  0  0  0
  1  2  2  0  0  0  0
  2  3  1  0  0  0  0
  3  4  1  0  0  0  0
  4  5  1  0  0  0  0
  5  6  1  0  0  0  0
  5  7  2  0  0  0  0
  7  8  1  0  0  0  0
  7  9  1  0  0  0  0
  9 10  1  0  0  0  0
  9 11  2  0  0  0  0
 11 12  1  0  0  0  0
 11 13  1  0  0  0  0
 13  4  2  0  0  0  0
 13 14  1  0  0  0  0
  3 15  1  0  0  0  0
 15 16  1  0  0  0  0
 16 17  1  0  0  0  0
 16 18  2  0  0  0  0
 18 19  1  0  0  0  0
 18 20  1  0  0  0  0
 20 21  1  0  0  0  0
 20 22  2  0  0  0  0
 22 23  1  0  0  0  0
 22 24  1  0  0  0  0
 24 15  2  0  0  0  0
 24 25  1  0  0  0  0
M  END
> <ChemID>
100087

> <source_casrn>
86-30-6

> <CAS>
86-30-6

> <SMILES>
O=NN(c1ccccc1)c1ccccc1

> <NAME>
DIPHENYLNITROSAMINE

> <preferred_name>
N-Nitrosodiphenylamine

> <iupac>
N-nitroso-N-phenylaniline

> <MPID>
98018

> <dsstox_substance_id>
DTXSID6021030

> <Canonical_QSARr>
O=NN(c1ccccc1)c1ccccc1

> <InChI_Code_QSARr>
InChI=1S/C12H10N2O/c15-13-14(11-7-3-1-4-8-11)12-9-5-2-6-10-12/h1-10H

> <InChI Key_QSARr>
UBUCNCOMADRQHX-UHFFFAOYSA-N

> <Salt_Solvent>
?

> <LogBCF>
1.33

$$$$
100088
  -INDIGO-08031719362D

 23 25  0  0  0  0  0  0  0  0999 V2000
   -0.2706   -2.5747    0.0000 C   0  0  0  0  0  0  0  0  0  0  0  0
    1.2945   -2.2420    0.0000 C   0  0  0  0  0  0  0  0  0  0  0  0
    1.4616   -0.6508    0.0000 C   0  0  0  0  0  0  0  0  0  0  0  0
    2.9233    0.0000    0.0000 C   0  0  0  0  0  0  0  0  0  0  0  0
    3.0906    1.5912    0.0000 H   0  0  0  0  0  0  0  0  0  0  0  0
    4.2177   -0.9405    0.0000 C   0  0  0  0  0  0  0  0  0  0  0  0
    5.6794   -0.2897    0.0000 H   0  0  0  0  0  0  0  0  0  0  0  0
    4.0506   -2.5317    0.0000 C   0  0  0  0  0  0  0  0  0  0  0  0
    5.3450   -3.4721    0.0000 H   0  0  0  0  0  0  0  0  0  0  0  0
    2.5889   -3.1825    0.0000 C   0  0  0  0  0  0  0  0  0  0  0  0
    2.4215   -4.7737    0.0000 H   0  0  0  0  0  0  0  0  0  0  0  0
    0.0001    0.0000    0.0000 C   0  0  0  0  0  0  0  0  0  0  0  0
    0.8001    1.3857    0.0000 H   0  0  0  0  0  0  0  0  0  0  0  0
   -1.2944    0.9404    0.0000 H   0  0  0  0  0  0  0  0  0  0  0  0
   -1.0706   -1.1890    0.0000 C   0  0  0  0  0  0  0  0  0  0  0  0
   -2.6706   -1.1890    0.0000 C   0  0  0  0  0  0  0  0  0  0  0  0
   -3.4706    0.1966    0.0000 H   0  0  0  0  0  0  0  0  0  0  0  0
   -3.4706   -2.5747    0.0000 C   0  0  0  0  0  0  0  0  0  0  0  0
   -5.0706   -2.5747    0.0000 H   0  0  0  0  0  0  0  0  0  0  0  0
   -2.6706   -3.9603    0.0000 C   0  0  0  0  0  0  0  0  0  0  0  0
   -3.4706   -5.3460    0.0000 H   0  0  0  0  0  0  0  0  0  0  0  0
   -1.0706   -3.9603    0.0000 C   0  0  0  0  0  0  0  0  0  0  0  0
   -0.2706   -5.3460    0.0000 H   0  0  0  0  0  0  0  0  0  0  0  0
  1  2  1  0  0  0  0
  2  3  1  0  0  0  0
  3  4  2  0  0  0  0
  4  5  1  0  0  0  0
  4  6  1  0  0  0  0
  6  7  1  0  0  0  0
  6  8  2  0  0  0  0
  8  9  1  0  0  0  0
  8 10  1  0  0  0  0
 10  2  2  0  0  0  0
 10 11  1  0  0  0  0
  3 12  1  0  0  0  0
 12 13  1  0  0  0  0
 12 14  1  0  0  0  0
 12 15  1  0  0  0  0
 15  1  1  0  0  0  0
 15 16  2  0  0  0  0
 16 17  1  0  0  0  0
 16 18  1  0  0  0  0
 18 19  1  0  0  0  0
 18 20  2  0  0  0  0
 20 21  1  0  0  0  0
 20 22  1  0  0  0  0
 22  1  2  0  0  0  0
 22 23  1  0  0  0  0
M  END
> <ChemID>
100088

> <source_casrn>
86-73-7

> <CAS>
86-73-7

> <SMILES>
C1c2ccccc2-c2ccccc21

> <NAME>
9H-FLUORENE

> <preferred_name>
Fluorene

> <iupac>
9H-fluorene

> <MPID>
98019

> <dsstox_substance_id>
DTXSID8024105

> <Canonical_QSARr>
C1c2ccccc2-c2ccccc21

> <InChI_Code_QSARr>
InChI=1S/C13H10/c1-3-7-12-10(5-1)9-11-6-2-4-8-13(11)12/h1-8H,9H2

> <InChI Key_QSARr>
NIHNNTQXNPWCJQ-UHFFFAOYSA-N

> <Salt_Solvent>
?

> <LogBCF>
2.72

$$$$
100089
  -INDIGO-08031719362D

 22 24  0  0  0  0  0  0  0  0999 V2000
    0.0000    0.0000    0.0000 C   0  0  0  0  0  0  0  0  0  0  0  0
    1.5651    0.3327    0.0000 C   0  0  0  0  0  0  0  0  0  0  0  0
    1.7322    1.9239    0.0000 C   0  0  0  0  0  0  0  0  0  0  0  0
    3.1939    2.5747    0.0000 C   0  0  0  0  0  0  0  0  0  0  0  0
    3.3612    4.1659    0.0000 H   0  0  0  0  0  0  0  0  0  0  0  0
    4.4883    1.6342    0.0000 C   0  0  0  0  0  0  0  0  0  0  0  0
    5.9501    2.2850    0.0000 H   0  0  0  0  0  0  0  0  0  0  0  0
    4.3212    0.0430    0.0000 C   0  0  0  0  0  0  0  0  0  0  0  0
    5.6156   -0.8974    0.0000 H   0  0  0  0  0  0  0  0  0  0  0  0
    2.8595   -0.6078    0.0000 C   0  0  0  0  0  0  0  0  0  0  0  0
    2.6921   -2.1990    0.0000 H   0  0  0  0  0  0  0  0  0  0  0  0
    0.2707    2.5747    0.0000 N   0  0  0  0  0  0  0  0  0  0  0  0
   -0.0620    4.1398    0.0000 H   0  0  0  0  0  0  0  0  0  0  0  0
   -0.8000    1.3856    0.0000 C   0  0  0  0  0  0  0  0  0  0  0  0
   -2.4000    1.3856    0.0000 C   0  0  0  0  0  0  0  0  0  0  0  0
   -3.2000    2.7713    0.0000 H   0  0  0  0  0  0  0  0  0  0  0  0
   -3.2000    0.0000    0.0000 C   0  0  0  0  0  0  0  0  0  0  0  0
   -4.8000    0.0000    0.0000 H   0  0  0  0  0  0  0  0  0  0  0  0
   -2.4000   -1.3856    0.0000 C   0  0  0  0  0  0  0  0  0  0  0  0
   -3.2000   -2.7713    0.0000 H   0  0  0  0  0  0  0  0  0  0  0  0
   -0.8000   -1.3856    0.0000 C   0  0  0  0  0  0  0  0  0  0  0  0
    0.0000   -2.7713    0.0000 H   0  0  0  0  0  0  0  0  0  0  0  0
  1  2  1  0  0  0  0
  2  3  1  0  0  0  0
  3  4  2  0  0  0  0
  4  5  1  0  0  0  0
  4  6  1  0  0  0  0
  6  7  1  0  0  0  0
  6  8  2  0  0  0  0
  8  9  1  0  0  0  0
  8 10  1  0  0  0  0
 10  2  2  0  0  0  0
 10 11  1  0  0  0  0
  3 12  1  0  0  0  0
 12 13  1  0  0  0  0
 12 14  1  0  0  0  0
 14  1  1  0  0  0  0
 14 15  2  0  0  0  0
 15 16  1  0  0  0  0
 15 17  1  0  0  0  0
 17 18  1  0  0  0  0
 17 19  2  0  0  0  0
 19 20  1  0  0  0  0
 19 21  1  0  0  0  0
 21  1  2  0  0  0  0
 21 22  1  0  0  0  0
M  END
> <ChemID>
100089

> <source_casrn>
86-74-8

> <CAS>
86-74-8

> <SMILES>
c1cccc2[nH]c3ccccc3c21

> <NAME>
CARBAZOLE

> <preferred_name>
Carbazole

> <iupac>
9H-carbazole

> <MPID>
98020

> <dsstox_substance_id>
DTXSID4020248

> <Canonical_QSARr>
c1cccc2[nH]c3ccccc3c21

> <InChI_Code_QSARr>
InChI=1S/C12H9N/c1-3-7-11-9(5-1)10-6-2-4-8-12(10)13-11/h1-8,13H

> <InChI Key_QSARr>
UJOBWOGCFQCDNV-UHFFFAOYSA-N

> <Salt_Solvent>
?

> <LogBCF>
2.23

$$$$
100091
  -INDIGO-08031719362D

 25 26  0  0  0  0  0  0  0  0999 V2000
   -0.0001    0.0000    0.0000 C   0  0  0  0  0  0  0  0  0  0  0  0
    1.3856    0.8000    0.0000 C   0  0  0  0  0  0  0  0  0  0  0  0
    1.3856    2.4000    0.0000 H   0  0  0  0  0  0  0  0  0  0  0  0
    2.7713    0.0000    0.0000 C   0  0  0  0  0  0  0  0  0  0  0  0
    4.1569    0.8000    0.0000 N   0  0  0  0  0  0  0  0  0  0  0  0
    5.5426    0.0000    0.0000 H   0  0  0  0  0  0  0  0  0  0  0  0
    4.1569    2.4000    0.0000 H   0  0  0  0  0  0  0  0  0  0  0  0
    2.7713   -1.6000    0.0000 C   0  0  0  0  0  0  0  0  0  0  0  0
    4.1569   -2.4000    0.0000 H   0  0  0  0  0  0  0  0  0  0  0  0
    1.3856   -2.4000    0.0000 C   0  0  0  0  0  0  0  0  0  0  0  0
    1.3856   -4.0000    0.0000 H   0  0  0  0  0  0  0  0  0  0  0  0
   -0.0001   -1.6000    0.0000 C   0  0  0  0  0  0  0  0  0  0  0  0
   -1.3856   -2.4000    0.0000 C   0  0  0  0  0  0  0  0  0  0  0  0
   -1.3856   -4.0000    0.0000 O   0  0  0  0  0  0  0  0  0  0  0  0
   -2.7713   -4.8000    0.0000 H   0  0  0  0  0  0  0  0  0  0  0  0
   -2.7713   -1.6000    0.0000 C   0  0  0  0  0  0  0  0  0  0  0  0
   -4.1570   -2.4000    0.0000 H   0  0  0  0  0  0  0  0  0  0  0  0
   -2.7713    0.0000    0.0000 C   0  0  0  0  0  0  0  0  0  0  0  0
   -4.1570    0.8000    0.0000 S   0  0  0  0  0  0  0  0  0  0  0  0
   -4.9570   -0.5857    0.0000 O   0  0  0  0  0  0  0  0  0  0  0  0
   -5.5425    1.6000    0.0000 O   0  0  0  0  0  0  0  0  0  0  0  0
   -6.9282    0.8000    0.0000 H   0  0  0  0  0  0  0  0  0  0  0  0
   -3.3570    2.1857    0.0000 O   0  0  0  0  0  0  0  0  0  0  0  0
   -1.3856    0.8000    0.0000 C   0  0  0  0  0  0  0  0  0  0  0  0
   -1.3856    2.4000    0.0000 H   0  0  0  0  0  0  0  0  0  0  0  0
  1  2  1  0  0  0  0
  2  3  1  0  0  0  0
  2  4  2  0  0  0  0
  4  5  1  0  0  0  0
  5  6  1  0  0  0  0
  5  7  1  0  0  0  0
  4  8  1  0  0  0  0
  8  9  1  0  0  0  0
  8 10  2  0  0  0  0
 10 11  1  0  0  0  0
 10 12  1  0  0  0  0
 12  1  1  0  0  0  0
 12 13  2  0  0  0  0
 13 14  1  0  0  0  0
 14 15  1  0  0  0  0
 13 16  1  0  0  0  0
 16 17  1  0  0  0  0
 16 18  2  0  0  0  0
 18 19  1  0  0  0  0
 19 20  2  0  0  0  0
 19 21  1  0  0  0  0
 21 22  1  0  0  0  0
 19 23  2  0  0  0  0
 18 24  1  0  0  0  0
 24  1  2  0  0  0  0
 24 25  1  0  0  0  0
M  END
> <ChemID>
100091

> <source_casrn>
87-02-5

> <CAS>
87-02-5

> <SMILES>
Nc1cc2cc(cc(O)c2cc1)S(O)(=O)=O

> <NAME>
7-Amino-4-hydroxy-2-naphthalenesulfonic acid

> <preferred_name>
7-Amino-4-hydroxynaphthalene-2-sulfonic acid

> <iupac>
7-amino-4-hydroxynaphthalene-2-sulfonic acid

> <MPID>
98022

> <dsstox_substance_id>
DTXSID7026520

> <Canonical_QSARr>
Nc1cc2cc(cc(O)c2cc1)S(O)(=O)=O

> <InChI_Code_QSARr>
InChI=1S/C10H9NO4S/c11-7-1-2-9-6(3-7)4-8(5-10(9)12)16(13,14)15/h1-5,12H,11H2,(H,13,14,15)

> <InChI Key_QSARr>
KYARBIJYVGJZLB-UHFFFAOYSA-N

> <Salt_Solvent>
?

> <LogBCF>
0.38

$$$$
100092
  -INDIGO-08031719362D

 16 16  0  0  0  0  0  0  0  0999 V2000
    0.0001   -0.0000    0.0000 C   0  0  0  0  0  0  0  0  0  0  0  0
    0.0001   -1.6000    0.0000 C   0  0  0  0  0  0  0  0  0  0  0  0
    1.3856   -2.4000    0.0000 Cl  0  0  0  0  0  0  0  0  0  0  0  0
   -1.3856   -2.4000    0.0000 C   0  0  0  0  0  0  0  0  0  0  0  0
   -1.3856   -4.0000    0.0000 H   0  0  0  0  0  0  0  0  0  0  0  0
   -2.7712   -1.6000    0.0000 C   0  0  0  0  0  0  0  0  0  0  0  0
   -4.1569   -2.4000    0.0000 Cl  0  0  0  0  0  0  0  0  0  0  0  0
   -2.7712   -0.0000    0.0000 C   0  0  0  0  0  0  0  0  0  0  0  0
   -4.1569    0.8000    0.0000 H   0  0  0  0  0  0  0  0  0  0  0  0
   -1.3856    0.8000    0.0000 C   0  0  0  0  0  0  0  0  0  0  0  0
   -1.3856    2.4000    0.0000 Cl  0  0  0  0  0  0  0  0  0  0  0  0
    1.3856    0.8000    0.0000 O   0  0  0  0  0  0  0  0  0  0  0  0
    2.7713   -0.0000    0.0000 C   0  0  0  0  0  0  0  0  0  0  0  0
    4.1569    0.8000    0.0000 H   0  0  0  0  0  0  0  0  0  0  0  0
    4.1569   -0.8000    0.0000 H   0  0  0  0  0  0  0  0  0  0  0  0
    2.7713    1.6000    0.0000 H   0  0  0  0  0  0  0  0  0  0  0  0
  1  2  1  0  0  0  0
  2  3  1  0  0  0  0
  2  4  2  0  0  0  0
  4  5  1  0  0  0  0
  4  6  1  0  0  0  0
  6  7  1  0  0  0  0
  6  8  2  0  0  0  0
  8  9  1  0  0  0  0
  8 10  1  0  0  0  0
 10  1  2  0  0  0  0
 10 11  1  0  0  0  0
  1 12  1  0  0  0  0
 12 13  1  0  0  0  0
 13 14  1  0  0  0  0
 13 15  1  0  0  0  0
 13 16  1  0  0  0  0
M  END
> <ChemID>
100092

> <source_casrn>
87-40-1

> <CAS>
87-40-1

> <SMILES>
COc1c(Cl)cc(Cl)cc1Cl

> <NAME>
2,4,6-TRICHLOROANISOLE

> <preferred_name>
Benzene, 1,3,5-trichloro-2-methoxy-

> <iupac>
1,3,5-Trichloro-2-methoxybenzene

> <MPID>
98023

> <dsstox_substance_id>
DTXSID9073886

> <Canonical_QSARr>
COc1c(Cl)cc(Cl)cc1Cl

> <InChI_Code_QSARr>
InChI=1S/C7H5Cl3O/c1-11-7-5(9)2-4(8)3-6(7)10/h2-3H,1H3

> <InChI Key_QSARr>
WCVOGSZTONGSQY-UHFFFAOYSA-N

> <Salt_Solvent>
?

> <LogBCF>
2.86

$$$$
100093
  -INDIGO-08031719362D

 12 12  0  0  0  0  0  0  0  0999 V2000
    0.8000    1.3856    0.0000 Cl  0  0  0  0  0  0  0  0  0  0  0  0
   -0.0000   -0.0000    0.0000 C   0  0  0  0  0  0  0  0  0  0  0  0
    0.8000   -1.3857    0.0000 C   0  0  0  0  0  0  0  0  0  0  0  0
    2.4000   -1.3857    0.0000 Cl  0  0  0  0  0  0  0  0  0  0  0  0
   -0.0000   -2.7713    0.0000 C   0  0  0  0  0  0  0  0  0  0  0  0
    0.8000   -4.1569    0.0000 H   0  0  0  0  0  0  0  0  0  0  0  0
   -1.6000   -2.7713    0.0000 C   0  0  0  0  0  0  0  0  0  0  0  0
   -2.4000   -4.1569    0.0000 H   0  0  0  0  0  0  0  0  0  0  0  0
   -2.4000   -1.3856    0.0000 C   0  0  0  0  0  0  0  0  0  0  0  0
   -4.0000   -1.3856    0.0000 H   0  0  0  0  0  0  0  0  0  0  0  0
   -1.6000   -0.0000    0.0000 C   0  0  0  0  0  0  0  0  0  0  0  0
   -2.4000    1.3856    0.0000 Cl  0  0  0  0  0  0  0  0  0  0  0  0
  1  2  1  0  0  0  0
  2  3  1  0  0  0  0
  3  4  1  0  0  0  0
  3  5  2  0  0  0  0
  5  6  1  0  0  0  0
  5  7  1  0  0  0  0
  7  8  1  0  0  0  0
  7  9  2  0  0  0  0
  9 10  1  0  0  0  0
  9 11  1  0  0  0  0
 11  2  2  0  0  0  0
 11 12  1  0  0  0  0
M  END
> <ChemID>
100093

> <source_casrn>
87-61-6

> <CAS>
87-61-6

> <SMILES>
Clc1c(Cl)cccc1Cl

> <NAME>
1,2,3-TRICHLOROBENZENE

> <preferred_name>
1,2,3-Trichlorobenzene

> <iupac>
C6H3Cl3

> <MPID>
98024

> <dsstox_substance_id>
DTXSID8026193

> <Canonical_QSARr>
Clc1c(Cl)cccc1Cl

> <InChI_Code_QSARr>
InChI=1S/C6H3Cl3/c7-4-2-1-3-5(8)6(4)9/h1-3H

> <InChI Key_QSARr>
RELMFMZEBKVZJC-UHFFFAOYSA-N

> <Salt_Solvent>
?

> <LogBCF>
2.82

$$$$
100095
  -INDIGO-08031719362D

 10  9  0  0  0  0  0  0  0  0999 V2000
    0.0000    1.6000    0.0000 Cl  0  0  0  0  0  0  0  0  0  0  0  0
    0.0000    0.0000    0.0000 C   0  0  0  0  0  0  0  0  0  0  0  0
    1.3856   -0.8000    0.0000 C   0  0  0  0  0  0  0  0  0  0  0  0
    2.7713    0.0000    0.0000 Cl  0  0  0  0  0  0  0  0  0  0  0  0
    1.3856   -2.4000    0.0000 Cl  0  0  0  0  0  0  0  0  0  0  0  0
   -1.3856   -0.8000    0.0000 C   0  0  0  0  0  0  0  0  0  0  0  0
   -2.7713    0.0000    0.0000 C   0  0  0  0  0  0  0  0  0  0  0  0
   -4.1569   -0.8000    0.0000 Cl  0  0  0  0  0  0  0  0  0  0  0  0
   -2.7713    1.6000    0.0000 Cl  0  0  0  0  0  0  0  0  0  0  0  0
   -1.3856   -2.4000    0.0000 Cl  0  0  0  0  0  0  0  0  0  0  0  0
  1  2  1  0  0  0  0
  2  3  2  0  0  0  0
  3  4  1  0  0  0  0
  3  5  1  0  0  0  0
  2  6  1  0  0  0  0
  6  7  2  0  0  0  0
  7  8  1  0  0  0  0
  7  9  1  0  0  0  0
  6 10  1  0  0  0  0
M  END
> <ChemID>
100095

> <source_casrn>
87-68-3

> <CAS>
87-68-3

> <SMILES>
ClC(Cl)=C(Cl)C(Cl)=C(Cl)Cl

> <NAME>
HEXACHLOROBUTADIENE

> <preferred_name>
Hexachloro-1,3-butadiene

> <iupac>
1,1,2,3,4,4-hexachlorobuta-1,3-diene

> <MPID>
98026

> <dsstox_substance_id>
DTXSID7020683

> <Canonical_QSARr>
ClC(Cl)=C(Cl)C(Cl)=C(Cl)Cl

> <InChI_Code_QSARr>
InChI=1S/C4Cl6/c5-1(3(7)8)2(6)4(9)10

> <InChI Key_QSARr>
RWNKSTSCBHKHTB-UHFFFAOYSA-N

> <Salt_Solvent>
?

> <LogBCF>
3.82

$$$$
100096
  -INDIGO-08031719362D

 12 12  0  0  0  0  0  0  0  0999 V2000
    0.8000    1.3856    0.0000 Br  0  0  0  0  0  0  0  0  0  0  0  0
   -0.0000   -0.0000    0.0000 C   0  0  0  0  0  0  0  0  0  0  0  0
    0.8000   -1.3857    0.0000 C   0  0  0  0  0  0  0  0  0  0  0  0
    2.4000   -1.3857    0.0000 Br  0  0  0  0  0  0  0  0  0  0  0  0
   -0.0000   -2.7713    0.0000 C   0  0  0  0  0  0  0  0  0  0  0  0
    0.8000   -4.1569    0.0000 Br  0  0  0  0  0  0  0  0  0  0  0  0
   -1.6000   -2.7713    0.0000 C   0  0  0  0  0  0  0  0  0  0  0  0
   -2.4000   -4.1569    0.0000 Br  0  0  0  0  0  0  0  0  0  0  0  0
   -2.4000   -1.3856    0.0000 C   0  0  0  0  0  0  0  0  0  0  0  0
   -4.0000   -1.3856    0.0000 Br  0  0  0  0  0  0  0  0  0  0  0  0
   -1.6000   -0.0000    0.0000 C   0  0  0  0  0  0  0  0  0  0  0  0
   -2.4000    1.3856    0.0000 Br  0  0  0  0  0  0  0  0  0  0  0  0
  1  2  1  0  0  0  0
  2  3  1  0  0  0  0
  3  4  1  0  0  0  0
  3  5  2  0  0  0  0
  5  6  1  0  0  0  0
  5  7  1  0  0  0  0
  7  8  1  0  0  0  0
  7  9  2  0  0  0  0
  9 10  1  0  0  0  0
  9 11  1  0  0  0  0
 11  2  2  0  0  0  0
 11 12  1  0  0  0  0
M  END
> <ChemID>
100096

> <source_casrn>
87-82-1

> <CAS>
87-82-1

> <SMILES>
Brc1c(Br)c(Br)c(Br)c(Br)c1Br

> <NAME>
HEXABROMOBENZENE

> <preferred_name>
Hexabromobenzene

> <iupac>
hexabromobenzene

> <MPID>
98027

> <dsstox_substance_id>
DTXSID1024128

> <Canonical_QSARr>
Brc1c(Br)c(Br)c(Br)c(Br)c1Br

> <InChI_Code_QSARr>
InChI=1S/C6Br6/c7-1-2(8)4(10)6(12)5(11)3(1)9

> <InChI Key_QSARr>
CAYGQBVSOZLICD-UHFFFAOYSA-N

> <Salt_Solvent>
?

> <LogBCF>
3.0

$$$$
100097
  -INDIGO-08031719362D

 15 15  0  0  0  0  0  0  0  0999 V2000
    0.0000   -0.0000    0.0000 C   0  0  0  0  0  0  0  0  0  0  0  0
   -0.8001    1.3856    0.0000 C   0  0  0  0  0  0  0  0  0  0  0  0
    0.0000    2.7713    0.0000 Br  0  0  0  0  0  0  0  0  0  0  0  0
   -2.4001    1.3856    0.0000 C   0  0  0  0  0  0  0  0  0  0  0  0
   -3.2000    2.7713    0.0000 Br  0  0  0  0  0  0  0  0  0  0  0  0
   -3.2000   -0.0000    0.0000 C   0  0  0  0  0  0  0  0  0  0  0  0
   -4.8000   -0.0000    0.0000 Br  0  0  0  0  0  0  0  0  0  0  0  0
   -2.4001   -1.3856    0.0000 C   0  0  0  0  0  0  0  0  0  0  0  0
   -3.2000   -2.7713    0.0000 Br  0  0  0  0  0  0  0  0  0  0  0  0
   -0.8001   -1.3856    0.0000 C   0  0  0  0  0  0  0  0  0  0  0  0
    0.0000   -2.7713    0.0000 Br  0  0  0  0  0  0  0  0  0  0  0  0
    1.6000   -0.0000    0.0000 C   0  0  0  0  0  0  0  0  0  0  0  0
    3.2000   -0.0000    0.0000 H   0  0  0  0  0  0  0  0  0  0  0  0
    2.4001   -1.3856    0.0000 H   0  0  0  0  0  0  0  0  0  0  0  0
    2.4001    1.3856    0.0000 H   0  0  0  0  0  0  0  0  0  0  0  0
  1  2  1  0  0  0  0
  2  3  1  0  0  0  0
  2  4  2  0  0  0  0
  4  5  1  0  0  0  0
  4  6  1  0  0  0  0
  6  7  1  0  0  0  0
  6  8  2  0  0  0  0
  8  9  1  0  0  0  0
  8 10  1  0  0  0  0
 10  1  2  0  0  0  0
 10 11  1  0  0  0  0
  1 12  1  0  0  0  0
 12 13  1  0  0  0  0
 12 14  1  0  0  0  0
 12 15  1  0  0  0  0
M  END
> <ChemID>
100097

> <source_casrn>
87-83-2

> <CAS>
87-83-2

> <SMILES>
Cc1c(Br)c(Br)c(Br)c(Br)c1Br

> <NAME>
PENTABROMOTOLUENE

> <preferred_name>
Pentabromotoluene

> <iupac>
1,2,3,4,5-pentabromo-6-methylbenzene

> <MPID>
98028

> <dsstox_substance_id>
DTXSID3025833

> <Canonical_QSARr>
Cc1c(Br)c(Br)c(Br)c(Br)c1Br

> <InChI_Code_QSARr>
InChI=1S/C7H3Br5/c1-2-3(8)5(10)7(12)6(11)4(2)9/h1H3

> <InChI Key_QSARr>
OZHJEQVYCBTHJT-UHFFFAOYSA-N

> <Salt_Solvent>
?

> <LogBCF>
2.43

$$$$
100099
  -INDIGO-08031719362D

 13 13  0  0  0  0  0  0  0  0999 V2000
    0.8000    1.3856    0.0000 O   0  0  0  0  0  0  0  0  0  0  0  0
    2.4000    1.3856    0.0000 H   0  0  0  0  0  0  0  0  0  0  0  0
   -0.0000   -0.0000    0.0000 C   0  0  0  0  0  0  0  0  0  0  0  0
    0.8000   -1.3857    0.0000 C   0  0  0  0  0  0  0  0  0  0  0  0
    2.4000   -1.3857    0.0000 Cl  0  0  0  0  0  0  0  0  0  0  0  0
   -0.0000   -2.7713    0.0000 C   0  0  0  0  0  0  0  0  0  0  0  0
    0.8000   -4.1569    0.0000 Cl  0  0  0  0  0  0  0  0  0  0  0  0
   -1.6000   -2.7713    0.0000 C   0  0  0  0  0  0  0  0  0  0  0  0
   -2.4000   -4.1569    0.0000 Cl  0  0  0  0  0  0  0  0  0  0  0  0
   -2.4000   -1.3856    0.0000 C   0  0  0  0  0  0  0  0  0  0  0  0
   -4.0000   -1.3856    0.0000 Cl  0  0  0  0  0  0  0  0  0  0  0  0
   -1.6000   -0.0000    0.0000 C   0  0  0  0  0  0  0  0  0  0  0  0
   -2.4000    1.3856    0.0000 Cl  0  0  0  0  0  0  0  0  0  0  0  0
  1  2  1  0  0  0  0
  1  3  1  0  0  0  0
  3  4  1  0  0  0  0
  4  5  1  0  0  0  0
  4  6  2  0  0  0  0
  6  7  1  0  0  0  0
  6  8  1  0  0  0  0
  8  9  1  0  0  0  0
  8 10  2  0  0  0  0
 10 11  1  0  0  0  0
 10 12  1  0  0  0  0
 12  3  2  0  0  0  0
 12 13  1  0  0  0  0
M  END
> <ChemID>
100099

> <source_casrn>
87-86-5

> <CAS>
87-86-5

> <SMILES>
Oc1c(Cl)c(Cl)c(Cl)c(Cl)c1Cl

> <NAME>
PENTACHLOROPHENOL

> <preferred_name>
Pentachlorophenol

> <iupac>
pentachlorophenol

> <MPID>
98030

> <dsstox_substance_id>
DTXSID7021106

> <Canonical_QSARr>
Oc1c(Cl)c(Cl)c(Cl)c(Cl)c1Cl

> <InChI_Code_QSARr>
InChI=1S/C6HCl5O/c7-1-2(8)4(10)6(12)5(11)3(1)9/h12H

> <InChI Key_QSARr>
IZUPBVBPLAPZRR-UHFFFAOYSA-N

> <Salt_Solvent>
?

> <LogBCF>
2.66

$$$$
100100
  -INDIGO-08031719362D

 13 13  0  0  0  0  0  0  0  0999 V2000
    0.8000    1.3856    0.0000 O   0  0  0  0  0  0  0  0  0  0  0  0
    2.4000    1.3856    0.0000 H   0  0  0  0  0  0  0  0  0  0  0  0
   -0.0000   -0.0000    0.0000 C   0  0  0  0  0  0  0  0  0  0  0  0
    0.8000   -1.3857    0.0000 C   0  0  0  0  0  0  0  0  0  0  0  0
    2.4000   -1.3857    0.0000 Cl  0  0  0  0  0  0  0  0  0  0  0  0
   -0.0000   -2.7713    0.0000 C   0  0  0  0  0  0  0  0  0  0  0  0
    0.8000   -4.1569    0.0000 H   0  0  0  0  0  0  0  0  0  0  0  0
   -1.6000   -2.7713    0.0000 C   0  0  0  0  0  0  0  0  0  0  0  0
   -2.4000   -4.1569    0.0000 Cl  0  0  0  0  0  0  0  0  0  0  0  0
   -2.4000   -1.3856    0.0000 C   0  0  0  0  0  0  0  0  0  0  0  0
   -4.0000   -1.3856    0.0000 H   0  0  0  0  0  0  0  0  0  0  0  0
   -1.6000   -0.0000    0.0000 C   0  0  0  0  0  0  0  0  0  0  0  0
   -2.4000    1.3856    0.0000 Cl  0  0  0  0  0  0  0  0  0  0  0  0
  1  2  1  0  0  0  0
  1  3  1  0  0  0  0
  3  4  1  0  0  0  0
  4  5  1  0  0  0  0
  4  6  2  0  0  0  0
  6  7  1  0  0  0  0
  6  8  1  0  0  0  0
  8  9  1  0  0  0  0
  8 10  2  0  0  0  0
 10 11  1  0  0  0  0
 10 12  1  0  0  0  0
 12  3  2  0  0  0  0
 12 13  1  0  0  0  0
M  END
> <ChemID>
100100

> <source_casrn>
88-06-2

> <CAS>
88-06-2

> <SMILES>
Oc1c(Cl)cc(Cl)cc1Cl

> <NAME>
2,4,6-TRICHLOROPHENOL

> <preferred_name>
2,4,6-Trichlorophenol

> <iupac>
C6H3Cl3O

> <MPID>
98031

> <dsstox_substance_id>
DTXSID5021386

> <Canonical_QSARr>
Oc1c(Cl)cc(Cl)cc1Cl

> <InChI_Code_QSARr>
InChI=1S/C6H3Cl3O/c7-3-1-4(8)6(10)5(9)2-3/h1-2,10H

> <InChI Key_QSARr>
LINPIYWFGCPVIE-UHFFFAOYSA-N

> <Salt_Solvent>
?

> <LogBCF>
1.94

$$$$
100101
  -INDIGO-08031719362D

 20 20  0  0  0  0  0  0  0  0999 V2000
   -0.0000    2.7713    0.0000 C   0  0  0  0  0  0  0  0  0  0  0  0
    0.8000    4.1569    0.0000 H   0  0  0  0  0  0  0  0  0  0  0  0
   -0.8000    4.1569    0.0000 H   0  0  0  0  0  0  0  0  0  0  0  0
    1.6000    2.7713    0.0000 H   0  0  0  0  0  0  0  0  0  0  0  0
   -0.8000    1.3856    0.0000 C   0  0  0  0  0  0  0  0  0  0  0  0
   -0.0000    0.0000    0.0000 C   0  0  0  0  0  0  0  0  0  0  0  0
    1.6000    0.0000    0.0000 S   0  0  0  0  0  0  0  0  0  0  0  0
    1.6000   -1.6000    0.0000 O   0  0  0  0  0  0  0  0  0  0  0  0
    1.6000    1.6000    0.0000 O   0  0  0  0  0  0  0  0  0  0  0  0
    3.2000    0.0000    0.0000 N   0  0  0  0  0  0  0  0  0  0  0  0
    4.0000   -1.3856    0.0000 H   0  0  0  0  0  0  0  0  0  0  0  0
    4.0000    1.3856    0.0000 H   0  0  0  0  0  0  0  0  0  0  0  0
   -0.8000   -1.3856    0.0000 C   0  0  0  0  0  0  0  0  0  0  0  0
   -0.0000   -2.7713    0.0000 H   0  0  0  0  0  0  0  0  0  0  0  0
   -2.4000   -1.3856    0.0000 C   0  0  0  0  0  0  0  0  0  0  0  0
   -3.2001   -2.7713    0.0000 H   0  0  0  0  0  0  0  0  0  0  0  0
   -3.2001    0.0000    0.0000 C   0  0  0  0  0  0  0  0  0  0  0  0
   -4.8000    0.0000    0.0000 H   0  0  0  0  0  0  0  0  0  0  0  0
   -2.4000    1.3856    0.0000 C   0  0  0  0  0  0  0  0  0  0  0  0
   -3.2001    2.7713    0.0000 H   0  0  0  0  0  0  0  0  0  0  0  0
  1  2  1  0  0  0  0
  1  3  1  0  0  0  0
  1  4  1  0  0  0  0
  1  5  1  0  0  0  0
  5  6  1  0  0  0  0
  6  7  1  0  0  0  0
  7  8  2  0  0  0  0
  7  9  2  0  0  0  0
  7 10  1  0  0  0  0
 10 11  1  0  0  0  0
 10 12  1  0  0  0  0
  6 13  2  0  0  0  0
 13 14  1  0  0  0  0
 13 15  1  0  0  0  0
 15 16  1  0  0  0  0
 15 17  2  0  0  0  0
 17 18  1  0  0  0  0
 17 19  1  0  0  0  0
 19  5  2  0  0  0  0
 19 20  1  0  0  0  0
M  END
> <ChemID>
100101

> <source_casrn>
88-19-7

> <CAS>
88-19-7

> <SMILES>
Cc1ccccc1S(N)(=O)=O

> <NAME>
O-METHYLBENZENESULFONAMIDE

> <preferred_name>
o-Toluenesulfonamide

> <iupac>
2-methylbenzenesulfonamide

> <MPID>
98032

> <dsstox_substance_id>
DTXSID7021362

> <Canonical_QSARr>
Cc1ccccc1S(N)(=O)=O

> <InChI_Code_QSARr>
InChI=1S/C7H9NO2S/c1-6-4-2-3-5-7(6)11(8,9)10/h2-5H,1H3,(H2,8,9,10)

> <InChI Key_QSARr>
YCMLQMDWSXFTIF-UHFFFAOYSA-N

> <Salt_Solvent>
?

> <LogBCF>
0.41

$$$$
100103
  -INDIGO-08031719362D

 17 17  0  0  0  0  0  0  0  0999 V2000
    1.3856    2.4000    0.0000 N   0  0  0  0  0  0  0  0  0  0  0  0
    1.3856    4.0000    0.0000 O   0  0  0  0  0  0  0  0  0  0  0  0
    2.7713    1.6000    0.0000 O   0  0  0  0  0  0  0  0  0  0  0  0
    0.0000    1.6000    0.0000 C   0  0  0  0  0  0  0  0  0  0  0  0
   -1.3856    2.4000    0.0000 C   0  0  0  0  0  0  0  0  0  0  0  0
   -1.3856    4.0000    0.0000 H   0  0  0  0  0  0  0  0  0  0  0  0
   -2.7713    1.6000    0.0000 C   0  0  0  0  0  0  0  0  0  0  0  0
   -4.1569    2.4000    0.0000 H   0  0  0  0  0  0  0  0  0  0  0  0
   -2.7713    0.0000    0.0000 C   0  0  0  0  0  0  0  0  0  0  0  0
   -4.1569   -0.8000    0.0000 H   0  0  0  0  0  0  0  0  0  0  0  0
   -1.3856   -0.8000    0.0000 C   0  0  0  0  0  0  0  0  0  0  0  0
   -1.3856   -2.4000    0.0000 H   0  0  0  0  0  0  0  0  0  0  0  0
    0.0000    0.0000    0.0000 C   0  0  0  0  0  0  0  0  0  0  0  0
    1.3856   -0.8000    0.0000 C   0  0  0  0  0  0  0  0  0  0  0  0
    2.7713   -1.6000    0.0000 H   0  0  0  0  0  0  0  0  0  0  0  0
    1.3856   -2.4000    0.0000 H   0  0  0  0  0  0  0  0  0  0  0  0
    2.7713    0.0000    0.0000 H   0  0  0  0  0  0  0  0  0  0  0  0
  1  2  2  0  0  0  0
  1  3  1  0  0  0  0
  1  4  1  0  0  0  0
  4  5  1  0  0  0  0
  5  6  1  0  0  0  0
  5  7  2  0  0  0  0
  7  8  1  0  0  0  0
  7  9  1  0  0  0  0
  9 10  1  0  0  0  0
  9 11  2  0  0  0  0
 11 12  1  0  0  0  0
 11 13  1  0  0  0  0
 13  4  2  0  0  0  0
 13 14  1  0  0  0  0
 14 15  1  0  0  0  0
 14 16  1  0  0  0  0
 14 17  1  0  0  0  0
M  CHG  2   1   1   3  -1
M  END
> <ChemID>
100103

> <source_casrn>
88-72-2

> <CAS>
88-72-2

> <SMILES>
Cc1ccccc1[N+]([O-])=O

> <NAME>
2-NITROTOLUENE

> <preferred_name>
2-Nitrotoluene

> <iupac>
1-methyl-2-nitrobenzene

> <MPID>
98034

> <dsstox_substance_id>
DTXSID4025791

> <Canonical_QSARr>
Cc1ccccc1[N+]([O-])=O

> <InChI_Code_QSARr>
InChI=1S/C7H7NO2/c1-6-4-2-3-5-7(6)8(9)10/h2-5H,1H3

> <InChI Key_QSARr>
PLAZTCDQAHEYBI-UHFFFAOYSA-N

> <Salt_Solvent>
?

> <LogBCF>
1.26

$$$$
100104
  -INDIGO-08031719362D

 14 14  0  0  0  0  0  0  0  0999 V2000
    0.0000    2.7713    0.0000 Cl  0  0  0  0  0  0  0  0  0  0  0  0
   -0.8000    1.3856    0.0000 C   0  0  0  0  0  0  0  0  0  0  0  0
    0.0000   -0.0000    0.0000 C   0  0  0  0  0  0  0  0  0  0  0  0
    1.6000   -0.0000    0.0000 N   0  0  0  0  0  0  0  0  0  0  0  0
    2.4000    1.3856    0.0000 O   0  0  0  0  0  0  0  0  0  0  0  0
    2.4000   -1.3856    0.0000 O   0  0  0  0  0  0  0  0  0  0  0  0
   -0.8000   -1.3856    0.0000 C   0  0  0  0  0  0  0  0  0  0  0  0
    0.0000   -2.7713    0.0000 H   0  0  0  0  0  0  0  0  0  0  0  0
   -2.4000   -1.3856    0.0000 C   0  0  0  0  0  0  0  0  0  0  0  0
   -3.2000   -2.7713    0.0000 H   0  0  0  0  0  0  0  0  0  0  0  0
   -3.2000   -0.0000    0.0000 C   0  0  0  0  0  0  0  0  0  0  0  0
   -4.8000   -0.0000    0.0000 H   0  0  0  0  0  0  0  0  0  0  0  0
   -2.4000    1.3856    0.0000 C   0  0  0  0  0  0  0  0  0  0  0  0
   -3.2000    2.7713    0.0000 H   0  0  0  0  0  0  0  0  0  0  0  0
  1  2  1  0  0  0  0
  2  3  1  0  0  0  0
  3  4  1  0  0  0  0
  4  5  2  0  0  0  0
  4  6  1  0  0  0  0
  3  7  2  0  0  0  0
  7  8  1  0  0  0  0
  7  9  1  0  0  0  0
  9 10  1  0  0  0  0
  9 11  2  0  0  0  0
 11 12  1  0  0  0  0
 11 13  1  0  0  0  0
 13  2  2  0  0  0  0
 13 14  1  0  0  0  0
M  CHG  2   4   1   6  -1
M  END
> <ChemID>
100104

> <source_casrn>
88-73-3

> <CAS>
88-73-3

> <SMILES>
[O-][N+](=O)c1ccccc1Cl

> <NAME>
2-CHLORO-1-NITROBENZENE

> <preferred_name>
1-Chloro-2-nitrobenzene

> <iupac>
1-chloro-2-nitrobenzene

> <MPID>
98035

> <dsstox_substance_id>
DTXSID0020280

> <Canonical_QSARr>
[O-][N+](=O)c1ccccc1Cl

> <InChI_Code_QSARr>
InChI=1S/C6H4ClNO2/c7-5-3-1-2-4-6(5)8(9)10/h1-4H

> <InChI Key_QSARr>
BFCFYVKQTRLZHA-UHFFFAOYSA-N

> <Salt_Solvent>
?

> <LogBCF>
1.17

$$$$
100105
  -INDIGO-08031719362D

 16 16  0  0  0  0  0  0  0  0999 V2000
    1.3856    0.8000    0.0000 N   0  0  0  0  0  0  0  0  0  0  0  0
    1.3856    2.4000    0.0000 O   0  0  0  0  0  0  0  0  0  0  0  0
    2.7713   -0.0000    0.0000 O   0  0  0  0  0  0  0  0  0  0  0  0
    0.0000   -0.0000    0.0000 C   0  0  0  0  0  0  0  0  0  0  0  0
   -1.3856    0.8000    0.0000 C   0  0  0  0  0  0  0  0  0  0  0  0
   -1.3856    2.4000    0.0000 H   0  0  0  0  0  0  0  0  0  0  0  0
   -2.7713   -0.0000    0.0000 C   0  0  0  0  0  0  0  0  0  0  0  0
   -4.1569    0.8000    0.0000 H   0  0  0  0  0  0  0  0  0  0  0  0
   -2.7713   -1.6000    0.0000 C   0  0  0  0  0  0  0  0  0  0  0  0
   -4.1569   -2.4000    0.0000 H   0  0  0  0  0  0  0  0  0  0  0  0
   -1.3856   -2.4000    0.0000 C   0  0  0  0  0  0  0  0  0  0  0  0
   -1.3856   -4.0000    0.0000 H   0  0  0  0  0  0  0  0  0  0  0  0
    0.0000   -1.6000    0.0000 C   0  0  0  0  0  0  0  0  0  0  0  0
    1.3856   -2.4000    0.0000 N   0  0  0  0  0  0  0  0  0  0  0  0
    1.3856   -4.0000    0.0000 H   0  0  0  0  0  0  0  0  0  0  0  0
    2.7713   -1.6000    0.0000 H   0  0  0  0  0  0  0  0  0  0  0  0
  1  2  2  0  0  0  0
  1  3  1  0  0  0  0
  1  4  1  0  0  0  0
  4  5  1  0  0  0  0
  5  6  1  0  0  0  0
  5  7  2  0  0  0  0
  7  8  1  0  0  0  0
  7  9  1  0  0  0  0
  9 10  1  0  0  0  0
  9 11  2  0  0  0  0
 11 12  1  0  0  0  0
 11 13  1  0  0  0  0
 13  4  2  0  0  0  0
 13 14  1  0  0  0  0
 14 15  1  0  0  0  0
 14 16  1  0  0  0  0
M  CHG  2   1   1   3  -1
M  END
> <ChemID>
100105

> <source_casrn>
88-74-4

> <CAS>
88-74-4

> <SMILES>
Nc1ccccc1[N+]([O-])=O

> <NAME>
2-NITROANILINE

> <preferred_name>
2-Nitroaniline

> <iupac>
2-nitroaniline

> <MPID>
98036

> <dsstox_substance_id>
DTXSID1025726

> <Canonical_QSARr>
Nc1ccccc1[N+]([O-])=O

> <InChI_Code_QSARr>
InChI=1S/C6H6N2O2/c7-5-3-1-2-4-6(5)8(9)10/h1-4H,7H2

> <InChI Key_QSARr>
DPJCXCZTLWNFOH-UHFFFAOYSA-N

> <Salt_Solvent>
?

> <LogBCF>
1.0

$$$$
100107
  -INDIGO-08031719362D

 29 29  0  0  0  0  0  0  0  0999 V2000
    1.6000    2.7712    0.0000 O   0  0  0  0  0  0  0  0  0  0  0  0
    2.4000    4.1569    0.0000 H   0  0  0  0  0  0  0  0  0  0  0  0
    2.4000    1.3856    0.0000 C   0  0  0  0  0  0  0  0  0  0  0  0
    4.0001    1.3856    0.0000 C   0  0  0  0  0  0  0  0  0  0  0  0
    4.7999    2.7712    0.0000 N   0  0  0  0  0  0  0  0  0  0  0  0
    6.4000    2.7713    0.0000 O   0  0  0  0  0  0  0  0  0  0  0  0
    4.0001    4.1569    0.0000 O   0  0  0  0  0  0  0  0  0  0  0  0
    4.7999   -0.0001    0.0000 C   0  0  0  0  0  0  0  0  0  0  0  0
    6.4000    0.0001    0.0000 H   0  0  0  0  0  0  0  0  0  0  0  0
    4.0001   -1.3856    0.0000 C   0  0  0  0  0  0  0  0  0  0  0  0
    4.7999   -2.7713    0.0000 N   0  0  0  0  0  0  0  0  0  0  0  0
    6.4000   -2.7713    0.0000 O   0  0  0  0  0  0  0  0  0  0  0  0
    3.9999   -4.1569    0.0000 O   0  0  0  0  0  0  0  0  0  0  0  0
    2.4000   -1.3856    0.0000 C   0  0  0  0  0  0  0  0  0  0  0  0
    1.6000   -2.7712    0.0000 H   0  0  0  0  0  0  0  0  0  0  0  0
    1.6000   -0.0001    0.0000 C   0  0  0  0  0  0  0  0  0  0  0  0
   -0.0001    0.0001    0.0000 C   0  0  0  0  0  0  0  0  0  0  0  0
   -0.0001    1.6000    0.0000 H   0  0  0  0  0  0  0  0  0  0  0  0
   -1.5036    0.5472    0.0000 C   0  0  0  0  0  0  0  0  0  0  0  0
   -2.3631    1.8966    0.0000 H   0  0  0  0  0  0  0  0  0  0  0  0
   -1.1572    2.1093    0.0000 H   0  0  0  0  0  0  0  0  0  0  0  0
   -2.7292   -0.4812    0.0000 C   0  0  0  0  0  0  0  0  0  0  0  0
   -3.9549   -1.5097    0.0000 H   0  0  0  0  0  0  0  0  0  0  0  0
   -4.2327    0.0660    0.0000 H   0  0  0  0  0  0  0  0  0  0  0  0
   -2.4514   -2.0569    0.0000 H   0  0  0  0  0  0  0  0  0  0  0  0
   -0.0001   -1.6000    0.0000 C   0  0  0  0  0  0  0  0  0  0  0  0
   -1.3856   -2.4000    0.0000 H   0  0  0  0  0  0  0  0  0  0  0  0
   -0.0001   -3.2000    0.0000 H   0  0  0  0  0  0  0  0  0  0  0  0
   -1.3856   -0.8000    0.0000 H   0  0  0  0  0  0  0  0  0  0  0  0
  1  2  1  0  0  0  0
  1  3  1  0  0  0  0
  3  4  1  0  0  0  0
  4  5  1  0  0  0  0
  5  6  2  0  0  0  0
  5  7  1  0  0  0  0
  4  8  2  0  0  0  0
  8  9  1  0  0  0  0
  8 10  1  0  0  0  0
 10 11  1  0  0  0  0
 11 12  2  0  0  0  0
 11 13  1  0  0  0  0
 10 14  2  0  0  0  0
 14 15  1  0  0  0  0
 14 16  1  0  0  0  0
 16  3  2  0  0  0  0
 16 17  1  0  0  0  0
 17 18  1  0  0  0  0
 17 19  1  0  0  0  0
 19 20  1  0  0  0  0
 19 21  1  0  0  0  0
 19 22  1  0  0  0  0
 22 23  1  0  0  0  0
 22 24  1  0  0  0  0
 22 25  1  0  0  0  0
 17 26  1  0  0  0  0
 26 27  1  0  0  0  0
 26 28  1  0  0  0  0
 26 29  1  0  0  0  0
M  CHG  4   5   1   7  -1  11   1  13  -1
M  END
> <ChemID>
100107

> <source_casrn>
88-85-7

> <CAS>
88-85-7

> <SMILES>
CCC(C)c1cc(cc(c1O)[N+]([O-])=O)[N+]([O-])=O

> <NAME>
DINOSEB

> <preferred_name>
Dinoseb

> <iupac>
2-(butan-2-yl)-4,6-dinitrophenol

> <MPID>
98038

> <dsstox_substance_id>
DTXSID3020207

> <Canonical_QSARr>
CCC(C)c1cc(cc(c1O)[N+]([O-])=O)[N+]([O-])=O

> <InChI_Code_QSARr>
InChI=1S/C10H12N2O5/c1-3-6(2)8-4-7(11(14)15)5-9(10(8)13)12(16)17/h4-6,13H,3H2,1-2H3

> <InChI Key_QSARr>
OWZPCEFYPSAJFR-UHFFFAOYSA-N

> <Salt_Solvent>
?

> <LogBCF>
1.79

$$$$
100108
  -INDIGO-08031719362D

 19 19  0  0  0  0  0  0  0  0999 V2000
    1.3857    0.8000    0.0000 N   0  0  0  0  0  0  0  0  0  0  0  0
    1.3857    2.4000    0.0000 O   0  0  0  0  0  0  0  0  0  0  0  0
    2.7713    0.0000    0.0000 O   0  0  0  0  0  0  0  0  0  0  0  0
    0.0000    0.0000    0.0000 C   0  0  0  0  0  0  0  0  0  0  0  0
   -1.3857    0.8000    0.0000 C   0  0  0  0  0  0  0  0  0  0  0  0
   -1.3857    2.4000    0.0000 H   0  0  0  0  0  0  0  0  0  0  0  0
   -2.7713    0.0000    0.0000 C   0  0  0  0  0  0  0  0  0  0  0  0
   -4.1570    0.8000    0.0000 N   0  0  0  0  0  0  0  0  0  0  0  0
   -5.5426    0.0000    0.0000 O   0  0  0  0  0  0  0  0  0  0  0  0
   -4.1569    2.4000    0.0000 O   0  0  0  0  0  0  0  0  0  0  0  0
   -2.7713   -1.6000    0.0000 C   0  0  0  0  0  0  0  0  0  0  0  0
   -4.1569   -2.4000    0.0000 H   0  0  0  0  0  0  0  0  0  0  0  0
   -1.3856   -2.4000    0.0000 C   0  0  0  0  0  0  0  0  0  0  0  0
   -1.3856   -4.0000    0.0000 N   0  0  0  0  0  0  0  0  0  0  0  0
   -2.7713   -4.8000    0.0000 O   0  0  0  0  0  0  0  0  0  0  0  0
    0.0000   -4.8000    0.0000 O   0  0  0  0  0  0  0  0  0  0  0  0
    0.0000   -1.6000    0.0000 C   0  0  0  0  0  0  0  0  0  0  0  0
    1.3857   -2.4000    0.0000 O   0  0  0  0  0  0  0  0  0  0  0  0
    1.3857   -4.0000    0.0000 H   0  0  0  0  0  0  0  0  0  0  0  0
  1  2  2  0  0  0  0
  1  3  1  0  0  0  0
  1  4  1  0  0  0  0
  4  5  1  0  0  0  0
  5  6  1  0  0  0  0
  5  7  2  0  0  0  0
  7  8  1  0  0  0  0
  8  9  2  0  0  0  0
  8 10  1  0  0  0  0
  7 11  1  0  0  0  0
 11 12  1  0  0  0  0
 11 13  2  0  0  0  0
 13 14  1  0  0  0  0
 14 15  2  0  0  0  0
 14 16  1  0  0  0  0
 13 17  1  0  0  0  0
 17  4  2  0  0  0  0
 17 18  1  0  0  0  0
 18 19  1  0  0  0  0
M  CHG  6   1   1   3  -1   8   1  10  -1  14   1  16  -1
M  END
> <ChemID>
100108

> <source_casrn>
88-89-1

> <CAS>
88-89-1

> <SMILES>
[O-][N+](=O)c1cc(c(O)c(c1)[N+]([O-])=O)[N+]([O-])=O

> <NAME>
2,4,6-TRINITROPHENOL

> <preferred_name>
Picric acid

> <iupac>
2,4,6-trinitrophenol

> <MPID>
98039

> <dsstox_substance_id>
DTXSID4025909

> <Canonical_QSARr>
[O-][N+](=O)c1cc(c(O)c(c1)[N+]([O-])=O)[N+]([O-])=O

> <InChI_Code_QSARr>
InChI=1S/C6H3N3O7/c10-6-4(8(13)14)1-3(7(11)12)2-5(6)9(15)16/h1-2,10H

> <InChI Key_QSARr>
OXNIZHLAWKMVMX-UHFFFAOYSA-N

> <Salt_Solvent>
?

> <LogBCF>
0.34

$$$$
100109
  -INDIGO-08031719362D

 22 22  0  0  0  0  0  0  0  0999 V2000
   -0.0001    0.0000    0.0000 C   0  0  0  0  0  0  0  0  0  0  0  0
    0.2778    1.5757    0.0000 H   0  0  0  0  0  0  0  0  0  0  0  0
    1.6000    0.0000    0.0000 C   0  0  0  0  0  0  0  0  0  0  0  0
    1.3221    1.5757    0.0000 H   0  0  0  0  0  0  0  0  0  0  0  0
    2.8257    1.0285    0.0000 C   0  0  0  0  0  0  0  0  0  0  0  0
    4.3292    0.4813    0.0000 O   0  0  0  0  0  0  0  0  0  0  0  0
    2.5478    2.6041    0.0000 O   0  0  0  0  0  0  0  0  0  0  0  0
    3.7735    3.6326    0.0000 H   0  0  0  0  0  0  0  0  0  0  0  0
    2.4000   -1.3857    0.0000 C   0  0  0  0  0  0  0  0  0  0  0  0
    3.6257   -0.3572    0.0000 H   0  0  0  0  0  0  0  0  0  0  0  0
    3.6257   -2.4141    0.0000 H   0  0  0  0  0  0  0  0  0  0  0  0
    1.6000   -2.7712    0.0000 C   0  0  0  0  0  0  0  0  0  0  0  0
    2.4000   -4.1569    0.0000 H   0  0  0  0  0  0  0  0  0  0  0  0
   -0.0001   -2.7712    0.0000 C   0  0  0  0  0  0  0  0  0  0  0  0
   -0.8000   -4.1569    0.0000 H   0  0  0  0  0  0  0  0  0  0  0  0
   -0.8000   -1.3857    0.0000 C   0  0  0  0  0  0  0  0  0  0  0  0
   -2.0257   -2.4141    0.0000 H   0  0  0  0  0  0  0  0  0  0  0  0
   -2.0257   -0.3572    0.0000 H   0  0  0  0  0  0  0  0  0  0  0  0
   -1.3857    0.8000    0.0000 C   0  0  0  0  0  0  0  0  0  0  0  0
   -2.8891    0.2528    0.0000 O   0  0  0  0  0  0  0  0  0  0  0  0
   -1.3857    2.4000    0.0000 O   0  0  0  0  0  0  0  0  0  0  0  0
   -2.7713    3.2000    0.0000 H   0  0  0  0  0  0  0  0  0  0  0  0
  1  2  1  0  0  0  0
  1  3  1  0  0  0  0
  3  4  1  0  0  0  0
  3  5  1  0  0  0  0
  5  6  2  0  0  0  0
  5  7  1  0  0  0  0
  7  8  1  0  0  0  0
  3  9  1  0  0  0  0
  9 10  1  0  0  0  0
  9 11  1  0  0  0  0
  9 12  1  0  0  0  0
 12 13  1  0  0  0  0
 12 14  2  0  0  0  0
 14 15  1  0  0  0  0
 14 16  1  0  0  0  0
 16  1  1  0  0  0  0
 16 17  1  0  0  0  0
 16 18  1  0  0  0  0
  1 19  1  0  0  0  0
 19 20  2  0  0  0  0
 19 21  1  0  0  0  0
 21 22  1  0  0  0  0
M  END
> <ChemID>
100109

> <source_casrn>
88-98-2

> <CAS>
NOCAS_861676

> <SMILES>
O=C(O)C(C(C(=O)O)CC=C1)C1

> <NAME>
4-Cyclohexene-1,2-dicarboxylic acid

> <preferred_name>


> <iupac>


> <MPID>
98040

> <dsstox_substance_id>
DTXSID80861676

> <Canonical_QSARr>
OC(=O)C1CC=CCC1C(O)=O

> <InChI_Code_QSARr>
InChI=1S/C8H10O4/c9-7(10)5-3-1-2-4-6(5)8(11)12/h1-2,5-6H,3-4H2,(H,9,10)(H,11,12)

> <InChI Key_QSARr>
ILUAAIDVFMVTAU-UHFFFAOYSA-N

> <Salt_Solvent>
?

> <LogBCF>
0.3

$$$$
100111
  -INDIGO-08031719362D

 14 14  0  0  0  0  0  0  0  0999 V2000
    0.8000    1.3856    0.0000 C   0  0  0  0  0  0  0  0  0  0  0  0
    2.4000    1.3856    0.0000 C   0  0  0  0  0  0  0  0  0  0  0  0
    3.2000    2.7713    0.0000 H   0  0  0  0  0  0  0  0  0  0  0  0
    3.2000   -0.0000    0.0000 C   0  0  0  0  0  0  0  0  0  0  0  0
    4.8000    0.0000    0.0000 H   0  0  0  0  0  0  0  0  0  0  0  0
    2.4000   -1.3856    0.0000 C   0  0  0  0  0  0  0  0  0  0  0  0
    3.2000   -2.7713    0.0000 Cl  0  0  0  0  0  0  0  0  0  0  0  0
    0.8000   -1.3856    0.0000 C   0  0  0  0  0  0  0  0  0  0  0  0
    0.0000   -2.7713    0.0000 H   0  0  0  0  0  0  0  0  0  0  0  0
    0.0000   -0.0000    0.0000 C   0  0  0  0  0  0  0  0  0  0  0  0
   -1.6000    0.0000    0.0000 N   0  0  0  0  0  0  0  0  0  0  0  0
   -2.4000   -1.3856    0.0000 O   0  0  0  0  0  0  0  0  0  0  0  0
   -2.4000    1.3856    0.0000 O   0  0  0  0  0  0  0  0  0  0  0  0
    0.0000    2.7713    0.0000 Cl  0  0  0  0  0  0  0  0  0  0  0  0
  1  2  1  0  0  0  0
  2  3  1  0  0  0  0
  2  4  2  0  0  0  0
  4  5  1  0  0  0  0
  4  6  1  0  0  0  0
  6  7  1  0  0  0  0
  6  8  2  0  0  0  0
  8  9  1  0  0  0  0
  8 10  1  0  0  0  0
 10  1  2  0  0  0  0
 10 11  1  0  0  0  0
 11 12  1  0  0  0  0
 11 13  2  0  0  0  0
  1 14  1  0  0  0  0
M  CHG  2  11   1  12  -1
M  END
> <ChemID>
100111

> <source_casrn>
89-61-2

> <CAS>
89-61-2

> <SMILES>
[O-][N+](=O)c1cc(Cl)ccc1Cl

> <NAME>
2,5-DICHLORONITROBENZENE

> <preferred_name>
1,4-Dichloro-2-nitrobenzene

> <iupac>
1,4-dichloro-2-nitrobenzene

> <MPID>
98042

> <dsstox_substance_id>
DTXSID7052602

> <Canonical_QSARr>
[O-][N+](=O)c1cc(Cl)ccc1Cl

> <InChI_Code_QSARr>
InChI=1S/C6H3Cl2NO2/c7-4-1-2-5(8)6(3-4)9(10)11/h1-3H

> <InChI Key_QSARr>
RZKKOBGFCAHLCZ-UHFFFAOYSA-N

> <Salt_Solvent>
?

> <LogBCF>
2.05

$$$$
100112
  -INDIGO-08031719362D

 16 16  0  0  0  0  0  0  0  0999 V2000
   -1.3856    0.8000    0.0000 N   0  0  0  0  0  0  0  0  0  0  0  0
   -1.3856    2.4000    0.0000 H   0  0  0  0  0  0  0  0  0  0  0  0
   -2.7713   -0.0000    0.0000 H   0  0  0  0  0  0  0  0  0  0  0  0
    0.0000   -0.0000    0.0000 C   0  0  0  0  0  0  0  0  0  0  0  0
    0.0000   -1.6000    0.0000 C   0  0  0  0  0  0  0  0  0  0  0  0
   -1.3856   -2.4000    0.0000 N   0  0  0  0  0  0  0  0  0  0  0  0
   -1.3856   -4.0000    0.0000 O   0  0  0  0  0  0  0  0  0  0  0  0
   -2.7713   -1.6000    0.0000 O   0  0  0  0  0  0  0  0  0  0  0  0
    1.3856   -2.4000    0.0000 C   0  0  0  0  0  0  0  0  0  0  0  0
    1.3856   -4.0000    0.0000 H   0  0  0  0  0  0  0  0  0  0  0  0
    2.7713   -1.6000    0.0000 C   0  0  0  0  0  0  0  0  0  0  0  0
    4.1569   -2.4000    0.0000 Cl  0  0  0  0  0  0  0  0  0  0  0  0
    2.7713   -0.0000    0.0000 C   0  0  0  0  0  0  0  0  0  0  0  0
    4.1569    0.8000    0.0000 H   0  0  0  0  0  0  0  0  0  0  0  0
    1.3856    0.8000    0.0000 C   0  0  0  0  0  0  0  0  0  0  0  0
    1.3856    2.4000    0.0000 H   0  0  0  0  0  0  0  0  0  0  0  0
  1  2  1  0  0  0  0
  1  3  1  0  0  0  0
  1  4  1  0  0  0  0
  4  5  1  0  0  0  0
  5  6  1  0  0  0  0
  6  7  1  0  0  0  0
  6  8  2  0  0  0  0
  5  9  2  0  0  0  0
  9 10  1  0  0  0  0
  9 11  1  0  0  0  0
 11 12  1  0  0  0  0
 11 13  2  0  0  0  0
 13 14  1  0  0  0  0
 13 15  1  0  0  0  0
 15  4  2  0  0  0  0
 15 16  1  0  0  0  0
M  CHG  2   6   1   7  -1
M  END
> <ChemID>
100112

> <source_casrn>
89-63-4

> <CAS>
89-63-4

> <SMILES>
Nc1ccc(Cl)cc1[N+]([O-])=O

> <NAME>
4-CHLORO-2-NITROANILINE

> <preferred_name>
4-Chloro-2-nitroaniline

> <iupac>
4-chloro-2-nitroaniline

> <MPID>
98043

> <dsstox_substance_id>
DTXSID4030384

> <Canonical_QSARr>
Nc1ccc(Cl)cc1[N+]([O-])=O

> <InChI_Code_QSARr>
InChI=1S/C6H5ClN2O2/c7-4-1-2-5(8)6(3-4)9(10)11/h1-3H,8H2

> <InChI Key_QSARr>
PBGKNXWGYQPUJK-UHFFFAOYSA-N

> <Salt_Solvent>
?

> <LogBCF>
1.04

$$$$
100113
  -INDIGO-08031719362D

 14 14  0  0  0  0  0  0  0  0999 V2000
    1.6000   -0.0000    0.0000 N   0  0  0  0  0  0  0  0  0  0  0  0
    2.4000    1.3856    0.0000 O   0  0  0  0  0  0  0  0  0  0  0  0
    2.4000   -1.3856    0.0000 O   0  0  0  0  0  0  0  0  0  0  0  0
    0.0000   -0.0000    0.0000 C   0  0  0  0  0  0  0  0  0  0  0  0
   -0.8000    1.3856    0.0000 C   0  0  0  0  0  0  0  0  0  0  0  0
    0.0000    2.7713    0.0000 H   0  0  0  0  0  0  0  0  0  0  0  0
   -2.4000    1.3856    0.0000 C   0  0  0  0  0  0  0  0  0  0  0  0
   -3.2000    2.7713    0.0000 Cl  0  0  0  0  0  0  0  0  0  0  0  0
   -3.2000   -0.0000    0.0000 C   0  0  0  0  0  0  0  0  0  0  0  0
   -4.8000   -0.0000    0.0000 Cl  0  0  0  0  0  0  0  0  0  0  0  0
   -2.4000   -1.3856    0.0000 C   0  0  0  0  0  0  0  0  0  0  0  0
   -3.2000   -2.7713    0.0000 H   0  0  0  0  0  0  0  0  0  0  0  0
   -0.8000   -1.3856    0.0000 C   0  0  0  0  0  0  0  0  0  0  0  0
    0.0000   -2.7713    0.0000 Cl  0  0  0  0  0  0  0  0  0  0  0  0
  1  2  2  0  0  0  0
  1  3  1  0  0  0  0
  1  4  1  0  0  0  0
  4  5  1  0  0  0  0
  5  6  1  0  0  0  0
  5  7  2  0  0  0  0
  7  8  1  0  0  0  0
  7  9  1  0  0  0  0
  9 10  1  0  0  0  0
  9 11  2  0  0  0  0
 11 12  1  0  0  0  0
 11 13  1  0  0  0  0
 13  4  2  0  0  0  0
 13 14  1  0  0  0  0
M  CHG  2   1   1   3  -1
M  END
> <ChemID>
100113

> <source_casrn>
89-69-0

> <CAS>
89-69-0

> <SMILES>
[O-][N+](=O)c1cc(Cl)c(Cl)cc1Cl

> <NAME>
2,4,5-TRICHLORONITROBENZENE

> <preferred_name>
2,4,5-Trichloronitrobenzene

> <iupac>
1,2,4-trichloro-5-nitrobenzene

> <MPID>
98044

> <dsstox_substance_id>
DTXSID5026203

> <Canonical_QSARr>
[O-][N+](=O)c1cc(Cl)c(Cl)cc1Cl

> <InChI_Code_QSARr>
InChI=1S/C6H2Cl3NO2/c7-3-1-5(9)6(10(11)12)2-4(3)8/h1-2H

> <InChI Key_QSARr>
IBRBMZRLVYKVRF-UHFFFAOYSA-N

> <Salt_Solvent>
?

> <LogBCF>
1.84

$$$$
100115
  -INDIGO-08031719362D

 21 22  0  0  0  0  0  0  0  0999 V2000
    2.4001    1.3856    0.0000 C   0  0  0  0  0  0  0  0  0  0  0  0
    3.2000    2.7713    0.0000 H   0  0  0  0  0  0  0  0  0  0  0  0
    4.0000    1.3856    0.0000 H   0  0  0  0  0  0  0  0  0  0  0  0
    1.6000    2.7713    0.0000 H   0  0  0  0  0  0  0  0  0  0  0  0
    1.6000    0.0000    0.0000 C   0  0  0  0  0  0  0  0  0  0  0  0
   -0.0000    0.0000    0.0000 C   0  0  0  0  0  0  0  0  0  0  0  0
   -0.8000   -1.3856    0.0000 C   0  0  0  0  0  0  0  0  0  0  0  0
   -2.4000   -1.3856    0.0000 C   0  0  0  0  0  0  0  0  0  0  0  0
   -3.2001   -2.7713    0.0000 H   0  0  0  0  0  0  0  0  0  0  0  0
   -3.2001    0.0000    0.0000 C   0  0  0  0  0  0  0  0  0  0  0  0
   -4.8000    0.0000    0.0000 H   0  0  0  0  0  0  0  0  0  0  0  0
   -2.4000    1.3856    0.0000 C   0  0  0  0  0  0  0  0  0  0  0  0
   -3.2001    2.7713    0.0000 H   0  0  0  0  0  0  0  0  0  0  0  0
   -0.8000    1.3856    0.0000 C   0  0  0  0  0  0  0  0  0  0  0  0
   -0.0000    2.7713    0.0000 H   0  0  0  0  0  0  0  0  0  0  0  0
   -0.0000   -2.7713    0.0000 C   0  0  0  0  0  0  0  0  0  0  0  0
   -0.8000   -4.1569    0.0000 H   0  0  0  0  0  0  0  0  0  0  0  0
    1.6000   -2.7713    0.0000 C   0  0  0  0  0  0  0  0  0  0  0  0
    2.4001   -4.1569    0.0000 H   0  0  0  0  0  0  0  0  0  0  0  0
    2.4001   -1.3856    0.0000 C   0  0  0  0  0  0  0  0  0  0  0  0
    4.0000   -1.3856    0.0000 H   0  0  0  0  0  0  0  0  0  0  0  0
  1  2  1  0  0  0  0
  1  3  1  0  0  0  0
  1  4  1  0  0  0  0
  1  5  1  0  0  0  0
  5  6  1  0  0  0  0
  6  7  1  0  0  0  0
  7  8  2  0  0  0  0
  8  9  1  0  0  0  0
  8 10  1  0  0  0  0
 10 11  1  0  0  0  0
 10 12  2  0  0  0  0
 12 13  1  0  0  0  0
 12 14  1  0  0  0  0
 14  6  2  0  0  0  0
 14 15  1  0  0  0  0
  7 16  1  0  0  0  0
 16 17  1  0  0  0  0
 16 18  2  0  0  0  0
 18 19  1  0  0  0  0
 18 20  1  0  0  0  0
 20  5  2  0  0  0  0
 20 21  1  0  0  0  0
M  END
> <ChemID>
100115

> <source_casrn>
90-12-0

> <CAS>
90-12-0

> <SMILES>
Cc1cccc2ccccc21

> <NAME>
1-METHYLNAPHTHALENE

> <preferred_name>
1-Methylnaphthalene

> <iupac>
1-methylnaphthalene

> <MPID>
98046

> <dsstox_substance_id>
DTXSID9020877

> <Canonical_QSARr>
Cc1cccc2ccccc21

> <InChI_Code_QSARr>
InChI=1S/C11H10/c1-9-5-4-7-10-6-2-3-8-11(9)10/h2-8H,1H3

> <InChI Key_QSARr>
QPUYECUOLPXSFR-UHFFFAOYSA-N

> <Salt_Solvent>
?

> <LogBCF>
1.73

$$$$
100116
  -INDIGO-08031719362D

 30 32  0  0  0  0  0  0  0  0999 V2000
    2.7712   -0.0000    0.0000 N   0  0  0  0  0  0  0  0  0  0  0  0
    2.7712    1.6000    0.0000 H   0  0  0  0  0  0  0  0  0  0  0  0
    1.3856   -0.8000    0.0000 C   0  0  0  0  0  0  0  0  0  0  0  0
    0.0000   -0.0000    0.0000 C   0  0  0  0  0  0  0  0  0  0  0  0
   -1.3856   -0.8000    0.0000 C   0  0  0  0  0  0  0  0  0  0  0  0
   -2.7713   -0.0000    0.0000 C   0  0  0  0  0  0  0  0  0  0  0  0
   -4.1569   -0.8000    0.0000 H   0  0  0  0  0  0  0  0  0  0  0  0
   -2.7713    1.6000    0.0000 C   0  0  0  0  0  0  0  0  0  0  0  0
   -4.1569    2.4001    0.0000 H   0  0  0  0  0  0  0  0  0  0  0  0
   -1.3856    2.4001    0.0000 C   0  0  0  0  0  0  0  0  0  0  0  0
   -1.3856    4.0000    0.0000 H   0  0  0  0  0  0  0  0  0  0  0  0
    0.0000    1.6000    0.0000 C   0  0  0  0  0  0  0  0  0  0  0  0
    1.3856    2.4001    0.0000 H   0  0  0  0  0  0  0  0  0  0  0  0
   -1.3856   -2.4000    0.0000 C   0  0  0  0  0  0  0  0  0  0  0  0
   -2.7713   -3.2001    0.0000 H   0  0  0  0  0  0  0  0  0  0  0  0
    0.0000   -3.2001    0.0000 C   0  0  0  0  0  0  0  0  0  0  0  0
    0.0000   -4.8000    0.0000 H   0  0  0  0  0  0  0  0  0  0  0  0
    1.3856   -2.4000    0.0000 C   0  0  0  0  0  0  0  0  0  0  0  0
    2.7712   -3.2001    0.0000 H   0  0  0  0  0  0  0  0  0  0  0  0
    4.3470   -0.2779    0.0000 C   0  0  0  0  0  0  0  0  0  0  0  0
    4.8943   -1.7814    0.0000 C   0  0  0  0  0  0  0  0  0  0  0  0
    3.8656   -3.0070    0.0000 H   0  0  0  0  0  0  0  0  0  0  0  0
    6.4699   -2.0592    0.0000 C   0  0  0  0  0  0  0  0  0  0  0  0
    7.0172   -3.5628    0.0000 H   0  0  0  0  0  0  0  0  0  0  0  0
    7.4983   -0.8335    0.0000 C   0  0  0  0  0  0  0  0  0  0  0  0
    9.0741   -1.1113    0.0000 H   0  0  0  0  0  0  0  0  0  0  0  0
    6.9512    0.6700    0.0000 C   0  0  0  0  0  0  0  0  0  0  0  0
    7.9796    1.8957    0.0000 H   0  0  0  0  0  0  0  0  0  0  0  0
    5.3754    0.9478    0.0000 C   0  0  0  0  0  0  0  0  0  0  0  0
    4.8283    2.4514    0.0000 H   0  0  0  0  0  0  0  0  0  0  0  0
  1  2  1  0  0  0  0
  1  3  1  0  0  0  0
  3  4  1  0  0  0  0
  4  5  1  0  0  0  0
  5  6  2  0  0  0  0
  6  7  1  0  0  0  0
  6  8  1  0  0  0  0
  8  9  1  0  0  0  0
  8 10  2  0  0  0  0
 10 11  1  0  0  0  0
 10 12  1  0  0  0  0
 12  4  2  0  0  0  0
 12 13  1  0  0  0  0
  5 14  1  0  0  0  0
 14 15  1  0  0  0  0
 14 16  2  0  0  0  0
 16 17  1  0  0  0  0
 16 18  1  0  0  0  0
 18  3  2  0  0  0  0
 18 19  1  0  0  0  0
  1 20  1  0  0  0  0
 20 21  1  0  0  0  0
 21 22  1  0  0  0  0
 21 23  2  0  0  0  0
 23 24  1  0  0  0  0
 23 25  1  0  0  0  0
 25 26  1  0  0  0  0
 25 27  2  0  0  0  0
 27 28  1  0  0  0  0
 27 29  1  0  0  0  0
 29 20  2  0  0  0  0
 29 30  1  0  0  0  0
M  END
> <ChemID>
100116

> <source_casrn>
90-30-2

> <CAS>
90-30-2

> <SMILES>
c1cccc2c(cccc21)Nc1ccccc1

> <NAME>
1-NAPHTHALENAMINE, N-PHENYL-

> <preferred_name>
N-Phenyl-1-naphthylamine

> <iupac>
N-phenylnaphthalen-1-amine

> <MPID>
98047

> <dsstox_substance_id>
DTXSID2025892

> <Canonical_QSARr>
c1cccc2c(cccc21)Nc1ccccc1

> <InChI_Code_QSARr>
InChI=1S/C16H13N/c1-2-9-14(10-3-1)17-16-12-6-8-13-7-4-5-11-15(13)16/h1-12,17H

> <InChI Key_QSARr>
XQVWYOYUZDUNRW-UHFFFAOYSA-N

> <Salt_Solvent>
?

> <LogBCF>
3.23

$$$$
100117
  -INDIGO-08031719362D

 24 25  0  0  0  0  0  0  0  0999 V2000
   -0.0001    0.0000    0.0000 C   0  0  0  0  0  0  0  0  0  0  0  0
    1.5757   -0.2779    0.0000 C   0  0  0  0  0  0  0  0  0  0  0  0
    2.6042    0.9479    0.0000 C   0  0  0  0  0  0  0  0  0  0  0  0
    2.0570    2.4514    0.0000 H   0  0  0  0  0  0  0  0  0  0  0  0
    4.1798    0.6700    0.0000 C   0  0  0  0  0  0  0  0  0  0  0  0
    5.2083    1.8956    0.0000 H   0  0  0  0  0  0  0  0  0  0  0  0
    4.7270   -0.8335    0.0000 C   0  0  0  0  0  0  0  0  0  0  0  0
    6.3028   -1.1113    0.0000 H   0  0  0  0  0  0  0  0  0  0  0  0
    3.6987   -2.0592    0.0000 C   0  0  0  0  0  0  0  0  0  0  0  0
    4.2459   -3.5627    0.0000 H   0  0  0  0  0  0  0  0  0  0  0  0
    2.1229   -1.7813    0.0000 C   0  0  0  0  0  0  0  0  0  0  0  0
    1.0945   -3.0070    0.0000 H   0  0  0  0  0  0  0  0  0  0  0  0
   -0.8001    1.3857    0.0000 C   0  0  0  0  0  0  0  0  0  0  0  0
   -0.2528    2.8892    0.0000 N   0  0  0  0  0  0  0  0  0  0  0  0
   -1.2812    4.1148    0.0000 H   0  0  0  0  0  0  0  0  0  0  0  0
    1.3229    3.1669    0.0000 H   0  0  0  0  0  0  0  0  0  0  0  0
   -2.4000    1.3857    0.0000 C   0  0  0  0  0  0  0  0  0  0  0  0
   -3.2000    2.7713    0.0000 H   0  0  0  0  0  0  0  0  0  0  0  0
   -3.2000    0.0000    0.0000 C   0  0  0  0  0  0  0  0  0  0  0  0
   -4.8000    0.0000    0.0000 H   0  0  0  0  0  0  0  0  0  0  0  0
   -2.4000   -1.3857    0.0000 C   0  0  0  0  0  0  0  0  0  0  0  0
   -3.2000   -2.7713    0.0000 H   0  0  0  0  0  0  0  0  0  0  0  0
   -0.8001   -1.3857    0.0000 C   0  0  0  0  0  0  0  0  0  0  0  0
   -0.0001   -2.7713    0.0000 H   0  0  0  0  0  0  0  0  0  0  0  0
  1  2  1  0  0  0  0
  2  3  1  0  0  0  0
  3  4  1  0  0  0  0
  3  5  2  0  0  0  0
  5  6  1  0  0  0  0
  5  7  1  0  0  0  0
  7  8  1  0  0  0  0
  7  9  2  0  0  0  0
  9 10  1  0  0  0  0
  9 11  1  0  0  0  0
 11  2  2  0  0  0  0
 11 12  1  0  0  0  0
  1 13  1  0  0  0  0
 13 14  1  0  0  0  0
 14 15  1  0  0  0  0
 14 16  1  0  0  0  0
 13 17  2  0  0  0  0
 17 18  1  0  0  0  0
 17 19  1  0  0  0  0
 19 20  1  0  0  0  0
 19 21  2  0  0  0  0
 21 22  1  0  0  0  0
 21 23  1  0  0  0  0
 23  1  2  0  0  0  0
 23 24  1  0  0  0  0
M  END
> <ChemID>
100117

> <source_casrn>
90-41-5

> <CAS>
90-41-5

> <SMILES>
Nc1ccccc1-c1ccccc1

> <NAME>
2-AMINOBIPHENYL

> <preferred_name>
2-Biphenylamine

> <iupac>
biphenyl-2-amine

> <MPID>
98048

> <dsstox_substance_id>
DTXSID3030189

> <Canonical_QSARr>
Nc1ccccc1-c1ccccc1

> <InChI_Code_QSARr>
InChI=1S/C12H11N/c13-12-9-5-4-8-11(12)10-6-2-1-3-7-10/h1-9H,13H2

> <InChI Key_QSARr>
TWBPWBPGNQWFSJ-UHFFFAOYSA-N

> <Salt_Solvent>
?

> <LogBCF>
1.41

$$$$
100119
  -INDIGO-08031719362D

 40 41  0  0  0  0  0  0  0  0999 V2000
    3.8792    3.9757    0.0000 O   0  0  0  0  0  0  0  0  0  0  0  0
    4.1569    2.4000    0.0000 C   0  0  0  0  0  0  0  0  0  0  0  0
    5.7325    2.1221    0.0000 C   0  0  0  0  0  0  0  0  0  0  0  0
    6.2799    0.6186    0.0000 C   0  0  0  0  0  0  0  0  0  0  0  0
    5.2514   -0.6070    0.0000 H   0  0  0  0  0  0  0  0  0  0  0  0
    7.8554    0.3408    0.0000 C   0  0  0  0  0  0  0  0  0  0  0  0
    8.4028   -1.1627    0.0000 H   0  0  0  0  0  0  0  0  0  0  0  0
    8.8839    1.5665    0.0000 C   0  0  0  0  0  0  0  0  0  0  0  0
   10.4598    1.2887    0.0000 N   0  0  0  0  0  0  0  0  0  0  0  0
   11.0069   -0.2149    0.0000 C   0  0  0  0  0  0  0  0  0  0  0  0
   11.5542   -1.7184    0.0000 H   0  0  0  0  0  0  0  0  0  0  0  0
   12.5827   -0.4927    0.0000 H   0  0  0  0  0  0  0  0  0  0  0  0
    9.9784   -1.4406    0.0000 H   0  0  0  0  0  0  0  0  0  0  0  0
   11.4883    2.5144    0.0000 C   0  0  0  0  0  0  0  0  0  0  0  0
   12.5165    3.7400    0.0000 H   0  0  0  0  0  0  0  0  0  0  0  0
   13.0638    2.2365    0.0000 H   0  0  0  0  0  0  0  0  0  0  0  0
   10.9409    4.0179    0.0000 H   0  0  0  0  0  0  0  0  0  0  0  0
    8.3368    3.0700    0.0000 C   0  0  0  0  0  0  0  0  0  0  0  0
    9.3653    4.2957    0.0000 H   0  0  0  0  0  0  0  0  0  0  0  0
    6.7610    3.3478    0.0000 C   0  0  0  0  0  0  0  0  0  0  0  0
    6.2139    4.8513    0.0000 H   0  0  0  0  0  0  0  0  0  0  0  0
    2.7713    1.6000    0.0000 C   0  0  0  0  0  0  0  0  0  0  0  0
    2.7713    0.0000    0.0000 C   0  0  0  0  0  0  0  0  0  0  0  0
    4.1569   -0.8000    0.0000 H   0  0  0  0  0  0  0  0  0  0  0  0
    1.3857   -0.8000    0.0000 C   0  0  0  0  0  0  0  0  0  0  0  0
    1.3857   -2.4000    0.0000 H   0  0  0  0  0  0  0  0  0  0  0  0
    0.0001    0.0000    0.0000 C   0  0  0  0  0  0  0  0  0  0  0  0
   -1.3857   -0.8000    0.0000 N   0  0  0  0  0  0  0  0  0  0  0  0
   -1.3857   -2.4000    0.0000 C   0  0  0  0  0  0  0  0  0  0  0  0
   -1.3857   -4.0000    0.0000 H   0  0  0  0  0  0  0  0  0  0  0  0
   -2.7713   -3.2000    0.0000 H   0  0  0  0  0  0  0  0  0  0  0  0
    0.0001   -3.2000    0.0000 H   0  0  0  0  0  0  0  0  0  0  0  0
   -2.7713    0.0000    0.0000 C   0  0  0  0  0  0  0  0  0  0  0  0
   -4.1569    0.8000    0.0000 H   0  0  0  0  0  0  0  0  0  0  0  0
   -4.1569   -0.8000    0.0000 H   0  0  0  0  0  0  0  0  0  0  0  0
   -2.7713    1.6000    0.0000 H   0  0  0  0  0  0  0  0  0  0  0  0
    0.0001    1.6000    0.0000 C   0  0  0  0  0  0  0  0  0  0  0  0
   -1.3857    2.4000    0.0000 H   0  0  0  0  0  0  0  0  0  0  0  0
    1.3857    2.4000    0.0000 C   0  0  0  0  0  0  0  0  0  0  0  0
    1.3857    4.0000    0.0000 H   0  0  0  0  0  0  0  0  0  0  0  0
  1  2  2  0  0  0  0
  2  3  1  0  0  0  0
  3  4  1  0  0  0  0
  4  5  1  0  0  0  0
  4  6  2  0  0  0  0
  6  7  1  0  0  0  0
  6  8  1  0  0  0  0
  8  9  1  0  0  0  0
  9 10  1  0  0  0  0
 10 11  1  0  0  0  0
 10 12  1  0  0  0  0
 10 13  1  0  0  0  0
  9 14  1  0  0  0  0
 14 15  1  0  0  0  0
 14 16  1  0  0  0  0
 14 17  1  0  0  0  0
  8 18  2  0  0  0  0
 18 19  1  0  0  0  0
 18 20  1  0  0  0  0
 20  3  2  0  0  0  0
 20 21  1  0  0  0  0
  2 22  1  0  0  0  0
 22 23  1  0  0  0  0
 23 24  1  0  0  0  0
 23 25  2  0  0  0  0
 25 26  1  0  0  0  0
 25 27  1  0  0  0  0
 27 28  1  0  0  0  0
 28 29  1  0  0  0  0
 29 30  1  0  0  0  0
 29 31  1  0  0  0  0
 29 32  1  0  0  0  0
 28 33  1  0  0  0  0
 33 34  1  0  0  0  0
 33 35  1  0  0  0  0
 33 36  1  0  0  0  0
 27 37  2  0  0  0  0
 37 38  1  0  0  0  0
 37 39  1  0  0  0  0
 39 22  2  0  0  0  0
 39 40  1  0  0  0  0
M  END
> <ChemID>
100119

> <source_casrn>
90-94-8

> <CAS>
90-94-8

> <SMILES>
O=C(c(ccc(N(C)C)c1)c1)c(ccc(N(C)C)c2)c2

> <NAME>
4,4-BIS(DIMETHYLAMINO)BENZOPHENONE

> <preferred_name>
Michler's ketone

> <iupac>
bis[4-(dimethylamino)phenyl]methanone

> <MPID>
98050

> <dsstox_substance_id>
DTXSID2020894

> <Canonical_QSARr>
CN(C)c1ccc(cc1)C(=O)c1ccc(cc1)N(C)C

> <InChI_Code_QSARr>
InChI=1S/C17H20N2O/c1-18(2)15-9-5-13(6-10-15)17(20)14-7-11-16(12-8-14)19(3)4/h5-12H,1-4H3

> <InChI Key_QSARr>
VVBLNCFGVYUYGU-UHFFFAOYSA-N

> <Salt_Solvent>
?

> <LogBCF>
1.45

$$$$
100120
  -INDIGO-08031719362D

 14 14  0  0  0  0  0  0  0  0999 V2000
    0.0000   -0.0000    0.0000 C   0  0  0  0  0  0  0  0  0  0  0  0
    1.3856    0.8000    0.0000 C   0  0  0  0  0  0  0  0  0  0  0  0
    1.3856    2.4000    0.0000 H   0  0  0  0  0  0  0  0  0  0  0  0
    2.7713   -0.0000    0.0000 C   0  0  0  0  0  0  0  0  0  0  0  0
    4.1569    0.8000    0.0000 H   0  0  0  0  0  0  0  0  0  0  0  0
    2.7713   -1.6000    0.0000 C   0  0  0  0  0  0  0  0  0  0  0  0
    4.1569   -2.4000    0.0000 H   0  0  0  0  0  0  0  0  0  0  0  0
    1.3856   -2.4000    0.0000 C   0  0  0  0  0  0  0  0  0  0  0  0
    1.3856   -4.0000    0.0000 H   0  0  0  0  0  0  0  0  0  0  0  0
    0.0000   -1.6000    0.0000 C   0  0  0  0  0  0  0  0  0  0  0  0
   -1.3856   -2.4000    0.0000 C   0  0  0  0  0  0  0  0  0  0  0  0
   -2.7713   -3.2000    0.0000 N   0  0  0  0  0  0  0  0  0  0  0  0
   -1.3856    0.8000    0.0000 C   0  0  0  0  0  0  0  0  0  0  0  0
   -2.7713    1.6000    0.0000 N   0  0  0  0  0  0  0  0  0  0  0  0
  1  2  1  0  0  0  0
  2  3  1  0  0  0  0
  2  4  2  0  0  0  0
  4  5  1  0  0  0  0
  4  6  1  0  0  0  0
  6  7  1  0  0  0  0
  6  8  2  0  0  0  0
  8  9  1  0  0  0  0
  8 10  1  0  0  0  0
 10  1  2  0  0  0  0
 10 11  1  0  0  0  0
 11 12  3  0  0  0  0
  1 13  1  0  0  0  0
 13 14  3  0  0  0  0
M  END
> <ChemID>
100120

> <source_casrn>
91-15-6

> <CAS>
91-15-6

> <SMILES>
N#Cc1ccccc1C#N

> <NAME>
1,2-DICYANOBENZENE

> <preferred_name>
1,2-Benzenedicarbonitrile

> <iupac>
benzene-1,2-dicarbonitrile

> <MPID>
98051

> <dsstox_substance_id>
DTXSID8029604

> <Canonical_QSARr>
N#Cc1ccccc1C#N

> <InChI_Code_QSARr>
InChI=1S/C8H4N2/c9-5-7-3-1-2-4-8(7)6-10/h1-4H

> <InChI Key_QSARr>
XQZYPMVTSDWCCE-UHFFFAOYSA-N

> <Salt_Solvent>
?

> <LogBCF>
0.7

$$$$
100121
  -INDIGO-08031719362D

 18 19  0  0  0  0  0  0  0  0999 V2000
    1.3856    2.4000    0.0000 C   0  0  0  0  0  0  0  0  0  0  0  0
    1.3856    4.0000    0.0000 H   0  0  0  0  0  0  0  0  0  0  0  0
    0.0001    1.6000    0.0000 C   0  0  0  0  0  0  0  0  0  0  0  0
    0.0001    0.0000    0.0000 C   0  0  0  0  0  0  0  0  0  0  0  0
   -1.3856   -0.8000    0.0000 C   0  0  0  0  0  0  0  0  0  0  0  0
   -1.3856   -2.4000    0.0000 H   0  0  0  0  0  0  0  0  0  0  0  0
   -2.7712    0.0000    0.0000 C   0  0  0  0  0  0  0  0  0  0  0  0
   -4.1569   -0.8000    0.0000 H   0  0  0  0  0  0  0  0  0  0  0  0
   -2.7712    1.6000    0.0000 C   0  0  0  0  0  0  0  0  0  0  0  0
   -4.1569    2.4000    0.0000 H   0  0  0  0  0  0  0  0  0  0  0  0
   -1.3856    2.4000    0.0000 C   0  0  0  0  0  0  0  0  0  0  0  0
   -1.3856    4.0000    0.0000 H   0  0  0  0  0  0  0  0  0  0  0  0
    1.3856   -0.8000    0.0000 C   0  0  0  0  0  0  0  0  0  0  0  0
    1.3856   -2.4000    0.0000 H   0  0  0  0  0  0  0  0  0  0  0  0
    2.7713    0.0000    0.0000 C   0  0  0  0  0  0  0  0  0  0  0  0
    4.1569   -0.8000    0.0000 H   0  0  0  0  0  0  0  0  0  0  0  0
    2.7713    1.6000    0.0000 C   0  0  0  0  0  0  0  0  0  0  0  0
    4.1569    2.4000    0.0000 H   0  0  0  0  0  0  0  0  0  0  0  0
  1  2  1  0  0  0  0
  1  3  1  0  0  0  0
  3  4  1  0  0  0  0
  4  5  2  0  0  0  0
  5  6  1  0  0  0  0
  5  7  1  0  0  0  0
  7  8  1  0  0  0  0
  7  9  2  0  0  0  0
  9 10  1  0  0  0  0
  9 11  1  0  0  0  0
 11  3  2  0  0  0  0
 11 12  1  0  0  0  0
  4 13  1  0  0  0  0
 13 14  1  0  0  0  0
 13 15  2  0  0  0  0
 15 16  1  0  0  0  0
 15 17  1  0  0  0  0
 17  1  2  0  0  0  0
 17 18  1  0  0  0  0
M  END
> <ChemID>
100121

> <source_casrn>
91-20-3

> <CAS>
91-20-3

> <SMILES>
c1cccc2ccccc21

> <NAME>
NAPHTHALENE

> <preferred_name>
Naphthalene

> <iupac>
naphthalene

> <MPID>
98052

> <dsstox_substance_id>
DTXSID8020913

> <Canonical_QSARr>
c1cccc2ccccc21

> <InChI_Code_QSARr>
InChI=1S/C10H8/c1-2-6-10-8-4-3-7-9(10)5-1/h1-8H

> <InChI Key_QSARr>
UFWIBTONFRDIAS-UHFFFAOYSA-N

> <Salt_Solvent>
?

> <LogBCF>
1.93

$$$$
100123
  -INDIGO-08031719362D

 18 18  0  0  0  0  0  0  0  0999 V2000
    2.4001   -1.3856    0.0000 C   0  0  0  0  0  0  0  0  0  0  0  0
    4.0000   -1.3856    0.0000 H   0  0  0  0  0  0  0  0  0  0  0  0
    3.2000   -2.7713    0.0000 H   0  0  0  0  0  0  0  0  0  0  0  0
    3.2000    0.0000    0.0000 H   0  0  0  0  0  0  0  0  0  0  0  0
    1.6000    0.0000    0.0000 O   0  0  0  0  0  0  0  0  0  0  0  0
   -0.0000    0.0000    0.0000 C   0  0  0  0  0  0  0  0  0  0  0  0
   -0.8000    1.3856    0.0000 C   0  0  0  0  0  0  0  0  0  0  0  0
   -0.0000    2.7713    0.0000 N   0  0  0  0  0  0  0  0  0  0  0  0
   -0.8000    4.1569    0.0000 O   0  0  0  0  0  0  0  0  0  0  0  0
    1.6000    2.7713    0.0000 O   0  0  0  0  0  0  0  0  0  0  0  0
   -2.4000    1.3856    0.0000 C   0  0  0  0  0  0  0  0  0  0  0  0
   -3.2001    2.7713    0.0000 H   0  0  0  0  0  0  0  0  0  0  0  0
   -3.2001    0.0000    0.0000 C   0  0  0  0  0  0  0  0  0  0  0  0
   -4.8000    0.0000    0.0000 H   0  0  0  0  0  0  0  0  0  0  0  0
   -2.4000   -1.3856    0.0000 C   0  0  0  0  0  0  0  0  0  0  0  0
   -3.2001   -2.7713    0.0000 H   0  0  0  0  0  0  0  0  0  0  0  0
   -0.8000   -1.3856    0.0000 C   0  0  0  0  0  0  0  0  0  0  0  0
   -0.0000   -2.7713    0.0000 H   0  0  0  0  0  0  0  0  0  0  0  0
  1  2  1  0  0  0  0
  1  3  1  0  0  0  0
  1  4  1  0  0  0  0
  1  5  1  0  0  0  0
  5  6  1  0  0  0  0
  6  7  1  0  0  0  0
  7  8  1  0  0  0  0
  8  9  2  0  0  0  0
  8 10  1  0  0  0  0
  7 11  2  0  0  0  0
 11 12  1  0  0  0  0
 11 13  1  0  0  0  0
 13 14  1  0  0  0  0
 13 15  2  0  0  0  0
 15 16  1  0  0  0  0
 15 17  1  0  0  0  0
 17  6  2  0  0  0  0
 17 18  1  0  0  0  0
M  CHG  2   8   1  10  -1
M  END
> <ChemID>
100123

> <source_casrn>
91-23-6

> <CAS>
91-23-6

> <SMILES>
COc1ccccc1[N+]([O-])=O

> <NAME>
2-NITROANISOLE

> <preferred_name>
1-Methoxy-2-nitrobenzene

> <iupac>
1-methoxy-2-nitrobenzene

> <MPID>
98054

> <dsstox_substance_id>
DTXSID3020962

> <Canonical_QSARr>
COc1ccccc1[N+]([O-])=O

> <InChI_Code_QSARr>
InChI=1S/C7H7NO3/c1-11-7-5-3-2-4-6(7)8(9)10/h2-5H,1H3

> <InChI Key_QSARr>
CFBYEGUGFPZCNF-UHFFFAOYSA-N

> <Salt_Solvent>
?

> <LogBCF>
0.7

$$$$
100124
  -INDIGO-08031719362D

 21 22  0  0  0  0  0  0  0  0999 V2000
    0.0001   -0.0000    0.0000 C   0  0  0  0  0  0  0  0  0  0  0  0
    1.3857    0.8000    0.0000 C   0  0  0  0  0  0  0  0  0  0  0  0
    1.3857    2.4000    0.0000 H   0  0  0  0  0  0  0  0  0  0  0  0
    2.7713   -0.0000    0.0000 C   0  0  0  0  0  0  0  0  0  0  0  0
    4.1569    0.8000    0.0000 H   0  0  0  0  0  0  0  0  0  0  0  0
    2.7713   -1.6000    0.0000 C   0  0  0  0  0  0  0  0  0  0  0  0
    4.1569   -2.4000    0.0000 H   0  0  0  0  0  0  0  0  0  0  0  0
    1.3857   -2.4000    0.0000 C   0  0  0  0  0  0  0  0  0  0  0  0
    1.3857   -4.0000    0.0000 H   0  0  0  0  0  0  0  0  0  0  0  0
    0.0001   -1.6000    0.0000 C   0  0  0  0  0  0  0  0  0  0  0  0
   -1.3857   -2.4000    0.0000 C   0  0  0  0  0  0  0  0  0  0  0  0
   -1.3857   -4.0000    0.0000 H   0  0  0  0  0  0  0  0  0  0  0  0
   -2.7713   -1.6000    0.0000 C   0  0  0  0  0  0  0  0  0  0  0  0
   -4.1569   -2.4000    0.0000 H   0  0  0  0  0  0  0  0  0  0  0  0
   -2.7713   -0.0000    0.0000 C   0  0  0  0  0  0  0  0  0  0  0  0
   -4.1569    0.8000    0.0000 C   0  0  0  0  0  0  0  0  0  0  0  0
   -5.5426    1.6000    0.0000 H   0  0  0  0  0  0  0  0  0  0  0  0
   -5.5426   -0.0000    0.0000 H   0  0  0  0  0  0  0  0  0  0  0  0
   -4.1569    2.4000    0.0000 H   0  0  0  0  0  0  0  0  0  0  0  0
   -1.3857    0.8000    0.0000 C   0  0  0  0  0  0  0  0  0  0  0  0
   -1.3857    2.4000    0.0000 H   0  0  0  0  0  0  0  0  0  0  0  0
  1  2  1  0  0  0  0
  2  3  1  0  0  0  0
  2  4  2  0  0  0  0
  4  5  1  0  0  0  0
  4  6  1  0  0  0  0
  6  7  1  0  0  0  0
  6  8  2  0  0  0  0
  8  9  1  0  0  0  0
  8 10  1  0  0  0  0
 10  1  1  0  0  0  0
 10 11  2  0  0  0  0
 11 12  1  0  0  0  0
 11 13  1  0  0  0  0
 13 14  1  0  0  0  0
 13 15  2  0  0  0  0
 15 16  1  0  0  0  0
 16 17  1  0  0  0  0
 16 18  1  0  0  0  0
 16 19  1  0  0  0  0
 15 20  1  0  0  0  0
 20  1  2  0  0  0  0
 20 21  1  0  0  0  0
M  END
> <ChemID>
100124

> <source_casrn>
91-57-6

> <CAS>
91-57-6

> <SMILES>
Cc1cc2ccccc2cc1

> <NAME>
2-METHYLNAPHTHALENE

> <preferred_name>
2-Methylnaphthalene

> <iupac>
2-methylnaphthalene

> <MPID>
98055

> <dsstox_substance_id>
DTXSID4020878

> <Canonical_QSARr>
Cc1cc2ccccc2cc1

> <InChI_Code_QSARr>
InChI=1S/C11H10/c1-9-6-7-10-4-2-3-5-11(10)8-9/h2-8H,1H3

> <InChI Key_QSARr>
QIMMUPPBPVKWKM-UHFFFAOYSA-N

> <Salt_Solvent>
?

> <LogBCF>
1.87

$$$$
100125
  -INDIGO-08031719362D

 18 19  0  0  0  0  0  0  0  0999 V2000
    0.0001   -0.0000    0.0000 C   0  0  0  0  0  0  0  0  0  0  0  0
    1.3856    0.8000    0.0000 C   0  0  0  0  0  0  0  0  0  0  0  0
    1.3856    2.4000    0.0000 H   0  0  0  0  0  0  0  0  0  0  0  0
    2.7713   -0.0000    0.0000 C   0  0  0  0  0  0  0  0  0  0  0  0
    4.1569    0.8000    0.0000 Cl  0  0  0  0  0  0  0  0  0  0  0  0
    2.7713   -1.6000    0.0000 C   0  0  0  0  0  0  0  0  0  0  0  0
    4.1569   -2.4000    0.0000 H   0  0  0  0  0  0  0  0  0  0  0  0
    1.3856   -2.4000    0.0000 C   0  0  0  0  0  0  0  0  0  0  0  0
    1.3856   -4.0000    0.0000 H   0  0  0  0  0  0  0  0  0  0  0  0
    0.0001   -1.6000    0.0000 C   0  0  0  0  0  0  0  0  0  0  0  0
   -1.3856   -2.4000    0.0000 C   0  0  0  0  0  0  0  0  0  0  0  0
   -1.3856   -4.0000    0.0000 H   0  0  0  0  0  0  0  0  0  0  0  0
   -2.7712   -1.6000    0.0000 C   0  0  0  0  0  0  0  0  0  0  0  0
   -4.1569   -2.4000    0.0000 H   0  0  0  0  0  0  0  0  0  0  0  0
   -2.7712   -0.0000    0.0000 C   0  0  0  0  0  0  0  0  0  0  0  0
   -4.1569    0.8000    0.0000 H   0  0  0  0  0  0  0  0  0  0  0  0
   -1.3856    0.8000    0.0000 C   0  0  0  0  0  0  0  0  0  0  0  0
   -1.3856    2.4000    0.0000 H   0  0  0  0  0  0  0  0  0  0  0  0
  1  2  1  0  0  0  0
  2  3  1  0  0  0  0
  2  4  2  0  0  0  0
  4  5  1  0  0  0  0
  4  6  1  0  0  0  0
  6  7  1  0  0  0  0
  6  8  2  0  0  0  0
  8  9  1  0  0  0  0
  8 10  1  0  0  0  0
 10  1  1  0  0  0  0
 10 11  2  0  0  0  0
 11 12  1  0  0  0  0
 11 13  1  0  0  0  0
 13 14  1  0  0  0  0
 13 15  2  0  0  0  0
 15 16  1  0  0  0  0
 15 17  1  0  0  0  0
 17  1  2  0  0  0  0
 17 18  1  0  0  0  0
M  END
> <ChemID>
100125

> <source_casrn>
91-58-7

> <CAS>
91-58-7

> <SMILES>
Clc1cc2ccccc2cc1

> <NAME>
2-CHLORONAPHTHALENE

> <preferred_name>
2-Chloronaphthalene

> <iupac>
2-chloronaphthalene

> <MPID>
98056

> <dsstox_substance_id>
DTXSID8023971

> <Canonical_QSARr>
Clc1cc2ccccc2cc1

> <InChI_Code_QSARr>
InChI=1S/C10H7Cl/c11-10-6-5-8-3-1-2-4-9(8)7-10/h1-7H

> <InChI Key_QSARr>
CGYGETOMCSJHJU-UHFFFAOYSA-N

> <Salt_Solvent>
?

> <LogBCF>
3.63

$$$$
100127
  -INDIGO-08031719362D

 26 27  0  0  0  0  0  0  0  0999 V2000
    3.2000   -2.7713    0.0000 Cl  0  0  0  0  0  0  0  0  0  0  0  0
    2.4000   -1.3856    0.0000 C   0  0  0  0  0  0  0  0  0  0  0  0
    3.2000   -0.0000    0.0000 C   0  0  0  0  0  0  0  0  0  0  0  0
    4.8000   -0.0000    0.0000 N   0  0  0  0  0  0  0  0  0  0  0  0
    5.6000   -1.3856    0.0000 H   0  0  0  0  0  0  0  0  0  0  0  0
    5.6000    1.3856    0.0000 H   0  0  0  0  0  0  0  0  0  0  0  0
    2.4000    1.3856    0.0000 C   0  0  0  0  0  0  0  0  0  0  0  0
    3.2000    2.7713    0.0000 H   0  0  0  0  0  0  0  0  0  0  0  0
    0.7999    1.3856    0.0000 C   0  0  0  0  0  0  0  0  0  0  0  0
   -0.0001    2.7713    0.0000 H   0  0  0  0  0  0  0  0  0  0  0  0
   -0.0001   -0.0000    0.0000 C   0  0  0  0  0  0  0  0  0  0  0  0
   -1.5999    0.0000    0.0000 C   0  0  0  0  0  0  0  0  0  0  0  0
   -2.3999    1.3856    0.0000 C   0  0  0  0  0  0  0  0  0  0  0  0
   -1.5999    2.7713    0.0000 H   0  0  0  0  0  0  0  0  0  0  0  0
   -4.0000    1.3856    0.0000 C   0  0  0  0  0  0  0  0  0  0  0  0
   -4.8000    2.7713    0.0000 Cl  0  0  0  0  0  0  0  0  0  0  0  0
   -4.8000    0.0000    0.0000 C   0  0  0  0  0  0  0  0  0  0  0  0
   -6.4000    0.0000    0.0000 N   0  0  0  0  0  0  0  0  0  0  0  0
   -7.2000    1.3856    0.0000 H   0  0  0  0  0  0  0  0  0  0  0  0
   -7.2000   -1.3856    0.0000 H   0  0  0  0  0  0  0  0  0  0  0  0
   -4.0000   -1.3856    0.0000 C   0  0  0  0  0  0  0  0  0  0  0  0
   -4.8000   -2.7713    0.0000 H   0  0  0  0  0  0  0  0  0  0  0  0
   -2.3999   -1.3856    0.0000 C   0  0  0  0  0  0  0  0  0  0  0  0
   -1.5999   -2.7713    0.0000 H   0  0  0  0  0  0  0  0  0  0  0  0
    0.7999   -1.3856    0.0000 C   0  0  0  0  0  0  0  0  0  0  0  0
   -0.0001   -2.7713    0.0000 H   0  0  0  0  0  0  0  0  0  0  0  0
  1  2  1  0  0  0  0
  2  3  1  0  0  0  0
  3  4  1  0  0  0  0
  4  5  1  0  0  0  0
  4  6  1  0  0  0  0
  3  7  2  0  0  0  0
  7  8  1  0  0  0  0
  7  9  1  0  0  0  0
  9 10  1  0  0  0  0
  9 11  2  0  0  0  0
 11 12  1  0  0  0  0
 12 13  1  0  0  0  0
 13 14  1  0  0  0  0
 13 15  2  0  0  0  0
 15 16  1  0  0  0  0
 15 17  1  0  0  0  0
 17 18  1  0  0  0  0
 18 19  1  0  0  0  0
 18 20  1  0  0  0  0
 17 21  2  0  0  0  0
 21 22  1  0  0  0  0
 21 23  1  0  0  0  0
 23 12  2  0  0  0  0
 23 24  1  0  0  0  0
 11 25  1  0  0  0  0
 25  2  2  0  0  0  0
 25 26  1  0  0  0  0
M  END
> <ChemID>
100127

> <source_casrn>
91-94-1

> <CAS>
91-94-1

> <SMILES>
Nc1ccc(cc1Cl)-c1cc(Cl)c(N)cc1

> <NAME>
3,3'-DICHLOROBENZIDINE

> <preferred_name>
3,3'-Dichlorobenzidine

> <iupac>
3,3'-dichlorobiphenyl-4,4'-diamine

> <MPID>
98058

> <dsstox_substance_id>
DTXSID6020432

> <Canonical_QSARr>
Nc1ccc(cc1Cl)-c1cc(Cl)c(N)cc1

> <InChI_Code_QSARr>
InChI=1S/C12H10Cl2N2/c13-9-5-7(1-3-11(9)15)8-2-4-12(16)10(14)6-8/h1-6H,15-16H2

> <InChI Key_QSARr>
HUWXDEQWWKGHRV-UHFFFAOYSA-N

> <Salt_Solvent>
?

> <LogBCF>
2.16

$$$$
100128
  -INDIGO-08031719362D

 52 53  0  0  0  0  0  0  0  0999 V2000
    4.8000   -2.7712    0.0000 O   0  0  0  0  0  0  0  0  0  0  0  0
    5.6002   -1.3856    0.0000 C   0  0  0  0  0  0  0  0  0  0  0  0
    4.8000   -0.0001    0.0000 N   0  0  0  0  0  0  0  0  0  0  0  0
    5.6002    1.3856    0.0000 H   0  0  0  0  0  0  0  0  0  0  0  0
    3.2000   -0.0001    0.0000 C   0  0  0  0  0  0  0  0  0  0  0  0
    2.4002    1.3856    0.0000 C   0  0  0  0  0  0  0  0  0  0  0  0
    3.2000    2.7712    0.0000 C   0  0  0  0  0  0  0  0  0  0  0  0
    4.0002    4.1569    0.0000 H   0  0  0  0  0  0  0  0  0  0  0  0
    2.4002    4.1569    0.0000 H   0  0  0  0  0  0  0  0  0  0  0  0
    4.8000    2.7712    0.0000 H   0  0  0  0  0  0  0  0  0  0  0  0
    0.8002    1.3856    0.0000 C   0  0  0  0  0  0  0  0  0  0  0  0
    0.0000    2.7713    0.0000 H   0  0  0  0  0  0  0  0  0  0  0  0
    0.0000    0.0001    0.0000 C   0  0  0  0  0  0  0  0  0  0  0  0
   -1.6000    0.0001    0.0000 C   0  0  0  0  0  0  0  0  0  0  0  0
   -2.3998    1.3856    0.0000 C   0  0  0  0  0  0  0  0  0  0  0  0
   -1.6000    2.7713    0.0000 H   0  0  0  0  0  0  0  0  0  0  0  0
   -3.9998    1.3856    0.0000 C   0  0  0  0  0  0  0  0  0  0  0  0
   -4.8000    2.7713    0.0000 H   0  0  0  0  0  0  0  0  0  0  0  0
   -4.8000    0.0001    0.0000 C   0  0  0  0  0  0  0  0  0  0  0  0
   -6.4000    0.0001    0.0000 N   0  0  0  0  0  0  0  0  0  0  0  0
   -7.1998   -1.3856    0.0000 H   0  0  0  0  0  0  0  0  0  0  0  0
   -7.1998    1.3856    0.0000 C   0  0  0  0  0  0  0  0  0  0  0  0
   -6.4000    2.7713    0.0000 O   0  0  0  0  0  0  0  0  0  0  0  0
   -8.7998    1.3856    0.0000 C   0  0  0  0  0  0  0  0  0  0  0  0
   -9.0089   -0.2006    0.0000 H   0  0  0  0  0  0  0  0  0  0  0  0
  -10.0695    0.4116    0.0000 H   0  0  0  0  0  0  0  0  0  0  0  0
   -9.6000    2.7713    0.0000 C   0  0  0  0  0  0  0  0  0  0  0  0
   -8.7998    4.1569    0.0000 O   0  0  0  0  0  0  0  0  0  0  0  0
  -11.2000    2.7713    0.0000 C   0  0  0  0  0  0  0  0  0  0  0  0
  -12.8000    2.7712    0.0000 H   0  0  0  0  0  0  0  0  0  0  0  0
  -11.9998    4.1569    0.0000 H   0  0  0  0  0  0  0  0  0  0  0  0
  -11.9998    1.3856    0.0000 H   0  0  0  0  0  0  0  0  0  0  0  0
   -3.9998   -1.3856    0.0000 C   0  0  0  0  0  0  0  0  0  0  0  0
   -4.8000   -2.7712    0.0000 C   0  0  0  0  0  0  0  0  0  0  0  0
   -5.5998   -4.1569    0.0000 H   0  0  0  0  0  0  0  0  0  0  0  0
   -3.9998   -4.1569    0.0000 H   0  0  0  0  0  0  0  0  0  0  0  0
   -6.4000   -2.7712    0.0000 H   0  0  0  0  0  0  0  0  0  0  0  0
   -2.4002   -1.3856    0.0000 C   0  0  0  0  0  0  0  0  0  0  0  0
   -1.6000   -2.7712    0.0000 H   0  0  0  0  0  0  0  0  0  0  0  0
    0.8002   -1.3856    0.0000 C   0  0  0  0  0  0  0  0  0  0  0  0
    0.0000   -2.7712    0.0000 H   0  0  0  0  0  0  0  0  0  0  0  0
    2.4002   -1.3856    0.0000 C   0  0  0  0  0  0  0  0  0  0  0  0
    3.2000   -2.7712    0.0000 H   0  0  0  0  0  0  0  0  0  0  0  0
    7.2002   -1.3856    0.0000 C   0  0  0  0  0  0  0  0  0  0  0  0
    7.4089    0.2006    0.0000 H   0  0  0  0  0  0  0  0  0  0  0  0
    8.4695   -0.4116    0.0000 H   0  0  0  0  0  0  0  0  0  0  0  0
    8.0000   -2.7713    0.0000 C   0  0  0  0  0  0  0  0  0  0  0  0
    7.2002   -4.1569    0.0000 O   0  0  0  0  0  0  0  0  0  0  0  0
    9.6000   -2.7713    0.0000 C   0  0  0  0  0  0  0  0  0  0  0  0
   11.2000   -2.7713    0.0000 H   0  0  0  0  0  0  0  0  0  0  0  0
   10.4002   -4.1569    0.0000 H   0  0  0  0  0  0  0  0  0  0  0  0
   10.4002   -1.3856    0.0000 H   0  0  0  0  0  0  0  0  0  0  0  0
  1  2  2  0  0  0  0
  2  3  1  0  0  0  0
  3  4  1  0  0  0  0
  3  5  1  0  0  0  0
  5  6  1  0  0  0  0
  6  7  1  0  0  0  0
  7  8  1  0  0  0  0
  7  9  1  0  0  0  0
  7 10  1  0  0  0  0
  6 11  2  0  0  0  0
 11 12  1  0  0  0  0
 11 13  1  0  0  0  0
 13 14  1  0  0  0  0
 14 15  1  0  0  0  0
 15 16  1  0  0  0  0
 15 17  2  0  0  0  0
 17 18  1  0  0  0  0
 17 19  1  0  0  0  0
 19 20  1  0  0  0  0
 20 21  1  0  0  0  0
 20 22  1  0  0  0  0
 22 23  2  0  0  0  0
 22 24  1  0  0  0  0
 24 25  1  0  0  0  0
 24 26  1  0  0  0  0
 24 27  1  0  0  0  0
 27 28  2  0  0  0  0
 27 29  1  0  0  0  0
 29 30  1  0  0  0  0
 29 31  1  0  0  0  0
 29 32  1  0  0  0  0
 19 33  2  0  0  0  0
 33 34  1  0  0  0  0
 34 35  1  0  0  0  0
 34 36  1  0  0  0  0
 34 37  1  0  0  0  0
 33 38  1  0  0  0  0
 38 14  2  0  0  0  0
 38 39  1  0  0  0  0
 13 40  2  0  0  0  0
 40 41  1  0  0  0  0
 40 42  1  0  0  0  0
 42  5  2  0  0  0  0
 42 43  1  0  0  0  0
  2 44  1  0  0  0  0
 44 45  1  0  0  0  0
 44 46  1  0  0  0  0
 44 47  1  0  0  0  0
 47 48  2  0  0  0  0
 47 49  1  0  0  0  0
 49 50  1  0  0  0  0
 49 51  1  0  0  0  0
 49 52  1  0  0  0  0
M  END
> <ChemID>
100128

> <source_casrn>
91-96-3

> <CAS>
91-96-3

> <SMILES>
O=C(Nc(c(cc(c(ccc(NC(=O)CC(=O)C)c1C)c1)c2)C)c2)CC(=O)C

> <NAME>
C.I. AZOIC COUPLING COMPONENT 5

> <preferred_name>
Butanamide, N,N'-(3,3'-dimethyl[1,1'-biphenyl]-4,4'-diyl)bis[3-oxo-

> <iupac>
N-[2-methyl-4-[3-methyl-4-(3-oxobutanoylamino)phenyl]phenyl]-3-oxobutanamide

> <MPID>
98059

> <dsstox_substance_id>
DTXSID5059034

> <Canonical_QSARr>
CC(=O)CC(=O)Nc1ccc(cc1C)-c1cc(C)c(cc1)NC(=O)CC(C)=O

> <InChI_Code_QSARr>
InChI=1S/C22H24N2O4/c1-13-9-17(5-7-19(13)23-21(27)11-15(3)25)18-6-8-20(14(2)10-18)24-22(28)12-16(4)26/h5-10H,11-12H2,1-4H3,(H,23,27)(H,24,28)

> <InChI Key_QSARr>
CRRLDLPBQWRVGN-UHFFFAOYSA-N

> <Salt_Solvent>
?

> <LogBCF>
0.2

$$$$
100129
  -INDIGO-08031719362D

 22 23  0  0  0  0  0  0  0  0999 V2000
   -0.8001    1.3856    0.0000 C   0  0  0  0  0  0  0  0  0  0  0  0
   -0.0001    2.7713    0.0000 H   0  0  0  0  0  0  0  0  0  0  0  0
   -0.0001   -0.0000    0.0000 C   0  0  0  0  0  0  0  0  0  0  0  0
    1.6001    0.0000    0.0000 C   0  0  0  0  0  0  0  0  0  0  0  0
    2.4001    1.3856    0.0000 C   0  0  0  0  0  0  0  0  0  0  0  0
    1.6001    2.7713    0.0000 H   0  0  0  0  0  0  0  0  0  0  0  0
    4.0000    1.3856    0.0000 C   0  0  0  0  0  0  0  0  0  0  0  0
    4.8000    2.7713    0.0000 H   0  0  0  0  0  0  0  0  0  0  0  0
    4.8000    0.0000    0.0000 C   0  0  0  0  0  0  0  0  0  0  0  0
    6.4000    0.0000    0.0000 H   0  0  0  0  0  0  0  0  0  0  0  0
    4.0000   -1.3856    0.0000 C   0  0  0  0  0  0  0  0  0  0  0  0
    4.8000   -2.7713    0.0000 H   0  0  0  0  0  0  0  0  0  0  0  0
    2.4001   -1.3856    0.0000 C   0  0  0  0  0  0  0  0  0  0  0  0
    1.6001   -2.7713    0.0000 H   0  0  0  0  0  0  0  0  0  0  0  0
   -0.8001   -1.3856    0.0000 C   0  0  0  0  0  0  0  0  0  0  0  0
   -0.0001   -2.7713    0.0000 H   0  0  0  0  0  0  0  0  0  0  0  0
   -2.4000   -1.3856    0.0000 C   0  0  0  0  0  0  0  0  0  0  0  0
   -3.2000   -2.7713    0.0000 H   0  0  0  0  0  0  0  0  0  0  0  0
   -3.2000   -0.0000    0.0000 C   0  0  0  0  0  0  0  0  0  0  0  0
   -4.8000   -0.0000    0.0000 H   0  0  0  0  0  0  0  0  0  0  0  0
   -2.4000    1.3856    0.0000 C   0  0  0  0  0  0  0  0  0  0  0  0
   -3.2000    2.7713    0.0000 H   0  0  0  0  0  0  0  0  0  0  0  0
  1  2  1  0  0  0  0
  1  3  1  0  0  0  0
  3  4  1  0  0  0  0
  4  5  1  0  0  0  0
  5  6  1  0  0  0  0
  5  7  2  0  0  0  0
  7  8  1  0  0  0  0
  7  9  1  0  0  0  0
  9 10  1  0  0  0  0
  9 11  2  0  0  0  0
 11 12  1  0  0  0  0
 11 13  1  0  0  0  0
 13  4  2  0  0  0  0
 13 14  1  0  0  0  0
  3 15  2  0  0  0  0
 15 16  1  0  0  0  0
 15 17  1  0  0  0  0
 17 18  1  0  0  0  0
 17 19  2  0  0  0  0
 19 20  1  0  0  0  0
 19 21  1  0  0  0  0
 21  1  2  0  0  0  0
 21 22  1  0  0  0  0
M  END
> <ChemID>
100129

> <source_casrn>
92-52-4

> <CAS>
92-52-4

> <SMILES>
c1ccccc1-c1ccccc1

> <NAME>
BIPHENYL

> <preferred_name>
Biphenyl

> <iupac>
biphenyl

> <MPID>
98060

> <dsstox_substance_id>
DTXSID4020161

> <Canonical_QSARr>
c1ccccc1-c1ccccc1

> <InChI_Code_QSARr>
InChI=1S/C12H10/c1-3-7-11(8-4-1)12-9-5-2-6-10-12/h1-10H

> <InChI Key_QSARr>
ZUOUZKKEUPVFJK-UHFFFAOYSA-N

> <Salt_Solvent>
?

> <LogBCF>
2.64

$$$$
100131
  -INDIGO-08031719362D

 22 23  0  0  0  0  0  0  0  0999 V2000
   -0.0001   -0.0000    0.0000 C   0  0  0  0  0  0  0  0  0  0  0  0
    1.3856    0.8000    0.0000 C   0  0  0  0  0  0  0  0  0  0  0  0
    1.3856    2.4000    0.0000 H   0  0  0  0  0  0  0  0  0  0  0  0
    2.7713   -0.0000    0.0000 C   0  0  0  0  0  0  0  0  0  0  0  0
    4.1569    0.8000    0.0000 H   0  0  0  0  0  0  0  0  0  0  0  0
    2.7713   -1.6000    0.0000 C   0  0  0  0  0  0  0  0  0  0  0  0
    4.1569   -2.4000    0.0000 H   0  0  0  0  0  0  0  0  0  0  0  0
    1.3856   -2.4000    0.0000 C   0  0  0  0  0  0  0  0  0  0  0  0
    1.3856   -4.0000    0.0000 H   0  0  0  0  0  0  0  0  0  0  0  0
   -0.0001   -1.6000    0.0000 C   0  0  0  0  0  0  0  0  0  0  0  0
   -1.3857   -2.4000    0.0000 C   0  0  0  0  0  0  0  0  0  0  0  0
   -1.3857   -4.0000    0.0000 H   0  0  0  0  0  0  0  0  0  0  0  0
   -2.7712   -1.6000    0.0000 C   0  0  0  0  0  0  0  0  0  0  0  0
   -4.1569   -2.4000    0.0000 O   0  0  0  0  0  0  0  0  0  0  0  0
   -4.1569   -4.0000    0.0000 H   0  0  0  0  0  0  0  0  0  0  0  0
   -2.7712   -0.0000    0.0000 C   0  0  0  0  0  0  0  0  0  0  0  0
   -4.1569    0.8000    0.0000 C   0  0  0  0  0  0  0  0  0  0  0  0
   -4.1569    2.4000    0.0000 O   0  0  0  0  0  0  0  0  0  0  0  0
   -5.5425   -0.0000    0.0000 O   0  0  0  0  0  0  0  0  0  0  0  0
   -6.9282    0.8000    0.0000 H   0  0  0  0  0  0  0  0  0  0  0  0
   -1.3857    0.8000    0.0000 C   0  0  0  0  0  0  0  0  0  0  0  0
   -1.3856    2.4000    0.0000 H   0  0  0  0  0  0  0  0  0  0  0  0
  1  2  1  0  0  0  0
  2  3  1  0  0  0  0
  2  4  2  0  0  0  0
  4  5  1  0  0  0  0
  4  6  1  0  0  0  0
  6  7  1  0  0  0  0
  6  8  2  0  0  0  0
  8  9  1  0  0  0  0
  8 10  1  0  0  0  0
 10  1  1  0  0  0  0
 10 11  2  0  0  0  0
 11 12  1  0  0  0  0
 11 13  1  0  0  0  0
 13 14  1  0  0  0  0
 14 15  1  0  0  0  0
 13 16  2  0  0  0  0
 16 17  1  0  0  0  0
 17 18  2  0  0  0  0
 17 19  1  0  0  0  0
 19 20  1  0  0  0  0
 16 21  1  0  0  0  0
 21  1  2  0  0  0  0
 21 22  1  0  0  0  0
M  END
> <ChemID>
100131

> <source_casrn>
92-70-6

> <CAS>
92-70-6

> <SMILES>
Oc1cc2ccccc2cc1C(O)=O

> <NAME>
2-NAPHTHALENECARBOXYLIC ACID, 3-HYDROXY-

> <preferred_name>
3-Hydroxy-2-naphthoic acid

> <iupac>
3-hydroxynaphthalene-2-carboxylic acid

> <MPID>
98062

> <dsstox_substance_id>
DTXSID3026560

> <Canonical_QSARr>
Oc1cc2ccccc2cc1C(O)=O

> <InChI_Code_QSARr>
InChI=1S/C11H8O3/c12-10-6-8-4-2-1-3-7(8)5-9(10)11(13)14/h1-6,12H,(H,13,14)

> <InChI Key_QSARr>
ALKYHXVLJMQRLQ-UHFFFAOYSA-N

> <Salt_Solvent>
?

> <LogBCF>
0.6

$$$$
100132
  -INDIGO-08031719362D

 33 35  0  0  0  0  0  0  0  0999 V2000
   -0.0001    0.0000    0.0000 C   0  0  0  0  0  0  0  0  0  0  0  0
   -0.7999    1.3857    0.0000 C   0  0  0  0  0  0  0  0  0  0  0  0
   -0.0001    2.7713    0.0000 H   0  0  0  0  0  0  0  0  0  0  0  0
   -2.4001    1.3856    0.0000 C   0  0  0  0  0  0  0  0  0  0  0  0
   -3.2001    2.7713    0.0000 H   0  0  0  0  0  0  0  0  0  0  0  0
   -3.1999    0.0000    0.0000 C   0  0  0  0  0  0  0  0  0  0  0  0
   -4.8000    0.0000    0.0000 H   0  0  0  0  0  0  0  0  0  0  0  0
   -2.4001   -1.3856    0.0000 C   0  0  0  0  0  0  0  0  0  0  0  0
   -3.2001   -2.7713    0.0000 H   0  0  0  0  0  0  0  0  0  0  0  0
   -0.7999   -1.3856    0.0000 C   0  0  0  0  0  0  0  0  0  0  0  0
   -0.0001   -2.7713    0.0000 C   0  0  0  0  0  0  0  0  0  0  0  0
   -0.7999   -4.1569    0.0000 H   0  0  0  0  0  0  0  0  0  0  0  0
    1.6000   -2.7713    0.0000 C   0  0  0  0  0  0  0  0  0  0  0  0
    2.4001   -4.1569    0.0000 O   0  0  0  0  0  0  0  0  0  0  0  0
    1.6000   -5.5426    0.0000 H   0  0  0  0  0  0  0  0  0  0  0  0
    2.4001   -1.3856    0.0000 C   0  0  0  0  0  0  0  0  0  0  0  0
    3.9999   -1.3856    0.0000 C   0  0  0  0  0  0  0  0  0  0  0  0
    4.8000   -2.7713    0.0000 N   0  0  0  0  0  0  0  0  0  0  0  0
    3.9999   -4.1569    0.0000 H   0  0  0  0  0  0  0  0  0  0  0  0
    6.4001   -2.7713    0.0000 C   0  0  0  0  0  0  0  0  0  0  0  0
    7.1999   -4.1570    0.0000 C   0  0  0  0  0  0  0  0  0  0  0  0
    6.4001   -5.5426    0.0000 H   0  0  0  0  0  0  0  0  0  0  0  0
    8.8001   -4.1569    0.0000 C   0  0  0  0  0  0  0  0  0  0  0  0
    9.6001   -5.5426    0.0000 H   0  0  0  0  0  0  0  0  0  0  0  0
    9.6001   -2.7713    0.0000 C   0  0  0  0  0  0  0  0  0  0  0  0
   11.2000   -2.7713    0.0000 H   0  0  0  0  0  0  0  0  0  0  0  0
    8.8001   -1.3856    0.0000 C   0  0  0  0  0  0  0  0  0  0  0  0
    9.6001    0.0000    0.0000 H   0  0  0  0  0  0  0  0  0  0  0  0
    7.1999   -1.3856    0.0000 C   0  0  0  0  0  0  0  0  0  0  0  0
    6.3999    0.0000    0.0000 H   0  0  0  0  0  0  0  0  0  0  0  0
    4.8000    0.0000    0.0000 O   0  0  0  0  0  0  0  0  0  0  0  0
    1.6000    0.0000    0.0000 C   0  0  0  0  0  0  0  0  0  0  0  0
    2.4001    1.3857    0.0000 H   0  0  0  0  0  0  0  0  0  0  0  0
  1  2  1  0  0  0  0
  2  3  1  0  0  0  0
  2  4  2  0  0  0  0
  4  5  1  0  0  0  0
  4  6  1  0  0  0  0
  6  7  1  0  0  0  0
  6  8  2  0  0  0  0
  8  9  1  0  0  0  0
  8 10  1  0  0  0  0
 10  1  1  0  0  0  0
 10 11  2  0  0  0  0
 11 12  1  0  0  0  0
 11 13  1  0  0  0  0
 13 14  1  0  0  0  0
 14 15  1  0  0  0  0
 13 16  2  0  0  0  0
 16 17  1  0  0  0  0
 17 18  1  0  0  0  0
 18 19  1  0  0  0  0
 18 20  1  0  0  0  0
 20 21  1  0  0  0  0
 21 22  1  0  0  0  0
 21 23  2  0  0  0  0
 23 24  1  0  0  0  0
 23 25  1  0  0  0  0
 25 26  1  0  0  0  0
 25 27  2  0  0  0  0
 27 28  1  0  0  0  0
 27 29  1  0  0  0  0
 29 20  2  0  0  0  0
 29 30  1  0  0  0  0
 17 31  2  0  0  0  0
 16 32  1  0  0  0  0
 32  1  2  0  0  0  0
 32 33  1  0  0  0  0
M  END
> <ChemID>
100132

> <source_casrn>
92-77-3

> <CAS>
92-77-3

> <SMILES>
Oc1cc2ccccc2cc1C(=O)Nc1ccccc1

> <NAME>
Naphthol AS

> <preferred_name>
3-Hydroxy-2-naphthanilide

> <iupac>
3-hydroxy-N-phenyl-2-naphthamide

> <MPID>
98063

> <dsstox_substance_id>
DTXSID1052618

> <Canonical_QSARr>
Oc1cc2ccccc2cc1C(=O)Nc1ccccc1

> <InChI_Code_QSARr>
InChI=1S/C17H13NO2/c19-16-11-13-7-5-4-6-12(13)10-15(16)17(20)18-14-8-2-1-3-9-14/h1-11,19H,(H,18,20)

> <InChI Key_QSARr>
JFGQHAHJWJBOPD-UHFFFAOYSA-N

> <Salt_Solvent>
?

> <LogBCF>
0.81

$$$$
100133
  -INDIGO-08031719362D

 23 25  0  0  0  0  0  0  0  0999 V2000
   -1.3856    0.8000    0.0000 N   0  0  0  0  0  0  0  0  0  0  0  0
   -1.3856    2.4000    0.0000 H   0  0  0  0  0  0  0  0  0  0  0  0
   -2.7712   -0.0000    0.0000 C   0  0  0  0  0  0  0  0  0  0  0  0
   -2.7712   -1.6000    0.0000 C   0  0  0  0  0  0  0  0  0  0  0  0
   -4.1569   -2.4000    0.0000 C   0  0  0  0  0  0  0  0  0  0  0  0
   -4.1569   -4.0000    0.0000 H   0  0  0  0  0  0  0  0  0  0  0  0
   -5.5425   -1.6000    0.0000 C   0  0  0  0  0  0  0  0  0  0  0  0
   -6.9282   -2.4000    0.0000 H   0  0  0  0  0  0  0  0  0  0  0  0
   -5.5425   -0.0000    0.0000 C   0  0  0  0  0  0  0  0  0  0  0  0
   -6.9282    0.8000    0.0000 H   0  0  0  0  0  0  0  0  0  0  0  0
   -4.1569    0.8000    0.0000 C   0  0  0  0  0  0  0  0  0  0  0  0
   -4.1569    2.4000    0.0000 H   0  0  0  0  0  0  0  0  0  0  0  0
   -1.3856   -2.4000    0.0000 S   0  0  0  0  0  0  0  0  0  0  0  0
   -0.0001   -1.6000    0.0000 C   0  0  0  0  0  0  0  0  0  0  0  0
   -0.0001   -0.0000    0.0000 C   0  0  0  0  0  0  0  0  0  0  0  0
    1.3856    0.8000    0.0000 C   0  0  0  0  0  0  0  0  0  0  0  0
    1.3856    2.4000    0.0000 H   0  0  0  0  0  0  0  0  0  0  0  0
    2.7713   -0.0000    0.0000 C   0  0  0  0  0  0  0  0  0  0  0  0
    4.1569    0.8000    0.0000 H   0  0  0  0  0  0  0  0  0  0  0  0
    2.7713   -1.6000    0.0000 C   0  0  0  0  0  0  0  0  0  0  0  0
    4.1569   -2.4000    0.0000 H   0  0  0  0  0  0  0  0  0  0  0  0
    1.3856   -2.4000    0.0000 C   0  0  0  0  0  0  0  0  0  0  0  0
    1.3856   -4.0000    0.0000 H   0  0  0  0  0  0  0  0  0  0  0  0
  1  2  1  0  0  0  0
  1  3  1  0  0  0  0
  3  4  1  0  0  0  0
  4  5  2  0  0  0  0
  5  6  1  0  0  0  0
  5  7  1  0  0  0  0
  7  8  1  0  0  0  0
  7  9  2  0  0  0  0
  9 10  1  0  0  0  0
  9 11  1  0  0  0  0
 11  3  2  0  0  0  0
 11 12  1  0  0  0  0
  4 13  1  0  0  0  0
 13 14  1  0  0  0  0
 14 15  1  0  0  0  0
 15  1  1  0  0  0  0
 15 16  2  0  0  0  0
 16 17  1  0  0  0  0
 16 18  1  0  0  0  0
 18 19  1  0  0  0  0
 18 20  2  0  0  0  0
 20 21  1  0  0  0  0
 20 22  1  0  0  0  0
 22 14  2  0  0  0  0
 22 23  1  0  0  0  0
M  END
> <ChemID>
100133

> <source_casrn>
92-84-2

> <CAS>
92-84-2

> <SMILES>
c1cccc2Nc3ccccc3Sc21

> <NAME>
PHENOTHIAZINE

> <preferred_name>
Phenothiazine

> <iupac>
C12H9NS

> <MPID>
98064

> <dsstox_substance_id>
DTXSID5021126

> <Canonical_QSARr>
c1cccc2Nc3ccccc3Sc21

> <InChI_Code_QSARr>
InChI=1S/C12H9NS/c1-3-7-11-9(5-1)13-10-6-2-4-8-12(10)14-11/h1-8,13H

> <InChI Key_QSARr>
WJFKNYWRSNBZNX-UHFFFAOYSA-N

> <Salt_Solvent>
?

> <LogBCF>
2.55

$$$$
100135
  -INDIGO-08031719362D

 17 18  0  0  0  0  0  0  0  0999 V2000
   -5.6000    1.3856    0.0000 O   0  0  0  0  0  0  0  0  0  0  0  0
   -4.8000   -0.0000    0.0000 N   0  0  0  0  0  0  0  0  0  0  0  0
   -3.2001   -0.0000    0.0000 C   0  0  0  0  0  0  0  0  0  0  0  0
   -2.4000    1.3856    0.0000 C   0  0  0  0  0  0  0  0  0  0  0  0
   -3.2001    2.7713    0.0000 H   0  0  0  0  0  0  0  0  0  0  0  0
   -0.8000    1.3856    0.0000 C   0  0  0  0  0  0  0  0  0  0  0  0
    0.0000   -0.0000    0.0000 C   0  0  0  0  0  0  0  0  0  0  0  0
    1.5651    0.3327    0.0000 N   0  0  0  0  0  0  0  0  0  0  0  0
    2.7541   -0.7380    0.0000 H   0  0  0  0  0  0  0  0  0  0  0  0
    1.7323    1.9239    0.0000 C   0  0  0  0  0  0  0  0  0  0  0  0
    3.1179    2.7239    0.0000 H   0  0  0  0  0  0  0  0  0  0  0  0
    0.2706    2.5746    0.0000 N   0  0  0  0  0  0  0  0  0  0  0  0
   -0.8000   -1.3856    0.0000 C   0  0  0  0  0  0  0  0  0  0  0  0
    0.0000   -2.7713    0.0000 H   0  0  0  0  0  0  0  0  0  0  0  0
   -2.4000   -1.3856    0.0000 C   0  0  0  0  0  0  0  0  0  0  0  0
   -3.2001   -2.7713    0.0000 H   0  0  0  0  0  0  0  0  0  0  0  0
   -5.6000   -1.3856    0.0000 O   0  0  0  0  0  0  0  0  0  0  0  0
  1  2  2  0  0  0  0
  2  3  1  0  0  0  0
  3  4  1  0  0  0  0
  4  5  1  0  0  0  0
  4  6  2  0  0  0  0
  6  7  1  0  0  0  0
  7  8  1  0  0  0  0
  8  9  1  0  0  0  0
  8 10  1  0  0  0  0
 10 11  1  0  0  0  0
 10 12  2  0  0  0  0
 12  6  1  0  0  0  0
  7 13  2  0  0  0  0
 13 14  1  0  0  0  0
 13 15  1  0  0  0  0
 15  3  2  0  0  0  0
 15 16  1  0  0  0  0
  2 17  1  0  0  0  0
M  CHG  2   2   1  17  -1
M  END
> <ChemID>
100135

> <source_casrn>
94-52-0

> <CAS>
94-52-0

> <SMILES>
[O-][N+](=O)c1cc2[n]c[nH]c2cc1

> <NAME>
1H-BENZIMIDAZOLE, 5-NITRO-

> <preferred_name>
6-Nitrobenzimidazole

> <iupac>
5-nitro-1H-benzimidazole

> <MPID>
98066

> <dsstox_substance_id>
DTXSID8020965

> <Canonical_QSARr>
[O-][N+](=O)c1cc2[n]c[nH]c2cc1

> <InChI_Code_QSARr>
InChI=1S/C7H5N3O2/c11-10(12)5-1-2-6-7(3-5)9-4-8-6/h1-4H,(H,8,9)

> <InChI Key_QSARr>
XPAZGLFMMUODDK-UHFFFAOYSA-N

> <Salt_Solvent>
?

> <LogBCF>
0.4

$$$$
100136
  -INDIGO-08031719362D

 14 15  0  0  0  0  0  0  0  0999 V2000
    2.4000    1.3856    0.0000 C   0  0  0  0  0  0  0  0  0  0  0  0
    3.2000    2.7713    0.0000 H   0  0  0  0  0  0  0  0  0  0  0  0
    3.2000   -0.0000    0.0000 C   0  0  0  0  0  0  0  0  0  0  0  0
    4.8000   -0.0000    0.0000 H   0  0  0  0  0  0  0  0  0  0  0  0
    2.4000   -1.3856    0.0000 C   0  0  0  0  0  0  0  0  0  0  0  0
    3.2000   -2.7713    0.0000 H   0  0  0  0  0  0  0  0  0  0  0  0
    0.8000   -1.3856    0.0000 C   0  0  0  0  0  0  0  0  0  0  0  0
   -0.0000    0.0000    0.0000 C   0  0  0  0  0  0  0  0  0  0  0  0
   -1.5650   -0.3327    0.0000 S   0  0  0  0  0  0  0  0  0  0  0  0
   -1.7322   -1.9239    0.0000 C   0  0  0  0  0  0  0  0  0  0  0  0
   -3.1179   -2.7239    0.0000 H   0  0  0  0  0  0  0  0  0  0  0  0
   -0.2706   -2.5746    0.0000 N   0  0  0  0  0  0  0  0  0  0  0  0
    0.8000    1.3856    0.0000 C   0  0  0  0  0  0  0  0  0  0  0  0
   -0.0000    2.7713    0.0000 H   0  0  0  0  0  0  0  0  0  0  0  0
  1  2  1  0  0  0  0
  1  3  1  0  0  0  0
  3  4  1  0  0  0  0
  3  5  2  0  0  0  0
  5  6  1  0  0  0  0
  5  7  1  0  0  0  0
  7  8  2  0  0  0  0
  8  9  1  0  0  0  0
  9 10  1  0  0  0  0
 10 11  1  0  0  0  0
 10 12  2  0  0  0  0
 12  7  1  0  0  0  0
  8 13  1  0  0  0  0
 13  1  2  0  0  0  0
 13 14  1  0  0  0  0
M  END
> <ChemID>
100136

> <source_casrn>
95-16-9

> <CAS>
95-16-9

> <SMILES>
c1[n]c2ccccc2[s]1

> <NAME>
BENZOTHIAZOLE

> <preferred_name>
Benzothiazole

> <iupac>
1,3-benzothiazole

> <MPID>
98067

> <dsstox_substance_id>
DTXSID7024586

> <Canonical_QSARr>
c1[n]c2ccccc2[s]1

> <InChI_Code_QSARr>
InChI=1S/C7H5NS/c1-2-4-7-6(3-1)8-5-9-7/h1-5H

> <InChI Key_QSARr>
IOJUPLGTWVMSFF-UHFFFAOYSA-N

> <Salt_Solvent>
?

> <LogBCF>
0.88

$$$$
100137
  -INDIGO-08031719362D

 18 18  0  0  0  0  0  0  0  0999 V2000
    1.3856    2.4000    0.0000 C   0  0  0  0  0  0  0  0  0  0  0  0
    1.3856    4.0000    0.0000 H   0  0  0  0  0  0  0  0  0  0  0  0
    0.0000    1.6000    0.0000 C   0  0  0  0  0  0  0  0  0  0  0  0
   -1.3856    2.4000    0.0000 C   0  0  0  0  0  0  0  0  0  0  0  0
   -2.7713    3.2000    0.0000 H   0  0  0  0  0  0  0  0  0  0  0  0
   -1.3856    4.0000    0.0000 H   0  0  0  0  0  0  0  0  0  0  0  0
   -2.7713    1.6000    0.0000 H   0  0  0  0  0  0  0  0  0  0  0  0
    0.0000    0.0000    0.0000 C   0  0  0  0  0  0  0  0  0  0  0  0
   -1.3856   -0.8000    0.0000 C   0  0  0  0  0  0  0  0  0  0  0  0
   -2.7713   -1.6000    0.0000 H   0  0  0  0  0  0  0  0  0  0  0  0
   -1.3856   -2.4000    0.0000 H   0  0  0  0  0  0  0  0  0  0  0  0
   -2.7713    0.0000    0.0000 H   0  0  0  0  0  0  0  0  0  0  0  0
    1.3856   -0.8000    0.0000 C   0  0  0  0  0  0  0  0  0  0  0  0
    1.3856   -2.4000    0.0000 H   0  0  0  0  0  0  0  0  0  0  0  0
    2.7713    0.0000    0.0000 C   0  0  0  0  0  0  0  0  0  0  0  0
    4.1569   -0.8000    0.0000 H   0  0  0  0  0  0  0  0  0  0  0  0
    2.7713    1.6000    0.0000 C   0  0  0  0  0  0  0  0  0  0  0  0
    4.1569    2.4000    0.0000 H   0  0  0  0  0  0  0  0  0  0  0  0
  1  2  1  0  0  0  0
  1  3  1  0  0  0  0
  3  4  1  0  0  0  0
  4  5  1  0  0  0  0
  4  6  1  0  0  0  0
  4  7  1  0  0  0  0
  3  8  2  0  0  0  0
  8  9  1  0  0  0  0
  9 10  1  0  0  0  0
  9 11  1  0  0  0  0
  9 12  1  0  0  0  0
  8 13  1  0  0  0  0
 13 14  1  0  0  0  0
 13 15  2  0  0  0  0
 15 16  1  0  0  0  0
 15 17  1  0  0  0  0
 17  1  2  0  0  0  0
 17 18  1  0  0  0  0
M  END
> <ChemID>
100137

> <source_casrn>
95-47-6

> <CAS>
95-47-6

> <SMILES>
Cc1ccccc1C

> <NAME>
O-XYLENE

> <preferred_name>
o-Xylene

> <iupac>
C8H10

> <MPID>
98068

> <dsstox_substance_id>
DTXSID3021807

> <Canonical_QSARr>
Cc1ccccc1C

> <InChI_Code_QSARr>
InChI=1S/C8H10/c1-7-5-3-4-6-8(7)2/h3-6H,1-2H3

> <InChI Key_QSARr>
CTQNGGLPUBDAKN-UHFFFAOYSA-N

> <Salt_Solvent>
?

> <LogBCF>
1.15

$$$$
100139
  -INDIGO-08031719362D

 15 15  0  0  0  0  0  0  0  0999 V2000
    0.0000   -0.0000    0.0000 C   0  0  0  0  0  0  0  0  0  0  0  0
   -0.8001    1.3856    0.0000 C   0  0  0  0  0  0  0  0  0  0  0  0
    0.0000    2.7713    0.0000 H   0  0  0  0  0  0  0  0  0  0  0  0
   -2.4001    1.3856    0.0000 C   0  0  0  0  0  0  0  0  0  0  0  0
   -3.2000    2.7713    0.0000 H   0  0  0  0  0  0  0  0  0  0  0  0
   -3.2000   -0.0000    0.0000 C   0  0  0  0  0  0  0  0  0  0  0  0
   -4.8000   -0.0000    0.0000 H   0  0  0  0  0  0  0  0  0  0  0  0
   -2.4001   -1.3856    0.0000 C   0  0  0  0  0  0  0  0  0  0  0  0
   -3.2000   -2.7713    0.0000 H   0  0  0  0  0  0  0  0  0  0  0  0
   -0.8001   -1.3856    0.0000 C   0  0  0  0  0  0  0  0  0  0  0  0
    0.0000   -2.7713    0.0000 Cl  0  0  0  0  0  0  0  0  0  0  0  0
    1.6000   -0.0000    0.0000 C   0  0  0  0  0  0  0  0  0  0  0  0
    3.2000   -0.0000    0.0000 H   0  0  0  0  0  0  0  0  0  0  0  0
    2.4001   -1.3856    0.0000 H   0  0  0  0  0  0  0  0  0  0  0  0
    2.4001    1.3856    0.0000 H   0  0  0  0  0  0  0  0  0  0  0  0
  1  2  1  0  0  0  0
  2  3  1  0  0  0  0
  2  4  2  0  0  0  0
  4  5  1  0  0  0  0
  4  6  1  0  0  0  0
  6  7  1  0  0  0  0
  6  8  2  0  0  0  0
  8  9  1  0  0  0  0
  8 10  1  0  0  0  0
 10  1  2  0  0  0  0
 10 11  1  0  0  0  0
  1 12  1  0  0  0  0
 12 13  1  0  0  0  0
 12 14  1  0  0  0  0
 12 15  1  0  0  0  0
M  END
> <ChemID>
100139

> <source_casrn>
95-49-8

> <CAS>
95-49-8

> <SMILES>
Cc1ccccc1Cl

> <NAME>
2-CHLOROTOLUENE

> <preferred_name>
2-Chlorotoluene

> <iupac>
1-chloro-2-methylbenzene

> <MPID>
98070

> <dsstox_substance_id>
DTXSID8023977

> <Canonical_QSARr>
Cc1ccccc1Cl

> <InChI_Code_QSARr>
InChI=1S/C7H7Cl/c1-6-4-2-3-5-7(6)8/h2-5H,1H3

> <InChI Key_QSARr>
IBSQPLPBRSHTTG-UHFFFAOYSA-N

> <Salt_Solvent>
?

> <LogBCF>
1.82

$$$$
100140
  -INDIGO-08031719362D

 12 12  0  0  0  0  0  0  0  0999 V2000
    0.8000    1.3856    0.0000 Cl  0  0  0  0  0  0  0  0  0  0  0  0
   -0.0000   -0.0000    0.0000 C   0  0  0  0  0  0  0  0  0  0  0  0
    0.8000   -1.3857    0.0000 C   0  0  0  0  0  0  0  0  0  0  0  0
    2.4000   -1.3857    0.0000 Cl  0  0  0  0  0  0  0  0  0  0  0  0
   -0.0000   -2.7713    0.0000 C   0  0  0  0  0  0  0  0  0  0  0  0
    0.8000   -4.1569    0.0000 H   0  0  0  0  0  0  0  0  0  0  0  0
   -1.6000   -2.7713    0.0000 C   0  0  0  0  0  0  0  0  0  0  0  0
   -2.4000   -4.1569    0.0000 H   0  0  0  0  0  0  0  0  0  0  0  0
   -2.4000   -1.3856    0.0000 C   0  0  0  0  0  0  0  0  0  0  0  0
   -4.0000   -1.3856    0.0000 H   0  0  0  0  0  0  0  0  0  0  0  0
   -1.6000   -0.0000    0.0000 C   0  0  0  0  0  0  0  0  0  0  0  0
   -2.4000    1.3856    0.0000 H   0  0  0  0  0  0  0  0  0  0  0  0
  1  2  1  0  0  0  0
  2  3  1  0  0  0  0
  3  4  1  0  0  0  0
  3  5  2  0  0  0  0
  5  6  1  0  0  0  0
  5  7  1  0  0  0  0
  7  8  1  0  0  0  0
  7  9  2  0  0  0  0
  9 10  1  0  0  0  0
  9 11  1  0  0  0  0
 11  2  2  0  0  0  0
 11 12  1  0  0  0  0
M  END
> <ChemID>
100140

> <source_casrn>
95-50-1

> <CAS>
95-50-1

> <SMILES>
Clc1ccccc1Cl

> <NAME>
1,2-DICHLOROBENZENE

> <preferred_name>
1,2-Dichlorobenzene

> <iupac>
1,2-dichlorobenzene

> <MPID>
98071

> <dsstox_substance_id>
DTXSID6020430

> <Canonical_QSARr>
Clc1ccccc1Cl

> <InChI_Code_QSARr>
InChI=1S/C6H4Cl2/c7-5-3-1-2-4-6(5)8/h1-4H

> <InChI Key_QSARr>
RFFLAFLAYFXFSW-UHFFFAOYSA-N

> <Salt_Solvent>
?

> <LogBCF>
2.43

$$$$
100141
  -INDIGO-08031719362D

 14 14  0  0  0  0  0  0  0  0999 V2000
    1.6000   -0.0000    0.0000 N   0  0  0  0  0  0  0  0  0  0  0  0
    2.4000    1.3856    0.0000 H   0  0  0  0  0  0  0  0  0  0  0  0
    2.4000   -1.3856    0.0000 H   0  0  0  0  0  0  0  0  0  0  0  0
    0.0000   -0.0000    0.0000 C   0  0  0  0  0  0  0  0  0  0  0  0
   -0.8000    1.3856    0.0000 C   0  0  0  0  0  0  0  0  0  0  0  0
    0.0000    2.7713    0.0000 Cl  0  0  0  0  0  0  0  0  0  0  0  0
   -2.4000    1.3856    0.0000 C   0  0  0  0  0  0  0  0  0  0  0  0
   -3.2000    2.7713    0.0000 H   0  0  0  0  0  0  0  0  0  0  0  0
   -3.2000   -0.0000    0.0000 C   0  0  0  0  0  0  0  0  0  0  0  0
   -4.8000   -0.0000    0.0000 H   0  0  0  0  0  0  0  0  0  0  0  0
   -2.4000   -1.3856    0.0000 C   0  0  0  0  0  0  0  0  0  0  0  0
   -3.2000   -2.7713    0.0000 H   0  0  0  0  0  0  0  0  0  0  0  0
   -0.8000   -1.3856    0.0000 C   0  0  0  0  0  0  0  0  0  0  0  0
    0.0000   -2.7713    0.0000 H   0  0  0  0  0  0  0  0  0  0  0  0
  1  2  1  0  0  0  0
  1  3  1  0  0  0  0
  1  4  1  0  0  0  0
  4  5  1  0  0  0  0
  5  6  1  0  0  0  0
  5  7  2  0  0  0  0
  7  8  1  0  0  0  0
  7  9  1  0  0  0  0
  9 10  1  0  0  0  0
  9 11  2  0  0  0  0
 11 12  1  0  0  0  0
 11 13  1  0  0  0  0
 13  4  2  0  0  0  0
 13 14  1  0  0  0  0
M  END
> <ChemID>
100141

> <source_casrn>
95-51-2

> <CAS>
95-51-2

> <SMILES>
Nc1ccccc1Cl

> <NAME>
2-CHLOROANILINE

> <preferred_name>
2-Chloroaniline

> <iupac>
2-chloroaniline

> <MPID>
98072

> <dsstox_substance_id>
DTXSID2021810

> <Canonical_QSARr>
Nc1ccccc1Cl

> <InChI_Code_QSARr>
InChI=1S/C6H6ClN/c7-5-3-1-2-4-6(5)8/h1-4H,8H2

> <InChI Key_QSARr>
AKCRQHGQIJBRMN-UHFFFAOYSA-N

> <Salt_Solvent>
?

> <LogBCF>
0.95

$$$$
100143
  -INDIGO-08031719362D

 13 13  0  0  0  0  0  0  0  0999 V2000
    0.8000    1.3856    0.0000 O   0  0  0  0  0  0  0  0  0  0  0  0
    2.4000    1.3856    0.0000 H   0  0  0  0  0  0  0  0  0  0  0  0
   -0.0000   -0.0000    0.0000 C   0  0  0  0  0  0  0  0  0  0  0  0
    0.8000   -1.3857    0.0000 C   0  0  0  0  0  0  0  0  0  0  0  0
    2.4000   -1.3857    0.0000 H   0  0  0  0  0  0  0  0  0  0  0  0
   -0.0000   -2.7713    0.0000 C   0  0  0  0  0  0  0  0  0  0  0  0
    0.8000   -4.1569    0.0000 H   0  0  0  0  0  0  0  0  0  0  0  0
   -1.6000   -2.7713    0.0000 C   0  0  0  0  0  0  0  0  0  0  0  0
   -2.4000   -4.1569    0.0000 H   0  0  0  0  0  0  0  0  0  0  0  0
   -2.4000   -1.3856    0.0000 C   0  0  0  0  0  0  0  0  0  0  0  0
   -4.0000   -1.3856    0.0000 H   0  0  0  0  0  0  0  0  0  0  0  0
   -1.6000   -0.0000    0.0000 C   0  0  0  0  0  0  0  0  0  0  0  0
   -2.4000    1.3856    0.0000 Cl  0  0  0  0  0  0  0  0  0  0  0  0
  1  2  1  0  0  0  0
  1  3  1  0  0  0  0
  3  4  1  0  0  0  0
  4  5  1  0  0  0  0
  4  6  2  0  0  0  0
  6  7  1  0  0  0  0
  6  8  1  0  0  0  0
  8  9  1  0  0  0  0
  8 10  2  0  0  0  0
 10 11  1  0  0  0  0
 10 12  1  0  0  0  0
 12  3  2  0  0  0  0
 12 13  1  0  0  0  0
M  END
> <ChemID>
100143

> <source_casrn>
95-57-8

> <CAS>
95-57-8

> <SMILES>
Oc1ccccc1Cl

> <NAME>
2-CHLOROPHENOL

> <preferred_name>
2-Chlorophenol

> <iupac>
2-chlorophenol

> <MPID>
98074

> <dsstox_substance_id>
DTXSID5021544

> <Canonical_QSARr>
Oc1ccccc1Cl

> <InChI_Code_QSARr>
InChI=1S/C6H5ClO/c7-5-3-1-2-4-6(5)8/h1-4,8H

> <InChI Key_QSARr>
ISPYQTSUDJAMAB-UHFFFAOYSA-N

> <Salt_Solvent>
?

> <LogBCF>
1.35

$$$$
100144
  -INDIGO-08031719362D

 21 21  0  0  0  0  0  0  0  0999 V2000
    1.3857    0.8000    0.0000 C   0  0  0  0  0  0  0  0  0  0  0  0
    2.7713    1.6000    0.0000 H   0  0  0  0  0  0  0  0  0  0  0  0
    1.3857    2.4000    0.0000 H   0  0  0  0  0  0  0  0  0  0  0  0
    2.7713   -0.0000    0.0000 H   0  0  0  0  0  0  0  0  0  0  0  0
    0.0000   -0.0000    0.0000 C   0  0  0  0  0  0  0  0  0  0  0  0
    0.0000   -1.6000    0.0000 C   0  0  0  0  0  0  0  0  0  0  0  0
    1.3857   -2.4000    0.0000 C   0  0  0  0  0  0  0  0  0  0  0  0
    2.7713   -3.2000    0.0000 H   0  0  0  0  0  0  0  0  0  0  0  0
    1.3857   -4.0000    0.0000 H   0  0  0  0  0  0  0  0  0  0  0  0
    2.7713   -1.6000    0.0000 H   0  0  0  0  0  0  0  0  0  0  0  0
   -1.3856   -2.4000    0.0000 C   0  0  0  0  0  0  0  0  0  0  0  0
   -1.3856   -4.0000    0.0000 H   0  0  0  0  0  0  0  0  0  0  0  0
   -2.7713   -1.6000    0.0000 C   0  0  0  0  0  0  0  0  0  0  0  0
   -4.1570   -2.4000    0.0000 H   0  0  0  0  0  0  0  0  0  0  0  0
   -2.7713   -0.0000    0.0000 C   0  0  0  0  0  0  0  0  0  0  0  0
   -4.1569    0.8000    0.0000 C   0  0  0  0  0  0  0  0  0  0  0  0
   -5.5426    1.6000    0.0000 H   0  0  0  0  0  0  0  0  0  0  0  0
   -5.5426   -0.0000    0.0000 H   0  0  0  0  0  0  0  0  0  0  0  0
   -4.1569    2.4000    0.0000 H   0  0  0  0  0  0  0  0  0  0  0  0
   -1.3856    0.8000    0.0000 C   0  0  0  0  0  0  0  0  0  0  0  0
   -1.3856    2.4000    0.0000 H   0  0  0  0  0  0  0  0  0  0  0  0
  1  2  1  0  0  0  0
  1  3  1  0  0  0  0
  1  4  1  0  0  0  0
  1  5  1  0  0  0  0
  5  6  1  0  0  0  0
  6  7  1  0  0  0  0
  7  8  1  0  0  0  0
  7  9  1  0  0  0  0
  7 10  1  0  0  0  0
  6 11  2  0  0  0  0
 11 12  1  0  0  0  0
 11 13  1  0  0  0  0
 13 14  1  0  0  0  0
 13 15  2  0  0  0  0
 15 16  1  0  0  0  0
 16 17  1  0  0  0  0
 16 18  1  0  0  0  0
 16 19  1  0  0  0  0
 15 20  1  0  0  0  0
 20  5  2  0  0  0  0
 20 21  1  0  0  0  0
M  END
> <ChemID>
100144

> <source_casrn>
95-63-6

> <CAS>
95-63-6

> <SMILES>
Cc1cc(C)c(C)cc1

> <NAME>
1,2,4-TRIMETHYLBENZENE

> <preferred_name>
1,2,4-Trimethylbenzene

> <iupac>
1,2,4-trimethylbenzene

> <MPID>
98075

> <dsstox_substance_id>
DTXSID6021402

> <Canonical_QSARr>
Cc1cc(C)c(C)cc1

> <InChI_Code_QSARr>
InChI=1S/C9H12/c1-7-4-5-8(2)9(3)6-7/h4-6H,1-3H3

> <InChI Key_QSARr>
GWHJZXXIDMPWGX-UHFFFAOYSA-N

> <Salt_Solvent>
?

> <LogBCF>
2.08

$$$$
100145
  -INDIGO-08031719362D

 20 20  0  0  0  0  0  0  0  0999 V2000
    1.3857    0.8000    0.0000 C   0  0  0  0  0  0  0  0  0  0  0  0
    2.7713    1.6000    0.0000 H   0  0  0  0  0  0  0  0  0  0  0  0
    1.3857    2.4000    0.0000 H   0  0  0  0  0  0  0  0  0  0  0  0
    2.7713   -0.0000    0.0000 H   0  0  0  0  0  0  0  0  0  0  0  0
    0.0000   -0.0000    0.0000 C   0  0  0  0  0  0  0  0  0  0  0  0
   -1.3857    0.8000    0.0000 C   0  0  0  0  0  0  0  0  0  0  0  0
   -1.3857    2.4000    0.0000 H   0  0  0  0  0  0  0  0  0  0  0  0
   -2.7713   -0.0000    0.0000 C   0  0  0  0  0  0  0  0  0  0  0  0
   -4.1570    0.8000    0.0000 N   0  0  0  0  0  0  0  0  0  0  0  0
   -5.5426   -0.0000    0.0000 H   0  0  0  0  0  0  0  0  0  0  0  0
   -4.1569    2.4000    0.0000 H   0  0  0  0  0  0  0  0  0  0  0  0
   -2.7713   -1.6000    0.0000 C   0  0  0  0  0  0  0  0  0  0  0  0
   -4.1569   -2.4000    0.0000 H   0  0  0  0  0  0  0  0  0  0  0  0
   -1.3856   -2.4000    0.0000 C   0  0  0  0  0  0  0  0  0  0  0  0
   -1.3856   -4.0000    0.0000 H   0  0  0  0  0  0  0  0  0  0  0  0
    0.0000   -1.6000    0.0000 C   0  0  0  0  0  0  0  0  0  0  0  0
    1.3857   -2.4000    0.0000 C   0  0  0  0  0  0  0  0  0  0  0  0
    2.7713   -3.2000    0.0000 H   0  0  0  0  0  0  0  0  0  0  0  0
    1.3857   -4.0000    0.0000 H   0  0  0  0  0  0  0  0  0  0  0  0
    2.7713   -1.6000    0.0000 H   0  0  0  0  0  0  0  0  0  0  0  0
  1  2  1  0  0  0  0
  1  3  1  0  0  0  0
  1  4  1  0  0  0  0
  1  5  1  0  0  0  0
  5  6  1  0  0  0  0
  6  7  1  0  0  0  0
  6  8  2  0  0  0  0
  8  9  1  0  0  0  0
  9 10  1  0  0  0  0
  9 11  1  0  0  0  0
  8 12  1  0  0  0  0
 12 13  1  0  0  0  0
 12 14  2  0  0  0  0
 14 15  1  0  0  0  0
 14 16  1  0  0  0  0
 16  5  2  0  0  0  0
 16 17  1  0  0  0  0
 17 18  1  0  0  0  0
 17 19  1  0  0  0  0
 17 20  1  0  0  0  0
M  END
> <ChemID>
100145

> <source_casrn>
95-64-7

> <CAS>
95-64-7

> <SMILES>
Cc1cc(N)ccc1C

> <NAME>
3,4-XYLIDINE

> <preferred_name>
3,4-Dimethylaniline

> <iupac>
3,4-dimethylaniline

> <MPID>
98076

> <dsstox_substance_id>
DTXSID3026308

> <Canonical_QSARr>
Cc1cc(N)ccc1C

> <InChI_Code_QSARr>
InChI=1S/C8H11N/c1-6-3-4-8(9)5-7(6)2/h3-5H,9H2,1-2H3

> <InChI Key_QSARr>
DOLQYFPDPKPQSS-UHFFFAOYSA-N

> <Salt_Solvent>
?

> <LogBCF>
0.95

$$$$
100147
  -INDIGO-08031719362D

 14 14  0  0  0  0  0  0  0  0999 V2000
    1.6000   -0.0000    0.0000 N   0  0  0  0  0  0  0  0  0  0  0  0
    2.4000    1.3856    0.0000 H   0  0  0  0  0  0  0  0  0  0  0  0
    2.4000   -1.3856    0.0000 H   0  0  0  0  0  0  0  0  0  0  0  0
    0.0000   -0.0000    0.0000 C   0  0  0  0  0  0  0  0  0  0  0  0
   -0.8000    1.3856    0.0000 C   0  0  0  0  0  0  0  0  0  0  0  0
    0.0000    2.7713    0.0000 H   0  0  0  0  0  0  0  0  0  0  0  0
   -2.4000    1.3856    0.0000 C   0  0  0  0  0  0  0  0  0  0  0  0
   -3.2000    2.7713    0.0000 Cl  0  0  0  0  0  0  0  0  0  0  0  0
   -3.2000   -0.0000    0.0000 C   0  0  0  0  0  0  0  0  0  0  0  0
   -4.8000   -0.0000    0.0000 Cl  0  0  0  0  0  0  0  0  0  0  0  0
   -2.4000   -1.3856    0.0000 C   0  0  0  0  0  0  0  0  0  0  0  0
   -3.2000   -2.7713    0.0000 H   0  0  0  0  0  0  0  0  0  0  0  0
   -0.8000   -1.3856    0.0000 C   0  0  0  0  0  0  0  0  0  0  0  0
    0.0000   -2.7713    0.0000 H   0  0  0  0  0  0  0  0  0  0  0  0
  1  2  1  0  0  0  0
  1  3  1  0  0  0  0
  1  4  1  0  0  0  0
  4  5  1  0  0  0  0
  5  6  1  0  0  0  0
  5  7  2  0  0  0  0
  7  8  1  0  0  0  0
  7  9  1  0  0  0  0
  9 10  1  0  0  0  0
  9 11  2  0  0  0  0
 11 12  1  0  0  0  0
 11 13  1  0  0  0  0
 13  4  2  0  0  0  0
 13 14  1  0  0  0  0
M  END
> <ChemID>
100147

> <source_casrn>
95-76-1

> <CAS>
95-76-1

> <SMILES>
Nc1cc(Cl)c(Cl)cc1

> <NAME>
3,4-DICHLOROANILINE

> <preferred_name>
3,4-Dichloroaniline

> <iupac>
3,4-dichloroaniline

> <MPID>
98078

> <dsstox_substance_id>
DTXSID7021815

> <Canonical_QSARr>
Nc1cc(Cl)c(Cl)cc1

> <InChI_Code_QSARr>
InChI=1S/C6H5Cl2N/c7-5-2-1-4(9)3-6(5)8/h1-3H,9H2

> <InChI Key_QSARr>
SDYWXFYBZPNOFX-UHFFFAOYSA-N

> <Salt_Solvent>
?

> <LogBCF>
1.11

$$$$
100148
  -INDIGO-08031719362D

 13 13  0  0  0  0  0  0  0  0999 V2000
   -4.0000   -1.3857    0.0000 Cl  0  0  0  0  0  0  0  0  0  0  0  0
   -2.4000   -1.3857    0.0000 C   0  0  0  0  0  0  0  0  0  0  0  0
   -1.6000   -0.0000    0.0000 C   0  0  0  0  0  0  0  0  0  0  0  0
   -2.4000    1.3856    0.0000 H   0  0  0  0  0  0  0  0  0  0  0  0
   -0.0000   -0.0000    0.0000 C   0  0  0  0  0  0  0  0  0  0  0  0
    0.8000    1.3856    0.0000 O   0  0  0  0  0  0  0  0  0  0  0  0
    2.4000    1.3856    0.0000 H   0  0  0  0  0  0  0  0  0  0  0  0
    0.8000   -1.3857    0.0000 C   0  0  0  0  0  0  0  0  0  0  0  0
    2.4000   -1.3857    0.0000 H   0  0  0  0  0  0  0  0  0  0  0  0
   -0.0000   -2.7713    0.0000 C   0  0  0  0  0  0  0  0  0  0  0  0
    0.8000   -4.1569    0.0000 H   0  0  0  0  0  0  0  0  0  0  0  0
   -1.6000   -2.7713    0.0000 C   0  0  0  0  0  0  0  0  0  0  0  0
   -2.4000   -4.1569    0.0000 Cl  0  0  0  0  0  0  0  0  0  0  0  0
  1  2  1  0  0  0  0
  2  3  1  0  0  0  0
  3  4  1  0  0  0  0
  3  5  2  0  0  0  0
  5  6  1  0  0  0  0
  6  7  1  0  0  0  0
  5  8  1  0  0  0  0
  8  9  1  0  0  0  0
  8 10  2  0  0  0  0
 10 11  1  0  0  0  0
 10 12  1  0  0  0  0
 12  2  2  0  0  0  0
 12 13  1  0  0  0  0
M  END
> <ChemID>
100148

> <source_casrn>
95-77-2

> <CAS>
95-77-2

> <SMILES>
Oc1cc(Cl)c(Cl)cc1

> <NAME>
3,4-DICHLOROPHENOL

> <preferred_name>
3,4-Dichlorophenol

> <iupac>
3,4-dichlorophenol

> <MPID>
98079

> <dsstox_substance_id>
DTXSID7025005

> <Canonical_QSARr>
Oc1cc(Cl)c(Cl)cc1

> <InChI_Code_QSARr>
InChI=1S/C6H4Cl2O/c7-5-2-1-4(9)3-6(5)8/h1-3,9H

> <InChI Key_QSARr>
WDNBURPWRNALGP-UHFFFAOYSA-N

> <Salt_Solvent>
?

> <LogBCF>
1.69

$$$$
100149
  -INDIGO-08031719362D

 20 20  0  0  0  0  0  0  0  0999 V2000
   -1.3856    2.4000    0.0000 N   0  0  0  0  0  0  0  0  0  0  0  0
   -1.3856    4.0000    0.0000 H   0  0  0  0  0  0  0  0  0  0  0  0
   -2.7713    1.6000    0.0000 H   0  0  0  0  0  0  0  0  0  0  0  0
    0.0000    1.6000    0.0000 C   0  0  0  0  0  0  0  0  0  0  0  0
    0.0000    0.0000    0.0000 C   0  0  0  0  0  0  0  0  0  0  0  0
   -1.3857   -0.8000    0.0000 C   0  0  0  0  0  0  0  0  0  0  0  0
   -2.7713   -1.6000    0.0000 H   0  0  0  0  0  0  0  0  0  0  0  0
   -1.3857   -2.4000    0.0000 H   0  0  0  0  0  0  0  0  0  0  0  0
   -2.7713    0.0000    0.0000 H   0  0  0  0  0  0  0  0  0  0  0  0
    1.3857   -0.8000    0.0000 C   0  0  0  0  0  0  0  0  0  0  0  0
    1.3857   -2.4000    0.0000 H   0  0  0  0  0  0  0  0  0  0  0  0
    2.7713    0.0000    0.0000 C   0  0  0  0  0  0  0  0  0  0  0  0
    4.1570   -0.8000    0.0000 H   0  0  0  0  0  0  0  0  0  0  0  0
    2.7713    1.6000    0.0000 C   0  0  0  0  0  0  0  0  0  0  0  0
    4.1570    2.4000    0.0000 C   0  0  0  0  0  0  0  0  0  0  0  0
    5.5426    3.2000    0.0000 H   0  0  0  0  0  0  0  0  0  0  0  0
    5.5426    1.6000    0.0000 H   0  0  0  0  0  0  0  0  0  0  0  0
    4.1570    4.0000    0.0000 H   0  0  0  0  0  0  0  0  0  0  0  0
    1.3857    2.4000    0.0000 C   0  0  0  0  0  0  0  0  0  0  0  0
    1.3856    4.0000    0.0000 H   0  0  0  0  0  0  0  0  0  0  0  0
  1  2  1  0  0  0  0
  1  3  1  0  0  0  0
  1  4  1  0  0  0  0
  4  5  1  0  0  0  0
  5  6  1  0  0  0  0
  6  7  1  0  0  0  0
  6  8  1  0  0  0  0
  6  9  1  0  0  0  0
  5 10  2  0  0  0  0
 10 11  1  0  0  0  0
 10 12  1  0  0  0  0
 12 13  1  0  0  0  0
 12 14  2  0  0  0  0
 14 15  1  0  0  0  0
 15 16  1  0  0  0  0
 15 17  1  0  0  0  0
 15 18  1  0  0  0  0
 14 19  1  0  0  0  0
 19  4  2  0  0  0  0
 19 20  1  0  0  0  0
M  END
> <ChemID>
100149

> <source_casrn>
95-78-3

> <CAS>
95-78-3

> <SMILES>
Cc1cc(N)c(C)cc1

> <NAME>
2,5-DIMETHYLANILINE

> <preferred_name>
2,5-Dimethylaniline

> <iupac>
2,5-dimethylaniline

> <MPID>
98080

> <dsstox_substance_id>
DTXSID3026306

> <Canonical_QSARr>
Cc1cc(N)c(C)cc1

> <InChI_Code_QSARr>
InChI=1S/C8H11N/c1-6-3-4-7(2)8(9)5-6/h3-5H,9H2,1-2H3

> <InChI Key_QSARr>
VOWZNBNDMFLQGM-UHFFFAOYSA-N

> <Salt_Solvent>
?

> <LogBCF>
0.58

$$$$
100151
  -INDIGO-08031719362D

 14 14  0  0  0  0  0  0  0  0999 V2000
    1.6000   -0.0000    0.0000 N   0  0  0  0  0  0  0  0  0  0  0  0
    2.4000    1.3856    0.0000 H   0  0  0  0  0  0  0  0  0  0  0  0
    2.4000   -1.3856    0.0000 H   0  0  0  0  0  0  0  0  0  0  0  0
    0.0000   -0.0000    0.0000 C   0  0  0  0  0  0  0  0  0  0  0  0
   -0.8000    1.3856    0.0000 C   0  0  0  0  0  0  0  0  0  0  0  0
    0.0000    2.7713    0.0000 Cl  0  0  0  0  0  0  0  0  0  0  0  0
   -2.4000    1.3856    0.0000 C   0  0  0  0  0  0  0  0  0  0  0  0
   -3.2000    2.7713    0.0000 H   0  0  0  0  0  0  0  0  0  0  0  0
   -3.2000   -0.0000    0.0000 C   0  0  0  0  0  0  0  0  0  0  0  0
   -4.8000   -0.0000    0.0000 H   0  0  0  0  0  0  0  0  0  0  0  0
   -2.4000   -1.3856    0.0000 C   0  0  0  0  0  0  0  0  0  0  0  0
   -3.2000   -2.7713    0.0000 Cl  0  0  0  0  0  0  0  0  0  0  0  0
   -0.8000   -1.3856    0.0000 C   0  0  0  0  0  0  0  0  0  0  0  0
    0.0000   -2.7713    0.0000 H   0  0  0  0  0  0  0  0  0  0  0  0
  1  2  1  0  0  0  0
  1  3  1  0  0  0  0
  1  4  1  0  0  0  0
  4  5  1  0  0  0  0
  5  6  1  0  0  0  0
  5  7  2  0  0  0  0
  7  8  1  0  0  0  0
  7  9  1  0  0  0  0
  9 10  1  0  0  0  0
  9 11  2  0  0  0  0
 11 12  1  0  0  0  0
 11 13  1  0  0  0  0
 13  4  2  0  0  0  0
 13 14  1  0  0  0  0
M  END
> <ChemID>
100151

> <source_casrn>
95-82-9

> <CAS>
95-82-9

> <SMILES>
Nc1cc(Cl)ccc1Cl

> <NAME>
2,5-DICHLOROANILINE

> <preferred_name>
2,5-Dichloroaniline

> <iupac>
2,5-dichloroaniline

> <MPID>
98082

> <dsstox_substance_id>
DTXSID6024967

> <Canonical_QSARr>
Nc1cc(Cl)ccc1Cl

> <InChI_Code_QSARr>
InChI=1S/C6H5Cl2N/c7-4-1-2-5(8)6(9)3-4/h1-3H,9H2

> <InChI Key_QSARr>
AVYGCQXNNJPXSS-UHFFFAOYSA-N

> <Salt_Solvent>
?

> <LogBCF>
1.18

$$$$
100152
  -INDIGO-08031719362D

 12 12  0  0  0  0  0  0  0  0999 V2000
    0.8000    1.3856    0.0000 Cl  0  0  0  0  0  0  0  0  0  0  0  0
   -0.0000   -0.0000    0.0000 C   0  0  0  0  0  0  0  0  0  0  0  0
    0.8000   -1.3857    0.0000 C   0  0  0  0  0  0  0  0  0  0  0  0
    2.4000   -1.3857    0.0000 H   0  0  0  0  0  0  0  0  0  0  0  0
   -0.0000   -2.7713    0.0000 C   0  0  0  0  0  0  0  0  0  0  0  0
    0.8000   -4.1569    0.0000 Cl  0  0  0  0  0  0  0  0  0  0  0  0
   -1.6000   -2.7713    0.0000 C   0  0  0  0  0  0  0  0  0  0  0  0
   -2.4000   -4.1569    0.0000 Cl  0  0  0  0  0  0  0  0  0  0  0  0
   -2.4000   -1.3856    0.0000 C   0  0  0  0  0  0  0  0  0  0  0  0
   -4.0000   -1.3856    0.0000 H   0  0  0  0  0  0  0  0  0  0  0  0
   -1.6000   -0.0000    0.0000 C   0  0  0  0  0  0  0  0  0  0  0  0
   -2.4000    1.3856    0.0000 Cl  0  0  0  0  0  0  0  0  0  0  0  0
  1  2  1  0  0  0  0
  2  3  1  0  0  0  0
  3  4  1  0  0  0  0
  3  5  2  0  0  0  0
  5  6  1  0  0  0  0
  5  7  1  0  0  0  0
  7  8  1  0  0  0  0
  7  9  2  0  0  0  0
  9 10  1  0  0  0  0
  9 11  1  0  0  0  0
 11  2  2  0  0  0  0
 11 12  1  0  0  0  0
M  END
> <ChemID>
100152

> <source_casrn>
95-94-3

> <CAS>
95-94-3

> <SMILES>
Clc1cc(Cl)c(Cl)cc1Cl

> <NAME>
1,2,4,5-TETRACHLOROBENZENE

> <preferred_name>
1,2,4,5-Tetrachlorobenzene

> <iupac>
1,2,4,5-tetrachlorobenzene

> <MPID>
98083

> <dsstox_substance_id>
DTXSID7024320

> <Canonical_QSARr>
Clc1cc(Cl)c(Cl)cc1Cl

> <InChI_Code_QSARr>
InChI=1S/C6H2Cl4/c7-3-1-4(8)6(10)2-5(3)9/h1-2H

> <InChI Key_QSARr>
JHBKHLUZVFWLAG-UHFFFAOYSA-N

> <Salt_Solvent>
?

> <LogBCF>
3.44

$$$$
100153
  -INDIGO-08031719362D

 13 13  0  0  0  0  0  0  0  0999 V2000
    0.0000    2.7713    0.0000 Cl  0  0  0  0  0  0  0  0  0  0  0  0
   -0.8000    1.3856    0.0000 C   0  0  0  0  0  0  0  0  0  0  0  0
    0.0000   -0.0000    0.0000 C   0  0  0  0  0  0  0  0  0  0  0  0
    1.6000   -0.0000    0.0000 O   0  0  0  0  0  0  0  0  0  0  0  0
    2.4000    1.3856    0.0000 H   0  0  0  0  0  0  0  0  0  0  0  0
   -0.8000   -1.3856    0.0000 C   0  0  0  0  0  0  0  0  0  0  0  0
    0.0000   -2.7713    0.0000 H   0  0  0  0  0  0  0  0  0  0  0  0
   -2.4000   -1.3856    0.0000 C   0  0  0  0  0  0  0  0  0  0  0  0
   -3.2000   -2.7713    0.0000 Cl  0  0  0  0  0  0  0  0  0  0  0  0
   -3.2000   -0.0000    0.0000 C   0  0  0  0  0  0  0  0  0  0  0  0
   -4.8000   -0.0000    0.0000 Cl  0  0  0  0  0  0  0  0  0  0  0  0
   -2.4000    1.3856    0.0000 C   0  0  0  0  0  0  0  0  0  0  0  0
   -3.2000    2.7713    0.0000 H   0  0  0  0  0  0  0  0  0  0  0  0
  1  2  1  0  0  0  0
  2  3  1  0  0  0  0
  3  4  1  0  0  0  0
  4  5  1  0  0  0  0
  3  6  2  0  0  0  0
  6  7  1  0  0  0  0
  6  8  1  0  0  0  0
  8  9  1  0  0  0  0
  8 10  2  0  0  0  0
 10 11  1  0  0  0  0
 10 12  1  0  0  0  0
 12  2  2  0  0  0  0
 12 13  1  0  0  0  0
M  END
> <ChemID>
100153

> <source_casrn>
95-95-4

> <CAS>
95-95-4

> <SMILES>
Oc1cc(Cl)c(Cl)cc1Cl

> <NAME>
2,4,5-TRICHLOROPHENOL

> <preferred_name>
2,4,5-Trichlorophenol

> <iupac>
C6H3Cl3O

> <MPID>
98084

> <dsstox_substance_id>
DTXSID4024359

> <Canonical_QSARr>
Oc1cc(Cl)c(Cl)cc1Cl

> <InChI_Code_QSARr>
InChI=1S/C6H3Cl3O/c7-3-1-5(9)6(10)2-4(3)8/h1-2,10H

> <InChI Key_QSARr>
LHJGJYXLEPZJPM-UHFFFAOYSA-N

> <Salt_Solvent>
?

> <LogBCF>
2.73

$$$$
100155
  -INDIGO-08031719362D

 11 10  0  0  0  0  0  0  0  0999 V2000
   -0.6123   -1.4782    0.0000 Cl  0  0  0  0  0  0  0  0  0  0  0  0
    0.0000    0.0000    0.0000 C   0  0  0  0  0  0  0  0  0  0  0  0
    0.6123   -1.4782    0.0000 H   0  0  0  0  0  0  0  0  0  0  0  0
   -1.3856    0.8000    0.0000 C   0  0  0  0  0  0  0  0  0  0  0  0
   -2.7713    1.6000    0.0000 H   0  0  0  0  0  0  0  0  0  0  0  0
   -2.7713    0.0000    0.0000 H   0  0  0  0  0  0  0  0  0  0  0  0
   -1.3856    2.4000    0.0000 Cl  0  0  0  0  0  0  0  0  0  0  0  0
    1.3856    0.8000    0.0000 C   0  0  0  0  0  0  0  0  0  0  0  0
    2.7713    1.6000    0.0000 H   0  0  0  0  0  0  0  0  0  0  0  0
    2.7713    0.0000    0.0000 H   0  0  0  0  0  0  0  0  0  0  0  0
    1.3856    2.4000    0.0000 Cl  0  0  0  0  0  0  0  0  0  0  0  0
  1  2  1  0  0  0  0
  2  3  1  0  0  0  0
  2  4  1  0  0  0  0
  4  5  1  0  0  0  0
  4  6  1  0  0  0  0
  4  7  1  0  0  0  0
  2  8  1  0  0  0  0
  8  9  1  0  0  0  0
  8 10  1  0  0  0  0
  8 11  1  0  0  0  0
M  END
> <ChemID>
100155

> <source_casrn>
96-18-4

> <CAS>
96-18-4

> <SMILES>
ClC(CCl)CCl

> <NAME>
1,2,3-TRICHLOROPROPANE

> <preferred_name>
1,2,3-Trichloropropane

> <iupac>
1,2,3-trichloropropane

> <MPID>
98086

> <dsstox_substance_id>
DTXSID9021390

> <Canonical_QSARr>
ClC(CCl)CCl

> <InChI_Code_QSARr>
InChI=1S/C3H5Cl3/c4-1-3(6)2-5/h3H,1-2H2

> <InChI Key_QSARr>
CFXQEHVMCRXUSD-UHFFFAOYSA-N

> <Salt_Solvent>
?

> <LogBCF>
1.11

$$$$
100156
  -INDIGO-08031719362D

 15 14  0  0  0  0  0  0  0  0999 V2000
    0.8000    1.3856    0.0000 N   0  0  0  0  0  0  0  0  0  0  0  0
    2.4000    1.3856    0.0000 O   0  0  0  0  0  0  0  0  0  0  0  0
    0.0000    0.0000    0.0000 C   0  0  0  0  0  0  0  0  0  0  0  0
   -0.8000   -1.3856    0.0000 H   0  0  0  0  0  0  0  0  0  0  0  0
   -1.3856    0.8000    0.0000 C   0  0  0  0  0  0  0  0  0  0  0  0
   -0.7733    2.2782    0.0000 H   0  0  0  0  0  0  0  0  0  0  0  0
   -1.9980    2.2782    0.0000 H   0  0  0  0  0  0  0  0  0  0  0  0
   -2.7713    0.0000    0.0000 C   0  0  0  0  0  0  0  0  0  0  0  0
   -4.1569   -0.8000    0.0000 H   0  0  0  0  0  0  0  0  0  0  0  0
   -4.1569    0.8000    0.0000 H   0  0  0  0  0  0  0  0  0  0  0  0
   -2.7713   -1.6000    0.0000 H   0  0  0  0  0  0  0  0  0  0  0  0
    1.3856   -0.8000    0.0000 C   0  0  0  0  0  0  0  0  0  0  0  0
    2.7713   -1.6000    0.0000 H   0  0  0  0  0  0  0  0  0  0  0  0
    2.7713    0.0000    0.0000 H   0  0  0  0  0  0  0  0  0  0  0  0
    1.3856   -2.4000    0.0000 H   0  0  0  0  0  0  0  0  0  0  0  0
  1  2  2  0  0  0  0
  1  3  1  0  0  0  0
  3  4  1  0  0  0  0
  3  5  1  0  0  0  0
  5  6  1  0  0  0  0
  5  7  1  0  0  0  0
  5  8  1  0  0  0  0
  8  9  1  0  0  0  0
  8 10  1  0  0  0  0
  8 11  1  0  0  0  0
  3 12  1  0  0  0  0
 12 13  1  0  0  0  0
 12 14  1  0  0  0  0
 12 15  1  0  0  0  0
M  END
> <ChemID>
100156

> <source_casrn>
96-29-7

> <CAS>
96-29-7

> <SMILES>
CCC(C)=NO

> <NAME>
2-BUTANONE OXIME

> <preferred_name>
2-Butanone oxime

> <iupac>
N-hydroxybutan-2-imine

> <MPID>
98087

> <dsstox_substance_id>
DTXSID1021821

> <Canonical_QSARr>
CCC(C)N=O

> <InChI_Code_QSARr>
InChI=1S/C4H9NO/c1-3-4(2)5-6/h4H,3H2,1-2H3

> <InChI Key_QSARr>
GRFXXWWBAWFSRF-UHFFFAOYSA-N

> <Salt_Solvent>
?

> <LogBCF>
0.7

$$$$
100157
  -INDIGO-08031719362D

 12 12  0  0  0  0  0  0  0  0999 V2000
    3.0349    2.8161    0.0000 S   0  0  0  0  0  0  0  0  0  0  0  0
    2.0944    1.5217    0.0000 C   0  0  0  0  0  0  0  0  0  0  0  0
    2.5888   -0.0000    0.0000 N   0  0  0  0  0  0  0  0  0  0  0  0
    4.1105   -0.4945    0.0000 H   0  0  0  0  0  0  0  0  0  0  0  0
    1.2945   -0.9405    0.0000 C   0  0  0  0  0  0  0  0  0  0  0  0
    2.3650   -2.1295    0.0000 H   0  0  0  0  0  0  0  0  0  0  0  0
    0.2238   -2.1295    0.0000 H   0  0  0  0  0  0  0  0  0  0  0  0
    0.0000   -0.0000    0.0000 C   0  0  0  0  0  0  0  0  0  0  0  0
   -0.8000   -1.3856    0.0000 H   0  0  0  0  0  0  0  0  0  0  0  0
   -1.4617    0.6508    0.0000 H   0  0  0  0  0  0  0  0  0  0  0  0
    0.4944    1.5217    0.0000 N   0  0  0  0  0  0  0  0  0  0  0  0
   -0.4460    2.8161    0.0000 H   0  0  0  0  0  0  0  0  0  0  0  0
  1  2  2  0  0  0  0
  2  3  1  0  0  0  0
  3  4  1  0  0  0  0
  3  5  1  0  0  0  0
  5  6  1  0  0  0  0
  5  7  1  0  0  0  0
  5  8  1  0  0  0  0
  8  9  1  0  0  0  0
  8 10  1  0  0  0  0
  8 11  1  0  0  0  0
 11  2  1  0  0  0  0
 11 12  1  0  0  0  0
M  END
> <ChemID>
100157

> <source_casrn>
96-45-7

> <CAS>
96-45-7

> <SMILES>
N(C(=S)NC1)C1

> <NAME>
ETHYLENETHIOUREA

> <preferred_name>
Ethylene thiourea

> <iupac>
imidazolidine-2-thione

> <MPID>
98088

> <dsstox_substance_id>
DTXSID5020601

> <Canonical_QSARr>
S=C1NCCN1

> <InChI_Code_QSARr>
InChI=1S/C3H6N2S/c6-3-4-1-2-5-3/h1-2H2,(H2,4,5,6)

> <InChI Key_QSARr>
PDQAZBWRQCGBEV-UHFFFAOYSA-N

> <Salt_Solvent>
?

> <LogBCF>
0.26

$$$$
100159
  -INDIGO-08031719362D

 19 19  0  0  0  0  0  0  0  0999 V2000
    1.3857    0.8000    0.0000 N   0  0  0  0  0  0  0  0  0  0  0  0
    1.3857    2.4000    0.0000 O   0  0  0  0  0  0  0  0  0  0  0  0
    2.7713    0.0000    0.0000 O   0  0  0  0  0  0  0  0  0  0  0  0
    0.0000    0.0000    0.0000 C   0  0  0  0  0  0  0  0  0  0  0  0
   -1.3857    0.8000    0.0000 C   0  0  0  0  0  0  0  0  0  0  0  0
   -1.3857    2.4000    0.0000 H   0  0  0  0  0  0  0  0  0  0  0  0
   -2.7713    0.0000    0.0000 C   0  0  0  0  0  0  0  0  0  0  0  0
   -4.1570    0.8000    0.0000 N   0  0  0  0  0  0  0  0  0  0  0  0
   -5.5426    0.0000    0.0000 O   0  0  0  0  0  0  0  0  0  0  0  0
   -4.1569    2.4000    0.0000 O   0  0  0  0  0  0  0  0  0  0  0  0
   -2.7713   -1.6000    0.0000 C   0  0  0  0  0  0  0  0  0  0  0  0
   -4.1569   -2.4000    0.0000 H   0  0  0  0  0  0  0  0  0  0  0  0
   -1.3856   -2.4000    0.0000 C   0  0  0  0  0  0  0  0  0  0  0  0
   -1.3856   -4.0000    0.0000 N   0  0  0  0  0  0  0  0  0  0  0  0
   -2.7713   -4.8000    0.0000 H   0  0  0  0  0  0  0  0  0  0  0  0
    0.0000   -4.8000    0.0000 H   0  0  0  0  0  0  0  0  0  0  0  0
    0.0000   -1.6000    0.0000 C   0  0  0  0  0  0  0  0  0  0  0  0
    1.3857   -2.4000    0.0000 O   0  0  0  0  0  0  0  0  0  0  0  0
    1.3857   -4.0000    0.0000 H   0  0  0  0  0  0  0  0  0  0  0  0
  1  2  2  0  0  0  0
  1  3  1  0  0  0  0
  1  4  1  0  0  0  0
  4  5  1  0  0  0  0
  5  6  1  0  0  0  0
  5  7  2  0  0  0  0
  7  8  1  0  0  0  0
  8  9  2  0  0  0  0
  8 10  1  0  0  0  0
  7 11  1  0  0  0  0
 11 12  1  0  0  0  0
 11 13  2  0  0  0  0
 13 14  1  0  0  0  0
 14 15  1  0  0  0  0
 14 16  1  0  0  0  0
 13 17  1  0  0  0  0
 17  4  2  0  0  0  0
 17 18  1  0  0  0  0
 18 19  1  0  0  0  0
M  CHG  4   1   1   3  -1   8   1  10  -1
M  END
> <ChemID>
100159

> <source_casrn>
96-91-3

> <CAS>
96-91-3

> <SMILES>
Nc1cc(cc(c1O)[N+]([O-])=O)[N+]([O-])=O

> <NAME>
2-AMINO-4,6-DINITROPHENOL

> <preferred_name>
2-Amino-4,6-dinitrophenol

> <iupac>
2-amino-4,6-dinitrophenol

> <MPID>
98090

> <dsstox_substance_id>
DTXSID5024479

> <Canonical_QSARr>
Nc1cc(cc(c1O)[N+]([O-])=O)[N+]([O-])=O

> <InChI_Code_QSARr>
InChI=1S/C6H5N3O5/c7-4-1-3(8(11)12)2-5(6(4)10)9(13)14/h1-2,10H,7H2

> <InChI Key_QSARr>
QXYMVUZOGFVPGH-UHFFFAOYSA-N

> <Salt_Solvent>
?

> <LogBCF>
0.47

$$$$
100160
  -INDIGO-08031719362D

 20 20  0  0  0  0  0  0  0  0999 V2000
   -0.0000    1.6000    0.0000 C   0  0  0  0  0  0  0  0  0  0  0  0
    1.3856    2.4000    0.0000 C   0  0  0  0  0  0  0  0  0  0  0  0
    1.3856    4.0000    0.0000 H   0  0  0  0  0  0  0  0  0  0  0  0
    2.7713    1.6000    0.0000 C   0  0  0  0  0  0  0  0  0  0  0  0
    4.1570    2.4000    0.0000 H   0  0  0  0  0  0  0  0  0  0  0  0
    2.7713    0.0000    0.0000 C   0  0  0  0  0  0  0  0  0  0  0  0
    4.1570   -0.8000    0.0000 O   0  0  0  0  0  0  0  0  0  0  0  0
    5.5426    0.0000    0.0000 C   0  0  0  0  0  0  0  0  0  0  0  0
    6.9282   -0.8000    0.0000 H   0  0  0  0  0  0  0  0  0  0  0  0
    6.9282    0.8000    0.0000 H   0  0  0  0  0  0  0  0  0  0  0  0
    5.5426   -1.6000    0.0000 H   0  0  0  0  0  0  0  0  0  0  0  0
    1.3856   -0.8000    0.0000 C   0  0  0  0  0  0  0  0  0  0  0  0
    1.3856   -2.4000    0.0000 H   0  0  0  0  0  0  0  0  0  0  0  0
   -0.0000    0.0000    0.0000 C   0  0  0  0  0  0  0  0  0  0  0  0
   -1.3857   -0.8000    0.0000 N   0  0  0  0  0  0  0  0  0  0  0  0
   -1.3857   -2.4000    0.0000 O   0  0  0  0  0  0  0  0  0  0  0  0
   -2.7713    0.0000    0.0000 O   0  0  0  0  0  0  0  0  0  0  0  0
   -1.3857    2.4000    0.0000 N   0  0  0  0  0  0  0  0  0  0  0  0
   -1.3857    4.0000    0.0000 H   0  0  0  0  0  0  0  0  0  0  0  0
   -2.7713    1.6000    0.0000 H   0  0  0  0  0  0  0  0  0  0  0  0
  1  2  1  0  0  0  0
  2  3  1  0  0  0  0
  2  4  2  0  0  0  0
  4  5  1  0  0  0  0
  4  6  1  0  0  0  0
  6  7  1  0  0  0  0
  7  8  1  0  0  0  0
  8  9  1  0  0  0  0
  8 10  1  0  0  0  0
  8 11  1  0  0  0  0
  6 12  2  0  0  0  0
 12 13  1  0  0  0  0
 12 14  1  0  0  0  0
 14  1  2  0  0  0  0
 14 15  1  0  0  0  0
 15 16  1  0  0  0  0
 15 17  2  0  0  0  0
  1 18  1  0  0  0  0
 18 19  1  0  0  0  0
 18 20  1  0  0  0  0
M  CHG  2  15   1  16  -1
M  END
> <ChemID>
100160

> <source_casrn>
96-96-8

> <CAS>
96-96-8

> <SMILES>
COc1cc(c(N)cc1)[N+]([O-])=O

> <NAME>
BENZENAMINE, 4-METHOXY-2-NITRO-

> <preferred_name>
4-Methoxy-2-nitroaniline

> <iupac>
C7H8N2O3

> <MPID>
98091

> <dsstox_substance_id>
DTXSID3044750

> <Canonical_QSARr>
COc1cc(c(N)cc1)[N+]([O-])=O

> <InChI_Code_QSARr>
InChI=1S/C7H8N2O3/c1-12-5-2-3-6(8)7(4-5)9(10)11/h2-4H,8H2,1H3

> <InChI Key_QSARr>
QFMJFXFXQAFGBO-UHFFFAOYSA-N

> <Salt_Solvent>
?

> <LogBCF>
0.85

$$$$
100161
  -INDIGO-08031719362D

 27 28  0  0  0  0  0  0  0  0999 V2000
    2.0570    2.4513    0.0000 O   0  0  0  0  0  0  0  0  0  0  0  0
    3.0855    3.6770    0.0000 H   0  0  0  0  0  0  0  0  0  0  0  0
    2.6041    0.9478    0.0000 C   0  0  0  0  0  0  0  0  0  0  0  0
    4.1799    0.6700    0.0000 C   0  0  0  0  0  0  0  0  0  0  0  0
    5.2083    1.8957    0.0000 H   0  0  0  0  0  0  0  0  0  0  0  0
    4.7270   -0.8335    0.0000 C   0  0  0  0  0  0  0  0  0  0  0  0
    6.3028   -1.1113    0.0000 H   0  0  0  0  0  0  0  0  0  0  0  0
    3.6986   -2.0592    0.0000 C   0  0  0  0  0  0  0  0  0  0  0  0
    4.2459   -3.5626    0.0000 Cl  0  0  0  0  0  0  0  0  0  0  0  0
    2.1230   -1.7813    0.0000 C   0  0  0  0  0  0  0  0  0  0  0  0
    1.0945   -3.0071    0.0000 H   0  0  0  0  0  0  0  0  0  0  0  0
    1.5757   -0.2779    0.0000 C   0  0  0  0  0  0  0  0  0  0  0  0
    0.0001   -0.0000    0.0000 C   0  0  0  0  0  0  0  0  0  0  0  0
    0.3462    1.5621    0.0000 H   0  0  0  0  0  0  0  0  0  0  0  0
   -0.8597    1.3495    0.0000 H   0  0  0  0  0  0  0  0  0  0  0  0
   -1.3857   -0.8000    0.0000 C   0  0  0  0  0  0  0  0  0  0  0  0
   -1.3857   -2.4000    0.0000 C   0  0  0  0  0  0  0  0  0  0  0  0
    0.0001   -3.2001    0.0000 H   0  0  0  0  0  0  0  0  0  0  0  0
   -2.7713   -3.2001    0.0000 C   0  0  0  0  0  0  0  0  0  0  0  0
   -2.7713   -4.8000    0.0000 Cl  0  0  0  0  0  0  0  0  0  0  0  0
   -4.1569   -2.4000    0.0000 C   0  0  0  0  0  0  0  0  0  0  0  0
   -5.5426   -3.2001    0.0000 H   0  0  0  0  0  0  0  0  0  0  0  0
   -4.1569   -0.8000    0.0000 C   0  0  0  0  0  0  0  0  0  0  0  0
   -5.5426   -0.0000    0.0000 H   0  0  0  0  0  0  0  0  0  0  0  0
   -2.7713   -0.0000    0.0000 C   0  0  0  0  0  0  0  0  0  0  0  0
   -2.7713    1.6000    0.0000 O   0  0  0  0  0  0  0  0  0  0  0  0
   -4.1569    2.4001    0.0000 H   0  0  0  0  0  0  0  0  0  0  0  0
  1  2  1  0  0  0  0
  1  3  1  0  0  0  0
  3  4  1  0  0  0  0
  4  5  1  0  0  0  0
  4  6  2  0  0  0  0
  6  7  1  0  0  0  0
  6  8  1  0  0  0  0
  8  9  1  0  0  0  0
  8 10  2  0  0  0  0
 10 11  1  0  0  0  0
 10 12  1  0  0  0  0
 12  3  2  0  0  0  0
 12 13  1  0  0  0  0
 13 14  1  0  0  0  0
 13 15  1  0  0  0  0
 13 16  1  0  0  0  0
 16 17  1  0  0  0  0
 17 18  1  0  0  0  0
 17 19  2  0  0  0  0
 19 20  1  0  0  0  0
 19 21  1  0  0  0  0
 21 22  1  0  0  0  0
 21 23  2  0  0  0  0
 23 24  1  0  0  0  0
 23 25  1  0  0  0  0
 25 16  2  0  0  0  0
 25 26  1  0  0  0  0
 26 27  1  0  0  0  0
M  END
> <ChemID>
100161

> <source_casrn>
97-23-4

> <CAS>
97-23-4

> <SMILES>
Oc(c(cc(c1)Cl)Cc(c(O)ccc2Cl)c2)c1

> <NAME>
PHENOL,2,2'-METHYLENEBIS 4-CHLORO-

> <preferred_name>
Dichlorophen

> <iupac>
2,2'-methanediylbis(4-chlorophenol)

> <MPID>
98092

> <dsstox_substance_id>
DTXSID6021824

> <Canonical_QSARr>
Oc1ccc(Cl)cc1Cc1cc(Cl)ccc1O

> <InChI_Code_QSARr>
InChI=1S/C13H10Cl2O2/c14-10-1-3-12(16)8(6-10)5-9-7-11(15)2-4-13(9)17/h1-4,6-7,16-17H,5H2

> <InChI Key_QSARr>
MDNWOSOZYLHTCG-UHFFFAOYSA-N

> <Salt_Solvent>
?

> <LogBCF>
2.28

$$$$
100163
  -INDIGO-08031719362D

 17 17  0  0  0  0  0  0  0  0999 V2000
   -0.0000   -0.0000    0.0000 C   0  0  0  0  0  0  0  0  0  0  0  0
   -0.8000    1.3856    0.0000 C   0  0  0  0  0  0  0  0  0  0  0  0
   -0.0000    2.7713    0.0000 H   0  0  0  0  0  0  0  0  0  0  0  0
   -2.4000    1.3856    0.0000 C   0  0  0  0  0  0  0  0  0  0  0  0
   -3.2001    2.7713    0.0000 H   0  0  0  0  0  0  0  0  0  0  0  0
   -3.2001   -0.0000    0.0000 C   0  0  0  0  0  0  0  0  0  0  0  0
   -4.8000   -0.0000    0.0000 H   0  0  0  0  0  0  0  0  0  0  0  0
   -2.4000   -1.3856    0.0000 C   0  0  0  0  0  0  0  0  0  0  0  0
   -3.2001   -2.7713    0.0000 H   0  0  0  0  0  0  0  0  0  0  0  0
   -0.8000   -1.3856    0.0000 C   0  0  0  0  0  0  0  0  0  0  0  0
   -0.0000   -2.7713    0.0000 H   0  0  0  0  0  0  0  0  0  0  0  0
    1.6000   -0.0000    0.0000 S   0  0  0  0  0  0  0  0  0  0  0  0
    3.2000   -0.0000    0.0000 N   0  0  0  0  0  0  0  0  0  0  0  0
    4.0000   -1.3856    0.0000 H   0  0  0  0  0  0  0  0  0  0  0  0
    4.0000    1.3856    0.0000 H   0  0  0  0  0  0  0  0  0  0  0  0
    1.6000    1.6000    0.0000 O   0  0  0  0  0  0  0  0  0  0  0  0
    1.6000   -1.6000    0.0000 O   0  0  0  0  0  0  0  0  0  0  0  0
  1  2  1  0  0  0  0
  2  3  1  0  0  0  0
  2  4  2  0  0  0  0
  4  5  1  0  0  0  0
  4  6  1  0  0  0  0
  6  7  1  0  0  0  0
  6  8  2  0  0  0  0
  8  9  1  0  0  0  0
  8 10  1  0  0  0  0
 10  1  2  0  0  0  0
 10 11  1  0  0  0  0
  1 12  1  0  0  0  0
 12 13  1  0  0  0  0
 13 14  1  0  0  0  0
 13 15  1  0  0  0  0
 12 16  2  0  0  0  0
 12 17  2  0  0  0  0
M  END
> <ChemID>
100163

> <source_casrn>
98-10-2

> <CAS>
98-10-2

> <SMILES>
NS(=O)(=O)c1ccccc1

> <NAME>
BENZENESULFONAMIDE

> <preferred_name>
Benzenesulfonamide

> <iupac>
Benzenesulfonamide

> <MPID>
98094

> <dsstox_substance_id>
DTXSID1059159

> <Canonical_QSARr>
NS(=O)(=O)c1ccccc1

> <InChI_Code_QSARr>
InChI=1S/C6H7NO2S/c7-10(8,9)6-4-2-1-3-5-6/h1-5H,(H2,7,8,9)

> <InChI Key_QSARr>
KHBQMWCZKVMBLN-UHFFFAOYSA-N

> <Salt_Solvent>
?

> <LogBCF>
0.68

$$$$
100164
  -INDIGO-08031719362D

 15 15  0  0  0  0  0  0  0  0999 V2000
    2.4001    1.3856    0.0000 F   0  0  0  0  0  0  0  0  0  0  0  0
    1.6000   -0.0000    0.0000 C   0  0  0  0  0  0  0  0  0  0  0  0
    3.2000   -0.0000    0.0000 F   0  0  0  0  0  0  0  0  0  0  0  0
    2.4001   -1.3856    0.0000 F   0  0  0  0  0  0  0  0  0  0  0  0
    0.0000   -0.0000    0.0000 C   0  0  0  0  0  0  0  0  0  0  0  0
   -0.7999    1.3856    0.0000 C   0  0  0  0  0  0  0  0  0  0  0  0
    0.0000    2.7713    0.0000 H   0  0  0  0  0  0  0  0  0  0  0  0
   -2.4001    1.3856    0.0000 C   0  0  0  0  0  0  0  0  0  0  0  0
   -3.2000    2.7713    0.0000 H   0  0  0  0  0  0  0  0  0  0  0  0
   -3.2000   -0.0000    0.0000 C   0  0  0  0  0  0  0  0  0  0  0  0
   -4.8000   -0.0000    0.0000 H   0  0  0  0  0  0  0  0  0  0  0  0
   -2.4001   -1.3856    0.0000 C   0  0  0  0  0  0  0  0  0  0  0  0
   -3.2000   -2.7713    0.0000 Cl  0  0  0  0  0  0  0  0  0  0  0  0
   -0.8001   -1.3856    0.0000 C   0  0  0  0  0  0  0  0  0  0  0  0
    0.0000   -2.7713    0.0000 H   0  0  0  0  0  0  0  0  0  0  0  0
  1  2  1  0  0  0  0
  2  3  1  0  0  0  0
  2  4  1  0  0  0  0
  2  5  1  0  0  0  0
  5  6  1  0  0  0  0
  6  7  1  0  0  0  0
  6  8  2  0  0  0  0
  8  9  1  0  0  0  0
  8 10  1  0  0  0  0
 10 11  1  0  0  0  0
 10 12  2  0  0  0  0
 12 13  1  0  0  0  0
 12 14  1  0  0  0  0
 14  5  2  0  0  0  0
 14 15  1  0  0  0  0
M  END
> <ChemID>
100164

> <source_casrn>
98-15-7

> <CAS>
98-15-7

> <SMILES>
FC(F)(F)c1cccc(Cl)c1

> <NAME>
Benzene, 1-chloro-3-(trifluoromethyl)-

> <preferred_name>
3-Chlorobenzotrifluoride

> <iupac>
1-chloro-3-(trifluoromethyl)benzene

> <MPID>
98095

> <dsstox_substance_id>
DTXSID4024773

> <Canonical_QSARr>
FC(F)(F)c1cccc(Cl)c1

> <InChI_Code_QSARr>
InChI=1S/C7H4ClF3/c8-6-3-1-2-5(4-6)7(9,10)11/h1-4H

> <InChI Key_QSARr>
YTCGOUNVIAWCMG-UHFFFAOYSA-N

> <Salt_Solvent>
?

> <LogBCF>
2.35

$$$$
100165
  -INDIGO-08031719362D

 25 25  0  0  0  0  0  0  0  0999 V2000
    0.0001    0.0000    0.0000 C   0  0  0  0  0  0  0  0  0  0  0  0
    1.6000    0.0000    0.0000 C   0  0  0  0  0  0  0  0  0  0  0  0
    2.4000    1.3857    0.0000 C   0  0  0  0  0  0  0  0  0  0  0  0
    1.6000    2.7713    0.0000 H   0  0  0  0  0  0  0  0  0  0  0  0
    3.9999    1.3857    0.0000 C   0  0  0  0  0  0  0  0  0  0  0  0
    4.8001    2.7713    0.0000 H   0  0  0  0  0  0  0  0  0  0  0  0
    4.8001    0.0000    0.0000 C   0  0  0  0  0  0  0  0  0  0  0  0
    6.4000    0.0000    0.0000 O   0  0  0  0  0  0  0  0  0  0  0  0
    7.2000    1.3857    0.0000 H   0  0  0  0  0  0  0  0  0  0  0  0
    3.9999   -1.3857    0.0000 C   0  0  0  0  0  0  0  0  0  0  0  0
    4.8001   -2.7713    0.0000 H   0  0  0  0  0  0  0  0  0  0  0  0
    2.4000   -1.3857    0.0000 C   0  0  0  0  0  0  0  0  0  0  0  0
    1.6000   -2.7713    0.0000 H   0  0  0  0  0  0  0  0  0  0  0  0
   -1.6000   -0.0000    0.0000 C   0  0  0  0  0  0  0  0  0  0  0  0
   -3.2000   -0.0000    0.0000 H   0  0  0  0  0  0  0  0  0  0  0  0
   -2.6284    1.2256    0.0000 H   0  0  0  0  0  0  0  0  0  0  0  0
   -2.6284   -1.2256    0.0000 H   0  0  0  0  0  0  0  0  0  0  0  0
    0.0001    1.6000    0.0000 C   0  0  0  0  0  0  0  0  0  0  0  0
    0.2778    3.1757    0.0000 H   0  0  0  0  0  0  0  0  0  0  0  0
   -1.2257    2.6285    0.0000 H   0  0  0  0  0  0  0  0  0  0  0  0
   -1.5036    1.0527    0.0000 H   0  0  0  0  0  0  0  0  0  0  0  0
    0.0001   -1.6000    0.0000 C   0  0  0  0  0  0  0  0  0  0  0  0
    0.2778   -3.1757    0.0000 H   0  0  0  0  0  0  0  0  0  0  0  0
   -1.2257   -2.6285    0.0000 H   0  0  0  0  0  0  0  0  0  0  0  0
   -1.5036   -1.0527    0.0000 H   0  0  0  0  0  0  0  0  0  0  0  0
  1  2  1  0  0  0  0
  2  3  1  0  0  0  0
  3  4  1  0  0  0  0
  3  5  2  0  0  0  0
  5  6  1  0  0  0  0
  5  7  1  0  0  0  0
  7  8  1  0  0  0  0
  8  9  1  0  0  0  0
  7 10  2  0  0  0  0
 10 11  1  0  0  0  0
 10 12  1  0  0  0  0
 12  2  2  0  0  0  0
 12 13  1  0  0  0  0
  1 14  1  0  0  0  0
 14 15  1  0  0  0  0
 14 16  1  0  0  0  0
 14 17  1  0  0  0  0
  1 18  1  0  0  0  0
 18 19  1  0  0  0  0
 18 20  1  0  0  0  0
 18 21  1  0  0  0  0
  1 22  1  0  0  0  0
 22 23  1  0  0  0  0
 22 24  1  0  0  0  0
 22 25  1  0  0  0  0
M  END
> <ChemID>
100165

> <source_casrn>
98-54-4

> <CAS>
98-54-4

> <SMILES>
Oc(ccc(c1)C(C)(C)C)c1

> <NAME>
P-T-BUTYLYPHENOL

> <preferred_name>
4-tert-Butylphenol

> <iupac>
4-tert-butylphenol

> <MPID>
98096

> <dsstox_substance_id>
DTXSID1020221

> <Canonical_QSARr>
CC(C)(C)c1ccc(O)cc1

> <InChI_Code_QSARr>
InChI=1S/C10H14O/c1-10(2,3)8-4-6-9(11)7-5-8/h4-7,11H,1-3H3

> <InChI Key_QSARr>
QHPQWRBYOIRBIT-UHFFFAOYSA-N

> <Salt_Solvent>
?

> <LogBCF>
1.83

$$$$
100167
  -INDIGO-08031719362D

 21 21  0  0  0  0  0  0  0  0999 V2000
   -2.4000    1.3857    0.0000 C   0  0  0  0  0  0  0  0  0  0  0  0
   -1.6000    2.7713    0.0000 H   0  0  0  0  0  0  0  0  0  0  0  0
   -4.0000    1.3857    0.0000 C   0  0  0  0  0  0  0  0  0  0  0  0
   -4.8000    2.7713    0.0000 H   0  0  0  0  0  0  0  0  0  0  0  0
   -4.8000    0.0000    0.0000 C   0  0  0  0  0  0  0  0  0  0  0  0
   -6.4000    0.0000    0.0000 H   0  0  0  0  0  0  0  0  0  0  0  0
   -4.0000   -1.3856    0.0000 C   0  0  0  0  0  0  0  0  0  0  0  0
   -4.8000   -2.7713    0.0000 H   0  0  0  0  0  0  0  0  0  0  0  0
   -2.4000   -1.3856    0.0000 C   0  0  0  0  0  0  0  0  0  0  0  0
   -1.6000   -2.7713    0.0000 H   0  0  0  0  0  0  0  0  0  0  0  0
   -1.6000    0.0000    0.0000 C   0  0  0  0  0  0  0  0  0  0  0  0
   -0.0001    0.0000    0.0000 C   0  0  0  0  0  0  0  0  0  0  0  0
   -0.0001    1.6000    0.0000 H   0  0  0  0  0  0  0  0  0  0  0  0
    1.5757    0.2778    0.0000 C   0  0  0  0  0  0  0  0  0  0  0  0
    3.1514    0.5557    0.0000 H   0  0  0  0  0  0  0  0  0  0  0  0
    2.1229    1.7813    0.0000 H   0  0  0  0  0  0  0  0  0  0  0  0
    2.6041   -0.9478    0.0000 H   0  0  0  0  0  0  0  0  0  0  0  0
   -0.0001   -1.6000    0.0000 C   0  0  0  0  0  0  0  0  0  0  0  0
   -0.0001   -3.2000    0.0000 H   0  0  0  0  0  0  0  0  0  0  0  0
    1.3857   -2.4000    0.0000 H   0  0  0  0  0  0  0  0  0  0  0  0
    1.3857   -0.8000    0.0000 H   0  0  0  0  0  0  0  0  0  0  0  0
  1  2  1  0  0  0  0
  1  3  1  0  0  0  0
  3  4  1  0  0  0  0
  3  5  2  0  0  0  0
  5  6  1  0  0  0  0
  5  7  1  0  0  0  0
  7  8  1  0  0  0  0
  7  9  2  0  0  0  0
  9 10  1  0  0  0  0
  9 11  1  0  0  0  0
 11  1  2  0  0  0  0
 11 12  1  0  0  0  0
 12 13  1  0  0  0  0
 12 14  1  0  0  0  0
 14 15  1  0  0  0  0
 14 16  1  0  0  0  0
 14 17  1  0  0  0  0
 12 18  1  0  0  0  0
 18 19  1  0  0  0  0
 18 20  1  0  0  0  0
 18 21  1  0  0  0  0
M  END
> <ChemID>
100167

> <source_casrn>
98-82-8

> <CAS>
98-82-8

> <SMILES>
CC(C)c1ccccc1

> <NAME>
CUMENE

> <preferred_name>
Cumene

> <iupac>
propan-2-ylbenzene

> <MPID>
98098

> <dsstox_substance_id>
DTXSID1021827

> <Canonical_QSARr>
CC(C)c1ccccc1

> <InChI_Code_QSARr>
InChI=1S/C9H12/c1-8(2)9-6-4-3-5-7-9/h3-8H,1-2H3

> <InChI Key_QSARr>
RWGFKTVRMDUZSP-UHFFFAOYSA-N

> <Salt_Solvent>
?

> <LogBCF>
1.55

$$$$
100168
  -INDIGO-08031719362D

 19 19  0  0  0  0  0  0  0  0999 V2000
    1.6000   -0.0000    0.0000 C   0  0  0  0  0  0  0  0  0  0  0  0
    2.4001   -1.3856    0.0000 C   0  0  0  0  0  0  0  0  0  0  0  0
    3.2000   -2.7713    0.0000 H   0  0  0  0  0  0  0  0  0  0  0  0
    4.0000   -1.3856    0.0000 H   0  0  0  0  0  0  0  0  0  0  0  0
    1.6000   -2.7713    0.0000 H   0  0  0  0  0  0  0  0  0  0  0  0
    2.4001    1.3856    0.0000 C   0  0  0  0  0  0  0  0  0  0  0  0
    4.0000    1.3856    0.0000 H   0  0  0  0  0  0  0  0  0  0  0  0
    1.6000    2.7713    0.0000 H   0  0  0  0  0  0  0  0  0  0  0  0
   -0.0000    0.0000    0.0000 C   0  0  0  0  0  0  0  0  0  0  0  0
   -0.8000    1.3856    0.0000 C   0  0  0  0  0  0  0  0  0  0  0  0
   -0.0000    2.7713    0.0000 H   0  0  0  0  0  0  0  0  0  0  0  0
   -2.4000    1.3856    0.0000 C   0  0  0  0  0  0  0  0  0  0  0  0
   -3.2001    2.7713    0.0000 H   0  0  0  0  0  0  0  0  0  0  0  0
   -3.2001    0.0000    0.0000 C   0  0  0  0  0  0  0  0  0  0  0  0
   -4.8000   -0.0000    0.0000 H   0  0  0  0  0  0  0  0  0  0  0  0
   -2.4000   -1.3856    0.0000 C   0  0  0  0  0  0  0  0  0  0  0  0
   -3.2001   -2.7713    0.0000 H   0  0  0  0  0  0  0  0  0  0  0  0
   -0.8000   -1.3856    0.0000 C   0  0  0  0  0  0  0  0  0  0  0  0
   -0.0000   -2.7713    0.0000 H   0  0  0  0  0  0  0  0  0  0  0  0
  1  2  1  0  0  0  0
  2  3  1  0  0  0  0
  2  4  1  0  0  0  0
  2  5  1  0  0  0  0
  1  6  2  0  0  0  0
  6  7  1  0  0  0  0
  6  8  1  0  0  0  0
  1  9  1  0  0  0  0
  9 10  1  0  0  0  0
 10 11  1  0  0  0  0
 10 12  2  0  0  0  0
 12 13  1  0  0  0  0
 12 14  1  0  0  0  0
 14 15  1  0  0  0  0
 14 16  2  0  0  0  0
 16 17  1  0  0  0  0
 16 18  1  0  0  0  0
 18  9  2  0  0  0  0
 18 19  1  0  0  0  0
M  END
> <ChemID>
100168

> <source_casrn>
98-83-9

> <CAS>
98-83-9

> <SMILES>
CC(=C)c1ccccc1

> <NAME>
ALPHA-METHYLSTYRENE

> <preferred_name>
alpha-Methylstyrene

> <iupac>
prop-1-en-2-ylbenzene

> <MPID>
98099

> <dsstox_substance_id>
DTXSID9025661

> <Canonical_QSARr>
CC(=C)c1ccccc1

> <InChI_Code_QSARr>
InChI=1S/C9H10/c1-8(2)9-6-4-3-5-7-9/h3-7H,1H2,2H3

> <InChI Key_QSARr>
XYLMUPLGERFSHI-UHFFFAOYSA-N

> <Salt_Solvent>
?

> <LogBCF>
1.8

$$$$
100169
  -INDIGO-08031719362D

 20 20  0  0  0  0  0  0  0  0999 V2000
   -1.5757    0.2778    0.0000 C   0  0  0  0  0  0  0  0  0  0  0  0
   -2.3756    1.6635    0.0000 C   0  0  0  0  0  0  0  0  0  0  0  0
   -1.5757    3.0491    0.0000 H   0  0  0  0  0  0  0  0  0  0  0  0
   -3.9757    1.6635    0.0000 C   0  0  0  0  0  0  0  0  0  0  0  0
   -4.7758    3.0491    0.0000 H   0  0  0  0  0  0  0  0  0  0  0  0
   -4.7758    0.2778    0.0000 C   0  0  0  0  0  0  0  0  0  0  0  0
   -6.3757    0.2778    0.0000 H   0  0  0  0  0  0  0  0  0  0  0  0
   -3.9757   -1.1078    0.0000 C   0  0  0  0  0  0  0  0  0  0  0  0
   -4.7758   -2.4934    0.0000 H   0  0  0  0  0  0  0  0  0  0  0  0
   -2.3756   -1.1078    0.0000 C   0  0  0  0  0  0  0  0  0  0  0  0
   -1.5757   -2.4934    0.0000 H   0  0  0  0  0  0  0  0  0  0  0  0
    0.0000   -0.0000    0.0000 C   0  0  0  0  0  0  0  0  0  0  0  0
   -0.5472   -1.5035    0.0000 H   0  0  0  0  0  0  0  0  0  0  0  0
    0.5472    1.5035    0.0000 N   0  0  0  0  0  0  0  0  0  0  0  0
    2.1229    1.7814    0.0000 H   0  0  0  0  0  0  0  0  0  0  0  0
   -0.4812    2.7292    0.0000 H   0  0  0  0  0  0  0  0  0  0  0  0
    1.5036   -0.5472    0.0000 C   0  0  0  0  0  0  0  0  0  0  0  0
    3.0070   -1.0945    0.0000 H   0  0  0  0  0  0  0  0  0  0  0  0
    1.7813   -2.1229    0.0000 H   0  0  0  0  0  0  0  0  0  0  0  0
    2.7291    0.4812    0.0000 H   0  0  0  0  0  0  0  0  0  0  0  0
  1  2  1  0  0  0  0
  2  3  1  0  0  0  0
  2  4  2  0  0  0  0
  4  5  1  0  0  0  0
  4  6  1  0  0  0  0
  6  7  1  0  0  0  0
  6  8  2  0  0  0  0
  8  9  1  0  0  0  0
  8 10  1  0  0  0  0
 10  1  2  0  0  0  0
 10 11  1  0  0  0  0
  1 12  1  0  0  0  0
 12 13  1  0  0  0  0
 12 14  1  0  0  0  0
 14 15  1  0  0  0  0
 14 16  1  0  0  0  0
 12 17  1  0  0  0  0
 17 18  1  0  0  0  0
 17 19  1  0  0  0  0
 17 20  1  0  0  0  0
M  END
> <ChemID>
100169

> <source_casrn>
98-84-0

> <CAS>
NOCAS_862301

> <SMILES>
CC(N)c1ccccc1

> <NAME>
BENZENEMETHANAMINE, .alpha.-METHYL-

> <preferred_name>


> <iupac>


> <MPID>
98100

> <dsstox_substance_id>
DTXSID40862301

> <Canonical_QSARr>
CC(N)c1ccccc1

> <InChI_Code_QSARr>
InChI=1S/C8H11N/c1-7(9)8-5-3-2-4-6-8/h2-7H,9H2,1H3

> <InChI Key_QSARr>
RQEUFEKYXDPUSK-UHFFFAOYSA-N

> <Salt_Solvent>
?

> <LogBCF>
0.82

$$$$
100171
  -INDIGO-08031719362D

 17 17  0  0  0  0  0  0  0  0999 V2000
    1.3857    0.8000    0.0000 C   0  0  0  0  0  0  0  0  0  0  0  0
    2.7713    1.6000    0.0000 H   0  0  0  0  0  0  0  0  0  0  0  0
    2.7713   -0.0000    0.0000 H   0  0  0  0  0  0  0  0  0  0  0  0
    1.3857    2.4000    0.0000 H   0  0  0  0  0  0  0  0  0  0  0  0
    0.0000   -0.0000    0.0000 C   0  0  0  0  0  0  0  0  0  0  0  0
   -1.3857    0.8000    0.0000 C   0  0  0  0  0  0  0  0  0  0  0  0
   -1.3857    2.4000    0.0000 H   0  0  0  0  0  0  0  0  0  0  0  0
   -2.7713   -0.0000    0.0000 C   0  0  0  0  0  0  0  0  0  0  0  0
   -4.1570    0.8000    0.0000 N   0  0  0  0  0  0  0  0  0  0  0  0
   -5.5426   -0.0000    0.0000 O   0  0  0  0  0  0  0  0  0  0  0  0
   -4.1569    2.4000    0.0000 O   0  0  0  0  0  0  0  0  0  0  0  0
   -2.7713   -1.6000    0.0000 C   0  0  0  0  0  0  0  0  0  0  0  0
   -4.1569   -2.4000    0.0000 H   0  0  0  0  0  0  0  0  0  0  0  0
   -1.3856   -2.4000    0.0000 C   0  0  0  0  0  0  0  0  0  0  0  0
   -1.3856   -4.0000    0.0000 H   0  0  0  0  0  0  0  0  0  0  0  0
    0.0000   -1.6000    0.0000 C   0  0  0  0  0  0  0  0  0  0  0  0
    1.3857   -2.4000    0.0000 H   0  0  0  0  0  0  0  0  0  0  0  0
  1  2  1  0  0  0  0
  1  3  1  0  0  0  0
  1  4  1  0  0  0  0
  1  5  1  0  0  0  0
  5  6  1  0  0  0  0
  6  7  1  0  0  0  0
  6  8  2  0  0  0  0
  8  9  1  0  0  0  0
  9 10  2  0  0  0  0
  9 11  1  0  0  0  0
  8 12  1  0  0  0  0
 12 13  1  0  0  0  0
 12 14  2  0  0  0  0
 14 15  1  0  0  0  0
 14 16  1  0  0  0  0
 16  5  2  0  0  0  0
 16 17  1  0  0  0  0
M  CHG  2   9   1  11  -1
M  END
> <ChemID>
100171

> <source_casrn>
99-08-1

> <CAS>
99-08-1

> <SMILES>
Cc1cc(ccc1)[N+]([O-])=O

> <NAME>
3-NITROTOLUENE

> <preferred_name>
3-Nitrotoluene

> <iupac>
1-methyl-3-nitrobenzene

> <MPID>
98102

> <dsstox_substance_id>
DTXSID5021831

> <Canonical_QSARr>
Cc1cc(ccc1)[N+]([O-])=O

> <InChI_Code_QSARr>
InChI=1S/C7H7NO2/c1-6-3-2-4-7(5-6)8(9)10/h2-5H,1H3

> <InChI Key_QSARr>
QZYHIOPPLUPUJF-UHFFFAOYSA-N

> <Salt_Solvent>
?

> <LogBCF>
1.08

$$$$
100172
  -INDIGO-08031719362D

 16 16  0  0  0  0  0  0  0  0999 V2000
    1.3857    0.8000    0.0000 N   0  0  0  0  0  0  0  0  0  0  0  0
    2.7713   -0.0000    0.0000 O   0  0  0  0  0  0  0  0  0  0  0  0
    1.3856    2.4000    0.0000 O   0  0  0  0  0  0  0  0  0  0  0  0
    0.0000   -0.0000    0.0000 C   0  0  0  0  0  0  0  0  0  0  0  0
    0.0000   -1.6000    0.0000 C   0  0  0  0  0  0  0  0  0  0  0  0
    1.3857   -2.4000    0.0000 H   0  0  0  0  0  0  0  0  0  0  0  0
   -1.3856   -2.4000    0.0000 C   0  0  0  0  0  0  0  0  0  0  0  0
   -1.3856   -4.0000    0.0000 H   0  0  0  0  0  0  0  0  0  0  0  0
   -2.7713   -1.6000    0.0000 C   0  0  0  0  0  0  0  0  0  0  0  0
   -4.1570   -2.4000    0.0000 H   0  0  0  0  0  0  0  0  0  0  0  0
   -2.7713   -0.0000    0.0000 C   0  0  0  0  0  0  0  0  0  0  0  0
   -4.1569    0.8000    0.0000 N   0  0  0  0  0  0  0  0  0  0  0  0
   -5.5426   -0.0000    0.0000 H   0  0  0  0  0  0  0  0  0  0  0  0
   -4.1569    2.4000    0.0000 H   0  0  0  0  0  0  0  0  0  0  0  0
   -1.3856    0.8000    0.0000 C   0  0  0  0  0  0  0  0  0  0  0  0
   -1.3856    2.4000    0.0000 H   0  0  0  0  0  0  0  0  0  0  0  0
  1  2  2  0  0  0  0
  1  3  1  0  0  0  0
  1  4  1  0  0  0  0
  4  5  1  0  0  0  0
  5  6  1  0  0  0  0
  5  7  2  0  0  0  0
  7  8  1  0  0  0  0
  7  9  1  0  0  0  0
  9 10  1  0  0  0  0
  9 11  2  0  0  0  0
 11 12  1  0  0  0  0
 12 13  1  0  0  0  0
 12 14  1  0  0  0  0
 11 15  1  0  0  0  0
 15  4  2  0  0  0  0
 15 16  1  0  0  0  0
M  CHG  2   1   1   3  -1
M  END
> <ChemID>
100172

> <source_casrn>
99-09-2

> <CAS>
99-09-2

> <SMILES>
Nc1cc(ccc1)[N+]([O-])=O

> <NAME>
3-NITROANILINE

> <preferred_name>
3-Nitroaniline

> <iupac>
3-nitroaniline

> <MPID>
98103

> <dsstox_substance_id>
DTXSID6025725

> <Canonical_QSARr>
Nc1cc(ccc1)[N+]([O-])=O

> <InChI_Code_QSARr>
InChI=1S/C6H6N2O2/c7-5-2-1-3-6(4-5)8(9)10/h1-4H,7H2

> <InChI Key_QSARr>
XJCVRTZCHMZPBD-UHFFFAOYSA-N

> <Salt_Solvent>
?

> <LogBCF>
0.48

$$$$
100173
  -INDIGO-08031719362D

 14 14  0  0  0  0  0  0  0  0999 V2000
    1.6000   -0.0000    0.0000 N   0  0  0  0  0  0  0  0  0  0  0  0
    2.4000    1.3856    0.0000 O   0  0  0  0  0  0  0  0  0  0  0  0
    2.4000   -1.3856    0.0000 O   0  0  0  0  0  0  0  0  0  0  0  0
    0.0000   -0.0000    0.0000 C   0  0  0  0  0  0  0  0  0  0  0  0
   -0.8000    1.3856    0.0000 C   0  0  0  0  0  0  0  0  0  0  0  0
    0.0000    2.7713    0.0000 H   0  0  0  0  0  0  0  0  0  0  0  0
   -2.4000    1.3856    0.0000 C   0  0  0  0  0  0  0  0  0  0  0  0
   -3.2000    2.7713    0.0000 H   0  0  0  0  0  0  0  0  0  0  0  0
   -3.2000   -0.0000    0.0000 C   0  0  0  0  0  0  0  0  0  0  0  0
   -4.8000   -0.0000    0.0000 Cl  0  0  0  0  0  0  0  0  0  0  0  0
   -2.4000   -1.3856    0.0000 C   0  0  0  0  0  0  0  0  0  0  0  0
   -3.2000   -2.7713    0.0000 Cl  0  0  0  0  0  0  0  0  0  0  0  0
   -0.8000   -1.3856    0.0000 C   0  0  0  0  0  0  0  0  0  0  0  0
    0.0000   -2.7713    0.0000 H   0  0  0  0  0  0  0  0  0  0  0  0
  1  2  2  0  0  0  0
  1  3  1  0  0  0  0
  1  4  1  0  0  0  0
  4  5  1  0  0  0  0
  5  6  1  0  0  0  0
  5  7  2  0  0  0  0
  7  8  1  0  0  0  0
  7  9  1  0  0  0  0
  9 10  1  0  0  0  0
  9 11  2  0  0  0  0
 11 12  1  0  0  0  0
 11 13  1  0  0  0  0
 13  4  2  0  0  0  0
 13 14  1  0  0  0  0
M  CHG  2   1   1   3  -1
M  END
> <ChemID>
100173

> <source_casrn>
99-54-7

> <CAS>
99-54-7

> <SMILES>
[O-][N+](=O)c1cc(Cl)c(Cl)cc1

> <NAME>
3,4-DICHLORONITROBENZENE

> <preferred_name>
3,4-Dichloronitrobenzene

> <iupac>
1,2-dichloro-4-nitrobenzene

> <MPID>
98104

> <dsstox_substance_id>
DTXSID8024999

> <Canonical_QSARr>
[O-][N+](=O)c1cc(Cl)c(Cl)cc1

> <InChI_Code_QSARr>
InChI=1S/C6H3Cl2NO2/c7-5-2-1-4(9(10)11)3-6(5)8/h1-3H

> <InChI Key_QSARr>
NTBYINQTYWZXLH-UHFFFAOYSA-N

> <Salt_Solvent>
?

> <LogBCF>
1.71

$$$$
100175
  -INDIGO-08031719362D

 16 16  0  0  0  0  0  0  0  0999 V2000
    0.0000   -0.0000    0.0000 C   0  0  0  0  0  0  0  0  0  0  0  0
    0.0000   -1.6000    0.0000 C   0  0  0  0  0  0  0  0  0  0  0  0
    1.3857   -2.4000    0.0000 H   0  0  0  0  0  0  0  0  0  0  0  0
   -1.3856   -2.4000    0.0000 C   0  0  0  0  0  0  0  0  0  0  0  0
   -1.3856   -4.0000    0.0000 H   0  0  0  0  0  0  0  0  0  0  0  0
   -2.7713   -1.6000    0.0000 C   0  0  0  0  0  0  0  0  0  0  0  0
   -4.1570   -2.4000    0.0000 H   0  0  0  0  0  0  0  0  0  0  0  0
   -2.7713   -0.0000    0.0000 C   0  0  0  0  0  0  0  0  0  0  0  0
   -4.1569    0.8000    0.0000 N   0  0  0  0  0  0  0  0  0  0  0  0
   -5.5426   -0.0000    0.0000 O   0  0  0  0  0  0  0  0  0  0  0  0
   -4.1569    2.4000    0.0000 O   0  0  0  0  0  0  0  0  0  0  0  0
   -1.3856    0.8000    0.0000 C   0  0  0  0  0  0  0  0  0  0  0  0
   -1.3856    2.4000    0.0000 H   0  0  0  0  0  0  0  0  0  0  0  0
    1.3857    0.8000    0.0000 N   0  0  0  0  0  0  0  0  0  0  0  0
    2.7713   -0.0000    0.0000 O   0  0  0  0  0  0  0  0  0  0  0  0
    1.3857    2.4000    0.0000 O   0  0  0  0  0  0  0  0  0  0  0  0
  1  2  1  0  0  0  0
  2  3  1  0  0  0  0
  2  4  2  0  0  0  0
  4  5  1  0  0  0  0
  4  6  1  0  0  0  0
  6  7  1  0  0  0  0
  6  8  2  0  0  0  0
  8  9  1  0  0  0  0
  9 10  1  0  0  0  0
  9 11  2  0  0  0  0
  8 12  1  0  0  0  0
 12  1  2  0  0  0  0
 12 13  1  0  0  0  0
  1 14  1  0  0  0  0
 14 15  1  0  0  0  0
 14 16  2  0  0  0  0
M  CHG  4   9   1  10  -1  14   1  15  -1
M  END
> <ChemID>
100175

> <source_casrn>
99-65-0

> <CAS>
99-65-0

> <SMILES>
[O-][N+](=O)c1cc(ccc1)[N+]([O-])=O

> <NAME>
1,3-DINITROBENZENE

> <preferred_name>
1,3-Dinitrobenzene

> <iupac>
1,3-dinitrobenzene

> <MPID>
98106

> <dsstox_substance_id>
DTXSID9024065

> <Canonical_QSARr>
[O-][N+](=O)c1cc(ccc1)[N+]([O-])=O

> <InChI_Code_QSARr>
InChI=1S/C6H4N2O4/c9-7(10)5-2-1-3-6(4-5)8(11)12/h1-4H

> <InChI Key_QSARr>
WDCYWAQPCXBPJA-UHFFFAOYSA-N

> <Salt_Solvent>
?

> <LogBCF>
0.77

$$$$
100176
  -INDIGO-08031719362D

 25 25  0  0  0  0  0  0  0  0999 V2000
   -1.6000   -0.0000    0.0000 C   0  0  0  0  0  0  0  0  0  0  0  0
   -2.4000    1.3857    0.0000 C   0  0  0  0  0  0  0  0  0  0  0  0
   -1.6000    2.7713    0.0000 H   0  0  0  0  0  0  0  0  0  0  0  0
   -4.0000    1.3857    0.0000 C   0  0  0  0  0  0  0  0  0  0  0  0
   -4.7999    2.7713    0.0000 H   0  0  0  0  0  0  0  0  0  0  0  0
   -4.7999   -0.0000    0.0000 C   0  0  0  0  0  0  0  0  0  0  0  0
   -6.4000   -0.0000    0.0000 O   0  0  0  0  0  0  0  0  0  0  0  0
   -7.2000   -1.3857    0.0000 H   0  0  0  0  0  0  0  0  0  0  0  0
   -4.0000   -1.3857    0.0000 C   0  0  0  0  0  0  0  0  0  0  0  0
   -4.7999   -2.7713    0.0000 H   0  0  0  0  0  0  0  0  0  0  0  0
   -2.4000   -1.3857    0.0000 C   0  0  0  0  0  0  0  0  0  0  0  0
   -1.6000   -2.7713    0.0000 H   0  0  0  0  0  0  0  0  0  0  0  0
    0.0001   -0.0000    0.0000 C   0  0  0  0  0  0  0  0  0  0  0  0
    0.0001   -1.6000    0.0000 H   0  0  0  0  0  0  0  0  0  0  0  0
    1.3857   -0.8000    0.0000 C   0  0  0  0  0  0  0  0  0  0  0  0
    2.3596    0.4694    0.0000 H   0  0  0  0  0  0  0  0  0  0  0  0
    2.9720   -0.5911    0.0000 H   0  0  0  0  0  0  0  0  0  0  0  0
    1.3857   -2.4000    0.0000 C   0  0  0  0  0  0  0  0  0  0  0  0
    1.3857   -4.0000    0.0000 H   0  0  0  0  0  0  0  0  0  0  0  0
    2.7713   -3.2000    0.0000 H   0  0  0  0  0  0  0  0  0  0  0  0
    0.0001   -3.2000    0.0000 H   0  0  0  0  0  0  0  0  0  0  0  0
    0.0001    1.6000    0.0000 C   0  0  0  0  0  0  0  0  0  0  0  0
    1.3857    2.4000    0.0000 H   0  0  0  0  0  0  0  0  0  0  0  0
    0.0001    3.2000    0.0000 H   0  0  0  0  0  0  0  0  0  0  0  0
    1.3857    0.8000    0.0000 H   0  0  0  0  0  0  0  0  0  0  0  0
  1  2  1  0  0  0  0
  2  3  1  0  0  0  0
  2  4  2  0  0  0  0
  4  5  1  0  0  0  0
  4  6  1  0  0  0  0
  6  7  1  0  0  0  0
  7  8  1  0  0  0  0
  6  9  2  0  0  0  0
  9 10  1  0  0  0  0
  9 11  1  0  0  0  0
 11  1  2  0  0  0  0
 11 12  1  0  0  0  0
  1 13  1  0  0  0  0
 13 14  1  0  0  0  0
 13 15  1  0  0  0  0
 15 16  1  0  0  0  0
 15 17  1  0  0  0  0
 15 18  1  0  0  0  0
 18 19  1  0  0  0  0
 18 20  1  0  0  0  0
 18 21  1  0  0  0  0
 13 22  1  0  0  0  0
 22 23  1  0  0  0  0
 22 24  1  0  0  0  0
 22 25  1  0  0  0  0
M  END
> <ChemID>
100176

> <source_casrn>
99-71-8

> <CAS>
99-71-8

> <SMILES>
CCC(C)c1ccc(O)cc1

> <NAME>
P-(SEC-BUTYL)PHENOL

> <preferred_name>
4-(Butan-2-yl)phenol

> <iupac>
4-(butan-2-yl)phenol

> <MPID>
98107

> <dsstox_substance_id>
DTXSID7022332

> <Canonical_QSARr>
CCC(C)c1ccc(O)cc1

> <InChI_Code_QSARr>
InChI=1S/C10H14O/c1-3-8(2)9-4-6-10(11)7-5-9/h4-8,11H,3H2,1-2H3

> <InChI Key_QSARr>
ZUTYZAFDFLLILI-UHFFFAOYSA-N

> <Salt_Solvent>
?

> <LogBCF>
1.31

$$$$
100177
  -INDIGO-08031719362D

 17 17  0  0  0  0  0  0  0  0999 V2000
    2.4000    1.3856    0.0000 C   0  0  0  0  0  0  0  0  0  0  0  0
    3.2000    2.7713    0.0000 H   0  0  0  0  0  0  0  0  0  0  0  0
    0.8000    1.3856    0.0000 C   0  0  0  0  0  0  0  0  0  0  0  0
    0.0000    2.7713    0.0000 H   0  0  0  0  0  0  0  0  0  0  0  0
    0.0000    0.0000    0.0000 C   0  0  0  0  0  0  0  0  0  0  0  0
   -1.6001    0.0000    0.0000 C   0  0  0  0  0  0  0  0  0  0  0  0
   -3.2000    0.0000    0.0000 H   0  0  0  0  0  0  0  0  0  0  0  0
   -2.4000   -1.3856    0.0000 H   0  0  0  0  0  0  0  0  0  0  0  0
   -2.4000    1.3856    0.0000 H   0  0  0  0  0  0  0  0  0  0  0  0
    0.8000   -1.3856    0.0000 C   0  0  0  0  0  0  0  0  0  0  0  0
    0.0000   -2.7713    0.0000 H   0  0  0  0  0  0  0  0  0  0  0  0
    2.4000   -1.3856    0.0000 C   0  0  0  0  0  0  0  0  0  0  0  0
    3.2000   -2.7713    0.0000 H   0  0  0  0  0  0  0  0  0  0  0  0
    3.2000   -0.0000    0.0000 C   0  0  0  0  0  0  0  0  0  0  0  0
    4.8000    0.0000    0.0000 N   0  0  0  0  0  0  0  0  0  0  0  0
    5.6000   -1.3856    0.0000 O   0  0  0  0  0  0  0  0  0  0  0  0
    5.6000    1.3856    0.0000 O   0  0  0  0  0  0  0  0  0  0  0  0
  1  2  1  0  0  0  0
  1  3  1  0  0  0  0
  3  4  1  0  0  0  0
  3  5  2  0  0  0  0
  5  6  1  0  0  0  0
  6  7  1  0  0  0  0
  6  8  1  0  0  0  0
  6  9  1  0  0  0  0
  5 10  1  0  0  0  0
 10 11  1  0  0  0  0
 10 12  2  0  0  0  0
 12 13  1  0  0  0  0
 12 14  1  0  0  0  0
 14  1  2  0  0  0  0
 14 15  1  0  0  0  0
 15 16  2  0  0  0  0
 15 17  1  0  0  0  0
M  CHG  2  15   1  17  -1
M  END
> <ChemID>
100177

> <source_casrn>
99-99-0

> <CAS>
99-99-0

> <SMILES>
Cc1ccc(cc1)[N+]([O-])=O

> <NAME>
P-NITROTOLUENE

> <preferred_name>
4-Nitrotoluene

> <iupac>
1-methyl-4-nitrobenzene

> <MPID>
98108

> <dsstox_substance_id>
DTXSID5023792

> <Canonical_QSARr>
Cc1ccc(cc1)[N+]([O-])=O

> <InChI_Code_QSARr>
InChI=1S/C7H7NO2/c1-6-2-4-7(5-3-6)8(9)10/h2-5H,1H3

> <InChI Key_QSARr>
ZPTVNYMJQHSSEA-UHFFFAOYSA-N

> <Salt_Solvent>
?

> <LogBCF>
0.9

$$$$
100179
  -INDIGO-08031719362D

 16 16  0  0  0  0  0  0  0  0999 V2000
   -2.4000   -1.3856    0.0000 O   0  0  0  0  0  0  0  0  0  0  0  0
   -1.5999   -0.0000    0.0000 N   0  0  0  0  0  0  0  0  0  0  0  0
    0.0001   -0.0000    0.0000 C   0  0  0  0  0  0  0  0  0  0  0  0
    0.8000    1.3856    0.0000 C   0  0  0  0  0  0  0  0  0  0  0  0
    0.0001    2.7713    0.0000 H   0  0  0  0  0  0  0  0  0  0  0  0
    2.4000    1.3856    0.0000 C   0  0  0  0  0  0  0  0  0  0  0  0
    3.2001    2.7713    0.0000 H   0  0  0  0  0  0  0  0  0  0  0  0
    3.2001   -0.0000    0.0000 C   0  0  0  0  0  0  0  0  0  0  0  0
    4.8001   -0.0000    0.0000 N   0  0  0  0  0  0  0  0  0  0  0  0
    5.6000    1.3856    0.0000 H   0  0  0  0  0  0  0  0  0  0  0  0
    5.6000   -1.3856    0.0000 H   0  0  0  0  0  0  0  0  0  0  0  0
    2.4000   -1.3856    0.0000 C   0  0  0  0  0  0  0  0  0  0  0  0
    3.2001   -2.7713    0.0000 H   0  0  0  0  0  0  0  0  0  0  0  0
    0.8000   -1.3856    0.0000 C   0  0  0  0  0  0  0  0  0  0  0  0
    0.0001   -2.7713    0.0000 H   0  0  0  0  0  0  0  0  0  0  0  0
   -2.4000    1.3856    0.0000 O   0  0  0  0  0  0  0  0  0  0  0  0
  1  2  2  0  0  0  0
  2  3  1  0  0  0  0
  3  4  1  0  0  0  0
  4  5  1  0  0  0  0
  4  6  2  0  0  0  0
  6  7  1  0  0  0  0
  6  8  1  0  0  0  0
  8  9  1  0  0  0  0
  9 10  1  0  0  0  0
  9 11  1  0  0  0  0
  8 12  2  0  0  0  0
 12 13  1  0  0  0  0
 12 14  1  0  0  0  0
 14  3  2  0  0  0  0
 14 15  1  0  0  0  0
  2 16  1  0  0  0  0
M  CHG  2   2   1  16  -1
M  END
> <ChemID>
100179

> <source_casrn>
100-01-6

> <CAS>
100-01-6

> <SMILES>
Nc1ccc(cc1)[N+]([O-])=O

> <NAME>
4-NITROANILINE

> <preferred_name>
4-Nitroaniline

> <iupac>
4-nitroaniline

> <MPID>
98110

> <dsstox_substance_id>
DTXSID8020961

> <Canonical_QSARr>
Nc1ccc(cc1)[N+]([O-])=O

> <InChI_Code_QSARr>
InChI=1S/C6H6N2O2/c7-5-1-3-6(4-2-5)8(9)10/h1-4H,7H2

> <InChI Key_QSARr>
TYMLOMAKGOJONV-UHFFFAOYSA-N

> <Salt_Solvent>
?

> <LogBCF>
0.6

$$$$
100180
  -INDIGO-08031719362D

 15 15  0  0  0  0  0  0  0  0999 V2000
    4.8001   -0.0000    0.0000 O   0  0  0  0  0  0  0  0  0  0  0  0
    5.6000    1.3856    0.0000 H   0  0  0  0  0  0  0  0  0  0  0  0
    3.2001   -0.0000    0.0000 C   0  0  0  0  0  0  0  0  0  0  0  0
    2.4000    1.3856    0.0000 C   0  0  0  0  0  0  0  0  0  0  0  0
    3.2001    2.7713    0.0000 H   0  0  0  0  0  0  0  0  0  0  0  0
    0.8000    1.3856    0.0000 C   0  0  0  0  0  0  0  0  0  0  0  0
    0.0001    2.7713    0.0000 H   0  0  0  0  0  0  0  0  0  0  0  0
    0.0001   -0.0000    0.0000 C   0  0  0  0  0  0  0  0  0  0  0  0
   -1.5999   -0.0000    0.0000 N   0  0  0  0  0  0  0  0  0  0  0  0
   -2.4000    1.3856    0.0000 O   0  0  0  0  0  0  0  0  0  0  0  0
   -2.4000   -1.3856    0.0000 O   0  0  0  0  0  0  0  0  0  0  0  0
    0.8000   -1.3856    0.0000 C   0  0  0  0  0  0  0  0  0  0  0  0
    0.0001   -2.7713    0.0000 H   0  0  0  0  0  0  0  0  0  0  0  0
    2.4000   -1.3856    0.0000 C   0  0  0  0  0  0  0  0  0  0  0  0
    3.2001   -2.7713    0.0000 H   0  0  0  0  0  0  0  0  0  0  0  0
  1  2  1  0  0  0  0
  1  3  1  0  0  0  0
  3  4  1  0  0  0  0
  4  5  1  0  0  0  0
  4  6  2  0  0  0  0
  6  7  1  0  0  0  0
  6  8  1  0  0  0  0
  8  9  1  0  0  0  0
  9 10  2  0  0  0  0
  9 11  1  0  0  0  0
  8 12  2  0  0  0  0
 12 13  1  0  0  0  0
 12 14  1  0  0  0  0
 14  3  2  0  0  0  0
 14 15  1  0  0  0  0
M  CHG  2   9   1  11  -1
M  END
> <ChemID>
100180

> <source_casrn>
100-02-7

> <CAS>
100-02-7

> <SMILES>
[O-][N+](=O)c1ccc(O)cc1

> <NAME>
4-NITROPHENOL

> <preferred_name>
4-Nitrophenol

> <iupac>
4-nitrophenol

> <MPID>
98111

> <dsstox_substance_id>
DTXSID0021834

> <Canonical_QSARr>
[O-][N+](=O)c1ccc(O)cc1

> <InChI_Code_QSARr>
InChI=1S/C6H5NO3/c8-6-3-1-5(2-4-6)7(9)10/h1-4,8H

> <InChI Key_QSARr>
BTJIUGUIPKRLHP-UHFFFAOYSA-N

> <Salt_Solvent>
?

> <LogBCF>
0.71

$$$$
100181
  -INDIGO-08031719362D

 18 18  0  0  0  0  0  0  0  0999 V2000
    3.2000   -0.0000    0.0000 C   0  0  0  0  0  0  0  0  0  0  0  0
    2.4000    1.3856    0.0000 C   0  0  0  0  0  0  0  0  0  0  0  0
    3.2000    2.7713    0.0000 H   0  0  0  0  0  0  0  0  0  0  0  0
    0.8001    1.3856    0.0000 C   0  0  0  0  0  0  0  0  0  0  0  0
   -0.0000    2.7713    0.0000 H   0  0  0  0  0  0  0  0  0  0  0  0
   -0.0000   -0.0000    0.0000 C   0  0  0  0  0  0  0  0  0  0  0  0
   -1.6000   -0.0000    0.0000 O   0  0  0  0  0  0  0  0  0  0  0  0
   -2.4001    1.3856    0.0000 C   0  0  0  0  0  0  0  0  0  0  0  0
   -4.0000    1.3856    0.0000 H   0  0  0  0  0  0  0  0  0  0  0  0
   -3.2000    2.7713    0.0000 H   0  0  0  0  0  0  0  0  0  0  0  0
   -3.2000   -0.0000    0.0000 H   0  0  0  0  0  0  0  0  0  0  0  0
    0.8001   -1.3856    0.0000 C   0  0  0  0  0  0  0  0  0  0  0  0
   -0.0000   -2.7713    0.0000 H   0  0  0  0  0  0  0  0  0  0  0  0
    2.4000   -1.3856    0.0000 C   0  0  0  0  0  0  0  0  0  0  0  0
    3.2000   -2.7713    0.0000 H   0  0  0  0  0  0  0  0  0  0  0  0
    4.8000   -0.0000    0.0000 N   0  0  0  0  0  0  0  0  0  0  0  0
    5.6000   -1.3856    0.0000 O   0  0  0  0  0  0  0  0  0  0  0  0
    5.6000    1.3856    0.0000 O   0  0  0  0  0  0  0  0  0  0  0  0
  1  2  1  0  0  0  0
  2  3  1  0  0  0  0
  2  4  2  0  0  0  0
  4  5  1  0  0  0  0
  4  6  1  0  0  0  0
  6  7  1  0  0  0  0
  7  8  1  0  0  0  0
  8  9  1  0  0  0  0
  8 10  1  0  0  0  0
  8 11  1  0  0  0  0
  6 12  2  0  0  0  0
 12 13  1  0  0  0  0
 12 14  1  0  0  0  0
 14  1  2  0  0  0  0
 14 15  1  0  0  0  0
  1 16  1  0  0  0  0
 16 17  2  0  0  0  0
 16 18  1  0  0  0  0
M  CHG  2  16   1  18  -1
M  END
> <ChemID>
100181

> <source_casrn>
100-17-4

> <CAS>
100-17-4

> <SMILES>
COc1ccc(cc1)[N+]([O-])=O

> <NAME>
P-NITROANISOLE

> <preferred_name>
p-Nitroanisole

> <iupac>
1-Methoxy-4-nitrobenzene

> <MPID>
98112

> <dsstox_substance_id>
DTXSID9059208

> <Canonical_QSARr>
COc1ccc(cc1)[N+]([O-])=O

> <InChI_Code_QSARr>
InChI=1S/C7H7NO3/c1-11-7-4-2-6(3-5-7)8(9)10/h2-5H,1H3

> <InChI Key_QSARr>
BNUHAJGCKIQFGE-UHFFFAOYSA-N

> <Salt_Solvent>
?

> <LogBCF>
1.08

$$$$
100183
  -INDIGO-08031719362D

 17 17  0  0  0  0  0  0  0  0999 V2000
    0.0001   -0.0000    0.0000 C   0  0  0  0  0  0  0  0  0  0  0  0
    1.6000   -0.0000    0.0000 C   0  0  0  0  0  0  0  0  0  0  0  0
    2.4000   -1.3856    0.0000 O   0  0  0  0  0  0  0  0  0  0  0  0
    4.0000   -1.3856    0.0000 H   0  0  0  0  0  0  0  0  0  0  0  0
    2.4000    1.3856    0.0000 O   0  0  0  0  0  0  0  0  0  0  0  0
   -0.7999    1.3856    0.0000 C   0  0  0  0  0  0  0  0  0  0  0  0
    0.0001    2.7713    0.0000 H   0  0  0  0  0  0  0  0  0  0  0  0
   -2.4001    1.3856    0.0000 C   0  0  0  0  0  0  0  0  0  0  0  0
   -3.2001    2.7713    0.0000 H   0  0  0  0  0  0  0  0  0  0  0  0
   -3.2001   -0.0000    0.0000 C   0  0  0  0  0  0  0  0  0  0  0  0
   -4.8000   -0.0000    0.0000 C   0  0  0  0  0  0  0  0  0  0  0  0
   -5.6000   -1.3856    0.0000 O   0  0  0  0  0  0  0  0  0  0  0  0
   -7.2000   -1.3856    0.0000 H   0  0  0  0  0  0  0  0  0  0  0  0
   -5.6000    1.3856    0.0000 O   0  0  0  0  0  0  0  0  0  0  0  0
   -2.4001   -1.3856    0.0000 N   0  0  0  0  0  0  0  0  0  0  0  0
   -0.7999   -1.3856    0.0000 C   0  0  0  0  0  0  0  0  0  0  0  0
    0.0001   -2.7713    0.0000 H   0  0  0  0  0  0  0  0  0  0  0  0
  1  2  1  0  0  0  0
  2  3  1  0  0  0  0
  3  4  1  0  0  0  0
  2  5  2  0  0  0  0
  1  6  1  0  0  0  0
  6  7  1  0  0  0  0
  6  8  2  0  0  0  0
  8  9  1  0  0  0  0
  8 10  1  0  0  0  0
 10 11  1  0  0  0  0
 11 12  1  0  0  0  0
 12 13  1  0  0  0  0
 11 14  2  0  0  0  0
 10 15  2  0  0  0  0
 15 16  1  0  0  0  0
 16  1  2  0  0  0  0
 16 17  1  0  0  0  0
M  END
> <ChemID>
100183

> <source_casrn>
100-26-5

> <CAS>
100-26-5

> <SMILES>
OC(=O)c1ccc(c[n]1)C(O)=O

> <NAME>
PYRIDINE-2,5-DICARBOXYLIC ACID

> <preferred_name>
2,5-Pyridinedicarboxylic acid

> <iupac>
Pyridine-2,5-dicarboxylic acid

> <MPID>
98114

> <dsstox_substance_id>
DTXSID3059210

> <Canonical_QSARr>
OC(=O)c1ccc(c[n]1)C(O)=O

> <InChI_Code_QSARr>
InChI=1S/C7H5NO4/c9-6(10)4-1-2-5(7(11)12)8-3-4/h1-3H,(H,9,10)(H,11,12)

> <InChI Key_QSARr>
LVPMIMZXDYBCDF-UHFFFAOYSA-N

> <Salt_Solvent>
?

> <LogBCF>
0.76

$$$$
100184
  -INDIGO-08031719362D

 20 20  0  0  0  0  0  0  0  0999 V2000
    2.7713   -0.0000    0.0000 C   0  0  0  0  0  0  0  0  0  0  0  0
    4.1569   -0.8000    0.0000 H   0  0  0  0  0  0  0  0  0  0  0  0
    2.7713    1.6000    0.0000 H   0  0  0  0  0  0  0  0  0  0  0  0
    1.3856   -0.8000    0.0000 C   0  0  0  0  0  0  0  0  0  0  0  0
    1.6634   -2.3757    0.0000 H   0  0  0  0  0  0  0  0  0  0  0  0
   -0.0000   -0.0000    0.0000 C   0  0  0  0  0  0  0  0  0  0  0  0
    1.2257    1.0285    0.0000 H   0  0  0  0  0  0  0  0  0  0  0  0
   -0.8000    1.3857    0.0000 C   0  0  0  0  0  0  0  0  0  0  0  0
    0.7034    1.9329    0.0000 H   0  0  0  0  0  0  0  0  0  0  0  0
   -1.0778    2.9613    0.0000 H   0  0  0  0  0  0  0  0  0  0  0  0
   -2.4000    1.3857    0.0000 C   0  0  0  0  0  0  0  0  0  0  0  0
   -2.1221    2.9613    0.0000 H   0  0  0  0  0  0  0  0  0  0  0  0
   -3.9036    1.9329    0.0000 H   0  0  0  0  0  0  0  0  0  0  0  0
   -3.2000   -0.0000    0.0000 C   0  0  0  0  0  0  0  0  0  0  0  0
   -4.8000   -0.0000    0.0000 H   0  0  0  0  0  0  0  0  0  0  0  0
   -2.4000   -1.3857    0.0000 C   0  0  0  0  0  0  0  0  0  0  0  0
   -3.2000   -2.7713    0.0000 H   0  0  0  0  0  0  0  0  0  0  0  0
   -0.8000   -1.3857    0.0000 C   0  0  0  0  0  0  0  0  0  0  0  0
   -1.0778   -2.9613    0.0000 H   0  0  0  0  0  0  0  0  0  0  0  0
    0.7034   -1.9329    0.0000 H   0  0  0  0  0  0  0  0  0  0  0  0
  1  2  1  0  0  0  0
  1  3  1  0  0  0  0
  1  4  2  0  0  0  0
  4  5  1  0  0  0  0
  4  6  1  0  0  0  0
  6  7  1  0  0  0  0
  6  8  1  0  0  0  0
  8  9  1  0  0  0  0
  8 10  1  0  0  0  0
  8 11  1  0  0  0  0
 11 12  1  0  0  0  0
 11 13  1  0  0  0  0
 11 14  1  0  0  0  0
 14 15  1  0  0  0  0
 14 16  2  0  0  0  0
 16 17  1  0  0  0  0
 16 18  1  0  0  0  0
 18  6  1  0  0  0  0
 18 19  1  0  0  0  0
 18 20  1  0  0  0  0
M  END
> <ChemID>
100184

> <source_casrn>
100-40-3

> <CAS>
100-40-3

> <SMILES>
C=CC1CC=CCC1

> <NAME>
4-VINYLCYCLOHEXENE

> <preferred_name>
4-Vinylcyclohexene

> <iupac>
4-ethenylcyclohexene

> <MPID>
98115

> <dsstox_substance_id>
DTXSID3021437

> <Canonical_QSARr>
C=CC1CC=CCC1

> <InChI_Code_QSARr>
InChI=1S/C8H12/c1-2-8-6-4-3-5-7-8/h2-4,8H,1,5-7H2

> <InChI Key_QSARr>
BBDKZWKEPDTENS-UHFFFAOYSA-N

> <Salt_Solvent>
?

> <LogBCF>
2.22

$$$$
100185
  -INDIGO-08031719362D

 16 16  0  0  0  0  0  0  0  0999 V2000
    2.7713   -0.0000    0.0000 C   0  0  0  0  0  0  0  0  0  0  0  0
    4.1569    0.8000    0.0000 H   0  0  0  0  0  0  0  0  0  0  0  0
    2.7713   -1.6000    0.0000 H   0  0  0  0  0  0  0  0  0  0  0  0
    1.3856    0.8000    0.0000 C   0  0  0  0  0  0  0  0  0  0  0  0
    1.3856    2.4000    0.0000 H   0  0  0  0  0  0  0  0  0  0  0  0
    0.0001   -0.0000    0.0000 C   0  0  0  0  0  0  0  0  0  0  0  0
    0.0001   -1.6000    0.0000 C   0  0  0  0  0  0  0  0  0  0  0  0
    1.3856   -2.4000    0.0000 H   0  0  0  0  0  0  0  0  0  0  0  0
   -1.3856   -2.4000    0.0000 C   0  0  0  0  0  0  0  0  0  0  0  0
   -1.3856   -4.0000    0.0000 H   0  0  0  0  0  0  0  0  0  0  0  0
   -2.7712   -1.6000    0.0000 C   0  0  0  0  0  0  0  0  0  0  0  0
   -4.1569   -2.4000    0.0000 H   0  0  0  0  0  0  0  0  0  0  0  0
   -2.7712   -0.0000    0.0000 C   0  0  0  0  0  0  0  0  0  0  0  0
   -4.1569    0.8000    0.0000 H   0  0  0  0  0  0  0  0  0  0  0  0
   -1.3856    0.8000    0.0000 C   0  0  0  0  0  0  0  0  0  0  0  0
   -1.3856    2.4000    0.0000 H   0  0  0  0  0  0  0  0  0  0  0  0
  1  2  1  0  0  0  0
  1  3  1  0  0  0  0
  1  4  2  0  0  0  0
  4  5  1  0  0  0  0
  4  6  1  0  0  0  0
  6  7  1  0  0  0  0
  7  8  1  0  0  0  0
  7  9  2  0  0  0  0
  9 10  1  0  0  0  0
  9 11  1  0  0  0  0
 11 12  1  0  0  0  0
 11 13  2  0  0  0  0
 13 14  1  0  0  0  0
 13 15  1  0  0  0  0
 15  6  2  0  0  0  0
 15 16  1  0  0  0  0
M  END
> <ChemID>
100185

> <source_casrn>
100-42-5

> <CAS>
100-42-5

> <SMILES>
C=Cc1ccccc1

> <NAME>
STYRENE

> <preferred_name>
Styrene

> <iupac>
ethenylbenzene

> <MPID>
98116

> <dsstox_substance_id>
DTXSID2021284

> <Canonical_QSARr>
C=Cc1ccccc1

> <InChI_Code_QSARr>
InChI=1S/C8H8/c1-2-8-6-4-3-5-7-8/h2-7H,1H2

> <InChI Key_QSARr>
PPBRXRYQALVLMV-UHFFFAOYSA-N

> <Salt_Solvent>
?

> <LogBCF>
1.13

$$$$
100187
  -INDIGO-08031719362D

 17 17  0  0  0  0  0  0  0  0999 V2000
    3.2001   -0.0000    0.0000 C   0  0  0  0  0  0  0  0  0  0  0  0
    4.8000   -0.0000    0.0000 H   0  0  0  0  0  0  0  0  0  0  0  0
    2.4000    1.3856    0.0000 C   0  0  0  0  0  0  0  0  0  0  0  0
    3.2001    2.7713    0.0000 H   0  0  0  0  0  0  0  0  0  0  0  0
    0.8000    1.3856    0.0000 C   0  0  0  0  0  0  0  0  0  0  0  0
    0.0000    2.7713    0.0000 H   0  0  0  0  0  0  0  0  0  0  0  0
    0.0000   -0.0000    0.0000 C   0  0  0  0  0  0  0  0  0  0  0  0
   -1.6000   -0.0000    0.0000 N   0  0  0  0  0  0  0  0  0  0  0  0
   -2.4001   -1.3856    0.0000 H   0  0  0  0  0  0  0  0  0  0  0  0
   -2.4001    1.3856    0.0000 C   0  0  0  0  0  0  0  0  0  0  0  0
   -3.2000    2.7713    0.0000 H   0  0  0  0  0  0  0  0  0  0  0  0
   -4.0000    1.3856    0.0000 H   0  0  0  0  0  0  0  0  0  0  0  0
   -1.6000    2.7713    0.0000 H   0  0  0  0  0  0  0  0  0  0  0  0
    0.8000   -1.3856    0.0000 C   0  0  0  0  0  0  0  0  0  0  0  0
    0.0000   -2.7713    0.0000 H   0  0  0  0  0  0  0  0  0  0  0  0
    2.4000   -1.3856    0.0000 C   0  0  0  0  0  0  0  0  0  0  0  0
    3.2001   -2.7713    0.0000 H   0  0  0  0  0  0  0  0  0  0  0  0
  1  2  1  0  0  0  0
  1  3  1  0  0  0  0
  3  4  1  0  0  0  0
  3  5  2  0  0  0  0
  5  6  1  0  0  0  0
  5  7  1  0  0  0  0
  7  8  1  0  0  0  0
  8  9  1  0  0  0  0
  8 10  1  0  0  0  0
 10 11  1  0  0  0  0
 10 12  1  0  0  0  0
 10 13  1  0  0  0  0
  7 14  2  0  0  0  0
 14 15  1  0  0  0  0
 14 16  1  0  0  0  0
 16  1  2  0  0  0  0
 16 17  1  0  0  0  0
M  END
> <ChemID>
100187

> <source_casrn>
100-61-8

> <CAS>
100-61-8

> <SMILES>
CNc1ccccc1

> <NAME>
N-METHYLANILINE

> <preferred_name>
N-Methylaniline

> <iupac>
N-methylaniline

> <MPID>
98118

> <dsstox_substance_id>
DTXSID9021841

> <Canonical_QSARr>
CNc1ccccc1

> <InChI_Code_QSARr>
InChI=1S/C7H9N/c1-8-7-5-3-2-4-6-7/h2-6,8H,1H3

> <InChI Key_QSARr>
AFBPFSWMIHJQDM-UHFFFAOYSA-N

> <Salt_Solvent>
?

> <LogBCF>
1.0

$$$$
100188
  -INDIGO-08031719362D

 19 19  0  0  0  0  0  0  0  0999 V2000
    2.7713   -0.0000    0.0000 C   0  0  0  0  0  0  0  0  0  0  0  0
    2.7713   -1.6000    0.0000 C   0  0  0  0  0  0  0  0  0  0  0  0
    4.1570   -2.4000    0.0000 H   0  0  0  0  0  0  0  0  0  0  0  0
    1.3856   -2.4000    0.0000 C   0  0  0  0  0  0  0  0  0  0  0  0
    1.3856   -4.0000    0.0000 H   0  0  0  0  0  0  0  0  0  0  0  0
   -0.0000   -1.6000    0.0000 C   0  0  0  0  0  0  0  0  0  0  0  0
   -1.3857   -2.4000    0.0000 H   0  0  0  0  0  0  0  0  0  0  0  0
   -0.0000   -0.0000    0.0000 C   0  0  0  0  0  0  0  0  0  0  0  0
   -1.3857    0.8000    0.0000 C   0  0  0  0  0  0  0  0  0  0  0  0
   -2.7713    1.6000    0.0000 H   0  0  0  0  0  0  0  0  0  0  0  0
   -2.7713   -0.0000    0.0000 H   0  0  0  0  0  0  0  0  0  0  0  0
   -1.3857    2.4000    0.0000 H   0  0  0  0  0  0  0  0  0  0  0  0
    1.3856    0.8000    0.0000 C   0  0  0  0  0  0  0  0  0  0  0  0
    1.3856    2.4000    0.0000 H   0  0  0  0  0  0  0  0  0  0  0  0
    4.1570    0.8000    0.0000 C   0  0  0  0  0  0  0  0  0  0  0  0
    4.1570    2.4000    0.0000 H   0  0  0  0  0  0  0  0  0  0  0  0
    5.5426   -0.0000    0.0000 C   0  0  0  0  0  0  0  0  0  0  0  0
    6.9282    0.8000    0.0000 H   0  0  0  0  0  0  0  0  0  0  0  0
    5.5426   -1.6000    0.0000 H   0  0  0  0  0  0  0  0  0  0  0  0
  1  2  1  0  0  0  0
  2  3  1  0  0  0  0
  2  4  2  0  0  0  0
  4  5  1  0  0  0  0
  4  6  1  0  0  0  0
  6  7  1  0  0  0  0
  6  8  2  0  0  0  0
  8  9  1  0  0  0  0
  9 10  1  0  0  0  0
  9 11  1  0  0  0  0
  9 12  1  0  0  0  0
  8 13  1  0  0  0  0
 13  1  2  0  0  0  0
 13 14  1  0  0  0  0
  1 15  1  0  0  0  0
 15 16  1  0  0  0  0
 15 17  2  0  0  0  0
 17 18  1  0  0  0  0
 17 19  1  0  0  0  0
M  END
> <ChemID>
100188

> <source_casrn>
100-80-1

> <CAS>
100-80-1

> <SMILES>
Cc1cc(C=C)ccc1

> <NAME>
M-METHYLSTYRENE

> <preferred_name>
3-Methylstyrene

> <iupac>
1-ethenyl-3-methylbenzene

> <MPID>
98119

> <dsstox_substance_id>
DTXSID9051454

> <Canonical_QSARr>
Cc1cc(C=C)ccc1

> <InChI_Code_QSARr>
InChI=1S/C9H10/c1-3-9-6-4-5-8(2)7-9/h3-7H,1H2,2H3

> <InChI Key_QSARr>
JZHGRUMIRATHIU-UHFFFAOYSA-N

> <Salt_Solvent>
?

> <LogBCF>
1.55

$$$$
100189
  -INDIGO-08031719362D

 29 30  0  0  0  0  0  0  0  0999 V2000
    4.2459   -3.5627    0.0000 Cl  0  0  0  0  0  0  0  0  0  0  0  0
    3.6986   -2.0591    0.0000 C   0  0  0  0  0  0  0  0  0  0  0  0
    4.7272   -0.8335    0.0000 C   0  0  0  0  0  0  0  0  0  0  0  0
    6.3027   -1.1113    0.0000 N   0  0  0  0  0  0  0  0  0  0  0  0
    7.3312    0.1143    0.0000 H   0  0  0  0  0  0  0  0  0  0  0  0
    6.8499   -2.6148    0.0000 H   0  0  0  0  0  0  0  0  0  0  0  0
    4.1799    0.6700    0.0000 C   0  0  0  0  0  0  0  0  0  0  0  0
    5.2083    1.8957    0.0000 H   0  0  0  0  0  0  0  0  0  0  0  0
    2.6042    0.9479    0.0000 C   0  0  0  0  0  0  0  0  0  0  0  0
    2.0570    2.4513    0.0000 H   0  0  0  0  0  0  0  0  0  0  0  0
    1.5757   -0.2778    0.0000 C   0  0  0  0  0  0  0  0  0  0  0  0
   -0.0001    0.0000    0.0000 C   0  0  0  0  0  0  0  0  0  0  0  0
   -0.8598    1.3494    0.0000 H   0  0  0  0  0  0  0  0  0  0  0  0
    0.3463    1.5621    0.0000 H   0  0  0  0  0  0  0  0  0  0  0  0
   -1.3857   -0.8000    0.0000 C   0  0  0  0  0  0  0  0  0  0  0  0
   -1.3857   -2.4000    0.0000 C   0  0  0  0  0  0  0  0  0  0  0  0
   -0.0001   -3.2000    0.0000 H   0  0  0  0  0  0  0  0  0  0  0  0
   -2.7712   -3.2000    0.0000 C   0  0  0  0  0  0  0  0  0  0  0  0
   -2.7712   -4.8000    0.0000 Cl  0  0  0  0  0  0  0  0  0  0  0  0
   -4.1568   -2.4000    0.0000 C   0  0  0  0  0  0  0  0  0  0  0  0
   -5.5426   -3.2000    0.0000 N   0  0  0  0  0  0  0  0  0  0  0  0
   -5.5426   -4.8000    0.0000 H   0  0  0  0  0  0  0  0  0  0  0  0
   -6.9282   -2.4000    0.0000 H   0  0  0  0  0  0  0  0  0  0  0  0
   -4.1568   -0.8000    0.0000 C   0  0  0  0  0  0  0  0  0  0  0  0
   -5.5426    0.0000    0.0000 H   0  0  0  0  0  0  0  0  0  0  0  0
   -2.7712    0.0000    0.0000 C   0  0  0  0  0  0  0  0  0  0  0  0
   -2.7712    1.6000    0.0000 H   0  0  0  0  0  0  0  0  0  0  0  0
    2.1229   -1.7813    0.0000 C   0  0  0  0  0  0  0  0  0  0  0  0
    1.0944   -3.0071    0.0000 H   0  0  0  0  0  0  0  0  0  0  0  0
  1  2  1  0  0  0  0
  2  3  1  0  0  0  0
  3  4  1  0  0  0  0
  4  5  1  0  0  0  0
  4  6  1  0  0  0  0
  3  7  2  0  0  0  0
  7  8  1  0  0  0  0
  7  9  1  0  0  0  0
  9 10  1  0  0  0  0
  9 11  2  0  0  0  0
 11 12  1  0  0  0  0
 12 13  1  0  0  0  0
 12 14  1  0  0  0  0
 12 15  1  0  0  0  0
 15 16  1  0  0  0  0
 16 17  1  0  0  0  0
 16 18  2  0  0  0  0
 18 19  1  0  0  0  0
 18 20  1  0  0  0  0
 20 21  1  0  0  0  0
 21 22  1  0  0  0  0
 21 23  1  0  0  0  0
 20 24  2  0  0  0  0
 24 25  1  0  0  0  0
 24 26  1  0  0  0  0
 26 15  2  0  0  0  0
 26 27  1  0  0  0  0
 11 28  1  0  0  0  0
 28  2  2  0  0  0  0
 28 29  1  0  0  0  0
M  END
> <ChemID>
100189

> <source_casrn>
101-14-4

> <CAS>
101-14-4

> <SMILES>
Nc1ccc(Cc2cc(Cl)c(N)cc2)cc1Cl

> <NAME>
4,4'-METHYLENEBIS(2-CHLOROANILINE)

> <preferred_name>
4,4'-Methylenebis(2-chloroaniline)

> <iupac>
4,4'-methanediylbis(2-chloroaniline)

> <MPID>
98120

> <dsstox_substance_id>
DTXSID5020865

> <Canonical_QSARr>
Nc1ccc(Cc2cc(Cl)c(N)cc2)cc1Cl

> <InChI_Code_QSARr>
InChI=1S/C13H12Cl2N2/c14-10-6-8(1-3-12(10)16)5-9-2-4-13(17)11(15)7-9/h1-4,6-7H,5,16-17H2

> <InChI Key_QSARr>
IBOFVQJTBBUKMU-UHFFFAOYSA-N

> <Salt_Solvent>
?

> <LogBCF>
2.24

$$$$
100191
  -INDIGO-08031719362D

 29 30  0  0  0  0  0  0  0  0999 V2000
    4.7272   -0.8335    0.0000 C   0  0  0  0  0  0  0  0  0  0  0  0
    6.3027   -1.1113    0.0000 N   0  0  0  0  0  0  0  0  0  0  0  0
    7.3312    0.1143    0.0000 H   0  0  0  0  0  0  0  0  0  0  0  0
    6.8499   -2.6148    0.0000 H   0  0  0  0  0  0  0  0  0  0  0  0
    4.1799    0.6700    0.0000 C   0  0  0  0  0  0  0  0  0  0  0  0
    5.2083    1.8957    0.0000 H   0  0  0  0  0  0  0  0  0  0  0  0
    2.6042    0.9479    0.0000 C   0  0  0  0  0  0  0  0  0  0  0  0
    2.0570    2.4513    0.0000 H   0  0  0  0  0  0  0  0  0  0  0  0
    1.5757   -0.2778    0.0000 C   0  0  0  0  0  0  0  0  0  0  0  0
   -0.0001    0.0000    0.0000 C   0  0  0  0  0  0  0  0  0  0  0  0
   -0.8598    1.3494    0.0000 H   0  0  0  0  0  0  0  0  0  0  0  0
    0.3463    1.5621    0.0000 H   0  0  0  0  0  0  0  0  0  0  0  0
   -1.3857   -0.8000    0.0000 C   0  0  0  0  0  0  0  0  0  0  0  0
   -1.3857   -2.4000    0.0000 C   0  0  0  0  0  0  0  0  0  0  0  0
   -0.0001   -3.2000    0.0000 H   0  0  0  0  0  0  0  0  0  0  0  0
   -2.7712   -3.2000    0.0000 C   0  0  0  0  0  0  0  0  0  0  0  0
   -2.7712   -4.8000    0.0000 H   0  0  0  0  0  0  0  0  0  0  0  0
   -4.1568   -2.4000    0.0000 C   0  0  0  0  0  0  0  0  0  0  0  0
   -5.5426   -3.2000    0.0000 N   0  0  0  0  0  0  0  0  0  0  0  0
   -5.5426   -4.8000    0.0000 H   0  0  0  0  0  0  0  0  0  0  0  0
   -6.9282   -2.4000    0.0000 H   0  0  0  0  0  0  0  0  0  0  0  0
   -4.1568   -0.8000    0.0000 C   0  0  0  0  0  0  0  0  0  0  0  0
   -5.5426    0.0000    0.0000 H   0  0  0  0  0  0  0  0  0  0  0  0
   -2.7712    0.0000    0.0000 C   0  0  0  0  0  0  0  0  0  0  0  0
   -2.7712    1.6000    0.0000 H   0  0  0  0  0  0  0  0  0  0  0  0
    2.1229   -1.7813    0.0000 C   0  0  0  0  0  0  0  0  0  0  0  0
    1.0944   -3.0071    0.0000 H   0  0  0  0  0  0  0  0  0  0  0  0
    3.6986   -2.0591    0.0000 C   0  0  0  0  0  0  0  0  0  0  0  0
    4.2459   -3.5627    0.0000 H   0  0  0  0  0  0  0  0  0  0  0  0
  1  2  1  0  0  0  0
  2  3  1  0  0  0  0
  2  4  1  0  0  0  0
  1  5  1  0  0  0  0
  5  6  1  0  0  0  0
  5  7  2  0  0  0  0
  7  8  1  0  0  0  0
  7  9  1  0  0  0  0
  9 10  1  0  0  0  0
 10 11  1  0  0  0  0
 10 12  1  0  0  0  0
 10 13  1  0  0  0  0
 13 14  1  0  0  0  0
 14 15  1  0  0  0  0
 14 16  2  0  0  0  0
 16 17  1  0  0  0  0
 16 18  1  0  0  0  0
 18 19  1  0  0  0  0
 19 20  1  0  0  0  0
 19 21  1  0  0  0  0
 18 22  2  0  0  0  0
 22 23  1  0  0  0  0
 22 24  1  0  0  0  0
 24 13  2  0  0  0  0
 24 25  1  0  0  0  0
  9 26  2  0  0  0  0
 26 27  1  0  0  0  0
 26 28  1  0  0  0  0
 28  1  2  0  0  0  0
 28 29  1  0  0  0  0
M  END
> <ChemID>
100191

> <source_casrn>
101-77-9

> <CAS>
101-77-9

> <SMILES>
Nc1ccc(Cc2ccc(N)cc2)cc1

> <NAME>
DI-(P-AMINOPHENYL)METHANE

> <preferred_name>
4,4'-Methylenedianiline

> <iupac>
C13H14N2

> <MPID>
98122

> <dsstox_substance_id>
DTXSID6022422

> <Canonical_QSARr>
Nc1ccc(Cc2ccc(N)cc2)cc1

> <InChI_Code_QSARr>
InChI=1S/C13H14N2/c14-12-5-1-10(2-6-12)9-11-3-7-13(15)8-4-11/h1-8H,9,14-15H2

> <InChI Key_QSARr>
YBRVSVVVWCFQMG-UHFFFAOYSA-N

> <Salt_Solvent>
?

> <LogBCF>
1.18

$$$$
100192
  -INDIGO-08031719362D

 25 26  0  0  0  0  0  0  0  0999 V2000
   -0.0001    0.0000    0.0000 C   0  0  0  0  0  0  0  0  0  0  0  0
    0.8597    1.3494    0.0000 H   0  0  0  0  0  0  0  0  0  0  0  0
   -0.3462    1.5621    0.0000 H   0  0  0  0  0  0  0  0  0  0  0  0
   -1.5757   -0.2778    0.0000 C   0  0  0  0  0  0  0  0  0  0  0  0
   -2.1230   -1.7813    0.0000 C   0  0  0  0  0  0  0  0  0  0  0  0
   -1.0945   -3.0071    0.0000 H   0  0  0  0  0  0  0  0  0  0  0  0
   -3.6986   -2.0591    0.0000 C   0  0  0  0  0  0  0  0  0  0  0  0
   -4.2459   -3.5627    0.0000 H   0  0  0  0  0  0  0  0  0  0  0  0
   -4.7270   -0.8335    0.0000 C   0  0  0  0  0  0  0  0  0  0  0  0
   -6.3028   -1.1113    0.0000 H   0  0  0  0  0  0  0  0  0  0  0  0
   -4.1799    0.6700    0.0000 C   0  0  0  0  0  0  0  0  0  0  0  0
   -5.2083    1.8957    0.0000 H   0  0  0  0  0  0  0  0  0  0  0  0
   -2.6041    0.9479    0.0000 C   0  0  0  0  0  0  0  0  0  0  0  0
   -2.0570    2.4513    0.0000 H   0  0  0  0  0  0  0  0  0  0  0  0
    1.3857   -0.8000    0.0000 C   0  0  0  0  0  0  0  0  0  0  0  0
    1.3857   -2.4000    0.0000 C   0  0  0  0  0  0  0  0  0  0  0  0
   -0.0001   -3.2000    0.0000 H   0  0  0  0  0  0  0  0  0  0  0  0
    2.7713   -3.2000    0.0000 C   0  0  0  0  0  0  0  0  0  0  0  0
    2.7713   -4.8000    0.0000 H   0  0  0  0  0  0  0  0  0  0  0  0
    4.1569   -2.4000    0.0000 C   0  0  0  0  0  0  0  0  0  0  0  0
    5.5426   -3.2000    0.0000 H   0  0  0  0  0  0  0  0  0  0  0  0
    4.1569   -0.8000    0.0000 C   0  0  0  0  0  0  0  0  0  0  0  0
    5.5426    0.0000    0.0000 H   0  0  0  0  0  0  0  0  0  0  0  0
    2.7713    0.0000    0.0000 C   0  0  0  0  0  0  0  0  0  0  0  0
    2.7713    1.6000    0.0000 H   0  0  0  0  0  0  0  0  0  0  0  0
  1  2  1  0  0  0  0
  1  3  1  0  0  0  0
  1  4  1  0  0  0  0
  4  5  1  0  0  0  0
  5  6  1  0  0  0  0
  5  7  2  0  0  0  0
  7  8  1  0  0  0  0
  7  9  1  0  0  0  0
  9 10  1  0  0  0  0
  9 11  2  0  0  0  0
 11 12  1  0  0  0  0
 11 13  1  0  0  0  0
 13  4  2  0  0  0  0
 13 14  1  0  0  0  0
  1 15  1  0  0  0  0
 15 16  1  0  0  0  0
 16 17  1  0  0  0  0
 16 18  2  0  0  0  0
 18 19  1  0  0  0  0
 18 20  1  0  0  0  0
 20 21  1  0  0  0  0
 20 22  2  0  0  0  0
 22 23  1  0  0  0  0
 22 24  1  0  0  0  0
 24 15  2  0  0  0  0
 24 25  1  0  0  0  0
M  END
> <ChemID>
100192

> <source_casrn>
101-81-5

> <CAS>
101-81-5

> <SMILES>
C(c1ccccc1)c1ccccc1

> <NAME>
BENZENE, 1,1'-METHYLENEBIS-

> <preferred_name>
Diphenylmethane

> <iupac>
1,1'-methanediyldibenzene

> <MPID>
98123

> <dsstox_substance_id>
DTXSID1041891

> <Canonical_QSARr>
C(c1ccccc1)c1ccccc1

> <InChI_Code_QSARr>
InChI=1S/C13H12/c1-3-7-12(8-4-1)11-13-9-5-2-6-10-13/h1-10H,11H2

> <InChI Key_QSARr>
CZZYITDELCSZES-UHFFFAOYSA-N

> <Salt_Solvent>
?

> <LogBCF>
2.94

$$$$
100193
  -INDIGO-08031719362D

 23 24  0  0  0  0  0  0  0  0999 V2000
   -0.5473   -1.5035    0.0000 C   0  0  0  0  0  0  0  0  0  0  0  0
    0.4812   -2.7292    0.0000 H   0  0  0  0  0  0  0  0  0  0  0  0
   -2.1229   -1.7813    0.0000 C   0  0  0  0  0  0  0  0  0  0  0  0
   -2.6702   -3.2849    0.0000 H   0  0  0  0  0  0  0  0  0  0  0  0
   -3.1513   -0.5556    0.0000 C   0  0  0  0  0  0  0  0  0  0  0  0
   -4.7271   -0.8335    0.0000 H   0  0  0  0  0  0  0  0  0  0  0  0
   -2.6042    0.9479    0.0000 C   0  0  0  0  0  0  0  0  0  0  0  0
   -3.6326    2.1735    0.0000 H   0  0  0  0  0  0  0  0  0  0  0  0
   -1.0284    1.2257    0.0000 C   0  0  0  0  0  0  0  0  0  0  0  0
   -0.4813    2.7292    0.0000 H   0  0  0  0  0  0  0  0  0  0  0  0
    0.0000    0.0000    0.0000 C   0  0  0  0  0  0  0  0  0  0  0  0
    1.5756    0.2779    0.0000 O   0  0  0  0  0  0  0  0  0  0  0  0
    2.9614   -0.5221    0.0000 C   0  0  0  0  0  0  0  0  0  0  0  0
    2.9614   -2.1222    0.0000 C   0  0  0  0  0  0  0  0  0  0  0  0
    1.5756   -2.9222    0.0000 H   0  0  0  0  0  0  0  0  0  0  0  0
    4.3470   -2.9222    0.0000 C   0  0  0  0  0  0  0  0  0  0  0  0
    4.3470   -4.5222    0.0000 H   0  0  0  0  0  0  0  0  0  0  0  0
    5.7326   -2.1222    0.0000 C   0  0  0  0  0  0  0  0  0  0  0  0
    7.1183   -2.9222    0.0000 H   0  0  0  0  0  0  0  0  0  0  0  0
    5.7326   -0.5221    0.0000 C   0  0  0  0  0  0  0  0  0  0  0  0
    7.1183    0.2779    0.0000 H   0  0  0  0  0  0  0  0  0  0  0  0
    4.3470    0.2779    0.0000 C   0  0  0  0  0  0  0  0  0  0  0  0
    4.3470    1.8779    0.0000 H   0  0  0  0  0  0  0  0  0  0  0  0
  1  2  1  0  0  0  0
  1  3  1  0  0  0  0
  3  4  1  0  0  0  0
  3  5  2  0  0  0  0
  5  6  1  0  0  0  0
  5  7  1  0  0  0  0
  7  8  1  0  0  0  0
  7  9  2  0  0  0  0
  9 10  1  0  0  0  0
  9 11  1  0  0  0  0
 11  1  2  0  0  0  0
 11 12  1  0  0  0  0
 12 13  1  0  0  0  0
 13 14  1  0  0  0  0
 14 15  1  0  0  0  0
 14 16  2  0  0  0  0
 16 17  1  0  0  0  0
 16 18  1  0  0  0  0
 18 19  1  0  0  0  0
 18 20  2  0  0  0  0
 20 21  1  0  0  0  0
 20 22  1  0  0  0  0
 22 13  2  0  0  0  0
 22 23  1  0  0  0  0
M  END
> <ChemID>
100193

> <source_casrn>
101-84-8

> <CAS>
101-84-8

> <SMILES>
c1ccccc1Oc1ccccc1

> <NAME>
DIPHENYL ETHER

> <preferred_name>
Diphenyl oxide

> <iupac>
diphenyl ether

> <MPID>
98124

> <dsstox_substance_id>
DTXSID9021847

> <Canonical_QSARr>
c1ccccc1Oc1ccccc1

> <InChI_Code_QSARr>
InChI=1S/C12H10O/c1-3-7-11(8-4-1)13-12-9-5-2-6-10-12/h1-10H

> <InChI Key_QSARr>
USIUVYZYUHIAEV-UHFFFAOYSA-N

> <Salt_Solvent>
?

> <LogBCF>
2.5

$$$$
100195
  -INDIGO-08031719362D

 25 24  0  0  0  0  0  0  0  0999 V2000
    0.0001    0.0001    0.0000 N   0  0  0  0  0  0  0  0  0  0  0  0
    1.3857    0.8000    0.0000 C   0  0  0  0  0  0  0  0  0  0  0  0
    2.9720    0.5911    0.0000 H   0  0  0  0  0  0  0  0  0  0  0  0
    2.3597   -0.4694    0.0000 H   0  0  0  0  0  0  0  0  0  0  0  0
    1.3857    2.4000    0.0000 C   0  0  0  0  0  0  0  0  0  0  0  0
    0.0001    3.2001    0.0000 H   0  0  0  0  0  0  0  0  0  0  0  0
    2.7713    3.2001    0.0000 C   0  0  0  0  0  0  0  0  0  0  0  0
    2.7713    4.8000    0.0000 H   0  0  0  0  0  0  0  0  0  0  0  0
    4.1569    2.4000    0.0000 H   0  0  0  0  0  0  0  0  0  0  0  0
   -1.3857    0.8000    0.0000 C   0  0  0  0  0  0  0  0  0  0  0  0
   -1.9980    2.2782    0.0000 H   0  0  0  0  0  0  0  0  0  0  0  0
   -0.7734    2.2782    0.0000 H   0  0  0  0  0  0  0  0  0  0  0  0
   -2.7713    0.0001    0.0000 C   0  0  0  0  0  0  0  0  0  0  0  0
   -2.7713   -1.6000    0.0000 H   0  0  0  0  0  0  0  0  0  0  0  0
   -4.1569    0.8000    0.0000 C   0  0  0  0  0  0  0  0  0  0  0  0
   -5.5426    0.0001    0.0000 H   0  0  0  0  0  0  0  0  0  0  0  0
   -4.1569    2.4000    0.0000 H   0  0  0  0  0  0  0  0  0  0  0  0
    0.0001   -1.6000    0.0000 C   0  0  0  0  0  0  0  0  0  0  0  0
   -0.9740   -2.8693    0.0000 H   0  0  0  0  0  0  0  0  0  0  0  0
   -1.5863   -1.8089    0.0000 H   0  0  0  0  0  0  0  0  0  0  0  0
    1.3857   -2.4000    0.0000 C   0  0  0  0  0  0  0  0  0  0  0  0
    2.7713   -1.6000    0.0000 H   0  0  0  0  0  0  0  0  0  0  0  0
    1.3857   -4.0000    0.0000 C   0  0  0  0  0  0  0  0  0  0  0  0
    2.7713   -4.8000    0.0000 H   0  0  0  0  0  0  0  0  0  0  0  0
    0.0001   -4.8000    0.0000 H   0  0  0  0  0  0  0  0  0  0  0  0
  1  2  1  0  0  0  0
  2  3  1  0  0  0  0
  2  4  1  0  0  0  0
  2  5  1  0  0  0  0
  5  6  1  0  0  0  0
  5  7  2  0  0  0  0
  7  8  1  0  0  0  0
  7  9  1  0  0  0  0
  1 10  1  0  0  0  0
 10 11  1  0  0  0  0
 10 12  1  0  0  0  0
 10 13  1  0  0  0  0
 13 14  1  0  0  0  0
 13 15  2  0  0  0  0
 15 16  1  0  0  0  0
 15 17  1  0  0  0  0
  1 18  1  0  0  0  0
 18 19  1  0  0  0  0
 18 20  1  0  0  0  0
 18 21  1  0  0  0  0
 21 22  1  0  0  0  0
 21 23  2  0  0  0  0
 23 24  1  0  0  0  0
 23 25  1  0  0  0  0
M  END
> <ChemID>
100195

> <source_casrn>
102-70-5

> <CAS>
102-70-5

> <SMILES>
C=CCN(CC=C)CC=C

> <NAME>
TRIALLYLAMINE

> <preferred_name>
Triallylamine

> <iupac>
N,N-di(prop-2-en-1-yl)prop-2-en-1-amine

> <MPID>
98126

> <dsstox_substance_id>
DTXSID5026174

> <Canonical_QSARr>
C=CCN(CC=C)CC=C

> <InChI_Code_QSARr>
InChI=1S/C9H15N/c1-4-7-10(8-5-2)9-6-3/h4-6H,1-3,7-9H2

> <InChI Key_QSARr>
VPYJNCGUESNPMV-UHFFFAOYSA-N

> <Salt_Solvent>
?

> <LogBCF>
0.55

$$$$
100196
  -INDIGO-08031719362D

 25 24  0  0  0  0  0  0  0  0999 V2000
    1.6000    2.7713    0.0000 O   0  0  0  0  0  0  0  0  0  0  0  0
    2.4000    4.1569    0.0000 H   0  0  0  0  0  0  0  0  0  0  0  0
    2.4000    1.3857    0.0000 C   0  0  0  0  0  0  0  0  0  0  0  0
    3.8782    0.7733    0.0000 H   0  0  0  0  0  0  0  0  0  0  0  0
    3.8782    1.9980    0.0000 H   0  0  0  0  0  0  0  0  0  0  0  0
    1.6000    0.0000    0.0000 C   0  0  0  0  0  0  0  0  0  0  0  0
    2.8694   -0.9740    0.0000 H   0  0  0  0  0  0  0  0  0  0  0  0
    1.8089   -1.5863    0.0000 H   0  0  0  0  0  0  0  0  0  0  0  0
    0.0000    0.0000    0.0000 N   0  0  0  0  0  0  0  0  0  0  0  0
   -0.8000    1.3857    0.0000 C   0  0  0  0  0  0  0  0  0  0  0  0
   -0.5911    2.9719    0.0000 H   0  0  0  0  0  0  0  0  0  0  0  0
    0.4694    2.3597    0.0000 H   0  0  0  0  0  0  0  0  0  0  0  0
   -2.4000    1.3857    0.0000 C   0  0  0  0  0  0  0  0  0  0  0  0
   -2.6088    2.9719    0.0000 H   0  0  0  0  0  0  0  0  0  0  0  0
   -3.6694    2.3597    0.0000 H   0  0  0  0  0  0  0  0  0  0  0  0
   -3.2000    0.0000    0.0000 O   0  0  0  0  0  0  0  0  0  0  0  0
   -4.8000    0.0000    0.0000 H   0  0  0  0  0  0  0  0  0  0  0  0
   -0.8000   -1.3856    0.0000 C   0  0  0  0  0  0  0  0  0  0  0  0
   -2.2782   -1.9979    0.0000 H   0  0  0  0  0  0  0  0  0  0  0  0
   -2.2782   -0.7734    0.0000 H   0  0  0  0  0  0  0  0  0  0  0  0
    0.0000   -2.7712    0.0000 C   0  0  0  0  0  0  0  0  0  0  0  0
   -1.2694   -3.7453    0.0000 H   0  0  0  0  0  0  0  0  0  0  0  0
   -0.2088   -4.3576    0.0000 H   0  0  0  0  0  0  0  0  0  0  0  0
    1.6000   -2.7712    0.0000 O   0  0  0  0  0  0  0  0  0  0  0  0
    2.4000   -4.1569    0.0000 H   0  0  0  0  0  0  0  0  0  0  0  0
  1  2  1  0  0  0  0
  1  3  1  0  0  0  0
  3  4  1  0  0  0  0
  3  5  1  0  0  0  0
  3  6  1  0  0  0  0
  6  7  1  0  0  0  0
  6  8  1  0  0  0  0
  6  9  1  0  0  0  0
  9 10  1  0  0  0  0
 10 11  1  0  0  0  0
 10 12  1  0  0  0  0
 10 13  1  0  0  0  0
 13 14  1  0  0  0  0
 13 15  1  0  0  0  0
 13 16  1  0  0  0  0
 16 17  1  0  0  0  0
  9 18  1  0  0  0  0
 18 19  1  0  0  0  0
 18 20  1  0  0  0  0
 18 21  1  0  0  0  0
 21 22  1  0  0  0  0
 21 23  1  0  0  0  0
 21 24  1  0  0  0  0
 24 25  1  0  0  0  0
M  END
> <ChemID>
100196

> <source_casrn>
102-71-6

> <CAS>
102-71-6

> <SMILES>
OCCN(CCO)CCO

> <NAME>
TRIETHANOLAMINE

> <preferred_name>
Triethanolamine

> <iupac>
2,2',2''-nitrilotriethanol

> <MPID>
98127

> <dsstox_substance_id>
DTXSID9021392

> <Canonical_QSARr>
OCCN(CCO)CCO

> <InChI_Code_QSARr>
InChI=1S/C6H15NO3/c8-4-1-7(2-5-9)3-6-10/h8-10H,1-6H2

> <InChI Key_QSARr>
GSEJCLTVZPLZKY-UHFFFAOYSA-N

> <Salt_Solvent>
?

> <LogBCF>
0.59

$$$$
100197
  -INDIGO-08031719362D

 40 39  0  0  0  0  0  0  0  0999 V2000
   -0.0001    0.0000    0.0000 N   0  0  0  0  0  0  0  0  0  0  0  0
    0.8000    1.3856    0.0000 C   0  0  0  0  0  0  0  0  0  0  0  0
    0.5912    2.9719    0.0000 H   0  0  0  0  0  0  0  0  0  0  0  0
   -0.4693    2.3597    0.0000 H   0  0  0  0  0  0  0  0  0  0  0  0
    2.3757    1.6635    0.0000 C   0  0  0  0  0  0  0  0  0  0  0  0
    2.8568    0.1376    0.0000 H   0  0  0  0  0  0  0  0  0  0  0  0
    3.7948    0.9248    0.0000 H   0  0  0  0  0  0  0  0  0  0  0  0
    2.9230    3.1670    0.0000 C   0  0  0  0  0  0  0  0  0  0  0  0
    2.4418    4.6929    0.0000 H   0  0  0  0  0  0  0  0  0  0  0  0
    1.5037    3.9057    0.0000 H   0  0  0  0  0  0  0  0  0  0  0  0
    4.4986    3.4449    0.0000 C   0  0  0  0  0  0  0  0  0  0  0  0
    6.0743    3.7226    0.0000 H   0  0  0  0  0  0  0  0  0  0  0  0
    5.0458    4.9483    0.0000 H   0  0  0  0  0  0  0  0  0  0  0  0
    5.5270    2.2192    0.0000 H   0  0  0  0  0  0  0  0  0  0  0  0
    0.8000   -1.3856    0.0000 C   0  0  0  0  0  0  0  0  0  0  0  0
    2.2782   -1.9980    0.0000 H   0  0  0  0  0  0  0  0  0  0  0  0
    2.2782   -0.7734    0.0000 H   0  0  0  0  0  0  0  0  0  0  0  0
    0.2527   -2.8892    0.0000 C   0  0  0  0  0  0  0  0  0  0  0  0
   -1.3093   -2.5428    0.0000 H   0  0  0  0  0  0  0  0  0  0  0  0
   -1.0966   -3.7488    0.0000 H   0  0  0  0  0  0  0  0  0  0  0  0
    1.2812   -4.1147    0.0000 C   0  0  0  0  0  0  0  0  0  0  0  0
    2.8434   -4.4612    0.0000 H   0  0  0  0  0  0  0  0  0  0  0  0
    2.6307   -3.2552    0.0000 H   0  0  0  0  0  0  0  0  0  0  0  0
    0.7339   -5.6184    0.0000 C   0  0  0  0  0  0  0  0  0  0  0  0
    0.1869   -7.1218    0.0000 H   0  0  0  0  0  0  0  0  0  0  0  0
    1.7624   -6.8439    0.0000 H   0  0  0  0  0  0  0  0  0  0  0  0
   -0.8416   -5.8961    0.0000 H   0  0  0  0  0  0  0  0  0  0  0  0
   -1.6000    0.0000    0.0000 C   0  0  0  0  0  0  0  0  0  0  0  0
   -2.8693   -0.9739    0.0000 H   0  0  0  0  0  0  0  0  0  0  0  0
   -1.8088   -1.5863    0.0000 H   0  0  0  0  0  0  0  0  0  0  0  0
   -2.6285    1.2257    0.0000 C   0  0  0  0  0  0  0  0  0  0  0  0
   -1.5475    2.4054    0.0000 H   0  0  0  0  0  0  0  0  0  0  0  0
   -2.6983    2.8242    0.0000 H   0  0  0  0  0  0  0  0  0  0  0  0
   -4.2041    0.9478    0.0000 C   0  0  0  0  0  0  0  0  0  0  0  0
   -5.2850   -0.2319    0.0000 H   0  0  0  0  0  0  0  0  0  0  0  0
   -4.1343   -0.6507    0.0000 H   0  0  0  0  0  0  0  0  0  0  0  0
   -5.2326    2.1735    0.0000 C   0  0  0  0  0  0  0  0  0  0  0  0
   -6.2610    3.3992    0.0000 H   0  0  0  0  0  0  0  0  0  0  0  0
   -6.8083    1.8957    0.0000 H   0  0  0  0  0  0  0  0  0  0  0  0
   -4.6853    3.6769    0.0000 H   0  0  0  0  0  0  0  0  0  0  0  0
  1  2  1  0  0  0  0
  2  3  1  0  0  0  0
  2  4  1  0  0  0  0
  2  5  1  0  0  0  0
  5  6  1  0  0  0  0
  5  7  1  0  0  0  0
  5  8  1  0  0  0  0
  8  9  1  0  0  0  0
  8 10  1  0  0  0  0
  8 11  1  0  0  0  0
 11 12  1  0  0  0  0
 11 13  1  0  0  0  0
 11 14  1  0  0  0  0
  1 15  1  0  0  0  0
 15 16  1  0  0  0  0
 15 17  1  0  0  0  0
 15 18  1  0  0  0  0
 18 19  1  0  0  0  0
 18 20  1  0  0  0  0
 18 21  1  0  0  0  0
 21 22  1  0  0  0  0
 21 23  1  0  0  0  0
 21 24  1  0  0  0  0
 24 25  1  0  0  0  0
 24 26  1  0  0  0  0
 24 27  1  0  0  0  0
  1 28  1  0  0  0  0
 28 29  1  0  0  0  0
 28 30  1  0  0  0  0
 28 31  1  0  0  0  0
 31 32  1  0  0  0  0
 31 33  1  0  0  0  0
 31 34  1  0  0  0  0
 34 35  1  0  0  0  0
 34 36  1  0  0  0  0
 34 37  1  0  0  0  0
 37 38  1  0  0  0  0
 37 39  1  0  0  0  0
 37 40  1  0  0  0  0
M  END
> <ChemID>
100197

> <source_casrn>
102-82-9

> <CAS>
102-82-9

> <SMILES>
N(CCCC)(CCCC)CCCC

> <NAME>
TRI N-BUTYLAMINE

> <preferred_name>
Tributylamine

> <iupac>
N,N-dibutylbutan-1-amine

> <MPID>
98128

> <dsstox_substance_id>
DTXSID4026183

> <Canonical_QSARr>
CCCCN(CCCC)CCCC

> <InChI_Code_QSARr>
InChI=1S/C12H27N/c1-4-7-10-13(11-8-5-2)12-9-6-3/h4-12H2,1-3H3

> <InChI Key_QSARr>
IMFACGCPASFAPR-UHFFFAOYSA-N

> <Salt_Solvent>
?

> <LogBCF>
1.4

$$$$
100199
  -INDIGO-08031719362D

 29 30  0  0  0  0  0  0  0  0999 V2000
    2.7712   -0.0000    0.0000 O   0  0  0  0  0  0  0  0  0  0  0  0
    4.1569    0.8000    0.0000 C   0  0  0  0  0  0  0  0  0  0  0  0
    3.5446    2.2782    0.0000 H   0  0  0  0  0  0  0  0  0  0  0  0
    4.7692    2.2782    0.0000 H   0  0  0  0  0  0  0  0  0  0  0  0
    5.5427   -0.0000    0.0000 C   0  0  0  0  0  0  0  0  0  0  0  0
    5.5427   -1.6000    0.0000 C   0  0  0  0  0  0  0  0  0  0  0  0
    4.1569   -2.4000    0.0000 H   0  0  0  0  0  0  0  0  0  0  0  0
    6.9282   -2.4000    0.0000 C   0  0  0  0  0  0  0  0  0  0  0  0
    6.9282   -4.0000    0.0000 H   0  0  0  0  0  0  0  0  0  0  0  0
    8.3140   -1.6000    0.0000 C   0  0  0  0  0  0  0  0  0  0  0  0
    9.6995   -2.4000    0.0000 H   0  0  0  0  0  0  0  0  0  0  0  0
    8.3140   -0.0000    0.0000 C   0  0  0  0  0  0  0  0  0  0  0  0
    9.6995    0.8000    0.0000 H   0  0  0  0  0  0  0  0  0  0  0  0
    6.9282    0.8000    0.0000 C   0  0  0  0  0  0  0  0  0  0  0  0
    6.9282    2.4000    0.0000 H   0  0  0  0  0  0  0  0  0  0  0  0
    1.3856    0.8000    0.0000 C   0  0  0  0  0  0  0  0  0  0  0  0
    0.7733    2.2782    0.0000 H   0  0  0  0  0  0  0  0  0  0  0  0
    1.9980    2.2782    0.0000 H   0  0  0  0  0  0  0  0  0  0  0  0
   -0.0001   -0.0000    0.0000 C   0  0  0  0  0  0  0  0  0  0  0  0
   -1.3856    0.8000    0.0000 C   0  0  0  0  0  0  0  0  0  0  0  0
   -1.3856    2.4000    0.0000 H   0  0  0  0  0  0  0  0  0  0  0  0
   -2.7714   -0.0000    0.0000 C   0  0  0  0  0  0  0  0  0  0  0  0
   -4.1569    0.8000    0.0000 H   0  0  0  0  0  0  0  0  0  0  0  0
   -2.7712   -1.6000    0.0000 C   0  0  0  0  0  0  0  0  0  0  0  0
   -4.1569   -2.4000    0.0000 H   0  0  0  0  0  0  0  0  0  0  0  0
   -1.3856   -2.4000    0.0000 C   0  0  0  0  0  0  0  0  0  0  0  0
   -1.3856   -4.0000    0.0000 H   0  0  0  0  0  0  0  0  0  0  0  0
   -0.0001   -1.6000    0.0000 C   0  0  0  0  0  0  0  0  0  0  0  0
    1.3856   -2.4000    0.0000 H   0  0  0  0  0  0  0  0  0  0  0  0
  1  2  1  0  0  0  0
  2  3  1  0  0  0  0
  2  4  1  0  0  0  0
  2  5  1  0  0  0  0
  5  6  1  0  0  0  0
  6  7  1  0  0  0  0
  6  8  2  0  0  0  0
  8  9  1  0  0  0  0
  8 10  1  0  0  0  0
 10 11  1  0  0  0  0
 10 12  2  0  0  0  0
 12 13  1  0  0  0  0
 12 14  1  0  0  0  0
 14  5  2  0  0  0  0
 14 15  1  0  0  0  0
  1 16  1  0  0  0  0
 16 17  1  0  0  0  0
 16 18  1  0  0  0  0
 16 19  1  0  0  0  0
 19 20  1  0  0  0  0
 20 21  1  0  0  0  0
 20 22  2  0  0  0  0
 22 23  1  0  0  0  0
 22 24  1  0  0  0  0
 24 25  1  0  0  0  0
 24 26  2  0  0  0  0
 26 27  1  0  0  0  0
 26 28  1  0  0  0  0
 28 19  2  0  0  0  0
 28 29  1  0  0  0  0
M  END
> <ChemID>
100199

> <source_casrn>
103-50-4

> <CAS>
103-50-4

> <SMILES>
C(OCc1ccccc1)c1ccccc1

> <NAME>
DIBENZYL ETHER

> <preferred_name>
Dibenzyl ether

> <iupac>
C14H14O

> <MPID>
98130

> <dsstox_substance_id>
DTXSID5025819

> <Canonical_QSARr>
C(OCc1ccccc1)c1ccccc1

> <InChI_Code_QSARr>
InChI=1S/C14H14O/c1-3-7-13(8-4-1)11-15-12-14-9-5-2-6-10-14/h1-10H,11-12H2

> <InChI Key_QSARr>
MHDVGSVTJDSBDK-UHFFFAOYSA-N

> <Salt_Solvent>
?

> <LogBCF>
2.43

$$$$
100200
  -INDIGO-08031719362D

 20 20  0  0  0  0  0  0  0  0999 V2000
   -0.8000    1.3856    0.0000 N   0  0  0  0  0  0  0  0  0  0  0  0
   -0.0001    2.7713    0.0000 H   0  0  0  0  0  0  0  0  0  0  0  0
   -2.4000    1.3856    0.0000 C   0  0  0  0  0  0  0  0  0  0  0  0
   -3.2000    2.7713    0.0000 C   0  0  0  0  0  0  0  0  0  0  0  0
   -2.4000    4.1569    0.0000 H   0  0  0  0  0  0  0  0  0  0  0  0
   -4.8001    2.7713    0.0000 C   0  0  0  0  0  0  0  0  0  0  0  0
   -5.6000    4.1569    0.0000 H   0  0  0  0  0  0  0  0  0  0  0  0
   -5.6000    1.3856    0.0000 C   0  0  0  0  0  0  0  0  0  0  0  0
   -7.2000    1.3856    0.0000 H   0  0  0  0  0  0  0  0  0  0  0  0
   -4.8001   -0.0000    0.0000 C   0  0  0  0  0  0  0  0  0  0  0  0
   -5.6000   -1.3856    0.0000 H   0  0  0  0  0  0  0  0  0  0  0  0
   -3.2000   -0.0000    0.0000 C   0  0  0  0  0  0  0  0  0  0  0  0
   -2.4000   -1.3856    0.0000 H   0  0  0  0  0  0  0  0  0  0  0  0
   -0.0001   -0.0000    0.0000 C   0  0  0  0  0  0  0  0  0  0  0  0
   -0.2089   -1.5863    0.0000 H   0  0  0  0  0  0  0  0  0  0  0  0
   -1.2693   -0.9740    0.0000 H   0  0  0  0  0  0  0  0  0  0  0  0
    1.6000   -0.0000    0.0000 C   0  0  0  0  0  0  0  0  0  0  0  0
    3.2000   -0.0000    0.0000 H   0  0  0  0  0  0  0  0  0  0  0  0
    2.4000   -1.3856    0.0000 H   0  0  0  0  0  0  0  0  0  0  0  0
    2.4000    1.3856    0.0000 H   0  0  0  0  0  0  0  0  0  0  0  0
  1  2  1  0  0  0  0
  1  3  1  0  0  0  0
  3  4  1  0  0  0  0
  4  5  1  0  0  0  0
  4  6  2  0  0  0  0
  6  7  1  0  0  0  0
  6  8  1  0  0  0  0
  8  9  1  0  0  0  0
  8 10  2  0  0  0  0
 10 11  1  0  0  0  0
 10 12  1  0  0  0  0
 12  3  2  0  0  0  0
 12 13  1  0  0  0  0
  1 14  1  0  0  0  0
 14 15  1  0  0  0  0
 14 16  1  0  0  0  0
 14 17  1  0  0  0  0
 17 18  1  0  0  0  0
 17 19  1  0  0  0  0
 17 20  1  0  0  0  0
M  END
> <ChemID>
100200

> <source_casrn>
103-69-5

> <CAS>
103-69-5

> <SMILES>
CCNc1ccccc1

> <NAME>
N-ETHYLANILINE

> <preferred_name>
N-Ethylaniline

> <iupac>
N-ethylaniline

> <MPID>
98131

> <dsstox_substance_id>
DTXSID1025271

> <Canonical_QSARr>
CCNc1ccccc1

> <InChI_Code_QSARr>
InChI=1S/C8H11N/c1-2-9-8-6-4-3-5-7-8/h3-7,9H,2H2,1H3

> <InChI Key_QSARr>
OJGMBLNIHDZDGS-UHFFFAOYSA-N

> <Salt_Solvent>
?

> <LogBCF>
1.11

$$$$
100201
  -INDIGO-08031719362D

 23 23  0  0  0  0  0  0  0  0999 V2000
    1.3857   -2.4000    0.0000 C   0  0  0  0  0  0  0  0  0  0  0  0
    2.7713   -3.2000    0.0000 H   0  0  0  0  0  0  0  0  0  0  0  0
    1.3857   -4.0000    0.0000 H   0  0  0  0  0  0  0  0  0  0  0  0
    2.7713   -1.6000    0.0000 H   0  0  0  0  0  0  0  0  0  0  0  0
    1.3857   -0.8000    0.0000 N   0  0  0  0  0  0  0  0  0  0  0  0
    2.7713   -0.0000    0.0000 C   0  0  0  0  0  0  0  0  0  0  0  0
    4.1569    0.8000    0.0000 H   0  0  0  0  0  0  0  0  0  0  0  0
    4.1569   -0.8000    0.0000 H   0  0  0  0  0  0  0  0  0  0  0  0
    2.7713    1.6000    0.0000 H   0  0  0  0  0  0  0  0  0  0  0  0
    0.0001   -0.0000    0.0000 C   0  0  0  0  0  0  0  0  0  0  0  0
   -0.6122    1.4782    0.0000 H   0  0  0  0  0  0  0  0  0  0  0  0
    0.6124    1.4782    0.0000 H   0  0  0  0  0  0  0  0  0  0  0  0
   -1.3857   -0.8000    0.0000 C   0  0  0  0  0  0  0  0  0  0  0  0
   -2.7713   -0.0000    0.0000 C   0  0  0  0  0  0  0  0  0  0  0  0
   -2.7713    1.6000    0.0000 H   0  0  0  0  0  0  0  0  0  0  0  0
   -4.1569   -0.8000    0.0000 C   0  0  0  0  0  0  0  0  0  0  0  0
   -5.5426   -0.0000    0.0000 H   0  0  0  0  0  0  0  0  0  0  0  0
   -4.1569   -2.4000    0.0000 C   0  0  0  0  0  0  0  0  0  0  0  0
   -5.5426   -3.2000    0.0000 H   0  0  0  0  0  0  0  0  0  0  0  0
   -2.7713   -3.2000    0.0000 C   0  0  0  0  0  0  0  0  0  0  0  0
   -2.7713   -4.8000    0.0000 H   0  0  0  0  0  0  0  0  0  0  0  0
   -1.3857   -2.4000    0.0000 C   0  0  0  0  0  0  0  0  0  0  0  0
    0.0001   -3.2000    0.0000 H   0  0  0  0  0  0  0  0  0  0  0  0
  1  2  1  0  0  0  0
  1  3  1  0  0  0  0
  1  4  1  0  0  0  0
  1  5  1  0  0  0  0
  5  6  1  0  0  0  0
  6  7  1  0  0  0  0
  6  8  1  0  0  0  0
  6  9  1  0  0  0  0
  5 10  1  0  0  0  0
 10 11  1  0  0  0  0
 10 12  1  0  0  0  0
 10 13  1  0  0  0  0
 13 14  1  0  0  0  0
 14 15  1  0  0  0  0
 14 16  2  0  0  0  0
 16 17  1  0  0  0  0
 16 18  1  0  0  0  0
 18 19  1  0  0  0  0
 18 20  2  0  0  0  0
 20 21  1  0  0  0  0
 20 22  1  0  0  0  0
 22 13  2  0  0  0  0
 22 23  1  0  0  0  0
M  END
> <ChemID>
100201

> <source_casrn>
103-83-3

> <CAS>
103-83-3

> <SMILES>
CN(C)Cc1ccccc1

> <NAME>
N,N-DIMETHYLBENZYLAMINE

> <preferred_name>
N,N-Dimethylbenzylamine

> <iupac>
N,N-dimethyl-1-phenylmethanamine

> <MPID>
98132

> <dsstox_substance_id>
DTXSID8021854

> <Canonical_QSARr>
CN(C)Cc1ccccc1

> <InChI_Code_QSARr>
InChI=1S/C9H13N/c1-10(2)8-9-6-4-3-5-7-9/h3-7H,8H2,1-2H3

> <InChI Key_QSARr>
XXBDWLFCJWSEKW-UHFFFAOYSA-N

> <Salt_Solvent>
?

> <LogBCF>
1.15

$$$$
100203
  -INDIGO-08031719362D

 14 14  0  0  0  0  0  0  0  0999 V2000
   -4.8000   -0.0000    0.0000 Cl  0  0  0  0  0  0  0  0  0  0  0  0
   -3.2000   -0.0000    0.0000 C   0  0  0  0  0  0  0  0  0  0  0  0
   -2.4000    1.3856    0.0000 C   0  0  0  0  0  0  0  0  0  0  0  0
   -3.2000    2.7713    0.0000 H   0  0  0  0  0  0  0  0  0  0  0  0
   -0.8000    1.3856    0.0000 C   0  0  0  0  0  0  0  0  0  0  0  0
    0.0000    2.7713    0.0000 H   0  0  0  0  0  0  0  0  0  0  0  0
    0.0000   -0.0000    0.0000 C   0  0  0  0  0  0  0  0  0  0  0  0
    1.6000   -0.0000    0.0000 C   0  0  0  0  0  0  0  0  0  0  0  0
    2.4000    1.3856    0.0000 H   0  0  0  0  0  0  0  0  0  0  0  0
    2.4000   -1.3856    0.0000 O   0  0  0  0  0  0  0  0  0  0  0  0
   -0.8000   -1.3856    0.0000 C   0  0  0  0  0  0  0  0  0  0  0  0
    0.0000   -2.7713    0.0000 H   0  0  0  0  0  0  0  0  0  0  0  0
   -2.4000   -1.3856    0.0000 C   0  0  0  0  0  0  0  0  0  0  0  0
   -3.2000   -2.7713    0.0000 H   0  0  0  0  0  0  0  0  0  0  0  0
  1  2  1  0  0  0  0
  2  3  1  0  0  0  0
  3  4  1  0  0  0  0
  3  5  2  0  0  0  0
  5  6  1  0  0  0  0
  5  7  1  0  0  0  0
  7  8  1  0  0  0  0
  8  9  1  0  0  0  0
  8 10  2  0  0  0  0
  7 11  2  0  0  0  0
 11 12  1  0  0  0  0
 11 13  1  0  0  0  0
 13  2  2  0  0  0  0
 13 14  1  0  0  0  0
M  END
> <ChemID>
100203

> <source_casrn>
104-88-1

> <CAS>
104-88-1

> <SMILES>
O=Cc1ccc(Cl)cc1

> <NAME>
4-CHLOROBENZALDEHYDE

> <preferred_name>
4-Chlorobenzaldehyde

> <iupac>
4-chlorobenzaldehyde

> <MPID>
98134

> <dsstox_substance_id>
DTXSID2021860

> <Canonical_QSARr>
O=Cc1ccc(Cl)cc1

> <InChI_Code_QSARr>
InChI=1S/C7H5ClO/c8-7-3-1-6(5-9)2-4-7/h1-5H

> <InChI Key_QSARr>
AVPYQKSLYISFPO-UHFFFAOYSA-N

> <Salt_Solvent>
?

> <LogBCF>
0.32

$$$$
100204
  -INDIGO-08031719362D

 24 24  0  0  0  0  0  0  0  0999 V2000
    0.0001    0.0000    0.0000 C   0  0  0  0  0  0  0  0  0  0  0  0
   -0.7999    1.3856    0.0000 C   0  0  0  0  0  0  0  0  0  0  0  0
    0.0001    2.7713    0.0000 H   0  0  0  0  0  0  0  0  0  0  0  0
   -2.4001    1.3856    0.0000 C   0  0  0  0  0  0  0  0  0  0  0  0
   -3.2001    2.7713    0.0000 H   0  0  0  0  0  0  0  0  0  0  0  0
   -3.2001    0.0000    0.0000 C   0  0  0  0  0  0  0  0  0  0  0  0
   -4.8000   -0.0000    0.0000 C   0  0  0  0  0  0  0  0  0  0  0  0
   -5.0089   -1.5863    0.0000 H   0  0  0  0  0  0  0  0  0  0  0  0
   -6.0693   -0.9740    0.0000 H   0  0  0  0  0  0  0  0  0  0  0  0
   -5.6000    1.3856    0.0000 C   0  0  0  0  0  0  0  0  0  0  0  0
   -7.2000    1.3856    0.0000 H   0  0  0  0  0  0  0  0  0  0  0  0
   -6.4000    2.7713    0.0000 H   0  0  0  0  0  0  0  0  0  0  0  0
   -6.4000   -0.0000    0.0000 H   0  0  0  0  0  0  0  0  0  0  0  0
   -2.4001   -1.3856    0.0000 C   0  0  0  0  0  0  0  0  0  0  0  0
   -3.2001   -2.7713    0.0000 H   0  0  0  0  0  0  0  0  0  0  0  0
   -0.7999   -1.3856    0.0000 C   0  0  0  0  0  0  0  0  0  0  0  0
    0.0001   -2.7713    0.0000 H   0  0  0  0  0  0  0  0  0  0  0  0
    1.6000   -0.0000    0.0000 C   0  0  0  0  0  0  0  0  0  0  0  0
    1.8089    1.5863    0.0000 H   0  0  0  0  0  0  0  0  0  0  0  0
    2.8693    0.9740    0.0000 H   0  0  0  0  0  0  0  0  0  0  0  0
    2.4000   -1.3856    0.0000 C   0  0  0  0  0  0  0  0  0  0  0  0
    4.0000   -1.3856    0.0000 H   0  0  0  0  0  0  0  0  0  0  0  0
    3.2000   -2.7713    0.0000 H   0  0  0  0  0  0  0  0  0  0  0  0
    3.2000   -0.0000    0.0000 H   0  0  0  0  0  0  0  0  0  0  0  0
  1  2  1  0  0  0  0
  2  3  1  0  0  0  0
  2  4  2  0  0  0  0
  4  5  1  0  0  0  0
  4  6  1  0  0  0  0
  6  7  1  0  0  0  0
  7  8  1  0  0  0  0
  7  9  1  0  0  0  0
  7 10  1  0  0  0  0
 10 11  1  0  0  0  0
 10 12  1  0  0  0  0
 10 13  1  0  0  0  0
  6 14  2  0  0  0  0
 14 15  1  0  0  0  0
 14 16  1  0  0  0  0
 16  1  2  0  0  0  0
 16 17  1  0  0  0  0
  1 18  1  0  0  0  0
 18 19  1  0  0  0  0
 18 20  1  0  0  0  0
 18 21  1  0  0  0  0
 21 22  1  0  0  0  0
 21 23  1  0  0  0  0
 21 24  1  0  0  0  0
M  END
> <ChemID>
100204

> <source_casrn>
105-05-5

> <CAS>
105-05-5

> <SMILES>
CCc1ccc(CC)cc1

> <NAME>
P-DIETHYLBENZENE

> <preferred_name>
1,4-Diethylbenzene

> <iupac>
1,4-diethylbenzene

> <MPID>
98135

> <dsstox_substance_id>
DTXSID4026711

> <Canonical_QSARr>
CCc1ccc(CC)cc1

> <InChI_Code_QSARr>
InChI=1S/C10H14/c1-3-9-5-7-10(4-2)8-6-9/h5-8H,3-4H2,1-2H3

> <InChI Key_QSARr>
DSNHSQKRULAAEI-UHFFFAOYSA-N

> <Salt_Solvent>
?

> <LogBCF>
2.68

$$$$
100205
  -INDIGO-08031719362D

 20 20  0  0  0  0  0  0  0  0999 V2000
    0.0001    0.0000    0.0000 C   0  0  0  0  0  0  0  0  0  0  0  0
   -0.7999    1.3856    0.0000 C   0  0  0  0  0  0  0  0  0  0  0  0
    0.0001    2.7713    0.0000 H   0  0  0  0  0  0  0  0  0  0  0  0
   -2.4001    1.3856    0.0000 C   0  0  0  0  0  0  0  0  0  0  0  0
   -3.2001    2.7713    0.0000 H   0  0  0  0  0  0  0  0  0  0  0  0
   -3.2001    0.0000    0.0000 C   0  0  0  0  0  0  0  0  0  0  0  0
   -4.8000   -0.0000    0.0000 C   0  0  0  0  0  0  0  0  0  0  0  0
   -5.6000   -1.3856    0.0000 H   0  0  0  0  0  0  0  0  0  0  0  0
   -5.6000    1.3856    0.0000 C   0  0  0  0  0  0  0  0  0  0  0  0
   -7.2000    1.3856    0.0000 H   0  0  0  0  0  0  0  0  0  0  0  0
   -4.8000    2.7713    0.0000 H   0  0  0  0  0  0  0  0  0  0  0  0
   -2.4001   -1.3856    0.0000 C   0  0  0  0  0  0  0  0  0  0  0  0
   -3.2001   -2.7713    0.0000 H   0  0  0  0  0  0  0  0  0  0  0  0
   -0.7999   -1.3856    0.0000 C   0  0  0  0  0  0  0  0  0  0  0  0
    0.0001   -2.7713    0.0000 H   0  0  0  0  0  0  0  0  0  0  0  0
    1.6000   -0.0000    0.0000 C   0  0  0  0  0  0  0  0  0  0  0  0
    2.4000    1.3856    0.0000 H   0  0  0  0  0  0  0  0  0  0  0  0
    2.4000   -1.3856    0.0000 C   0  0  0  0  0  0  0  0  0  0  0  0
    4.0000   -1.3856    0.0000 H   0  0  0  0  0  0  0  0  0  0  0  0
    1.6000   -2.7713    0.0000 H   0  0  0  0  0  0  0  0  0  0  0  0
  1  2  1  0  0  0  0
  2  3  1  0  0  0  0
  2  4  2  0  0  0  0
  4  5  1  0  0  0  0
  4  6  1  0  0  0  0
  6  7  1  0  0  0  0
  7  8  1  0  0  0  0
  7  9  2  0  0  0  0
  9 10  1  0  0  0  0
  9 11  1  0  0  0  0
  6 12  2  0  0  0  0
 12 13  1  0  0  0  0
 12 14  1  0  0  0  0
 14  1  2  0  0  0  0
 14 15  1  0  0  0  0
  1 16  1  0  0  0  0
 16 17  1  0  0  0  0
 16 18  2  0  0  0  0
 18 19  1  0  0  0  0
 18 20  1  0  0  0  0
M  END
> <ChemID>
100205

> <source_casrn>
105-06-6

> <CAS>
105-06-6

> <SMILES>
C=Cc1ccc(cc1)C=C

> <NAME>
Benzene, 1,4-diethenyl-

> <preferred_name>
1,4-Divinylbenzene

> <iupac>
1,4-diethenylbenzene

> <MPID>
98136

> <dsstox_substance_id>
DTXSID2033863

> <Canonical_QSARr>
C=Cc1ccc(cc1)C=C

> <InChI_Code_QSARr>
InChI=1S/C10H10/c1-3-9-5-7-10(4-2)8-6-9/h3-8H,1-2H2

> <InChI Key_QSARr>
WEERVPDNCOGWJF-UHFFFAOYSA-N

> <Salt_Solvent>
?

> <LogBCF>
2.48

$$$$
100207
  -INDIGO-08031719362D

 13 13  0  0  0  0  0  0  0  0999 V2000
   -0.0000   -0.0000    0.0000 C   0  0  0  0  0  0  0  0  0  0  0  0
    0.8000    1.3856    0.0000 O   0  0  0  0  0  0  0  0  0  0  0  0
    2.4000    1.3856    0.0000 H   0  0  0  0  0  0  0  0  0  0  0  0
    0.8000   -1.3857    0.0000 C   0  0  0  0  0  0  0  0  0  0  0  0
    2.4000   -1.3857    0.0000 H   0  0  0  0  0  0  0  0  0  0  0  0
   -0.0000   -2.7713    0.0000 C   0  0  0  0  0  0  0  0  0  0  0  0
    0.8000   -4.1569    0.0000 H   0  0  0  0  0  0  0  0  0  0  0  0
   -1.6000   -2.7713    0.0000 C   0  0  0  0  0  0  0  0  0  0  0  0
   -2.4000   -4.1569    0.0000 Br  0  0  0  0  0  0  0  0  0  0  0  0
   -2.4000   -1.3856    0.0000 C   0  0  0  0  0  0  0  0  0  0  0  0
   -4.0000   -1.3856    0.0000 H   0  0  0  0  0  0  0  0  0  0  0  0
   -1.6000   -0.0000    0.0000 C   0  0  0  0  0  0  0  0  0  0  0  0
   -2.4000    1.3856    0.0000 H   0  0  0  0  0  0  0  0  0  0  0  0
  1  2  1  0  0  0  0
  2  3  1  0  0  0  0
  1  4  1  0  0  0  0
  4  5  1  0  0  0  0
  4  6  2  0  0  0  0
  6  7  1  0  0  0  0
  6  8  1  0  0  0  0
  8  9  1  0  0  0  0
  8 10  2  0  0  0  0
 10 11  1  0  0  0  0
 10 12  1  0  0  0  0
 12  1  2  0  0  0  0
 12 13  1  0  0  0  0
M  END
> <ChemID>
100207

> <source_casrn>
106-41-2

> <CAS>
106-41-2

> <SMILES>
Oc1ccc(Br)cc1

> <NAME>
P-BROMOPHENOL

> <preferred_name>
4-Bromophenol

> <iupac>
4-bromophenol

> <MPID>
98138

> <dsstox_substance_id>
DTXSID3051543

> <Canonical_QSARr>
Oc1ccc(Br)cc1

> <InChI_Code_QSARr>
InChI=1S/C6H5BrO/c7-5-1-3-6(8)4-2-5/h1-4,8H

> <InChI Key_QSARr>
GZFGOTFRPZRKDS-UHFFFAOYSA-N

> <Salt_Solvent>
?

> <LogBCF>
1.17

$$$$
100208
  -INDIGO-08031719362D

 18 18  0  0  0  0  0  0  0  0999 V2000
    1.6001   -0.0000    0.0000 C   0  0  0  0  0  0  0  0  0  0  0  0
    3.2000   -0.0000    0.0000 H   0  0  0  0  0  0  0  0  0  0  0  0
    2.4000   -1.3856    0.0000 H   0  0  0  0  0  0  0  0  0  0  0  0
    2.4000    1.3856    0.0000 H   0  0  0  0  0  0  0  0  0  0  0  0
    0.0000   -0.0000    0.0000 C   0  0  0  0  0  0  0  0  0  0  0  0
   -0.8000    1.3856    0.0000 C   0  0  0  0  0  0  0  0  0  0  0  0
    0.0000    2.7713    0.0000 H   0  0  0  0  0  0  0  0  0  0  0  0
   -2.4000    1.3856    0.0000 C   0  0  0  0  0  0  0  0  0  0  0  0
   -3.2000    2.7713    0.0000 H   0  0  0  0  0  0  0  0  0  0  0  0
   -3.2000   -0.0000    0.0000 C   0  0  0  0  0  0  0  0  0  0  0  0
   -4.7999   -0.0000    0.0000 C   0  0  0  0  0  0  0  0  0  0  0  0
   -6.4000   -0.0000    0.0000 H   0  0  0  0  0  0  0  0  0  0  0  0
   -5.6000   -1.3856    0.0000 H   0  0  0  0  0  0  0  0  0  0  0  0
   -5.6000    1.3856    0.0000 H   0  0  0  0  0  0  0  0  0  0  0  0
   -2.4000   -1.3856    0.0000 C   0  0  0  0  0  0  0  0  0  0  0  0
   -3.2000   -2.7713    0.0000 H   0  0  0  0  0  0  0  0  0  0  0  0
   -0.8000   -1.3856    0.0000 C   0  0  0  0  0  0  0  0  0  0  0  0
    0.0000   -2.7713    0.0000 H   0  0  0  0  0  0  0  0  0  0  0  0
  1  2  1  0  0  0  0
  1  3  1  0  0  0  0
  1  4  1  0  0  0  0
  1  5  1  0  0  0  0
  5  6  1  0  0  0  0
  6  7  1  0  0  0  0
  6  8  2  0  0  0  0
  8  9  1  0  0  0  0
  8 10  1  0  0  0  0
 10 11  1  0  0  0  0
 11 12  1  0  0  0  0
 11 13  1  0  0  0  0
 11 14  1  0  0  0  0
 10 15  2  0  0  0  0
 15 16  1  0  0  0  0
 15 17  1  0  0  0  0
 17  5  2  0  0  0  0
 17 18  1  0  0  0  0
M  END
> <ChemID>
100208

> <source_casrn>
106-42-3

> <CAS>
106-42-3

> <SMILES>
Cc1ccc(C)cc1

> <NAME>
P-XYLENE

> <preferred_name>
p-Xylene

> <iupac>
1,4-dimethylbenzene

> <MPID>
98139

> <dsstox_substance_id>
DTXSID2021868

> <Canonical_QSARr>
Cc1ccc(C)cc1

> <InChI_Code_QSARr>
InChI=1S/C8H10/c1-7-3-5-8(2)6-4-7/h3-6H,1-2H3

> <InChI Key_QSARr>
URLKBWYHVLBVBO-UHFFFAOYSA-N

> <Salt_Solvent>
?

> <LogBCF>
1.17

$$$$
100209
  -INDIGO-08031719362D

 15 15  0  0  0  0  0  0  0  0999 V2000
    1.6000   -0.0000    0.0000 C   0  0  0  0  0  0  0  0  0  0  0  0
    3.2000   -0.0000    0.0000 H   0  0  0  0  0  0  0  0  0  0  0  0
    2.4001   -1.3856    0.0000 H   0  0  0  0  0  0  0  0  0  0  0  0
    2.4001    1.3856    0.0000 H   0  0  0  0  0  0  0  0  0  0  0  0
    0.0000   -0.0000    0.0000 C   0  0  0  0  0  0  0  0  0  0  0  0
   -0.7999    1.3856    0.0000 C   0  0  0  0  0  0  0  0  0  0  0  0
    0.0000    2.7713    0.0000 H   0  0  0  0  0  0  0  0  0  0  0  0
   -2.4001    1.3856    0.0000 C   0  0  0  0  0  0  0  0  0  0  0  0
   -3.2000    2.7713    0.0000 H   0  0  0  0  0  0  0  0  0  0  0  0
   -3.2000   -0.0000    0.0000 C   0  0  0  0  0  0  0  0  0  0  0  0
   -4.8000   -0.0000    0.0000 Cl  0  0  0  0  0  0  0  0  0  0  0  0
   -2.4001   -1.3856    0.0000 C   0  0  0  0  0  0  0  0  0  0  0  0
   -3.2000   -2.7713    0.0000 H   0  0  0  0  0  0  0  0  0  0  0  0
   -0.8001   -1.3856    0.0000 C   0  0  0  0  0  0  0  0  0  0  0  0
    0.0000   -2.7713    0.0000 H   0  0  0  0  0  0  0  0  0  0  0  0
  1  2  1  0  0  0  0
  1  3  1  0  0  0  0
  1  4  1  0  0  0  0
  1  5  1  0  0  0  0
  5  6  1  0  0  0  0
  6  7  1  0  0  0  0
  6  8  2  0  0  0  0
  8  9  1  0  0  0  0
  8 10  1  0  0  0  0
 10 11  1  0  0  0  0
 10 12  2  0  0  0  0
 12 13  1  0  0  0  0
 12 14  1  0  0  0  0
 14  5  2  0  0  0  0
 14 15  1  0  0  0  0
M  END
> <ChemID>
100209

> <source_casrn>
106-43-4

> <CAS>
106-43-4

> <SMILES>
Cc1ccc(Cl)cc1

> <NAME>
P-CHLOROTOLUENE

> <preferred_name>
4-Chlorotoluene

> <iupac>
1-chloro-4-methylbenzene

> <MPID>
98140

> <dsstox_substance_id>
DTXSID8024814

> <Canonical_QSARr>
Cc1ccc(Cl)cc1

> <InChI_Code_QSARr>
InChI=1S/C7H7Cl/c1-6-2-4-7(8)5-3-6/h2-5H,1H3

> <InChI Key_QSARr>
NPDACUSDTOMAMK-UHFFFAOYSA-N

> <Salt_Solvent>
?

> <LogBCF>
1.76

$$$$
100211
  -INDIGO-08031719362D

 14 14  0  0  0  0  0  0  0  0999 V2000
    1.6000   -0.0000    0.0000 N   0  0  0  0  0  0  0  0  0  0  0  0
    2.4000    1.3856    0.0000 H   0  0  0  0  0  0  0  0  0  0  0  0
    2.4000   -1.3856    0.0000 H   0  0  0  0  0  0  0  0  0  0  0  0
    0.0000   -0.0000    0.0000 C   0  0  0  0  0  0  0  0  0  0  0  0
   -0.8000    1.3856    0.0000 C   0  0  0  0  0  0  0  0  0  0  0  0
    0.0000    2.7713    0.0000 H   0  0  0  0  0  0  0  0  0  0  0  0
   -2.4000    1.3856    0.0000 C   0  0  0  0  0  0  0  0  0  0  0  0
   -3.2000    2.7713    0.0000 H   0  0  0  0  0  0  0  0  0  0  0  0
   -3.2000   -0.0000    0.0000 C   0  0  0  0  0  0  0  0  0  0  0  0
   -4.8000   -0.0000    0.0000 Cl  0  0  0  0  0  0  0  0  0  0  0  0
   -2.4000   -1.3856    0.0000 C   0  0  0  0  0  0  0  0  0  0  0  0
   -3.2000   -2.7713    0.0000 H   0  0  0  0  0  0  0  0  0  0  0  0
   -0.8000   -1.3856    0.0000 C   0  0  0  0  0  0  0  0  0  0  0  0
    0.0000   -2.7713    0.0000 H   0  0  0  0  0  0  0  0  0  0  0  0
  1  2  1  0  0  0  0
  1  3  1  0  0  0  0
  1  4  1  0  0  0  0
  4  5  1  0  0  0  0
  5  6  1  0  0  0  0
  5  7  2  0  0  0  0
  7  8  1  0  0  0  0
  7  9  1  0  0  0  0
  9 10  1  0  0  0  0
  9 11  2  0  0  0  0
 11 12  1  0  0  0  0
 11 13  1  0  0  0  0
 13  4  2  0  0  0  0
 13 14  1  0  0  0  0
M  END
> <ChemID>
100211

> <source_casrn>
106-47-8

> <CAS>
106-47-8

> <SMILES>
Nc1ccc(Cl)cc1

> <NAME>
4-CHLOROANILINE

> <preferred_name>
4-Chloroaniline

> <iupac>
4-chloroaniline

> <MPID>
98142

> <dsstox_substance_id>
DTXSID9020295

> <Canonical_QSARr>
Nc1ccc(Cl)cc1

> <InChI_Code_QSARr>
InChI=1S/C6H6ClN/c7-5-1-3-6(8)4-2-5/h1-4H,8H2

> <InChI Key_QSARr>
QSNSCYSYFYORTR-UHFFFAOYSA-N

> <Salt_Solvent>
?

> <LogBCF>
0.84

$$$$
100212
  -INDIGO-08031719362D

 13 13  0  0  0  0  0  0  0  0999 V2000
    0.8000    1.3856    0.0000 O   0  0  0  0  0  0  0  0  0  0  0  0
    2.4000    1.3856    0.0000 H   0  0  0  0  0  0  0  0  0  0  0  0
   -0.0000   -0.0000    0.0000 C   0  0  0  0  0  0  0  0  0  0  0  0
    0.8000   -1.3857    0.0000 C   0  0  0  0  0  0  0  0  0  0  0  0
    2.4000   -1.3857    0.0000 H   0  0  0  0  0  0  0  0  0  0  0  0
   -0.0000   -2.7713    0.0000 C   0  0  0  0  0  0  0  0  0  0  0  0
    0.8000   -4.1569    0.0000 H   0  0  0  0  0  0  0  0  0  0  0  0
   -1.6000   -2.7713    0.0000 C   0  0  0  0  0  0  0  0  0  0  0  0
   -2.4000   -4.1569    0.0000 Cl  0  0  0  0  0  0  0  0  0  0  0  0
   -2.4000   -1.3856    0.0000 C   0  0  0  0  0  0  0  0  0  0  0  0
   -4.0000   -1.3856    0.0000 H   0  0  0  0  0  0  0  0  0  0  0  0
   -1.6000   -0.0000    0.0000 C   0  0  0  0  0  0  0  0  0  0  0  0
   -2.4000    1.3856    0.0000 H   0  0  0  0  0  0  0  0  0  0  0  0
  1  2  1  0  0  0  0
  1  3  1  0  0  0  0
  3  4  1  0  0  0  0
  4  5  1  0  0  0  0
  4  6  2  0  0  0  0
  6  7  1  0  0  0  0
  6  8  1  0  0  0  0
  8  9  1  0  0  0  0
  8 10  2  0  0  0  0
 10 11  1  0  0  0  0
 10 12  1  0  0  0  0
 12  3  2  0  0  0  0
 12 13  1  0  0  0  0
M  END
> <ChemID>
100212

> <source_casrn>
106-48-9

> <CAS>
106-48-9

> <SMILES>
Oc1ccc(Cl)cc1

> <NAME>
4-CHLOROPHENOL

> <preferred_name>
4-Chlorophenol

> <iupac>
4-chlorophenol

> <MPID>
98143

> <dsstox_substance_id>
DTXSID1021871

> <Canonical_QSARr>
Oc1ccc(Cl)cc1

> <InChI_Code_QSARr>
InChI=1S/C6H5ClO/c7-5-1-3-6(8)4-2-5/h1-4,8H

> <InChI Key_QSARr>
WXNZTHHGJRFXKQ-UHFFFAOYSA-N

> <Salt_Solvent>
?

> <LogBCF>
1.48

$$$$
100213
  -INDIGO-08031719362D

  8  7  0  0  0  0  0  0  0  0999 V2000
    0.8000    1.3856    0.0000 Br  0  0  0  0  0  0  0  0  0  0  0  0
    0.0000    0.0000    0.0000 C   0  0  0  0  0  0  0  0  0  0  0  0
    1.6000   -0.0000    0.0000 H   0  0  0  0  0  0  0  0  0  0  0  0
    0.8000   -1.3856    0.0000 H   0  0  0  0  0  0  0  0  0  0  0  0
   -1.6000    0.0000    0.0000 C   0  0  0  0  0  0  0  0  0  0  0  0
   -3.2000    0.0000    0.0000 H   0  0  0  0  0  0  0  0  0  0  0  0
   -2.4000   -1.3856    0.0000 H   0  0  0  0  0  0  0  0  0  0  0  0
   -2.4000    1.3856    0.0000 Br  0  0  0  0  0  0  0  0  0  0  0  0
  1  2  1  0  0  0  0
  2  3  1  0  0  0  0
  2  4  1  0  0  0  0
  2  5  1  0  0  0  0
  5  6  1  0  0  0  0
  5  7  1  0  0  0  0
  5  8  1  0  0  0  0
M  END
> <ChemID>
100213

> <source_casrn>
106-93-4

> <CAS>
106-93-4

> <SMILES>
BrCCBr

> <NAME>
1,2-DIBROMOETHANE

> <preferred_name>
1,2-Dibromoethane

> <iupac>
1,2-dibromoethane

> <MPID>
98144

> <dsstox_substance_id>
DTXSID3020415

> <Canonical_QSARr>
BrCCBr

> <InChI_Code_QSARr>
InChI=1S/C2H4Br2/c3-1-2-4/h1-2H2

> <InChI Key_QSARr>
PAAZPARNPHGIKF-UHFFFAOYSA-N

> <Salt_Solvent>
?

> <LogBCF>
1.18

$$$$
100215
  -INDIGO-08031719362D

 24 23  0  0  0  0  0  0  0  0999 V2000
   -3.7614    0.8635    0.0000 C   0  0  0  0  0  0  0  0  0  0  0  0
   -2.9614    2.2491    0.0000 H   0  0  0  0  0  0  0  0  0  0  0  0
   -5.3613    0.8635    0.0000 H   0  0  0  0  0  0  0  0  0  0  0  0
   -2.9614   -0.5222    0.0000 C   0  0  0  0  0  0  0  0  0  0  0  0
   -1.3856   -0.8000    0.0000 C   0  0  0  0  0  0  0  0  0  0  0  0
   -1.9980   -2.2782    0.0000 H   0  0  0  0  0  0  0  0  0  0  0  0
   -0.7733   -2.2782    0.0000 H   0  0  0  0  0  0  0  0  0  0  0  0
    0.0000   -0.0000    0.0000 C   0  0  0  0  0  0  0  0  0  0  0  0
    1.3857    0.8000    0.0000 C   0  0  0  0  0  0  0  0  0  0  0  0
    2.7713    1.6000    0.0000 H   0  0  0  0  0  0  0  0  0  0  0  0
    2.7713   -0.0000    0.0000 H   0  0  0  0  0  0  0  0  0  0  0  0
    1.3857    2.4000    0.0000 H   0  0  0  0  0  0  0  0  0  0  0  0
   -0.8000    1.3856    0.0000 C   0  0  0  0  0  0  0  0  0  0  0  0
   -1.5999    2.7713    0.0000 H   0  0  0  0  0  0  0  0  0  0  0  0
    0.0000    2.7713    0.0000 H   0  0  0  0  0  0  0  0  0  0  0  0
   -2.4000    1.3856    0.0000 H   0  0  0  0  0  0  0  0  0  0  0  0
    0.8000   -1.3856    0.0000 C   0  0  0  0  0  0  0  0  0  0  0  0
    1.6001   -2.7713    0.0000 H   0  0  0  0  0  0  0  0  0  0  0  0
    0.2528   -2.8892    0.0000 H   0  0  0  0  0  0  0  0  0  0  0  0
    2.4000   -1.3856    0.0000 H   0  0  0  0  0  0  0  0  0  0  0  0
   -3.9899   -1.7479    0.0000 C   0  0  0  0  0  0  0  0  0  0  0  0
   -5.0182   -2.9735    0.0000 H   0  0  0  0  0  0  0  0  0  0  0  0
   -5.5655   -1.4700    0.0000 H   0  0  0  0  0  0  0  0  0  0  0  0
   -3.4426   -3.2513    0.0000 H   0  0  0  0  0  0  0  0  0  0  0  0
  1  2  1  0  0  0  0
  1  3  1  0  0  0  0
  1  4  2  0  0  0  0
  4  5  1  0  0  0  0
  5  6  1  0  0  0  0
  5  7  1  0  0  0  0
  5  8  1  0  0  0  0
  8  9  1  0  0  0  0
  9 10  1  0  0  0  0
  9 11  1  0  0  0  0
  9 12  1  0  0  0  0
  8 13  1  0  0  0  0
 13 14  1  0  0  0  0
 13 15  1  0  0  0  0
 13 16  1  0  0  0  0
  8 17  1  0  0  0  0
 17 18  1  0  0  0  0
 17 19  1  0  0  0  0
 17 20  1  0  0  0  0
  4 21  1  0  0  0  0
 21 22  1  0  0  0  0
 21 23  1  0  0  0  0
 21 24  1  0  0  0  0
M  END
> <ChemID>
100215

> <source_casrn>
107-39-1

> <CAS>
107-39-1

> <SMILES>
CC(=C)CC(C)(C)C

> <NAME>
2,4,4-TRIMETHYL-1-PENTENE

> <preferred_name>
2,4,4-Trimethyl-1-pentene

> <iupac>
2,4,4-trimethylpent-1-ene

> <MPID>
98146

> <dsstox_substance_id>
DTXSID4026765

> <Canonical_QSARr>
CC(=C)CC(C)(C)C

> <InChI_Code_QSARr>
InChI=1S/C8H16/c1-7(2)6-8(3,4)5/h1,6H2,2-5H3

> <InChI Key_QSARr>
FXNDIJDIPNCZQJ-UHFFFAOYSA-N

> <Salt_Solvent>
?

> <LogBCF>
2.78

$$$$
100216
  -INDIGO-08031719362D

 12 12  0  0  0  0  0  0  0  0999 V2000
   -0.0000   -0.0000    0.0000 C   0  0  0  0  0  0  0  0  0  0  0  0
    0.8000   -1.3857    0.0000 C   0  0  0  0  0  0  0  0  0  0  0  0
    2.4000   -1.3857    0.0000 H   0  0  0  0  0  0  0  0  0  0  0  0
   -0.0000   -2.7713    0.0000 C   0  0  0  0  0  0  0  0  0  0  0  0
    0.8000   -4.1569    0.0000 H   0  0  0  0  0  0  0  0  0  0  0  0
   -1.6000   -2.7713    0.0000 C   0  0  0  0  0  0  0  0  0  0  0  0
   -2.4000   -4.1569    0.0000 H   0  0  0  0  0  0  0  0  0  0  0  0
   -2.4000   -1.3856    0.0000 C   0  0  0  0  0  0  0  0  0  0  0  0
   -4.0000   -1.3856    0.0000 Br  0  0  0  0  0  0  0  0  0  0  0  0
   -1.6000   -0.0000    0.0000 C   0  0  0  0  0  0  0  0  0  0  0  0
   -2.4000    1.3856    0.0000 H   0  0  0  0  0  0  0  0  0  0  0  0
    0.8000    1.3856    0.0000 Br  0  0  0  0  0  0  0  0  0  0  0  0
  1  2  1  0  0  0  0
  2  3  1  0  0  0  0
  2  4  2  0  0  0  0
  4  5  1  0  0  0  0
  4  6  1  0  0  0  0
  6  7  1  0  0  0  0
  6  8  2  0  0  0  0
  8  9  1  0  0  0  0
  8 10  1  0  0  0  0
 10  1  2  0  0  0  0
 10 11  1  0  0  0  0
  1 12  1  0  0  0  0
M  END
> <ChemID>
100216

> <source_casrn>
108-36-1

> <CAS>
108-36-1

> <SMILES>
Brc1cc(Br)ccc1

> <NAME>
M-DIBROMOBENZENE

> <preferred_name>
1,3-Dibromobenzene

> <iupac>
1,3-dibromobenzene

> <MPID>
98147

> <dsstox_substance_id>
DTXSID7051555

> <Canonical_QSARr>
Brc1cc(Br)ccc1

> <InChI_Code_QSARr>
InChI=1S/C6H4Br2/c7-5-2-1-3-6(8)4-5/h1-4H

> <InChI Key_QSARr>
JSRLURSZEMLAFO-UHFFFAOYSA-N

> <Salt_Solvent>
?

> <LogBCF>
2.82

$$$$
100217
  -INDIGO-08031719362D

 18 18  0  0  0  0  0  0  0  0999 V2000
    2.7713    1.6000    0.0000 C   0  0  0  0  0  0  0  0  0  0  0  0
    4.1570    2.4000    0.0000 H   0  0  0  0  0  0  0  0  0  0  0  0
    2.7713    0.0000    0.0000 C   0  0  0  0  0  0  0  0  0  0  0  0
    4.1570   -0.8000    0.0000 C   0  0  0  0  0  0  0  0  0  0  0  0
    5.5426   -1.6000    0.0000 H   0  0  0  0  0  0  0  0  0  0  0  0
    5.5426    0.0000    0.0000 H   0  0  0  0  0  0  0  0  0  0  0  0
    4.1570   -2.4000    0.0000 H   0  0  0  0  0  0  0  0  0  0  0  0
    1.3857   -0.8000    0.0000 C   0  0  0  0  0  0  0  0  0  0  0  0
    1.3857   -2.4000    0.0000 H   0  0  0  0  0  0  0  0  0  0  0  0
    0.0000    0.0000    0.0000 C   0  0  0  0  0  0  0  0  0  0  0  0
   -1.3857   -0.8000    0.0000 C   0  0  0  0  0  0  0  0  0  0  0  0
   -2.7713   -1.6000    0.0000 H   0  0  0  0  0  0  0  0  0  0  0  0
   -2.7713    0.0000    0.0000 H   0  0  0  0  0  0  0  0  0  0  0  0
   -1.3857   -2.4000    0.0000 H   0  0  0  0  0  0  0  0  0  0  0  0
    0.0000    1.6000    0.0000 C   0  0  0  0  0  0  0  0  0  0  0  0
   -1.3856    2.4000    0.0000 H   0  0  0  0  0  0  0  0  0  0  0  0
    1.3857    2.4000    0.0000 C   0  0  0  0  0  0  0  0  0  0  0  0
    1.3857    4.0000    0.0000 H   0  0  0  0  0  0  0  0  0  0  0  0
  1  2  1  0  0  0  0
  1  3  1  0  0  0  0
  3  4  1  0  0  0  0
  4  5  1  0  0  0  0
  4  6  1  0  0  0  0
  4  7  1  0  0  0  0
  3  8  2  0  0  0  0
  8  9  1  0  0  0  0
  8 10  1  0  0  0  0
 10 11  1  0  0  0  0
 11 12  1  0  0  0  0
 11 13  1  0  0  0  0
 11 14  1  0  0  0  0
 10 15  2  0  0  0  0
 15 16  1  0  0  0  0
 15 17  1  0  0  0  0
 17  1  2  0  0  0  0
 17 18  1  0  0  0  0
M  END
> <ChemID>
100217

> <source_casrn>
108-38-3

> <CAS>
108-38-3

> <SMILES>
Cc1cc(C)ccc1

> <NAME>
M-XYLENE

> <preferred_name>
m-Xylene

> <iupac>
C8H10

> <MPID>
98148

> <dsstox_substance_id>
DTXSID6026298

> <Canonical_QSARr>
Cc1cc(C)ccc1

> <InChI_Code_QSARr>
InChI=1S/C8H10/c1-7-4-3-5-8(2)6-7/h3-6H,1-2H3

> <InChI Key_QSARr>
IVSZLXZYQVIEFR-UHFFFAOYSA-N

> <Salt_Solvent>
?

> <LogBCF>
1.17

$$$$
100219
  -INDIGO-08031719362D

 13 13  0  0  0  0  0  0  0  0999 V2000
    3.2000    2.7713    0.0000 Cl  0  0  0  0  0  0  0  0  0  0  0  0
    2.4000    1.3856    0.0000 C   0  0  0  0  0  0  0  0  0  0  0  0
    3.2000   -0.0000    0.0000 C   0  0  0  0  0  0  0  0  0  0  0  0
    4.8000   -0.0000    0.0000 H   0  0  0  0  0  0  0  0  0  0  0  0
    2.4000   -1.3856    0.0000 C   0  0  0  0  0  0  0  0  0  0  0  0
    3.2000   -2.7713    0.0000 H   0  0  0  0  0  0  0  0  0  0  0  0
    0.8000   -1.3856    0.0000 C   0  0  0  0  0  0  0  0  0  0  0  0
    0.0000   -2.7713    0.0000 H   0  0  0  0  0  0  0  0  0  0  0  0
    0.0000    0.0000    0.0000 C   0  0  0  0  0  0  0  0  0  0  0  0
   -1.6000    0.0000    0.0000 O   0  0  0  0  0  0  0  0  0  0  0  0
   -2.4000   -1.3856    0.0000 H   0  0  0  0  0  0  0  0  0  0  0  0
    0.8000    1.3856    0.0000 C   0  0  0  0  0  0  0  0  0  0  0  0
    0.0000    2.7713    0.0000 H   0  0  0  0  0  0  0  0  0  0  0  0
  1  2  1  0  0  0  0
  2  3  1  0  0  0  0
  3  4  1  0  0  0  0
  3  5  2  0  0  0  0
  5  6  1  0  0  0  0
  5  7  1  0  0  0  0
  7  8  1  0  0  0  0
  7  9  2  0  0  0  0
  9 10  1  0  0  0  0
 10 11  1  0  0  0  0
  9 12  1  0  0  0  0
 12  2  2  0  0  0  0
 12 13  1  0  0  0  0
M  END
> <ChemID>
100219

> <source_casrn>
108-43-0

> <CAS>
108-43-0

> <SMILES>
Oc1cc(Cl)ccc1

> <NAME>
3-CHLOROPHENOL

> <preferred_name>
3-Chlorophenol

> <iupac>
3-chlorophenol

> <MPID>
98150

> <dsstox_substance_id>
DTXSID4024800

> <Canonical_QSARr>
Oc1cc(Cl)ccc1

> <InChI_Code_QSARr>
InChI=1S/C6H5ClO/c7-5-2-1-3-6(8)4-5/h1-4,8H

> <InChI Key_QSARr>
HORNXRXVQWOLPJ-UHFFFAOYSA-N

> <Salt_Solvent>
?

> <LogBCF>
1.2

$$$$
100220
  -INDIGO-08031719362D

 16 16  0  0  0  0  0  0  0  0999 V2000
    1.3857    0.8000    0.0000 N   0  0  0  0  0  0  0  0  0  0  0  0
    2.7713   -0.0000    0.0000 H   0  0  0  0  0  0  0  0  0  0  0  0
    1.3857    2.4000    0.0000 H   0  0  0  0  0  0  0  0  0  0  0  0
    0.0000   -0.0000    0.0000 C   0  0  0  0  0  0  0  0  0  0  0  0
   -1.3857    0.8000    0.0000 C   0  0  0  0  0  0  0  0  0  0  0  0
   -1.3857    2.4000    0.0000 H   0  0  0  0  0  0  0  0  0  0  0  0
   -2.7713   -0.0000    0.0000 C   0  0  0  0  0  0  0  0  0  0  0  0
   -4.1570    0.8000    0.0000 N   0  0  0  0  0  0  0  0  0  0  0  0
   -5.5426   -0.0000    0.0000 H   0  0  0  0  0  0  0  0  0  0  0  0
   -4.1569    2.4000    0.0000 H   0  0  0  0  0  0  0  0  0  0  0  0
   -2.7713   -1.6000    0.0000 C   0  0  0  0  0  0  0  0  0  0  0  0
   -4.1569   -2.4000    0.0000 H   0  0  0  0  0  0  0  0  0  0  0  0
   -1.3856   -2.4000    0.0000 C   0  0  0  0  0  0  0  0  0  0  0  0
   -1.3856   -4.0000    0.0000 H   0  0  0  0  0  0  0  0  0  0  0  0
    0.0000   -1.6000    0.0000 C   0  0  0  0  0  0  0  0  0  0  0  0
    1.3857   -2.4000    0.0000 H   0  0  0  0  0  0  0  0  0  0  0  0
  1  2  1  0  0  0  0
  1  3  1  0  0  0  0
  1  4  1  0  0  0  0
  4  5  1  0  0  0  0
  5  6  1  0  0  0  0
  5  7  2  0  0  0  0
  7  8  1  0  0  0  0
  8  9  1  0  0  0  0
  8 10  1  0  0  0  0
  7 11  1  0  0  0  0
 11 12  1  0  0  0  0
 11 13  2  0  0  0  0
 13 14  1  0  0  0  0
 13 15  1  0  0  0  0
 15  4  2  0  0  0  0
 15 16  1  0  0  0  0
M  END
> <ChemID>
100220

> <source_casrn>
108-45-2

> <CAS>
108-45-2

> <SMILES>
Nc1cc(N)ccc1

> <NAME>
1,3-BENZENEDIAMINE

> <preferred_name>
1,3-Benzenediamine

> <iupac>
benzene-1,3-diamine

> <MPID>
98151

> <dsstox_substance_id>
DTXSID4021137

> <Canonical_QSARr>
Nc1cc(N)ccc1

> <InChI_Code_QSARr>
InChI=1S/C6H8N2/c7-5-2-1-3-6(8)4-5/h1-4H,7-8H2

> <InChI Key_QSARr>
WZCQRUWWHSTZEM-UHFFFAOYSA-N

> <Salt_Solvent>
?

> <LogBCF>
0.81

$$$$
100221
  -INDIGO-08031719362D

 20 20  0  0  0  0  0  0  0  0999 V2000
   -0.0001   -0.0000    0.0000 C   0  0  0  0  0  0  0  0  0  0  0  0
   -0.0001   -1.6000    0.0000 C   0  0  0  0  0  0  0  0  0  0  0  0
    1.3856   -2.4000    0.0000 H   0  0  0  0  0  0  0  0  0  0  0  0
   -1.3856   -2.4000    0.0000 C   0  0  0  0  0  0  0  0  0  0  0  0
   -1.3856   -4.0000    0.0000 H   0  0  0  0  0  0  0  0  0  0  0  0
   -2.7712   -1.6000    0.0000 C   0  0  0  0  0  0  0  0  0  0  0  0
   -4.1569   -2.4000    0.0000 H   0  0  0  0  0  0  0  0  0  0  0  0
   -2.7712   -0.0000    0.0000 C   0  0  0  0  0  0  0  0  0  0  0  0
   -4.1569    0.8000    0.0000 C   0  0  0  0  0  0  0  0  0  0  0  0
   -4.1569    2.4000    0.0000 H   0  0  0  0  0  0  0  0  0  0  0  0
   -5.5425   -0.0000    0.0000 C   0  0  0  0  0  0  0  0  0  0  0  0
   -6.9282    0.8000    0.0000 H   0  0  0  0  0  0  0  0  0  0  0  0
   -5.5425   -1.6000    0.0000 H   0  0  0  0  0  0  0  0  0  0  0  0
   -1.3856    0.8000    0.0000 C   0  0  0  0  0  0  0  0  0  0  0  0
   -1.3856    2.4000    0.0000 H   0  0  0  0  0  0  0  0  0  0  0  0
    1.3856    0.8000    0.0000 C   0  0  0  0  0  0  0  0  0  0  0  0
    1.3856    2.4000    0.0000 H   0  0  0  0  0  0  0  0  0  0  0  0
    2.7713   -0.0000    0.0000 C   0  0  0  0  0  0  0  0  0  0  0  0
    4.1569    0.8000    0.0000 H   0  0  0  0  0  0  0  0  0  0  0  0
    2.7713   -1.6000    0.0000 H   0  0  0  0  0  0  0  0  0  0  0  0
  1  2  1  0  0  0  0
  2  3  1  0  0  0  0
  2  4  2  0  0  0  0
  4  5  1  0  0  0  0
  4  6  1  0  0  0  0
  6  7  1  0  0  0  0
  6  8  2  0  0  0  0
  8  9  1  0  0  0  0
  9 10  1  0  0  0  0
  9 11  2  0  0  0  0
 11 12  1  0  0  0  0
 11 13  1  0  0  0  0
  8 14  1  0  0  0  0
 14  1  2  0  0  0  0
 14 15  1  0  0  0  0
  1 16  1  0  0  0  0
 16 17  1  0  0  0  0
 16 18  2  0  0  0  0
 18 19  1  0  0  0  0
 18 20  1  0  0  0  0
M  END
> <ChemID>
100221

> <source_casrn>
108-57-6

> <CAS>
108-57-6

> <SMILES>
C=Cc1cc(ccc1)C=C

> <NAME>
M-DIETHENYLBENZENE

> <preferred_name>
1,3-Diethenylbenzene

> <iupac>
1,3-diethenylbenzene

> <MPID>
98152

> <dsstox_substance_id>
DTXSID30110020

> <Canonical_QSARr>
C=Cc1cc(ccc1)C=C

> <InChI_Code_QSARr>
InChI=1S/C10H10/c1-3-9-6-5-7-10(4-2)8-9/h3-8H,1-2H2

> <InChI Key_QSARr>
PRJNEUBECVAVAG-UHFFFAOYSA-N

> <Salt_Solvent>
?

> <LogBCF>
2.54

$$$$
100223
  -INDIGO-08031719362D

 21 21  0  0  0  0  0  0  0  0999 V2000
    0.0000    0.0001    0.0000 C   0  0  0  0  0  0  0  0  0  0  0  0
    1.3857    0.8000    0.0000 C   0  0  0  0  0  0  0  0  0  0  0  0
    1.3857    2.4000    0.0000 H   0  0  0  0  0  0  0  0  0  0  0  0
    2.7713    0.0001    0.0000 C   0  0  0  0  0  0  0  0  0  0  0  0
    4.1570    0.8000    0.0000 C   0  0  0  0  0  0  0  0  0  0  0  0
    5.5426    1.6001    0.0000 H   0  0  0  0  0  0  0  0  0  0  0  0
    5.5426    0.0001    0.0000 H   0  0  0  0  0  0  0  0  0  0  0  0
    4.1570    2.4000    0.0000 H   0  0  0  0  0  0  0  0  0  0  0  0
    2.7713   -1.5999    0.0000 C   0  0  0  0  0  0  0  0  0  0  0  0
    4.1570   -2.4000    0.0000 H   0  0  0  0  0  0  0  0  0  0  0  0
    1.3857   -2.4000    0.0000 C   0  0  0  0  0  0  0  0  0  0  0  0
    1.3857   -4.0000    0.0000 C   0  0  0  0  0  0  0  0  0  0  0  0
    1.3856   -5.6000    0.0000 H   0  0  0  0  0  0  0  0  0  0  0  0
    0.0000   -4.8001    0.0000 H   0  0  0  0  0  0  0  0  0  0  0  0
    2.7713   -4.8001    0.0000 H   0  0  0  0  0  0  0  0  0  0  0  0
    0.0000   -1.5999    0.0000 C   0  0  0  0  0  0  0  0  0  0  0  0
   -1.3857   -2.4000    0.0000 H   0  0  0  0  0  0  0  0  0  0  0  0
   -1.3857    0.8000    0.0000 C   0  0  0  0  0  0  0  0  0  0  0  0
   -2.7713    1.6001    0.0000 H   0  0  0  0  0  0  0  0  0  0  0  0
   -2.7713    0.0001    0.0000 H   0  0  0  0  0  0  0  0  0  0  0  0
   -1.3857    2.4000    0.0000 H   0  0  0  0  0  0  0  0  0  0  0  0
  1  2  1  0  0  0  0
  2  3  1  0  0  0  0
  2  4  2  0  0  0  0
  4  5  1  0  0  0  0
  5  6  1  0  0  0  0
  5  7  1  0  0  0  0
  5  8  1  0  0  0  0
  4  9  1  0  0  0  0
  9 10  1  0  0  0  0
  9 11  2  0  0  0  0
 11 12  1  0  0  0  0
 12 13  1  0  0  0  0
 12 14  1  0  0  0  0
 12 15  1  0  0  0  0
 11 16  1  0  0  0  0
 16  1  2  0  0  0  0
 16 17  1  0  0  0  0
  1 18  1  0  0  0  0
 18 19  1  0  0  0  0
 18 20  1  0  0  0  0
 18 21  1  0  0  0  0
M  END
> <ChemID>
100223

> <source_casrn>
108-67-8

> <CAS>
108-67-8

> <SMILES>
Cc1cc(C)cc(C)c1

> <NAME>
1,3,5-TRIMETHYLBENZENE

> <preferred_name>
1,3,5-Trimethylbenzene

> <iupac>
1,3,5-trimethylbenzene

> <MPID>
98154

> <dsstox_substance_id>
DTXSID6026797

> <Canonical_QSARr>
Cc1cc(C)cc(C)c1

> <InChI_Code_QSARr>
InChI=1S/C9H12/c1-7-4-8(2)6-9(3)5-7/h4-6H,1-3H3

> <InChI Key_QSARr>
AUHZEENZYGFFBQ-UHFFFAOYSA-N

> <Salt_Solvent>
?

> <LogBCF>
2.27

$$$$
100224
  -INDIGO-08031719362D

 12 12  0  0  0  0  0  0  0  0999 V2000
   -0.0000   -0.0000    0.0000 C   0  0  0  0  0  0  0  0  0  0  0  0
    0.8000   -1.3857    0.0000 C   0  0  0  0  0  0  0  0  0  0  0  0
    2.4000   -1.3857    0.0000 H   0  0  0  0  0  0  0  0  0  0  0  0
   -0.0000   -2.7713    0.0000 C   0  0  0  0  0  0  0  0  0  0  0  0
    0.8000   -4.1569    0.0000 Cl  0  0  0  0  0  0  0  0  0  0  0  0
   -1.6000   -2.7713    0.0000 C   0  0  0  0  0  0  0  0  0  0  0  0
   -2.4000   -4.1569    0.0000 H   0  0  0  0  0  0  0  0  0  0  0  0
   -2.4000   -1.3856    0.0000 C   0  0  0  0  0  0  0  0  0  0  0  0
   -4.0000   -1.3856    0.0000 Cl  0  0  0  0  0  0  0  0  0  0  0  0
   -1.6000   -0.0000    0.0000 C   0  0  0  0  0  0  0  0  0  0  0  0
   -2.4000    1.3856    0.0000 H   0  0  0  0  0  0  0  0  0  0  0  0
    0.8000    1.3856    0.0000 Cl  0  0  0  0  0  0  0  0  0  0  0  0
  1  2  1  0  0  0  0
  2  3  1  0  0  0  0
  2  4  2  0  0  0  0
  4  5  1  0  0  0  0
  4  6  1  0  0  0  0
  6  7  1  0  0  0  0
  6  8  2  0  0  0  0
  8  9  1  0  0  0  0
  8 10  1  0  0  0  0
 10  1  2  0  0  0  0
 10 11  1  0  0  0  0
  1 12  1  0  0  0  0
M  END
> <ChemID>
100224

> <source_casrn>
108-70-3

> <CAS>
108-70-3

> <SMILES>
Clc1cc(Cl)cc(Cl)c1

> <NAME>
1,3,5-TRICHLOROBENZENE

> <preferred_name>
1,3,5-Trichlorobenzene

> <iupac>
C6H3Cl3

> <MPID>
98155

> <dsstox_substance_id>
DTXSID8026195

> <Canonical_QSARr>
Clc1cc(Cl)cc(Cl)c1

> <InChI_Code_QSARr>
InChI=1S/C6H3Cl3/c7-4-1-5(8)3-6(9)2-4/h1-3H

> <InChI Key_QSARr>
XKEFYDZQGKAQCN-UHFFFAOYSA-N

> <Salt_Solvent>
?

> <LogBCF>
2.97

$$$$
100225
  -INDIGO-08031719362D

 15 15  0  0  0  0  0  0  0  0999 V2000
    1.3857    0.8000    0.0000 N   0  0  0  0  0  0  0  0  0  0  0  0
    2.7713    0.0000    0.0000 H   0  0  0  0  0  0  0  0  0  0  0  0
    1.3857    2.4000    0.0000 H   0  0  0  0  0  0  0  0  0  0  0  0
    0.0000    0.0000    0.0000 C   0  0  0  0  0  0  0  0  0  0  0  0
   -1.3857    0.8000    0.0000 N   0  0  0  0  0  0  0  0  0  0  0  0
   -2.7713    0.0000    0.0000 C   0  0  0  0  0  0  0  0  0  0  0  0
   -4.1570    0.8000    0.0000 N   0  0  0  0  0  0  0  0  0  0  0  0
   -5.5426    0.0000    0.0000 H   0  0  0  0  0  0  0  0  0  0  0  0
   -4.1569    2.4000    0.0000 H   0  0  0  0  0  0  0  0  0  0  0  0
   -2.7713   -1.6000    0.0000 N   0  0  0  0  0  0  0  0  0  0  0  0
   -1.3856   -2.4000    0.0000 C   0  0  0  0  0  0  0  0  0  0  0  0
   -1.3856   -4.0000    0.0000 N   0  0  0  0  0  0  0  0  0  0  0  0
    0.0000   -4.8000    0.0000 H   0  0  0  0  0  0  0  0  0  0  0  0
   -2.7713   -4.8000    0.0000 H   0  0  0  0  0  0  0  0  0  0  0  0
    0.0000   -1.6000    0.0000 N   0  0  0  0  0  0  0  0  0  0  0  0
  1  2  1  0  0  0  0
  1  3  1  0  0  0  0
  1  4  1  0  0  0  0
  4  5  1  0  0  0  0
  5  6  2  0  0  0  0
  6  7  1  0  0  0  0
  7  8  1  0  0  0  0
  7  9  1  0  0  0  0
  6 10  1  0  0  0  0
 10 11  2  0  0  0  0
 11 12  1  0  0  0  0
 12 13  1  0  0  0  0
 12 14  1  0  0  0  0
 11 15  1  0  0  0  0
 15  4  2  0  0  0  0
M  END
> <ChemID>
100225

> <source_casrn>
108-78-1

> <CAS>
108-78-1

> <SMILES>
Nc1[n]c(N)[n]c(N)[n]1

> <NAME>
MELAMINE

> <preferred_name>
Melamine

> <iupac>
1,3,5-triazine-2,4,6-triamine

> <MPID>
98156

> <dsstox_substance_id>
DTXSID6020802

> <Canonical_QSARr>
Nc1[n]c(N)[n]c(N)[n]1

> <InChI_Code_QSARr>
InChI=1S/C3H6N6/c4-1-7-2(5)9-3(6)8-1/h(H6,4,5,6,7,8,9)

> <InChI Key_QSARr>
JDSHMPZPIAZGSV-UHFFFAOYSA-N

> <Salt_Solvent>
?

> <LogBCF>
0.58

$$$$
100227
  -INDIGO-08031719362D

 12 12  0  0  0  0  0  0  0  0999 V2000
   -0.0000   -0.0000    0.0000 C   0  0  0  0  0  0  0  0  0  0  0  0
    0.8000   -1.3857    0.0000 C   0  0  0  0  0  0  0  0  0  0  0  0
    2.4000   -1.3857    0.0000 H   0  0  0  0  0  0  0  0  0  0  0  0
   -0.0000   -2.7713    0.0000 C   0  0  0  0  0  0  0  0  0  0  0  0
    0.8000   -4.1569    0.0000 H   0  0  0  0  0  0  0  0  0  0  0  0
   -1.6000   -2.7713    0.0000 C   0  0  0  0  0  0  0  0  0  0  0  0
   -2.4000   -4.1569    0.0000 H   0  0  0  0  0  0  0  0  0  0  0  0
   -2.4000   -1.3856    0.0000 C   0  0  0  0  0  0  0  0  0  0  0  0
   -4.0000   -1.3856    0.0000 H   0  0  0  0  0  0  0  0  0  0  0  0
   -1.6000   -0.0000    0.0000 C   0  0  0  0  0  0  0  0  0  0  0  0
   -2.4000    1.3856    0.0000 H   0  0  0  0  0  0  0  0  0  0  0  0
    0.8000    1.3856    0.0000 Br  0  0  0  0  0  0  0  0  0  0  0  0
  1  2  1  0  0  0  0
  2  3  1  0  0  0  0
  2  4  2  0  0  0  0
  4  5  1  0  0  0  0
  4  6  1  0  0  0  0
  6  7  1  0  0  0  0
  6  8  2  0  0  0  0
  8  9  1  0  0  0  0
  8 10  1  0  0  0  0
 10  1  2  0  0  0  0
 10 11  1  0  0  0  0
  1 12  1  0  0  0  0
M  END
> <ChemID>
100227

> <source_casrn>
108-86-1

> <CAS>
108-86-1

> <SMILES>
Brc1ccccc1

> <NAME>
BROMOBENZENE

> <preferred_name>
Bromobenzene

> <iupac>
bromobenzene

> <MPID>
98158

> <dsstox_substance_id>
DTXSID5024637

> <Canonical_QSARr>
Brc1ccccc1

> <InChI_Code_QSARr>
InChI=1S/C6H5Br/c7-6-4-2-1-3-5-6/h1-5H

> <InChI Key_QSARr>
QARVLSVVCXYDNA-UHFFFAOYSA-N

> <Salt_Solvent>
?

> <LogBCF>
1.36

$$$$
100228
  -INDIGO-08031719362D

 21 21  0  0  0  0  0  0  0  0999 V2000
   -0.0000    1.6000    0.0000 C   0  0  0  0  0  0  0  0  0  0  0  0
    0.5472    3.1035    0.0000 H   0  0  0  0  0  0  0  0  0  0  0  0
    1.5757    1.3222    0.0000 H   0  0  0  0  0  0  0  0  0  0  0  0
   -1.3856    2.4000    0.0000 C   0  0  0  0  0  0  0  0  0  0  0  0
   -0.3572    3.6257    0.0000 H   0  0  0  0  0  0  0  0  0  0  0  0
   -2.4141    3.6257    0.0000 H   0  0  0  0  0  0  0  0  0  0  0  0
   -2.7713    1.6000    0.0000 C   0  0  0  0  0  0  0  0  0  0  0  0
   -3.3185    3.1035    0.0000 H   0  0  0  0  0  0  0  0  0  0  0  0
   -4.3470    1.3222    0.0000 H   0  0  0  0  0  0  0  0  0  0  0  0
   -2.7713   -0.0000    0.0000 C   0  0  0  0  0  0  0  0  0  0  0  0
   -4.3470    0.2778    0.0000 H   0  0  0  0  0  0  0  0  0  0  0  0
   -3.3185   -1.5035    0.0000 H   0  0  0  0  0  0  0  0  0  0  0  0
   -1.3856   -0.8000    0.0000 C   0  0  0  0  0  0  0  0  0  0  0  0
   -2.4141   -2.0257    0.0000 H   0  0  0  0  0  0  0  0  0  0  0  0
   -0.3572   -2.0257    0.0000 H   0  0  0  0  0  0  0  0  0  0  0  0
   -0.0000   -0.0000    0.0000 C   0  0  0  0  0  0  0  0  0  0  0  0
    0.5472   -1.5035    0.0000 H   0  0  0  0  0  0  0  0  0  0  0  0
    1.5757   -0.2778    0.0000 C   0  0  0  0  0  0  0  0  0  0  0  0
    3.1514   -0.5556    0.0000 H   0  0  0  0  0  0  0  0  0  0  0  0
    2.1229   -1.7814    0.0000 H   0  0  0  0  0  0  0  0  0  0  0  0
    2.6041    0.9478    0.0000 H   0  0  0  0  0  0  0  0  0  0  0  0
  1  2  1  0  0  0  0
  1  3  1  0  0  0  0
  1  4  1  0  0  0  0
  4  5  1  0  0  0  0
  4  6  1  0  0  0  0
  4  7  1  0  0  0  0
  7  8  1  0  0  0  0
  7  9  1  0  0  0  0
  7 10  1  0  0  0  0
 10 11  1  0  0  0  0
 10 12  1  0  0  0  0
 10 13  1  0  0  0  0
 13 14  1  0  0  0  0
 13 15  1  0  0  0  0
 13 16  1  0  0  0  0
 16  1  1  0  0  0  0
 16 17  1  0  0  0  0
 16 18  1  0  0  0  0
 18 19  1  0  0  0  0
 18 20  1  0  0  0  0
 18 21  1  0  0  0  0
M  END
> <ChemID>
100228

> <source_casrn>
108-87-2

> <CAS>
108-87-2

> <SMILES>
CC1CCCCC1

> <NAME>
1-METHYLCYCLOHEXANE

> <preferred_name>
Methylcyclohexane

> <iupac>
methylcyclohexane

> <MPID>
98159

> <dsstox_substance_id>
DTXSID0047749

> <Canonical_QSARr>
CC1CCCCC1

> <InChI_Code_QSARr>
InChI=1S/C7H14/c1-7-5-3-2-4-6-7/h7H,2-6H2,1H3

> <InChI Key_QSARr>
UAEPNZWRGJTJPN-UHFFFAOYSA-N

> <Salt_Solvent>
?

> <LogBCF>
2.27

$$$$
100229
  -INDIGO-08031719362D

 15 15  0  0  0  0  0  0  0  0999 V2000
    1.6000   -0.0000    0.0000 C   0  0  0  0  0  0  0  0  0  0  0  0
    3.2000   -0.0000    0.0000 H   0  0  0  0  0  0  0  0  0  0  0  0
    2.4001   -1.3856    0.0000 H   0  0  0  0  0  0  0  0  0  0  0  0
    2.4001    1.3856    0.0000 H   0  0  0  0  0  0  0  0  0  0  0  0
    0.0000   -0.0000    0.0000 C   0  0  0  0  0  0  0  0  0  0  0  0
   -0.7999    1.3856    0.0000 C   0  0  0  0  0  0  0  0  0  0  0  0
    0.0000    2.7713    0.0000 H   0  0  0  0  0  0  0  0  0  0  0  0
   -2.4001    1.3856    0.0000 C   0  0  0  0  0  0  0  0  0  0  0  0
   -3.2000    2.7713    0.0000 H   0  0  0  0  0  0  0  0  0  0  0  0
   -3.2000   -0.0000    0.0000 C   0  0  0  0  0  0  0  0  0  0  0  0
   -4.8000   -0.0000    0.0000 H   0  0  0  0  0  0  0  0  0  0  0  0
   -2.4001   -1.3856    0.0000 C   0  0  0  0  0  0  0  0  0  0  0  0
   -3.2000   -2.7713    0.0000 H   0  0  0  0  0  0  0  0  0  0  0  0
   -0.8001   -1.3856    0.0000 C   0  0  0  0  0  0  0  0  0  0  0  0
    0.0000   -2.7713    0.0000 H   0  0  0  0  0  0  0  0  0  0  0  0
  1  2  1  0  0  0  0
  1  3  1  0  0  0  0
  1  4  1  0  0  0  0
  1  5  1  0  0  0  0
  5  6  1  0  0  0  0
  6  7  1  0  0  0  0
  6  8  2  0  0  0  0
  8  9  1  0  0  0  0
  8 10  1  0  0  0  0
 10 11  1  0  0  0  0
 10 12  2  0  0  0  0
 12 13  1  0  0  0  0
 12 14  1  0  0  0  0
 14  5  2  0  0  0  0
 14 15  1  0  0  0  0
M  END
> <ChemID>
100229

> <source_casrn>
108-88-3

> <CAS>
108-88-3

> <SMILES>
Cc1ccccc1

> <NAME>
TOLUENE

> <preferred_name>
Toluene

> <iupac>
methylbenzene

> <MPID>
98160

> <dsstox_substance_id>
DTXSID7021360

> <Canonical_QSARr>
Cc1ccccc1

> <InChI_Code_QSARr>
InChI=1S/C7H8/c1-7-5-3-2-4-6-7/h2-6H,1H3

> <InChI Key_QSARr>
YXFVVABEGXRONW-UHFFFAOYSA-N

> <Salt_Solvent>
?

> <LogBCF>
0.92

$$$$
100231
  -INDIGO-08031719362D

 13 13  0  0  0  0  0  0  0  0999 V2000
    0.8000    1.3856    0.0000 O   0  0  0  0  0  0  0  0  0  0  0  0
    2.4000    1.3856    0.0000 H   0  0  0  0  0  0  0  0  0  0  0  0
   -0.0000   -0.0000    0.0000 C   0  0  0  0  0  0  0  0  0  0  0  0
    0.8000   -1.3857    0.0000 C   0  0  0  0  0  0  0  0  0  0  0  0
    2.4000   -1.3857    0.0000 H   0  0  0  0  0  0  0  0  0  0  0  0
   -0.0000   -2.7713    0.0000 C   0  0  0  0  0  0  0  0  0  0  0  0
    0.8000   -4.1569    0.0000 H   0  0  0  0  0  0  0  0  0  0  0  0
   -1.6000   -2.7713    0.0000 C   0  0  0  0  0  0  0  0  0  0  0  0
   -2.4000   -4.1569    0.0000 H   0  0  0  0  0  0  0  0  0  0  0  0
   -2.4000   -1.3856    0.0000 C   0  0  0  0  0  0  0  0  0  0  0  0
   -4.0000   -1.3856    0.0000 H   0  0  0  0  0  0  0  0  0  0  0  0
   -1.6000   -0.0000    0.0000 C   0  0  0  0  0  0  0  0  0  0  0  0
   -2.4000    1.3856    0.0000 H   0  0  0  0  0  0  0  0  0  0  0  0
  1  2  1  0  0  0  0
  1  3  1  0  0  0  0
  3  4  1  0  0  0  0
  4  5  1  0  0  0  0
  4  6  2  0  0  0  0
  6  7  1  0  0  0  0
  6  8  1  0  0  0  0
  8  9  1  0  0  0  0
  8 10  2  0  0  0  0
 10 11  1  0  0  0  0
 10 12  1  0  0  0  0
 12  3  2  0  0  0  0
 12 13  1  0  0  0  0
M  END
> <ChemID>
100231

> <source_casrn>
108-95-2

> <CAS>
108-95-2

> <SMILES>
Oc1ccccc1

> <NAME>
PHENOL

> <preferred_name>
Phenol

> <iupac>
phenol

> <MPID>
98162

> <dsstox_substance_id>
DTXSID5021124

> <Canonical_QSARr>
Oc1ccccc1

> <InChI_Code_QSARr>
InChI=1S/C6H6O/c7-6-4-2-1-3-5-6/h1-5,7H

> <InChI Key_QSARr>
ISWSIDIOOBJBQZ-UHFFFAOYSA-N

> <Salt_Solvent>
?

> <LogBCF>
1.24

$$$$
100232
  -INDIGO-08031719362D

 11 11  0  0  0  0  0  0  0  0999 V2000
   -0.0000    3.2000    0.0000 N   0  0  0  0  0  0  0  0  0  0  0  0
    1.3856    2.4000    0.0000 C   0  0  0  0  0  0  0  0  0  0  0  0
    2.7713    3.2000    0.0000 Cl  0  0  0  0  0  0  0  0  0  0  0  0
    1.3856    0.8000    0.0000 C   0  0  0  0  0  0  0  0  0  0  0  0
    2.7713    0.0000    0.0000 H   0  0  0  0  0  0  0  0  0  0  0  0
   -0.0000    0.0000    0.0000 C   0  0  0  0  0  0  0  0  0  0  0  0
   -0.0000   -1.6000    0.0000 H   0  0  0  0  0  0  0  0  0  0  0  0
   -1.3856    0.8000    0.0000 C   0  0  0  0  0  0  0  0  0  0  0  0
   -2.7713    0.0000    0.0000 H   0  0  0  0  0  0  0  0  0  0  0  0
   -1.3856    2.4000    0.0000 C   0  0  0  0  0  0  0  0  0  0  0  0
   -2.7713    3.2000    0.0000 H   0  0  0  0  0  0  0  0  0  0  0  0
  1  2  1  0  0  0  0
  2  3  1  0  0  0  0
  2  4  2  0  0  0  0
  4  5  1  0  0  0  0
  4  6  1  0  0  0  0
  6  7  1  0  0  0  0
  6  8  2  0  0  0  0
  8  9  1  0  0  0  0
  8 10  1  0  0  0  0
 10  1  2  0  0  0  0
 10 11  1  0  0  0  0
M  END
> <ChemID>
100232

> <source_casrn>
109-09-1

> <CAS>
109-09-1

> <SMILES>
Clc1cccc[n]1

> <NAME>
2-CHLOROPYRIDINE

> <preferred_name>
2-Chloropyridine

> <iupac>
2-chloropyridine

> <MPID>
98163

> <dsstox_substance_id>
DTXSID8024810

> <Canonical_QSARr>
Clc1cccc[n]1

> <InChI_Code_QSARr>
InChI=1S/C5H4ClN/c6-5-3-1-2-4-7-5/h1-4H

> <InChI Key_QSARr>
OKDGRDCXVWSXDC-UHFFFAOYSA-N

> <Salt_Solvent>
?

> <LogBCF>
1.28

$$$$
100233
  -INDIGO-08031719362D

 14 13  0  0  0  0  0  0  0  0999 V2000
    1.3856   -0.8000    0.0000 C   0  0  0  0  0  0  0  0  0  0  0  0
    2.7713   -1.6000    0.0000 H   0  0  0  0  0  0  0  0  0  0  0  0
    2.7713    0.0000    0.0000 H   0  0  0  0  0  0  0  0  0  0  0  0
    1.3856   -2.4000    0.0000 H   0  0  0  0  0  0  0  0  0  0  0  0
    0.0000    0.0000    0.0000 C   0  0  0  0  0  0  0  0  0  0  0  0
    0.6123    1.4782    0.0000 H   0  0  0  0  0  0  0  0  0  0  0  0
   -0.6123    1.4782    0.0000 H   0  0  0  0  0  0  0  0  0  0  0  0
   -1.3856   -0.8000    0.0000 C   0  0  0  0  0  0  0  0  0  0  0  0
   -1.9980   -2.2782    0.0000 H   0  0  0  0  0  0  0  0  0  0  0  0
   -0.7733   -2.2782    0.0000 H   0  0  0  0  0  0  0  0  0  0  0  0
   -2.7713    0.0000    0.0000 C   0  0  0  0  0  0  0  0  0  0  0  0
   -4.1569    0.8000    0.0000 H   0  0  0  0  0  0  0  0  0  0  0  0
   -4.1569   -0.8000    0.0000 H   0  0  0  0  0  0  0  0  0  0  0  0
   -2.7713    1.6000    0.0000 Cl  0  0  0  0  0  0  0  0  0  0  0  0
  1  2  1  0  0  0  0
  1  3  1  0  0  0  0
  1  4  1  0  0  0  0
  1  5  1  0  0  0  0
  5  6  1  0  0  0  0
  5  7  1  0  0  0  0
  5  8  1  0  0  0  0
  8  9  1  0  0  0  0
  8 10  1  0  0  0  0
  8 11  1  0  0  0  0
 11 12  1  0  0  0  0
 11 13  1  0  0  0  0
 11 14  1  0  0  0  0
M  END
> <ChemID>
100233

> <source_casrn>
109-69-3

> <CAS>
109-69-3

> <SMILES>
CCCCCl

> <NAME>
1-CHLOROBUTANE

> <preferred_name>
1-Chlorobutane

> <iupac>
1-chlorobutane

> <MPID>
98164

> <dsstox_substance_id>
DTXSID8020206

> <Canonical_QSARr>
CCCCCl

> <InChI_Code_QSARr>
InChI=1S/C4H9Cl/c1-2-3-4-5/h2-4H2,1H3

> <InChI Key_QSARr>
VFWCMGCRMGJXDK-UHFFFAOYSA-N

> <Salt_Solvent>
?

> <LogBCF>
1.23

$$$$
100235
  -INDIGO-08031719362D

  9  9  0  0  0  0  0  0  0  0999 V2000
    0.0000   -0.0000    0.0000 C   0  0  0  0  0  0  0  0  0  0  0  0
    0.9405    1.2944    0.0000 H   0  0  0  0  0  0  0  0  0  0  0  0
    0.4944   -1.5217    0.0000 C   0  0  0  0  0  0  0  0  0  0  0  0
    2.0161   -2.0161    0.0000 H   0  0  0  0  0  0  0  0  0  0  0  0
   -0.8000   -2.4621    0.0000 S   0  0  0  0  0  0  0  0  0  0  0  0
   -2.0944   -1.5217    0.0000 C   0  0  0  0  0  0  0  0  0  0  0  0
   -3.6161   -2.0161    0.0000 H   0  0  0  0  0  0  0  0  0  0  0  0
   -1.6000   -0.0000    0.0000 C   0  0  0  0  0  0  0  0  0  0  0  0
   -2.5405    1.2944    0.0000 H   0  0  0  0  0  0  0  0  0  0  0  0
  1  2  1  0  0  0  0
  1  3  2  0  0  0  0
  3  4  1  0  0  0  0
  3  5  1  0  0  0  0
  5  6  1  0  0  0  0
  6  7  1  0  0  0  0
  6  8  2  0  0  0  0
  8  1  1  0  0  0  0
  8  9  1  0  0  0  0
M  END
> <ChemID>
100235

> <source_casrn>
110-02-1

> <CAS>
110-02-1

> <SMILES>
c1ccc[s]1

> <NAME>
THIOPHENE

> <preferred_name>
Thiophene

> <iupac>
thiophene

> <MPID>
98166

> <dsstox_substance_id>
DTXSID8026145

> <Canonical_QSARr>
c1ccc[s]1

> <InChI_Code_QSARr>
InChI=1S/C4H4S/c1-2-4-5-3-1/h1-4H

> <InChI Key_QSARr>
YTPLMLYBLZKORZ-UHFFFAOYSA-N

> <Salt_Solvent>
?

> <LogBCF>
0.95

$$$$
100236
  -INDIGO-08031719362D

 18 18  0  0  0  0  0  0  0  0999 V2000
    0.0000    0.0000    0.0000 C   0  0  0  0  0  0  0  0  0  0  0  0
    0.5472    1.5035    0.0000 H   0  0  0  0  0  0  0  0  0  0  0  0
    1.5757   -0.2778    0.0000 H   0  0  0  0  0  0  0  0  0  0  0  0
   -1.3856    0.8000    0.0000 C   0  0  0  0  0  0  0  0  0  0  0  0
   -0.3571    2.0257    0.0000 H   0  0  0  0  0  0  0  0  0  0  0  0
   -2.4141    2.0257    0.0000 H   0  0  0  0  0  0  0  0  0  0  0  0
   -2.7713    0.0000    0.0000 C   0  0  0  0  0  0  0  0  0  0  0  0
   -3.3185    1.5035    0.0000 H   0  0  0  0  0  0  0  0  0  0  0  0
   -4.3470   -0.2778    0.0000 H   0  0  0  0  0  0  0  0  0  0  0  0
   -2.7713   -1.6000    0.0000 C   0  0  0  0  0  0  0  0  0  0  0  0
   -4.3470   -1.3222    0.0000 H   0  0  0  0  0  0  0  0  0  0  0  0
   -3.3185   -3.1035    0.0000 H   0  0  0  0  0  0  0  0  0  0  0  0
   -1.3856   -2.4000    0.0000 C   0  0  0  0  0  0  0  0  0  0  0  0
   -2.4141   -3.6257    0.0000 H   0  0  0  0  0  0  0  0  0  0  0  0
   -0.3571   -3.6257    0.0000 H   0  0  0  0  0  0  0  0  0  0  0  0
    0.0000   -1.6000    0.0000 C   0  0  0  0  0  0  0  0  0  0  0  0
    0.5472   -3.1035    0.0000 H   0  0  0  0  0  0  0  0  0  0  0  0
    1.5757   -1.3222    0.0000 H   0  0  0  0  0  0  0  0  0  0  0  0
  1  2  1  0  0  0  0
  1  3  1  0  0  0  0
  1  4  1  0  0  0  0
  4  5  1  0  0  0  0
  4  6  1  0  0  0  0
  4  7  1  0  0  0  0
  7  8  1  0  0  0  0
  7  9  1  0  0  0  0
  7 10  1  0  0  0  0
 10 11  1  0  0  0  0
 10 12  1  0  0  0  0
 10 13  1  0  0  0  0
 13 14  1  0  0  0  0
 13 15  1  0  0  0  0
 13 16  1  0  0  0  0
 16  1  1  0  0  0  0
 16 17  1  0  0  0  0
 16 18  1  0  0  0  0
M  END
> <ChemID>
100236

> <source_casrn>
110-82-7

> <CAS>
110-82-7

> <SMILES>
C1CCCCC1

> <NAME>
CYCLOHEXANE

> <preferred_name>
Cyclohexane

> <iupac>
cyclohexane

> <MPID>
98167

> <dsstox_substance_id>
DTXSID4021923

> <Canonical_QSARr>
C1CCCCC1

> <InChI_Code_QSARr>
InChI=1S/C6H12/c1-2-4-6-5-3-1/h1-6H2

> <InChI Key_QSARr>
XDTMQSROBMDMFD-UHFFFAOYSA-N

> <Salt_Solvent>
?

> <LogBCF>
1.92

$$$$
100237
  -INDIGO-08031719362D

 16 16  0  0  0  0  0  0  0  0999 V2000
    0.0000    0.0000    0.0000 C   0  0  0  0  0  0  0  0  0  0  0  0
    0.5472    1.5035    0.0000 H   0  0  0  0  0  0  0  0  0  0  0  0
    1.5757   -0.2778    0.0000 H   0  0  0  0  0  0  0  0  0  0  0  0
   -1.3857    0.8000    0.0000 C   0  0  0  0  0  0  0  0  0  0  0  0
   -0.3571    2.0257    0.0000 H   0  0  0  0  0  0  0  0  0  0  0  0
   -2.4141    2.0257    0.0000 H   0  0  0  0  0  0  0  0  0  0  0  0
   -2.7713    0.0000    0.0000 N   0  0  0  0  0  0  0  0  0  0  0  0
   -4.1569    0.8000    0.0000 H   0  0  0  0  0  0  0  0  0  0  0  0
   -2.7713   -1.6000    0.0000 C   0  0  0  0  0  0  0  0  0  0  0  0
   -4.3470   -1.3222    0.0000 H   0  0  0  0  0  0  0  0  0  0  0  0
   -3.3185   -3.1035    0.0000 H   0  0  0  0  0  0  0  0  0  0  0  0
   -1.3856   -2.4000    0.0000 C   0  0  0  0  0  0  0  0  0  0  0  0
   -2.4141   -3.6257    0.0000 H   0  0  0  0  0  0  0  0  0  0  0  0
   -0.3571   -3.6257    0.0000 H   0  0  0  0  0  0  0  0  0  0  0  0
    0.0000   -1.6000    0.0000 N   0  0  0  0  0  0  0  0  0  0  0  0
    1.3856   -2.4000    0.0000 H   0  0  0  0  0  0  0  0  0  0  0  0
  1  2  1  0  0  0  0
  1  3  1  0  0  0  0
  1  4  1  0  0  0  0
  4  5  1  0  0  0  0
  4  6  1  0  0  0  0
  4  7  1  0  0  0  0
  7  8  1  0  0  0  0
  7  9  1  0  0  0  0
  9 10  1  0  0  0  0
  9 11  1  0  0  0  0
  9 12  1  0  0  0  0
 12 13  1  0  0  0  0
 12 14  1  0  0  0  0
 12 15  1  0  0  0  0
 15  1  1  0  0  0  0
 15 16  1  0  0  0  0
M  END
> <ChemID>
100237

> <source_casrn>
110-85-0

> <CAS>
110-85-0

> <SMILES>
C1CNCCN1

> <NAME>
PIPERAZINE

> <preferred_name>
Piperazine

> <iupac>
piperazine

> <MPID>
98168

> <dsstox_substance_id>
DTXSID1021164

> <Canonical_QSARr>
C1CNCCN1

> <InChI_Code_QSARr>
InChI=1S/C4H10N2/c1-2-6-4-3-5-1/h5-6H,1-4H2

> <InChI Key_QSARr>
GLUUGHFHXGJENI-UHFFFAOYSA-N

> <Salt_Solvent>
?

> <LogBCF>
0.59

$$$$
100239
  -INDIGO-08031719362D

 23 22  0  0  0  0  0  0  0  0999 V2000
   -4.1569    0.8000    0.0000 C   0  0  0  0  0  0  0  0  0  0  0  0
   -3.5447    2.2782    0.0000 H   0  0  0  0  0  0  0  0  0  0  0  0
   -4.7692    2.2782    0.0000 H   0  0  0  0  0  0  0  0  0  0  0  0
   -5.5425    0.0000    0.0000 C   0  0  0  0  0  0  0  0  0  0  0  0
   -4.7426   -1.3856    0.0000 H   0  0  0  0  0  0  0  0  0  0  0  0
   -6.9282   -0.8000    0.0000 C   0  0  0  0  0  0  0  0  0  0  0  0
   -8.3138   -1.6000    0.0000 H   0  0  0  0  0  0  0  0  0  0  0  0
   -8.3138    0.0000    0.0000 H   0  0  0  0  0  0  0  0  0  0  0  0
   -6.9282   -2.4000    0.0000 H   0  0  0  0  0  0  0  0  0  0  0  0
   -6.3426    1.3856    0.0000 O   0  0  0  0  0  0  0  0  0  0  0  0
   -7.9426    1.3856    0.0000 H   0  0  0  0  0  0  0  0  0  0  0  0
   -2.7712    0.0000    0.0000 O   0  0  0  0  0  0  0  0  0  0  0  0
   -1.3857    0.8000    0.0000 C   0  0  0  0  0  0  0  0  0  0  0  0
   -0.7734    2.2782    0.0000 H   0  0  0  0  0  0  0  0  0  0  0  0
   -1.9979    2.2782    0.0000 H   0  0  0  0  0  0  0  0  0  0  0  0
   -0.0000    0.0000    0.0000 C   0  0  0  0  0  0  0  0  0  0  0  0
   -0.7999   -1.3856    0.0000 H   0  0  0  0  0  0  0  0  0  0  0  0
    1.3856   -0.8000    0.0000 C   0  0  0  0  0  0  0  0  0  0  0  0
    2.7713   -1.6000    0.0000 H   0  0  0  0  0  0  0  0  0  0  0  0
    2.7713    0.0000    0.0000 H   0  0  0  0  0  0  0  0  0  0  0  0
    1.3856   -2.4000    0.0000 H   0  0  0  0  0  0  0  0  0  0  0  0
    0.8000    1.3856    0.0000 O   0  0  0  0  0  0  0  0  0  0  0  0
    2.4000    1.3856    0.0000 H   0  0  0  0  0  0  0  0  0  0  0  0
  1  2  1  0  0  0  0
  1  3  1  0  0  0  0
  1  4  1  0  0  0  0
  4  5  1  0  0  0  0
  4  6  1  0  0  0  0
  6  7  1  0  0  0  0
  6  8  1  0  0  0  0
  6  9  1  0  0  0  0
  4 10  1  0  0  0  0
 10 11  1  0  0  0  0
  1 12  1  0  0  0  0
 12 13  1  0  0  0  0
 13 14  1  0  0  0  0
 13 15  1  0  0  0  0
 13 16  1  0  0  0  0
 16 17  1  0  0  0  0
 16 18  1  0  0  0  0
 18 19  1  0  0  0  0
 18 20  1  0  0  0  0
 18 21  1  0  0  0  0
 16 22  1  0  0  0  0
 22 23  1  0  0  0  0
M  END
> <ChemID>
100239

> <source_casrn>
110-98-5

> <CAS>
110-98-5

> <SMILES>
CC(O)COCC(C)O

> <NAME>
1,1'-Oxydi-2-propanol

> <preferred_name>
1,1'-Oxybis-2-propanol

> <iupac>
1,1'-oxydipropan-2-ol

> <MPID>
98170

> <dsstox_substance_id>
DTXSID7026863

> <Canonical_QSARr>
CC(O)COCC(C)O

> <InChI_Code_QSARr>
InChI=1S/C6H14O3/c1-5(7)3-9-4-6(2)8/h5-8H,3-4H2,1-2H3

> <InChI Key_QSARr>
AZUXKVXMJOIAOF-UHFFFAOYSA-N

> <Salt_Solvent>
?

> <LogBCF>
0.66

$$$$
100240
  -INDIGO-08031719362D

 20 19  0  0  0  0  0  0  0  0999 V2000
    1.3856    0.8000    0.0000 N   0  0  0  0  0  0  0  0  0  0  0  0
    1.3856    2.4000    0.0000 H   0  0  0  0  0  0  0  0  0  0  0  0
    2.7712    0.0000    0.0000 C   0  0  0  0  0  0  0  0  0  0  0  0
    3.3835   -1.4782    0.0000 H   0  0  0  0  0  0  0  0  0  0  0  0
    2.1591   -1.4782    0.0000 H   0  0  0  0  0  0  0  0  0  0  0  0
    4.1569    0.8000    0.0000 C   0  0  0  0  0  0  0  0  0  0  0  0
    3.5446    2.2782    0.0000 H   0  0  0  0  0  0  0  0  0  0  0  0
    4.7692    2.2782    0.0000 H   0  0  0  0  0  0  0  0  0  0  0  0
    5.5425    0.0000    0.0000 N   0  0  0  0  0  0  0  0  0  0  0  0
    6.9282    0.8000    0.0000 H   0  0  0  0  0  0  0  0  0  0  0  0
    5.5425   -1.6000    0.0000 H   0  0  0  0  0  0  0  0  0  0  0  0
    0.0001    0.0000    0.0000 C   0  0  0  0  0  0  0  0  0  0  0  0
    0.6122   -1.4782    0.0000 H   0  0  0  0  0  0  0  0  0  0  0  0
   -0.6123   -1.4782    0.0000 H   0  0  0  0  0  0  0  0  0  0  0  0
   -1.3856    0.8000    0.0000 C   0  0  0  0  0  0  0  0  0  0  0  0
   -1.9979    2.2782    0.0000 H   0  0  0  0  0  0  0  0  0  0  0  0
   -0.7733    2.2782    0.0000 H   0  0  0  0  0  0  0  0  0  0  0  0
   -2.7713    0.0000    0.0000 N   0  0  0  0  0  0  0  0  0  0  0  0
   -4.1569    0.8000    0.0000 H   0  0  0  0  0  0  0  0  0  0  0  0
   -2.7713   -1.6000    0.0000 H   0  0  0  0  0  0  0  0  0  0  0  0
  1  2  1  0  0  0  0
  1  3  1  0  0  0  0
  3  4  1  0  0  0  0
  3  5  1  0  0  0  0
  3  6  1  0  0  0  0
  6  7  1  0  0  0  0
  6  8  1  0  0  0  0
  6  9  1  0  0  0  0
  9 10  1  0  0  0  0
  9 11  1  0  0  0  0
  1 12  1  0  0  0  0
 12 13  1  0  0  0  0
 12 14  1  0  0  0  0
 12 15  1  0  0  0  0
 15 16  1  0  0  0  0
 15 17  1  0  0  0  0
 15 18  1  0  0  0  0
 18 19  1  0  0  0  0
 18 20  1  0  0  0  0
M  END
> <ChemID>
100240

> <source_casrn>
111-40-0

> <CAS>
111-40-0

> <SMILES>
NCCNCCN

> <NAME>
DIETHYLENETRIAMINE

> <preferred_name>
Diethylenetriamine

> <iupac>
N-(2-aminoethyl)ethane-1,2-diamine

> <MPID>
98171

> <dsstox_substance_id>
DTXSID2025050

> <Canonical_QSARr>
NCCNCCN

> <InChI_Code_QSARr>
InChI=1S/C4H13N3/c5-1-3-7-4-2-6/h7H,1-6H2

> <InChI Key_QSARr>
RPNUMPOLZDHAAY-UHFFFAOYSA-N

> <Salt_Solvent>
?

> <LogBCF>
0.65

$$$$
100241
  -INDIGO-08031719362D

 19 18  0  0  0  0  0  0  0  0999 V2000
   -1.3856    0.8000    0.0000 N   0  0  0  0  0  0  0  0  0  0  0  0
   -1.3857    2.4000    0.0000 H   0  0  0  0  0  0  0  0  0  0  0  0
   -0.0001    0.0000    0.0000 C   0  0  0  0  0  0  0  0  0  0  0  0
    0.6123   -1.4782    0.0000 H   0  0  0  0  0  0  0  0  0  0  0  0
   -0.6122   -1.4782    0.0000 H   0  0  0  0  0  0  0  0  0  0  0  0
    1.3856    0.8000    0.0000 C   0  0  0  0  0  0  0  0  0  0  0  0
    0.7733    2.2782    0.0000 H   0  0  0  0  0  0  0  0  0  0  0  0
    1.9979    2.2782    0.0000 H   0  0  0  0  0  0  0  0  0  0  0  0
    2.7713    0.0000    0.0000 N   0  0  0  0  0  0  0  0  0  0  0  0
    4.1569    0.8000    0.0000 H   0  0  0  0  0  0  0  0  0  0  0  0
    2.7713   -1.6000    0.0000 H   0  0  0  0  0  0  0  0  0  0  0  0
   -2.7712    0.0000    0.0000 C   0  0  0  0  0  0  0  0  0  0  0  0
   -2.1591   -1.4782    0.0000 H   0  0  0  0  0  0  0  0  0  0  0  0
   -3.3835   -1.4782    0.0000 H   0  0  0  0  0  0  0  0  0  0  0  0
   -4.1569    0.8000    0.0000 C   0  0  0  0  0  0  0  0  0  0  0  0
   -4.7692    2.2782    0.0000 H   0  0  0  0  0  0  0  0  0  0  0  0
   -3.5446    2.2782    0.0000 H   0  0  0  0  0  0  0  0  0  0  0  0
   -5.5425    0.0000    0.0000 O   0  0  0  0  0  0  0  0  0  0  0  0
   -6.9282    0.8000    0.0000 H   0  0  0  0  0  0  0  0  0  0  0  0
  1  2  1  0  0  0  0
  1  3  1  0  0  0  0
  3  4  1  0  0  0  0
  3  5  1  0  0  0  0
  3  6  1  0  0  0  0
  6  7  1  0  0  0  0
  6  8  1  0  0  0  0
  6  9  1  0  0  0  0
  9 10  1  0  0  0  0
  9 11  1  0  0  0  0
  1 12  1  0  0  0  0
 12 13  1  0  0  0  0
 12 14  1  0  0  0  0
 12 15  1  0  0  0  0
 15 16  1  0  0  0  0
 15 17  1  0  0  0  0
 15 18  1  0  0  0  0
 18 19  1  0  0  0  0
M  END
> <ChemID>
100241

> <source_casrn>
111-41-1

> <CAS>
111-41-1

> <SMILES>
NCCNCCO

> <NAME>
2-(2-AMINOETHYLAMINO)ETHANOL

> <preferred_name>
N-(Hydroxyethyl)ethylenediamine

> <iupac>
2-[(2-aminoethyl)amino]ethanol

> <MPID>
98172

> <dsstox_substance_id>
DTXSID7025423

> <Canonical_QSARr>
NCCNCCO

> <InChI_Code_QSARr>
InChI=1S/C4H12N2O/c5-1-2-6-3-4-7/h6-7H,1-5H2

> <InChI Key_QSARr>
LHIJANUOQQMGNT-UHFFFAOYSA-N

> <Salt_Solvent>
?

> <LogBCF>
0.46

$$$$
100243
  -INDIGO-08031719362D

 18 17  0  0  0  0  0  0  0  0999 V2000
   -2.7713    0.0000    0.0000 C   0  0  0  0  0  0  0  0  0  0  0  0
   -1.3856    0.8000    0.0000 C   0  0  0  0  0  0  0  0  0  0  0  0
   -1.9979    2.2782    0.0000 H   0  0  0  0  0  0  0  0  0  0  0  0
   -0.7733    2.2782    0.0000 H   0  0  0  0  0  0  0  0  0  0  0  0
    0.0001    0.0000    0.0000 C   0  0  0  0  0  0  0  0  0  0  0  0
    0.6122   -1.4782    0.0000 H   0  0  0  0  0  0  0  0  0  0  0  0
   -0.6123   -1.4782    0.0000 H   0  0  0  0  0  0  0  0  0  0  0  0
    1.3856    0.8000    0.0000 N   0  0  0  0  0  0  0  0  0  0  0  0
    1.3856    2.4000    0.0000 H   0  0  0  0  0  0  0  0  0  0  0  0
    2.7712    0.0000    0.0000 C   0  0  0  0  0  0  0  0  0  0  0  0
    3.3835   -1.4782    0.0000 H   0  0  0  0  0  0  0  0  0  0  0  0
    2.1591   -1.4782    0.0000 H   0  0  0  0  0  0  0  0  0  0  0  0
    4.1569    0.8000    0.0000 C   0  0  0  0  0  0  0  0  0  0  0  0
    3.5446    2.2782    0.0000 H   0  0  0  0  0  0  0  0  0  0  0  0
    4.7692    2.2782    0.0000 H   0  0  0  0  0  0  0  0  0  0  0  0
    5.5425    0.0000    0.0000 C   0  0  0  0  0  0  0  0  0  0  0  0
    6.9282   -0.8000    0.0000 N   0  0  0  0  0  0  0  0  0  0  0  0
   -4.1569   -0.8000    0.0000 N   0  0  0  0  0  0  0  0  0  0  0  0
  1  2  1  0  0  0  0
  2  3  1  0  0  0  0
  2  4  1  0  0  0  0
  2  5  1  0  0  0  0
  5  6  1  0  0  0  0
  5  7  1  0  0  0  0
  5  8  1  0  0  0  0
  8  9  1  0  0  0  0
  8 10  1  0  0  0  0
 10 11  1  0  0  0  0
 10 12  1  0  0  0  0
 10 13  1  0  0  0  0
 13 14  1  0  0  0  0
 13 15  1  0  0  0  0
 13 16  1  0  0  0  0
 16 17  3  0  0  0  0
  1 18  3  0  0  0  0
M  END
> <ChemID>
100243

> <source_casrn>
111-94-4

> <CAS>
111-94-4

> <SMILES>
N#CCCNCCC#N

> <NAME>
PROPANENITRILE, 3,3'-IMINOBIS-

> <preferred_name>
3,3'-Iminobispropanenitrile

> <iupac>
3,3'-iminodipropanenitrile

> <MPID>
98174

> <dsstox_substance_id>
DTXSID2041464

> <Canonical_QSARr>
N#CCCNCCC#N

> <InChI_Code_QSARr>
InChI=1S/C6H9N3/c7-3-1-5-9-6-2-4-8/h9H,1-2,5-6H2

> <InChI Key_QSARr>
SBAJRGRUGUQKAF-UHFFFAOYSA-N

> <Salt_Solvent>
?

> <LogBCF>
0.08

$$$$
100244
  -INDIGO-08031719362D

 38 37  0  0  0  0  0  0  0  0999 V2000
    6.9282   -0.8000    0.0000 C   0  0  0  0  0  0  0  0  0  0  0  0
    8.3138   -1.6000    0.0000 H   0  0  0  0  0  0  0  0  0  0  0  0
    8.3138    0.0000    0.0000 H   0  0  0  0  0  0  0  0  0  0  0  0
    6.9282   -2.4000    0.0000 H   0  0  0  0  0  0  0  0  0  0  0  0
    5.5426    0.0000    0.0000 C   0  0  0  0  0  0  0  0  0  0  0  0
    6.1548    1.4782    0.0000 H   0  0  0  0  0  0  0  0  0  0  0  0
    4.9302    1.4782    0.0000 H   0  0  0  0  0  0  0  0  0  0  0  0
    4.1570   -0.8000    0.0000 C   0  0  0  0  0  0  0  0  0  0  0  0
    3.5446   -2.2782    0.0000 H   0  0  0  0  0  0  0  0  0  0  0  0
    4.7692   -2.2782    0.0000 H   0  0  0  0  0  0  0  0  0  0  0  0
    2.7712    0.0000    0.0000 C   0  0  0  0  0  0  0  0  0  0  0  0
    3.3836    1.4782    0.0000 H   0  0  0  0  0  0  0  0  0  0  0  0
    2.1590    1.4782    0.0000 H   0  0  0  0  0  0  0  0  0  0  0  0
    1.3856   -0.8000    0.0000 C   0  0  0  0  0  0  0  0  0  0  0  0
    0.7735   -2.2782    0.0000 H   0  0  0  0  0  0  0  0  0  0  0  0
    1.9980   -2.2782    0.0000 H   0  0  0  0  0  0  0  0  0  0  0  0
   -0.0000    0.0000    0.0000 C   0  0  0  0  0  0  0  0  0  0  0  0
    0.6124    1.4782    0.0000 H   0  0  0  0  0  0  0  0  0  0  0  0
   -0.6124    1.4782    0.0000 H   0  0  0  0  0  0  0  0  0  0  0  0
   -1.3856   -0.8000    0.0000 C   0  0  0  0  0  0  0  0  0  0  0  0
   -1.9980   -2.2782    0.0000 H   0  0  0  0  0  0  0  0  0  0  0  0
   -0.7732   -2.2782    0.0000 H   0  0  0  0  0  0  0  0  0  0  0  0
   -2.7712    0.0000    0.0000 C   0  0  0  0  0  0  0  0  0  0  0  0
   -2.1591    1.4782    0.0000 H   0  0  0  0  0  0  0  0  0  0  0  0
   -3.3836    1.4782    0.0000 H   0  0  0  0  0  0  0  0  0  0  0  0
   -4.1568   -0.8000    0.0000 C   0  0  0  0  0  0  0  0  0  0  0  0
   -4.7692   -2.2782    0.0000 H   0  0  0  0  0  0  0  0  0  0  0  0
   -3.5447   -2.2782    0.0000 H   0  0  0  0  0  0  0  0  0  0  0  0
   -5.5427    0.0000    0.0000 C   0  0  0  0  0  0  0  0  0  0  0  0
   -4.9303    1.4782    0.0000 H   0  0  0  0  0  0  0  0  0  0  0  0
   -6.1548    1.4782    0.0000 H   0  0  0  0  0  0  0  0  0  0  0  0
   -6.9283   -0.8000    0.0000 C   0  0  0  0  0  0  0  0  0  0  0  0
   -7.5404   -2.2782    0.0000 H   0  0  0  0  0  0  0  0  0  0  0  0
   -6.3159   -2.2782    0.0000 H   0  0  0  0  0  0  0  0  0  0  0  0
   -8.3139    0.0000    0.0000 C   0  0  0  0  0  0  0  0  0  0  0  0
   -9.6995    0.8000    0.0000 H   0  0  0  0  0  0  0  0  0  0  0  0
   -9.6995   -0.8000    0.0000 H   0  0  0  0  0  0  0  0  0  0  0  0
   -8.3139    1.6000    0.0000 H   0  0  0  0  0  0  0  0  0  0  0  0
  1  2  1  0  0  0  0
  1  3  1  0  0  0  0
  1  4  1  0  0  0  0
  1  5  1  0  0  0  0
  5  6  1  0  0  0  0
  5  7  1  0  0  0  0
  5  8  1  0  0  0  0
  8  9  1  0  0  0  0
  8 10  1  0  0  0  0
  8 11  1  0  0  0  0
 11 12  1  0  0  0  0
 11 13  1  0  0  0  0
 11 14  1  0  0  0  0
 14 15  1  0  0  0  0
 14 16  1  0  0  0  0
 14 17  1  0  0  0  0
 17 18  1  0  0  0  0
 17 19  1  0  0  0  0
 17 20  1  0  0  0  0
 20 21  1  0  0  0  0
 20 22  1  0  0  0  0
 20 23  1  0  0  0  0
 23 24  1  0  0  0  0
 23 25  1  0  0  0  0
 23 26  1  0  0  0  0
 26 27  1  0  0  0  0
 26 28  1  0  0  0  0
 26 29  1  0  0  0  0
 29 30  1  0  0  0  0
 29 31  1  0  0  0  0
 29 32  1  0  0  0  0
 32 33  1  0  0  0  0
 32 34  1  0  0  0  0
 32 35  1  0  0  0  0
 35 36  1  0  0  0  0
 35 37  1  0  0  0  0
 35 38  1  0  0  0  0
M  END
> <ChemID>
100244

> <source_casrn>
112-40-3

> <CAS>
112-40-3

> <SMILES>
CCCCCCCCCCCC

> <NAME>
DODECANE

> <preferred_name>
Dodecane

> <iupac>
dodecane

> <MPID>
98175

> <dsstox_substance_id>
DTXSID0026913

> <Canonical_QSARr>
CCCCCCCCCCCC

> <InChI_Code_QSARr>
InChI=1S/C12H26/c1-3-5-7-9-11-12-10-8-6-4-2/h3-12H2,1-2H3

> <InChI Key_QSARr>
SNRUBQQJIBEYMU-UHFFFAOYSA-N

> <Salt_Solvent>
?

> <LogBCF>
2.38

$$$$
100245
  -INDIGO-08031719362D

 23 24  0  0  0  0  0  0  0  0999 V2000
    1.2788   -0.6865    0.0000 C   0  0  0  0  0  0  0  0  0  0  0  0
    2.0141    0.7841    0.0000 C   0  0  0  0  0  0  0  0  0  0  0  0
    3.5511    1.2285    0.0000 Cl  0  0  0  0  0  0  0  0  0  0  0  0
    0.6372    1.6175    0.0000 C   0  0  0  0  0  0  0  0  0  0  0  0
   -0.8735    0.8197    0.0000 C   0  0  0  0  0  0  0  0  0  0  0  0
   -2.4611    1.0179    0.0000 H   0  0  0  0  0  0  0  0  0  0  0  0
   -1.5015   -0.5526    0.0000 C   0  0  0  0  0  0  0  0  0  0  0  0
   -1.3545   -2.1459    0.0000 H   0  0  0  0  0  0  0  0  0  0  0  0
   -3.0788   -0.2841    0.0000 C   0  0  0  0  0  0  0  0  0  0  0  0
   -3.6350    1.2161    0.0000 O   0  0  0  0  0  0  0  0  0  0  0  0
   -4.1000   -1.5159    0.0000 O   0  0  0  0  0  0  0  0  0  0  0  0
   -5.6773   -1.2475    0.0000 H   0  0  0  0  0  0  0  0  0  0  0  0
    0.0000    0.0000    0.0000 C   0  0  0  0  0  0  0  0  0  0  0  0
    0.2631    3.0924    0.0000 C   0  0  0  0  0  0  0  0  0  0  0  0
    1.5261    4.0745    0.0000 Cl  0  0  0  0  0  0  0  0  0  0  0  0
   -0.4093    3.5518    0.0000 Cl  0  0  0  0  0  0  0  0  0  0  0  0
   -0.1119   -1.5961    0.0000 Cl  0  0  0  0  0  0  0  0  0  0  0  0
   -1.4301    2.3198    0.0000 C   0  0  0  0  0  0  0  0  0  0  0  0
   -1.2806    3.1203    0.0000 O   0  0  0  0  0  0  0  0  0  0  0  0
   -3.0076    2.5877    0.0000 O   0  0  0  0  0  0  0  0  0  0  0  0
   -3.5642    4.0877    0.0000 H   0  0  0  0  0  0  0  0  0  0  0  0
    1.9230    2.5698    0.0000 Cl  0  0  0  0  0  0  0  0  0  0  0  0
    1.7626   -2.2115    0.0000 Cl  0  0  0  0  0  0  0  0  0  0  0  0
  1  2  2  0  0  0  0
  2  3  1  0  0  0  0
  2  4  1  0  0  0  0
  4  5  1  0  0  0  0
  5  6  1  0  0  0  0
  5  7  1  0  0  0  0
  7  8  1  0  0  0  0
  7  9  1  0  0  0  0
  9 10  2  0  0  0  0
  9 11  1  0  0  0  0
 11 12  1  0  0  0  0
  7 13  1  0  0  0  0
 13  1  1  0  0  0  0
 13 14  1  0  0  0  0
 14  4  1  0  0  0  0
 14 15  1  0  0  0  0
 14 16  1  0  0  0  0
 13 17  1  0  0  0  0
  5 18  1  0  0  0  0
 18 19  2  0  0  0  0
 18 20  1  0  0  0  0
 20 21  1  0  0  0  0
  4 22  1  0  0  0  0
  1 23  1  0  0  0  0
M  END
> <ChemID>
100245

> <source_casrn>
115-28-6

> <CAS>
115-28-6

> <SMILES>
O=C(O)C(C(C(=C(C12Cl)Cl)Cl)(C1(Cl)Cl)Cl)C2C(=O)O

> <NAME>
CHLORENDIC ACID

> <preferred_name>
Chlorendic acid

> <iupac>
1,4,5,6,7,7-hexachlorobicyclo[2.2.1]hept-5-ene-2,3-dicarboxylic acid

> <MPID>
98176

> <dsstox_substance_id>
DTXSID2020268

> <Canonical_QSARr>
OC(=O)C1C(C(O)=O)C2(Cl)C(Cl)=C(Cl)C1(Cl)C2(Cl)Cl

> <InChI_Code_QSARr>
InChI=1S/C9H4Cl6O4/c10-3-4(11)8(13)2(6(18)19)1(5(16)17)7(3,12)9(8,14)15/h1-2H,(H,16,17)(H,18,19)

> <InChI Key_QSARr>
DJKGDNKYTKCJKD-UHFFFAOYSA-N

> <Salt_Solvent>
?

> <LogBCF>
0.32

$$$$
100247
  -INDIGO-08031719362D

 21 20  0  0  0  0  0  0  0  0999 V2000
   -0.8000   -1.3856    0.0000 C   0  0  0  0  0  0  0  0  0  0  0  0
   -0.5912   -2.9719    0.0000 H   0  0  0  0  0  0  0  0  0  0  0  0
    0.4694   -2.3597    0.0000 H   0  0  0  0  0  0  0  0  0  0  0  0
   -0.0000    0.0000    0.0000 C   0  0  0  0  0  0  0  0  0  0  0  0
    0.8000    1.3856    0.0000 C   0  0  0  0  0  0  0  0  0  0  0  0
    0.5912    2.9719    0.0000 H   0  0  0  0  0  0  0  0  0  0  0  0
   -0.4694    2.3597    0.0000 H   0  0  0  0  0  0  0  0  0  0  0  0
    2.3757    1.6635    0.0000 O   0  0  0  0  0  0  0  0  0  0  0  0
    2.9229    3.1670    0.0000 H   0  0  0  0  0  0  0  0  0  0  0  0
   -1.3856    0.8000    0.0000 C   0  0  0  0  0  0  0  0  0  0  0  0
   -2.9719    0.5912    0.0000 H   0  0  0  0  0  0  0  0  0  0  0  0
   -2.3597   -0.4694    0.0000 H   0  0  0  0  0  0  0  0  0  0  0  0
   -1.6635    2.3757    0.0000 O   0  0  0  0  0  0  0  0  0  0  0  0
   -3.1670    2.9229    0.0000 H   0  0  0  0  0  0  0  0  0  0  0  0
    1.3856   -0.8000    0.0000 C   0  0  0  0  0  0  0  0  0  0  0  0
    2.9719   -0.5912    0.0000 H   0  0  0  0  0  0  0  0  0  0  0  0
    2.3597    0.4694    0.0000 H   0  0  0  0  0  0  0  0  0  0  0  0
    1.6635   -2.3757    0.0000 O   0  0  0  0  0  0  0  0  0  0  0  0
    3.1670   -2.9229    0.0000 H   0  0  0  0  0  0  0  0  0  0  0  0
   -2.3757   -1.6635    0.0000 O   0  0  0  0  0  0  0  0  0  0  0  0
   -2.9229   -3.1670    0.0000 H   0  0  0  0  0  0  0  0  0  0  0  0
  1  2  1  0  0  0  0
  1  3  1  0  0  0  0
  1  4  1  0  0  0  0
  4  5  1  0  0  0  0
  5  6  1  0  0  0  0
  5  7  1  0  0  0  0
  5  8  1  0  0  0  0
  8  9  1  0  0  0  0
  4 10  1  0  0  0  0
 10 11  1  0  0  0  0
 10 12  1  0  0  0  0
 10 13  1  0  0  0  0
 13 14  1  0  0  0  0
  4 15  1  0  0  0  0
 15 16  1  0  0  0  0
 15 17  1  0  0  0  0
 15 18  1  0  0  0  0
 18 19  1  0  0  0  0
  1 20  1  0  0  0  0
 20 21  1  0  0  0  0
M  END
> <ChemID>
100247

> <source_casrn>
115-77-5

> <CAS>
115-77-5

> <SMILES>
OCC(CO)(CO)CO

> <NAME>
PENTAERYTHRITOL

> <preferred_name>
Pentaerythritol

> <iupac>
2,2-bis(hydroxymethyl)propane-1,3-diol

> <MPID>
98178

> <dsstox_substance_id>
DTXSID2026943

> <Canonical_QSARr>
OCC(CO)(CO)CO

> <InChI_Code_QSARr>
InChI=1S/C5H12O4/c6-1-5(2-7,3-8)4-9/h6-9H,1-4H2

> <InChI Key_QSARr>
WXZMFSXDPGVJKK-UHFFFAOYSA-N

> <Salt_Solvent>
?

> <LogBCF>
0.1

$$$$
100248
  -INDIGO-08031719362D

 38 40  0  0  0  0  0  0  0  0999 V2000
    4.3291   -0.4812    0.0000 C   0  0  0  0  0  0  0  0  0  0  0  0
    4.6070    1.0944    0.0000 H   0  0  0  0  0  0  0  0  0  0  0  0
    5.5549   -1.5097    0.0000 C   0  0  0  0  0  0  0  0  0  0  0  0
    7.0584   -0.9624    0.0000 H   0  0  0  0  0  0  0  0  0  0  0  0
    5.2771   -3.0853    0.0000 C   0  0  0  0  0  0  0  0  0  0  0  0
    6.5026   -4.1139    0.0000 H   0  0  0  0  0  0  0  0  0  0  0  0
    3.7736   -3.6326    0.0000 C   0  0  0  0  0  0  0  0  0  0  0  0
    3.4957   -5.2082    0.0000 H   0  0  0  0  0  0  0  0  0  0  0  0
    2.5478   -2.6041    0.0000 C   0  0  0  0  0  0  0  0  0  0  0  0
    1.0443   -3.1514    0.0000 H   0  0  0  0  0  0  0  0  0  0  0  0
    2.8257   -1.0285    0.0000 C   0  0  0  0  0  0  0  0  0  0  0  0
    1.6001    0.0001    0.0000 O   0  0  0  0  0  0  0  0  0  0  0  0
    0.0001    0.0001    0.0000 P   0  0  0  0  0  0  0  0  0  0  0  0
   -0.8000    1.3856    0.0000 O   0  0  0  0  0  0  0  0  0  0  0  0
    0.8000    1.3856    0.0000 O   0  0  0  0  0  0  0  0  0  0  0  0
    0.0001    2.7713    0.0000 C   0  0  0  0  0  0  0  0  0  0  0  0
    0.8000    4.1570    0.0000 C   0  0  0  0  0  0  0  0  0  0  0  0
    2.3999    4.1570    0.0000 H   0  0  0  0  0  0  0  0  0  0  0  0
    0.0001    5.5425    0.0000 C   0  0  0  0  0  0  0  0  0  0  0  0
    0.8000    6.9282    0.0000 H   0  0  0  0  0  0  0  0  0  0  0  0
   -1.6001    5.5425    0.0000 C   0  0  0  0  0  0  0  0  0  0  0  0
   -2.4000    6.9282    0.0000 H   0  0  0  0  0  0  0  0  0  0  0  0
   -2.4000    4.1570    0.0000 C   0  0  0  0  0  0  0  0  0  0  0  0
   -3.9999    4.1570    0.0000 H   0  0  0  0  0  0  0  0  0  0  0  0
   -1.6001    2.7713    0.0000 C   0  0  0  0  0  0  0  0  0  0  0  0
   -2.4000    1.3856    0.0000 H   0  0  0  0  0  0  0  0  0  0  0  0
   -1.6001    0.0001    0.0000 O   0  0  0  0  0  0  0  0  0  0  0  0
   -2.4000   -1.3856    0.0000 C   0  0  0  0  0  0  0  0  0  0  0  0
   -3.9999   -1.3856    0.0000 C   0  0  0  0  0  0  0  0  0  0  0  0
   -4.8000    0.0001    0.0000 H   0  0  0  0  0  0  0  0  0  0  0  0
   -4.8000   -2.7713    0.0000 C   0  0  0  0  0  0  0  0  0  0  0  0
   -6.4000   -2.7713    0.0000 H   0  0  0  0  0  0  0  0  0  0  0  0
   -3.9999   -4.1569    0.0000 C   0  0  0  0  0  0  0  0  0  0  0  0
   -4.8000   -5.5426    0.0000 H   0  0  0  0  0  0  0  0  0  0  0  0
   -2.4000   -4.1569    0.0000 C   0  0  0  0  0  0  0  0  0  0  0  0
   -1.6001   -5.5426    0.0000 H   0  0  0  0  0  0  0  0  0  0  0  0
   -1.6001   -2.7713    0.0000 C   0  0  0  0  0  0  0  0  0  0  0  0
    0.0001   -2.7713    0.0000 H   0  0  0  0  0  0  0  0  0  0  0  0
  1  2  1  0  0  0  0
  1  3  1  0  0  0  0
  3  4  1  0  0  0  0
  3  5  2  0  0  0  0
  5  6  1  0  0  0  0
  5  7  1  0  0  0  0
  7  8  1  0  0  0  0
  7  9  2  0  0  0  0
  9 10  1  0  0  0  0
  9 11  1  0  0  0  0
 11  1  2  0  0  0  0
 11 12  1  0  0  0  0
 12 13  1  0  0  0  0
 13 14  2  0  0  0  0
 13 15  1  0  0  0  0
 15 16  1  0  0  0  0
 16 17  1  0  0  0  0
 17 18  1  0  0  0  0
 17 19  2  0  0  0  0
 19 20  1  0  0  0  0
 19 21  1  0  0  0  0
 21 22  1  0  0  0  0
 21 23  2  0  0  0  0
 23 24  1  0  0  0  0
 23 25  1  0  0  0  0
 25 16  2  0  0  0  0
 25 26  1  0  0  0  0
 13 27  1  0  0  0  0
 27 28  1  0  0  0  0
 28 29  1  0  0  0  0
 29 30  1  0  0  0  0
 29 31  2  0  0  0  0
 31 32  1  0  0  0  0
 31 33  1  0  0  0  0
 33 34  1  0  0  0  0
 33 35  2  0  0  0  0
 35 36  1  0  0  0  0
 35 37  1  0  0  0  0
 37 28  2  0  0  0  0
 37 38  1  0  0  0  0
M  END
> <ChemID>
100248

> <source_casrn>
115-86-6

> <CAS>
115-86-6

> <SMILES>
O=P(Oc(cccc1)c1)(Oc(cccc2)c2)Oc(cccc3)c3

> <NAME>
TRIPHENYLPHOSPHATE

> <preferred_name>
Triphenyl phosphate

> <iupac>
triphenyl phosphate

> <MPID>
98179

> <dsstox_substance_id>
DTXSID1021952

> <Canonical_QSARr>
O=P(Oc1ccccc1)(Oc1ccccc1)Oc1ccccc1

> <InChI_Code_QSARr>
InChI=1S/C18H15O4P/c19-23(20-16-10-4-1-5-11-16,21-17-12-6-2-7-13-17)22-18-14-8-3-9-15-18/h1-15H

> <InChI Key_QSARr>
XZZNDPSIHUTMOC-UHFFFAOYSA-N

> <Salt_Solvent>
?

> <LogBCF>
2.28

$$$$
100249
  -INDIGO-08031719362D

 26 25  0  0  0  0  0  0  0  0999 V2000
    0.8001   -1.3856    0.0000 O   0  0  0  0  0  0  0  0  0  0  0  0
    0.0001    0.0000    0.0000 P   0  0  0  0  0  0  0  0  0  0  0  0
    1.6001    0.0000    0.0000 O   0  0  0  0  0  0  0  0  0  0  0  0
    2.4000   -1.3856    0.0000 C   0  0  0  0  0  0  0  0  0  0  0  0
    1.1306   -2.3596    0.0000 H   0  0  0  0  0  0  0  0  0  0  0  0
    2.1912   -2.9720    0.0000 H   0  0  0  0  0  0  0  0  0  0  0  0
    4.0000   -1.3856    0.0000 C   0  0  0  0  0  0  0  0  0  0  0  0
    5.6000   -1.3856    0.0000 H   0  0  0  0  0  0  0  0  0  0  0  0
    4.8000   -2.7712    0.0000 H   0  0  0  0  0  0  0  0  0  0  0  0
    4.8000    0.0000    0.0000 Cl  0  0  0  0  0  0  0  0  0  0  0  0
    0.8001    1.3857    0.0000 O   0  0  0  0  0  0  0  0  0  0  0  0
    0.0001    2.7713    0.0000 C   0  0  0  0  0  0  0  0  0  0  0  0
   -1.4782    3.3836    0.0000 H   0  0  0  0  0  0  0  0  0  0  0  0
   -1.4782    2.1590    0.0000 H   0  0  0  0  0  0  0  0  0  0  0  0
    0.8001    4.1569    0.0000 C   0  0  0  0  0  0  0  0  0  0  0  0
    1.6001    5.5426    0.0000 H   0  0  0  0  0  0  0  0  0  0  0  0
    0.0001    5.5426    0.0000 H   0  0  0  0  0  0  0  0  0  0  0  0
    2.4000    4.1569    0.0000 Cl  0  0  0  0  0  0  0  0  0  0  0  0
   -1.6001    0.0000    0.0000 O   0  0  0  0  0  0  0  0  0  0  0  0
   -2.4000   -1.3856    0.0000 C   0  0  0  0  0  0  0  0  0  0  0  0
   -2.1912   -2.9720    0.0000 H   0  0  0  0  0  0  0  0  0  0  0  0
   -1.1306   -2.3596    0.0000 H   0  0  0  0  0  0  0  0  0  0  0  0
   -4.0000   -1.3856    0.0000 C   0  0  0  0  0  0  0  0  0  0  0  0
   -5.6000   -1.3856    0.0000 H   0  0  0  0  0  0  0  0  0  0  0  0
   -4.8000   -2.7712    0.0000 H   0  0  0  0  0  0  0  0  0  0  0  0
   -4.8000    0.0000    0.0000 Cl  0  0  0  0  0  0  0  0  0  0  0  0
  1  2  2  0  0  0  0
  2  3  1  0  0  0  0
  3  4  1  0  0  0  0
  4  5  1  0  0  0  0
  4  6  1  0  0  0  0
  4  7  1  0  0  0  0
  7  8  1  0  0  0  0
  7  9  1  0  0  0  0
  7 10  1  0  0  0  0
  2 11  1  0  0  0  0
 11 12  1  0  0  0  0
 12 13  1  0  0  0  0
 12 14  1  0  0  0  0
 12 15  1  0  0  0  0
 15 16  1  0  0  0  0
 15 17  1  0  0  0  0
 15 18  1  0  0  0  0
  2 19  1  0  0  0  0
 19 20  1  0  0  0  0
 20 21  1  0  0  0  0
 20 22  1  0  0  0  0
 20 23  1  0  0  0  0
 23 24  1  0  0  0  0
 23 25  1  0  0  0  0
 23 26  1  0  0  0  0
M  END
> <ChemID>
100249

> <source_casrn>
115-96-8

> <CAS>
115-96-8

> <SMILES>
O=P(OCCCl)(OCCCl)OCCCl

> <NAME>
TRI-2-CHLOROETHYL PHOSPHATE

> <preferred_name>
Tris(2-chloroethyl) phosphate

> <iupac>
tris(2-chloroethyl) phosphate

> <MPID>
98180

> <dsstox_substance_id>
DTXSID5021411

> <Canonical_QSARr>
O=P(OCCCl)(OCCCl)OCCCl

> <InChI_Code_QSARr>
InChI=1S/C6H12Cl3O4P/c7-1-4-11-14(10,12-5-2-8)13-6-3-9/h1-6H2

> <InChI Key_QSARr>
HQUQLFOMPYWACS-UHFFFAOYSA-N

> <Salt_Solvent>
?

> <LogBCF>
0.11

$$$$
100251
  -INDIGO-08031719362D

 26 28  0  0  0  0  0  0  0  0999 V2000
    1.3856    2.4000    0.0000 O   0  0  0  0  0  0  0  0  0  0  0  0
    1.3856    0.8000    0.0000 C   0  0  0  0  0  0  0  0  0  0  0  0
    0.0001   -0.0000    0.0000 C   0  0  0  0  0  0  0  0  0  0  0  0
    0.0001   -1.6000    0.0000 C   0  0  0  0  0  0  0  0  0  0  0  0
   -1.3856   -2.4000    0.0000 C   0  0  0  0  0  0  0  0  0  0  0  0
   -1.3856   -4.0000    0.0000 H   0  0  0  0  0  0  0  0  0  0  0  0
   -2.7713   -1.6000    0.0000 C   0  0  0  0  0  0  0  0  0  0  0  0
   -4.1569   -2.4000    0.0000 H   0  0  0  0  0  0  0  0  0  0  0  0
   -2.7713   -0.0000    0.0000 C   0  0  0  0  0  0  0  0  0  0  0  0
   -1.3856    0.8000    0.0000 C   0  0  0  0  0  0  0  0  0  0  0  0
   -1.3856    2.4000    0.0000 H   0  0  0  0  0  0  0  0  0  0  0  0
   -4.1569    0.8000    0.0000 N   0  0  0  0  0  0  0  0  0  0  0  0
   -5.5426   -0.0000    0.0000 H   0  0  0  0  0  0  0  0  0  0  0  0
   -4.1569    2.4000    0.0000 H   0  0  0  0  0  0  0  0  0  0  0  0
    1.3856   -2.4000    0.0000 C   0  0  0  0  0  0  0  0  0  0  0  0
    1.3856   -4.0000    0.0000 O   0  0  0  0  0  0  0  0  0  0  0  0
    2.7713   -1.6000    0.0000 C   0  0  0  0  0  0  0  0  0  0  0  0
    2.7713   -0.0000    0.0000 C   0  0  0  0  0  0  0  0  0  0  0  0
    4.1570    0.8000    0.0000 C   0  0  0  0  0  0  0  0  0  0  0  0
    4.1570    2.4000    0.0000 H   0  0  0  0  0  0  0  0  0  0  0  0
    5.5425   -0.0000    0.0000 C   0  0  0  0  0  0  0  0  0  0  0  0
    6.9282    0.8000    0.0000 H   0  0  0  0  0  0  0  0  0  0  0  0
    5.5425   -1.6000    0.0000 C   0  0  0  0  0  0  0  0  0  0  0  0
    6.9282   -2.4000    0.0000 H   0  0  0  0  0  0  0  0  0  0  0  0
    4.1570   -2.4000    0.0000 C   0  0  0  0  0  0  0  0  0  0  0  0
    4.1570   -4.0000    0.0000 H   0  0  0  0  0  0  0  0  0  0  0  0
  1  2  2  0  0  0  0
  2  3  1  0  0  0  0
  3  4  1  0  0  0  0
  4  5  2  0  0  0  0
  5  6  1  0  0  0  0
  5  7  1  0  0  0  0
  7  8  1  0  0  0  0
  7  9  2  0  0  0  0
  9 10  1  0  0  0  0
 10  3  2  0  0  0  0
 10 11  1  0  0  0  0
  9 12  1  0  0  0  0
 12 13  1  0  0  0  0
 12 14  1  0  0  0  0
  4 15  1  0  0  0  0
 15 16  2  0  0  0  0
 15 17  1  0  0  0  0
 17 18  1  0  0  0  0
 18  2  1  0  0  0  0
 18 19  2  0  0  0  0
 19 20  1  0  0  0  0
 19 21  1  0  0  0  0
 21 22  1  0  0  0  0
 21 23  2  0  0  0  0
 23 24  1  0  0  0  0
 23 25  1  0  0  0  0
 25 17  2  0  0  0  0
 25 26  1  0  0  0  0
M  END
> <ChemID>
100251

> <source_casrn>
117-79-3

> <CAS>
117-79-3

> <SMILES>
Nc1cc2c(cc1)C(=O)c1ccccc1C2=O

> <NAME>
2-AMINOANTHRAQUINONE

> <preferred_name>
2-Aminoanthraquinone

> <iupac>
2-aminoanthracene-9,10-dione

> <MPID>
98182

> <dsstox_substance_id>
DTXSID6020068

> <Canonical_QSARr>
Nc1cc2c(cc1)C(=O)c1ccccc1C2=O

> <InChI_Code_QSARr>
InChI=1S/C14H9NO2/c15-8-5-6-11-12(7-8)14(17)10-4-2-1-3-9(10)13(11)16/h1-7H,15H2

> <InChI Key_QSARr>
XOGPDSATLSAZEK-UHFFFAOYSA-N

> <Salt_Solvent>
?

> <LogBCF>
1.51

$$$$
100252
  -INDIGO-08031719362D

 66 66  0  0  0  0  0  0  0  0999 V2000
    4.8000    0.0000    0.0000 O   0  0  0  0  0  0  0  0  0  0  0  0
    3.9999   -1.3856    0.0000 C   0  0  0  0  0  0  0  0  0  0  0  0
    4.8000   -2.7713    0.0000 C   0  0  0  0  0  0  0  0  0  0  0  0
    6.4000   -2.7713    0.0000 C   0  0  0  0  0  0  0  0  0  0  0  0
    7.2001   -1.3856    0.0000 C   0  0  0  0  0  0  0  0  0  0  0  0
    6.4000    0.0000    0.0000 O   0  0  0  0  0  0  0  0  0  0  0  0
    8.8001   -1.3856    0.0000 O   0  0  0  0  0  0  0  0  0  0  0  0
    9.5999    0.0000    0.0000 C   0  0  0  0  0  0  0  0  0  0  0  0
    9.3911    1.5864    0.0000 H   0  0  0  0  0  0  0  0  0  0  0  0
    8.3307    0.9740    0.0000 H   0  0  0  0  0  0  0  0  0  0  0  0
   11.1998    0.0000    0.0000 C   0  0  0  0  0  0  0  0  0  0  0  0
   10.9220   -1.5756    0.0000 H   0  0  0  0  0  0  0  0  0  0  0  0
   12.7036   -0.5473    0.0000 C   0  0  0  0  0  0  0  0  0  0  0  0
   11.8438   -1.8967    0.0000 H   0  0  0  0  0  0  0  0  0  0  0  0
   13.0497   -2.1094    0.0000 H   0  0  0  0  0  0  0  0  0  0  0  0
   14.2792   -0.2695    0.0000 C   0  0  0  0  0  0  0  0  0  0  0  0
   15.3600    0.9102    0.0000 H   0  0  0  0  0  0  0  0  0  0  0  0
   14.2094    1.3291    0.0000 H   0  0  0  0  0  0  0  0  0  0  0  0
   15.3078   -1.4951    0.0000 C   0  0  0  0  0  0  0  0  0  0  0  0
   14.2267   -2.6747    0.0000 H   0  0  0  0  0  0  0  0  0  0  0  0
   15.3773   -3.0935    0.0000 H   0  0  0  0  0  0  0  0  0  0  0  0
   16.8834   -1.2173    0.0000 C   0  0  0  0  0  0  0  0  0  0  0  0
   18.4590   -0.9393    0.0000 H   0  0  0  0  0  0  0  0  0  0  0  0
   17.9120   -2.4429    0.0000 H   0  0  0  0  0  0  0  0  0  0  0  0
   17.4305    0.2863    0.0000 H   0  0  0  0  0  0  0  0  0  0  0  0
   11.4777    1.5757    0.0000 C   0  0  0  0  0  0  0  0  0  0  0  0
   13.0764    1.5058    0.0000 H   0  0  0  0  0  0  0  0  0  0  0  0
   12.6573    2.6566    0.0000 H   0  0  0  0  0  0  0  0  0  0  0  0
   10.2521    2.6042    0.0000 C   0  0  0  0  0  0  0  0  0  0  0  0
   10.5299    4.1798    0.0000 H   0  0  0  0  0  0  0  0  0  0  0  0
    9.0265    3.6325    0.0000 H   0  0  0  0  0  0  0  0  0  0  0  0
   11.7555    3.1513    0.0000 H   0  0  0  0  0  0  0  0  0  0  0  0
    7.2001   -4.1569    0.0000 C   0  0  0  0  0  0  0  0  0  0  0  0
    8.8001   -4.1569    0.0000 H   0  0  0  0  0  0  0  0  0  0  0  0
    6.4000   -5.5426    0.0000 C   0  0  0  0  0  0  0  0  0  0  0  0
    7.2001   -6.9282    0.0000 H   0  0  0  0  0  0  0  0  0  0  0  0
    4.8000   -5.5426    0.0000 C   0  0  0  0  0  0  0  0  0  0  0  0
    3.9999   -6.9282    0.0000 H   0  0  0  0  0  0  0  0  0  0  0  0
    3.9999   -4.1569    0.0000 C   0  0  0  0  0  0  0  0  0  0  0  0
    2.3999   -4.1569    0.0000 H   0  0  0  0  0  0  0  0  0  0  0  0
    2.3999   -1.3856    0.0000 O   0  0  0  0  0  0  0  0  0  0  0  0
    1.6001    0.0000    0.0000 C   0  0  0  0  0  0  0  0  0  0  0  0
    2.8693    0.9740    0.0000 H   0  0  0  0  0  0  0  0  0  0  0  0
    1.8089    1.5864    0.0000 H   0  0  0  0  0  0  0  0  0  0  0  0
    0.0002    0.0000    0.0000 C   0  0  0  0  0  0  0  0  0  0  0  0
    0.2780   -1.5756    0.0000 H   0  0  0  0  0  0  0  0  0  0  0  0
   -1.5036   -0.5473    0.0000 C   0  0  0  0  0  0  0  0  0  0  0  0
   -1.8497   -2.1094    0.0000 H   0  0  0  0  0  0  0  0  0  0  0  0
   -0.6438   -1.8967    0.0000 H   0  0  0  0  0  0  0  0  0  0  0  0
   -3.0792   -0.2695    0.0000 C   0  0  0  0  0  0  0  0  0  0  0  0
   -3.0094    1.3291    0.0000 H   0  0  0  0  0  0  0  0  0  0  0  0
   -4.1600    0.9102    0.0000 H   0  0  0  0  0  0  0  0  0  0  0  0
   -4.1078   -1.4951    0.0000 C   0  0  0  0  0  0  0  0  0  0  0  0
   -4.1773   -3.0935    0.0000 H   0  0  0  0  0  0  0  0  0  0  0  0
   -3.0267   -2.6747    0.0000 H   0  0  0  0  0  0  0  0  0  0  0  0
   -5.6834   -1.2173    0.0000 C   0  0  0  0  0  0  0  0  0  0  0  0
   -7.2590   -0.9393    0.0000 H   0  0  0  0  0  0  0  0  0  0  0  0
   -6.7120   -2.4429    0.0000 H   0  0  0  0  0  0  0  0  0  0  0  0
   -6.2305    0.2863    0.0000 H   0  0  0  0  0  0  0  0  0  0  0  0
   -0.2777    1.5757    0.0000 C   0  0  0  0  0  0  0  0  0  0  0  0
   -1.4573    2.6566    0.0000 H   0  0  0  0  0  0  0  0  0  0  0  0
   -1.8764    1.5058    0.0000 H   0  0  0  0  0  0  0  0  0  0  0  0
    0.9479    2.6042    0.0000 C   0  0  0  0  0  0  0  0  0  0  0  0
    0.6701    4.1798    0.0000 H   0  0  0  0  0  0  0  0  0  0  0  0
    2.1735    3.6325    0.0000 H   0  0  0  0  0  0  0  0  0  0  0  0
   -0.5555    3.1513    0.0000 H   0  0  0  0  0  0  0  0  0  0  0  0
  1  2  2  0  0  0  0
  2  3  1  0  0  0  0
  3  4  1  0  0  0  0
  4  5  1  0  0  0  0
  5  6  2  0  0  0  0
  5  7  1  0  0  0  0
  7  8  1  0  0  0  0
  8  9  1  0  0  0  0
  8 10  1  0  0  0  0
  8 11  1  0  0  0  0
 11 12  1  0  0  0  0
 11 13  1  0  0  0  0
 13 14  1  0  0  0  0
 13 15  1  0  0  0  0
 13 16  1  0  0  0  0
 16 17  1  0  0  0  0
 16 18  1  0  0  0  0
 16 19  1  0  0  0  0
 19 20  1  0  0  0  0
 19 21  1  0  0  0  0
 19 22  1  0  0  0  0
 22 23  1  0  0  0  0
 22 24  1  0  0  0  0
 22 25  1  0  0  0  0
 11 26  1  0  0  0  0
 26 27  1  0  0  0  0
 26 28  1  0  0  0  0
 26 29  1  0  0  0  0
 29 30  1  0  0  0  0
 29 31  1  0  0  0  0
 29 32  1  0  0  0  0
  4 33  2  0  0  0  0
 33 34  1  0  0  0  0
 33 35  1  0  0  0  0
 35 36  1  0  0  0  0
 35 37  2  0  0  0  0
 37 38  1  0  0  0  0
 37 39  1  0  0  0  0
 39  3  2  0  0  0  0
 39 40  1  0  0  0  0
  2 41  1  0  0  0  0
 41 42  1  0  0  0  0
 42 43  1  0  0  0  0
 42 44  1  0  0  0  0
 42 45  1  0  0  0  0
 45 46  1  0  0  0  0
 45 47  1  0  0  0  0
 47 48  1  0  0  0  0
 47 49  1  0  0  0  0
 47 50  1  0  0  0  0
 50 51  1  0  0  0  0
 50 52  1  0  0  0  0
 50 53  1  0  0  0  0
 53 54  1  0  0  0  0
 53 55  1  0  0  0  0
 53 56  1  0  0  0  0
 56 57  1  0  0  0  0
 56 58  1  0  0  0  0
 56 59  1  0  0  0  0
 45 60  1  0  0  0  0
 60 61  1  0  0  0  0
 60 62  1  0  0  0  0
 60 63  1  0  0  0  0
 63 64  1  0  0  0  0
 63 65  1  0  0  0  0
 63 66  1  0  0  0  0
M  END
> <ChemID>
100252

> <source_casrn>
117-81-7

> <CAS>
117-81-7

> <SMILES>
O=C(OCC(CCCC)CC)c(c(ccc1)C(=O)OCC(CCCC)CC)c1

> <NAME>
BIS(2-ETHYLHEXYL)PHTHALATE

> <preferred_name>
Di(2-ethylhexyl) phthalate

> <iupac>
bis(2-ethylhexyl) benzene-1,2-dicarboxylate

> <MPID>
98183

> <dsstox_substance_id>
DTXSID5020607

> <Canonical_QSARr>
CCCCC(COC(=O)c1ccccc1C(=O)OCC(CCCC)CC)CC

> <InChI_Code_QSARr>
InChI=1S/C24H38O4/c1-5-9-13-19(7-3)17-27-23(25)21-15-11-12-16-22(21)24(26)28-18-20(8-4)14-10-6-2/h11-12,15-16,19-20H,5-10,13-14,17-18H2,1-4H3

> <InChI Key_QSARr>
BJQHLKABXJIVAM-UHFFFAOYSA-N

> <Salt_Solvent>
?

> <LogBCF>
2.77

$$$$
100253
  -INDIGO-08031719362D

 26 27  0  0  0  0  0  0  0  0999 V2000
   -2.4001    1.3856    0.0000 N   0  0  0  0  0  0  0  0  0  0  0  0
   -1.6001    2.7713    0.0000 H   0  0  0  0  0  0  0  0  0  0  0  0
   -1.6001    0.0001    0.0000 C   0  0  0  0  0  0  0  0  0  0  0  0
    0.0001    0.0001    0.0000 C   0  0  0  0  0  0  0  0  0  0  0  0
    0.8001   -1.3856    0.0000 C   0  0  0  0  0  0  0  0  0  0  0  0
    2.4000   -1.3856    0.0000 C   0  0  0  0  0  0  0  0  0  0  0  0
    3.2000   -2.7712    0.0000 H   0  0  0  0  0  0  0  0  0  0  0  0
    3.2000    0.0001    0.0000 C   0  0  0  0  0  0  0  0  0  0  0  0
    4.8000    0.0001    0.0000 H   0  0  0  0  0  0  0  0  0  0  0  0
    2.4000    1.3856    0.0000 C   0  0  0  0  0  0  0  0  0  0  0  0
    3.2000    2.7712    0.0000 H   0  0  0  0  0  0  0  0  0  0  0  0
    0.8001    1.3856    0.0000 C   0  0  0  0  0  0  0  0  0  0  0  0
    0.0001    2.7713    0.0000 H   0  0  0  0  0  0  0  0  0  0  0  0
    0.0001   -2.7712    0.0000 C   0  0  0  0  0  0  0  0  0  0  0  0
    0.8001   -4.1569    0.0000 H   0  0  0  0  0  0  0  0  0  0  0  0
   -1.6001   -2.7712    0.0000 C   0  0  0  0  0  0  0  0  0  0  0  0
   -2.4001   -4.1569    0.0000 H   0  0  0  0  0  0  0  0  0  0  0  0
   -2.4001   -1.3856    0.0000 C   0  0  0  0  0  0  0  0  0  0  0  0
   -4.0000   -1.3856    0.0000 H   0  0  0  0  0  0  0  0  0  0  0  0
   -4.0000    1.3856    0.0000 C   0  0  0  0  0  0  0  0  0  0  0  0
   -5.2693    0.4116    0.0000 H   0  0  0  0  0  0  0  0  0  0  0  0
   -4.2089   -0.2006    0.0000 H   0  0  0  0  0  0  0  0  0  0  0  0
   -4.8000    2.7712    0.0000 C   0  0  0  0  0  0  0  0  0  0  0  0
   -5.6000    4.1569    0.0000 H   0  0  0  0  0  0  0  0  0  0  0  0
   -6.4000    2.7713    0.0000 H   0  0  0  0  0  0  0  0  0  0  0  0
   -4.0000    4.1569    0.0000 H   0  0  0  0  0  0  0  0  0  0  0  0
  1  2  1  0  0  0  0
  1  3  1  0  0  0  0
  3  4  1  0  0  0  0
  4  5  1  0  0  0  0
  5  6  2  0  0  0  0
  6  7  1  0  0  0  0
  6  8  1  0  0  0  0
  8  9  1  0  0  0  0
  8 10  2  0  0  0  0
 10 11  1  0  0  0  0
 10 12  1  0  0  0  0
 12  4  2  0  0  0  0
 12 13  1  0  0  0  0
  5 14  1  0  0  0  0
 14 15  1  0  0  0  0
 14 16  2  0  0  0  0
 16 17  1  0  0  0  0
 16 18  1  0  0  0  0
 18  3  2  0  0  0  0
 18 19  1  0  0  0  0
  1 20  1  0  0  0  0
 20 21  1  0  0  0  0
 20 22  1  0  0  0  0
 20 23  1  0  0  0  0
 23 24  1  0  0  0  0
 23 25  1  0  0  0  0
 23 26  1  0  0  0  0
M  END
> <ChemID>
100253

> <source_casrn>
118-44-5

> <CAS>
118-44-5

> <SMILES>
CCNc1cccc2ccccc21

> <NAME>
1-NAPHTHALENAMINE, N-ETHYL-

> <preferred_name>
1-Naphthalenamine, N-ethyl-

> <iupac>
N-ethylnaphthalen-1-amine

> <MPID>
98184

> <dsstox_substance_id>
DTXSID8059473

> <Canonical_QSARr>
CCNc1cccc2ccccc21

> <InChI_Code_QSARr>
InChI=1S/C12H13N/c1-2-13-12-9-5-7-10-6-3-4-8-11(10)12/h3-9,13H,2H2,1H3

> <InChI Key_QSARr>
KDFFXYVOTKKBDI-UHFFFAOYSA-N

> <Salt_Solvent>
?

> <LogBCF>
2.32

$$$$
100255
  -INDIGO-08031719362D

 13 13  0  0  0  0  0  0  0  0999 V2000
    0.8000    1.3856    0.0000 O   0  0  0  0  0  0  0  0  0  0  0  0
    2.4000    1.3856    0.0000 H   0  0  0  0  0  0  0  0  0  0  0  0
   -0.0000   -0.0000    0.0000 C   0  0  0  0  0  0  0  0  0  0  0  0
    0.8000   -1.3857    0.0000 C   0  0  0  0  0  0  0  0  0  0  0  0
    2.4000   -1.3857    0.0000 Br  0  0  0  0  0  0  0  0  0  0  0  0
   -0.0000   -2.7713    0.0000 C   0  0  0  0  0  0  0  0  0  0  0  0
    0.8000   -4.1569    0.0000 H   0  0  0  0  0  0  0  0  0  0  0  0
   -1.6000   -2.7713    0.0000 C   0  0  0  0  0  0  0  0  0  0  0  0
   -2.4000   -4.1569    0.0000 Br  0  0  0  0  0  0  0  0  0  0  0  0
   -2.4000   -1.3856    0.0000 C   0  0  0  0  0  0  0  0  0  0  0  0
   -4.0000   -1.3856    0.0000 H   0  0  0  0  0  0  0  0  0  0  0  0
   -1.6000   -0.0000    0.0000 C   0  0  0  0  0  0  0  0  0  0  0  0
   -2.4000    1.3856    0.0000 Br  0  0  0  0  0  0  0  0  0  0  0  0
  1  2  1  0  0  0  0
  1  3  1  0  0  0  0
  3  4  1  0  0  0  0
  4  5  1  0  0  0  0
  4  6  2  0  0  0  0
  6  7  1  0  0  0  0
  6  8  1  0  0  0  0
  8  9  1  0  0  0  0
  8 10  2  0  0  0  0
 10 11  1  0  0  0  0
 10 12  1  0  0  0  0
 12  3  2  0  0  0  0
 12 13  1  0  0  0  0
M  END
> <ChemID>
100255

> <source_casrn>
118-79-6

> <CAS>
118-79-6

> <SMILES>
Oc1c(Br)cc(Br)cc1Br

> <NAME>
2,4,6-TRIBROMOPHENOL

> <preferred_name>
2,4,6-Tribromophenol

> <iupac>
2,4,6-tribromophenol

> <MPID>
98186

> <dsstox_substance_id>
DTXSID6021959

> <Canonical_QSARr>
Oc1c(Br)cc(Br)cc1Br

> <InChI_Code_QSARr>
InChI=1S/C6H3Br3O/c7-3-1-4(8)6(10)5(9)2-3/h1-2,10H

> <InChI Key_QSARr>
BSWWXRFVMJHFBN-UHFFFAOYSA-N

> <Salt_Solvent>
?

> <LogBCF>
2.71

$$$$
100256
  -INDIGO-08031719362D

 17 17  0  0  0  0  0  0  0  0999 V2000
   -4.1569    0.8000    0.0000 Cl  0  0  0  0  0  0  0  0  0  0  0  0
   -2.7713   -0.0000    0.0000 C   0  0  0  0  0  0  0  0  0  0  0  0
   -1.3856    0.8000    0.0000 C   0  0  0  0  0  0  0  0  0  0  0  0
   -1.3856    2.4000    0.0000 H   0  0  0  0  0  0  0  0  0  0  0  0
    0.0000   -0.0000    0.0000 C   0  0  0  0  0  0  0  0  0  0  0  0
    1.3856    0.8000    0.0000 C   0  0  0  0  0  0  0  0  0  0  0  0
    2.7713    1.6000    0.0000 F   0  0  0  0  0  0  0  0  0  0  0  0
    1.3856    2.4000    0.0000 F   0  0  0  0  0  0  0  0  0  0  0  0
    2.7713   -0.0000    0.0000 F   0  0  0  0  0  0  0  0  0  0  0  0
    0.0000   -1.6000    0.0000 C   0  0  0  0  0  0  0  0  0  0  0  0
    1.3856   -2.4000    0.0000 N   0  0  0  0  0  0  0  0  0  0  0  0
    1.3856   -4.0000    0.0000 O   0  0  0  0  0  0  0  0  0  0  0  0
    2.7713   -1.6000    0.0000 O   0  0  0  0  0  0  0  0  0  0  0  0
   -1.3856   -2.4000    0.0000 C   0  0  0  0  0  0  0  0  0  0  0  0
   -1.3856   -4.0000    0.0000 H   0  0  0  0  0  0  0  0  0  0  0  0
   -2.7713   -1.6000    0.0000 C   0  0  0  0  0  0  0  0  0  0  0  0
   -4.1569   -2.4000    0.0000 H   0  0  0  0  0  0  0  0  0  0  0  0
  1  2  1  0  0  0  0
  2  3  1  0  0  0  0
  3  4  1  0  0  0  0
  3  5  2  0  0  0  0
  5  6  1  0  0  0  0
  6  7  1  0  0  0  0
  6  8  1  0  0  0  0
  6  9  1  0  0  0  0
  5 10  1  0  0  0  0
 10 11  1  0  0  0  0
 11 12  1  0  0  0  0
 11 13  2  0  0  0  0
 10 14  2  0  0  0  0
 14 15  1  0  0  0  0
 14 16  1  0  0  0  0
 16  2  2  0  0  0  0
 16 17  1  0  0  0  0
M  CHG  2  11   1  12  -1
M  END
> <ChemID>
100256

> <source_casrn>
118-83-2

> <CAS>
118-83-2

> <SMILES>
C(F)(F)(F)c1cc(Cl)ccc1N(=O)=O

> <NAME>
4-CHLORO-1-NITRO-2(TRIFLUOROMETHYL)BENZENE

> <preferred_name>
5-Chloro-alpha,alpha,alpha-trifluoro-2-nitrotoluene

> <iupac>
4-chloro-1-nitro-2-(trifluoromethyl)benzene

> <MPID>
98187

> <dsstox_substance_id>
DTXSID30151998

> <Canonical_QSARr>
[O-][N+](=O)c1ccc(Cl)cc1C(F)(F)F

> <InChI_Code_QSARr>
InChI=1S/C7H3ClF3NO2/c8-4-1-2-6(12(13)14)5(3-4)7(9,10)11/h1-3H

> <InChI Key_QSARr>
CFPIGEXZPWTNOR-UHFFFAOYSA-N

> <Salt_Solvent>
?

> <LogBCF>
1.87

$$$$
100257
  -INDIGO-08031719362D

 15 15  0  0  0  0  0  0  0  0999 V2000
   -1.3856    0.8000    0.0000 C   0  0  0  0  0  0  0  0  0  0  0  0
   -1.3856    2.4000    0.0000 O   0  0  0  0  0  0  0  0  0  0  0  0
   -2.7713   -0.0000    0.0000 O   0  0  0  0  0  0  0  0  0  0  0  0
   -4.1569    0.8000    0.0000 H   0  0  0  0  0  0  0  0  0  0  0  0
   -0.0001   -0.0000    0.0000 C   0  0  0  0  0  0  0  0  0  0  0  0
   -0.0001   -1.6000    0.0000 C   0  0  0  0  0  0  0  0  0  0  0  0
   -1.3856   -2.4000    0.0000 H   0  0  0  0  0  0  0  0  0  0  0  0
    1.3856   -2.4000    0.0000 C   0  0  0  0  0  0  0  0  0  0  0  0
    1.3856   -4.0000    0.0000 H   0  0  0  0  0  0  0  0  0  0  0  0
    2.7713   -1.6000    0.0000 C   0  0  0  0  0  0  0  0  0  0  0  0
    4.1569   -2.4000    0.0000 H   0  0  0  0  0  0  0  0  0  0  0  0
    2.7712   -0.0000    0.0000 C   0  0  0  0  0  0  0  0  0  0  0  0
    4.1569    0.8000    0.0000 H   0  0  0  0  0  0  0  0  0  0  0  0
    1.3856    0.8000    0.0000 C   0  0  0  0  0  0  0  0  0  0  0  0
    1.3856    2.4000    0.0000 Cl  0  0  0  0  0  0  0  0  0  0  0  0
  1  2  2  0  0  0  0
  1  3  1  0  0  0  0
  3  4  1  0  0  0  0
  1  5  1  0  0  0  0
  5  6  1  0  0  0  0
  6  7  1  0  0  0  0
  6  8  2  0  0  0  0
  8  9  1  0  0  0  0
  8 10  1  0  0  0  0
 10 11  1  0  0  0  0
 10 12  2  0  0  0  0
 12 13  1  0  0  0  0
 12 14  1  0  0  0  0
 14  5  2  0  0  0  0
 14 15  1  0  0  0  0
M  END
> <ChemID>
100257

> <source_casrn>
118-91-2

> <CAS>
118-91-2

> <SMILES>
OC(=O)c1ccccc1Cl

> <NAME>
2-CHLOROBENZOIC ACID

> <preferred_name>
2-Chlorobenzoic acid

> <iupac>
2-chlorobenzoic acid

> <MPID>
98188

> <dsstox_substance_id>
DTXSID4024771

> <Canonical_QSARr>
OC(=O)c1ccccc1Cl

> <InChI_Code_QSARr>
InChI=1S/C7H5ClO2/c8-6-4-2-1-3-5(6)7(9)10/h1-4H,(H,9,10)

> <InChI Key_QSARr>
IKCLCGXPQILATA-UHFFFAOYSA-N

> <Salt_Solvent>
?

> <LogBCF>
1.0

$$$$
100259
  -INDIGO-08031719362D

 39 40  0  0  0  0  0  0  0  0999 V2000
    0.0000    0.0001    0.0000 P   0  0  0  0  0  0  0  0  0  0  0  0
    0.0000   -1.6000    0.0000 S   0  0  0  0  0  0  0  0  0  0  0  0
    1.3856   -0.8000    0.0000 O   0  0  0  0  0  0  0  0  0  0  0  0
    2.7714    0.0001    0.0000 C   0  0  0  0  0  0  0  0  0  0  0  0
    4.1570   -0.8000    0.0000 N   0  0  0  0  0  0  0  0  0  0  0  0
    5.5426   -0.0001    0.0000 N   0  0  0  0  0  0  0  0  0  0  0  0
    6.9281   -0.8000    0.0000 C   0  0  0  0  0  0  0  0  0  0  0  0
    6.9281   -2.4000    0.0000 C   0  0  0  0  0  0  0  0  0  0  0  0
    5.5426   -3.2001    0.0000 H   0  0  0  0  0  0  0  0  0  0  0  0
    8.3140   -3.2001    0.0000 C   0  0  0  0  0  0  0  0  0  0  0  0
    8.3140   -4.8000    0.0000 H   0  0  0  0  0  0  0  0  0  0  0  0
    9.6995   -2.4000    0.0000 C   0  0  0  0  0  0  0  0  0  0  0  0
   11.0851   -3.1999    0.0000 H   0  0  0  0  0  0  0  0  0  0  0  0
    9.6995   -0.8000    0.0000 C   0  0  0  0  0  0  0  0  0  0  0  0
   11.0851   -0.0001    0.0000 H   0  0  0  0  0  0  0  0  0  0  0  0
    8.3140   -0.0001    0.0000 C   0  0  0  0  0  0  0  0  0  0  0  0
    8.3140    1.6000    0.0000 H   0  0  0  0  0  0  0  0  0  0  0  0
    5.5426    1.6000    0.0000 C   0  0  0  0  0  0  0  0  0  0  0  0
    6.9281    2.4000    0.0000 O   0  0  0  0  0  0  0  0  0  0  0  0
    4.1570    2.4000    0.0000 C   0  0  0  0  0  0  0  0  0  0  0  0
    4.1570    4.0000    0.0000 H   0  0  0  0  0  0  0  0  0  0  0  0
    2.7714    1.6000    0.0000 C   0  0  0  0  0  0  0  0  0  0  0  0
    1.3856    2.4000    0.0000 H   0  0  0  0  0  0  0  0  0  0  0  0
   -1.3856   -0.8000    0.0000 O   0  0  0  0  0  0  0  0  0  0  0  0
   -2.7714    0.0001    0.0000 C   0  0  0  0  0  0  0  0  0  0  0  0
   -3.3836    1.4783    0.0000 H   0  0  0  0  0  0  0  0  0  0  0  0
   -2.1589    1.4783    0.0000 H   0  0  0  0  0  0  0  0  0  0  0  0
   -4.1570   -0.8000    0.0000 C   0  0  0  0  0  0  0  0  0  0  0  0
   -5.5426   -1.6000    0.0000 H   0  0  0  0  0  0  0  0  0  0  0  0
   -5.5426    0.0001    0.0000 H   0  0  0  0  0  0  0  0  0  0  0  0
   -4.1570   -2.4000    0.0000 H   0  0  0  0  0  0  0  0  0  0  0  0
   -1.3856    0.8000    0.0000 O   0  0  0  0  0  0  0  0  0  0  0  0
   -1.3856    2.4000    0.0000 C   0  0  0  0  0  0  0  0  0  0  0  0
   -0.4115    3.6694    0.0000 H   0  0  0  0  0  0  0  0  0  0  0  0
    0.2007    2.6089    0.0000 H   0  0  0  0  0  0  0  0  0  0  0  0
   -2.7714    3.2001    0.0000 C   0  0  0  0  0  0  0  0  0  0  0  0
   -4.1570    4.0000    0.0000 H   0  0  0  0  0  0  0  0  0  0  0  0
   -2.7714    4.8000    0.0000 H   0  0  0  0  0  0  0  0  0  0  0  0
   -4.1570    2.4000    0.0000 H   0  0  0  0  0  0  0  0  0  0  0  0
  1  2  2  0  0  0  0
  1  3  1  0  0  0  0
  3  4  1  0  0  0  0
  4  5  2  0  0  0  0
  5  6  1  0  0  0  0
  6  7  1  0  0  0  0
  7  8  1  0  0  0  0
  8  9  1  0  0  0  0
  8 10  2  0  0  0  0
 10 11  1  0  0  0  0
 10 12  1  0  0  0  0
 12 13  1  0  0  0  0
 12 14  2  0  0  0  0
 14 15  1  0  0  0  0
 14 16  1  0  0  0  0
 16  7  2  0  0  0  0
 16 17  1  0  0  0  0
  6 18  1  0  0  0  0
 18 19  2  0  0  0  0
 18 20  1  0  0  0  0
 20 21  1  0  0  0  0
 20 22  2  0  0  0  0
 22  4  1  0  0  0  0
 22 23  1  0  0  0  0
  1 24  1  0  0  0  0
 24 25  1  0  0  0  0
 25 26  1  0  0  0  0
 25 27  1  0  0  0  0
 25 28  1  0  0  0  0
 28 29  1  0  0  0  0
 28 30  1  0  0  0  0
 28 31  1  0  0  0  0
  1 32  1  0  0  0  0
 32 33  1  0  0  0  0
 33 34  1  0  0  0  0
 33 35  1  0  0  0  0
 33 36  1  0  0  0  0
 36 37  1  0  0  0  0
 36 38  1  0  0  0  0
 36 39  1  0  0  0  0
M  END
> <ChemID>
100259

> <source_casrn>
119-12-0

> <CAS>
119-12-0

> <SMILES>
CCOP(=S)(OC1C=CC(=O)N(N=1)c1ccccc1)OCC

> <NAME>
PYRIDAPHENTHION

> <preferred_name>
Pyridaphenthion

> <iupac>
O,O-diethyl O-(6-oxo-1-phenyl-1,6-dihydropyridazin-3-yl) phosphorothioate

> <MPID>
98190

> <dsstox_substance_id>
DTXSID2042355

> <Canonical_QSARr>
CCOP(=S)(OC1C=CC(=O)N(N=1)c1ccccc1)OCC

> <InChI_Code_QSARr>
InChI=1S/C14H17N2O4PS/c1-3-18-21(22,19-4-2)20-13-10-11-14(17)16(15-13)12-8-6-5-7-9-12/h5-11H,3-4H2,1-2H3

> <InChI Key_QSARr>
CXJSOEPQXUCJSA-UHFFFAOYSA-N

> <Salt_Solvent>
?

> <LogBCF>
0.67

$$$$
100260
  -INDIGO-08031719362D

 18 18  0  0  0  0  0  0  0  0999 V2000
    2.7713   -1.6000    0.0000 C   0  0  0  0  0  0  0  0  0  0  0  0
    4.1569   -2.4000    0.0000 O   0  0  0  0  0  0  0  0  0  0  0  0
    4.1569   -4.0000    0.0000 H   0  0  0  0  0  0  0  0  0  0  0  0
    2.7713   -0.0000    0.0000 C   0  0  0  0  0  0  0  0  0  0  0  0
    4.1570    0.8000    0.0000 N   0  0  0  0  0  0  0  0  0  0  0  0
    5.5426   -0.0000    0.0000 O   0  0  0  0  0  0  0  0  0  0  0  0
    4.1570    2.4000    0.0000 O   0  0  0  0  0  0  0  0  0  0  0  0
    1.3857    0.8000    0.0000 C   0  0  0  0  0  0  0  0  0  0  0  0
    1.3857    2.4000    0.0000 H   0  0  0  0  0  0  0  0  0  0  0  0
    0.0000   -0.0000    0.0000 C   0  0  0  0  0  0  0  0  0  0  0  0
   -1.3856    0.8000    0.0000 C   0  0  0  0  0  0  0  0  0  0  0  0
   -2.7713    1.6000    0.0000 H   0  0  0  0  0  0  0  0  0  0  0  0
   -2.7713   -0.0000    0.0000 H   0  0  0  0  0  0  0  0  0  0  0  0
   -1.3856    2.4000    0.0000 H   0  0  0  0  0  0  0  0  0  0  0  0
    0.0000   -1.6000    0.0000 C   0  0  0  0  0  0  0  0  0  0  0  0
   -1.3856   -2.4000    0.0000 H   0  0  0  0  0  0  0  0  0  0  0  0
    1.3857   -2.4000    0.0000 C   0  0  0  0  0  0  0  0  0  0  0  0
    1.3857   -4.0000    0.0000 H   0  0  0  0  0  0  0  0  0  0  0  0
  1  2  1  0  0  0  0
  2  3  1  0  0  0  0
  1  4  1  0  0  0  0
  4  5  1  0  0  0  0
  5  6  1  0  0  0  0
  5  7  2  0  0  0  0
  4  8  2  0  0  0  0
  8  9  1  0  0  0  0
  8 10  1  0  0  0  0
 10 11  1  0  0  0  0
 11 12  1  0  0  0  0
 11 13  1  0  0  0  0
 11 14  1  0  0  0  0
 10 15  2  0  0  0  0
 15 16  1  0  0  0  0
 15 17  1  0  0  0  0
 17  1  2  0  0  0  0
 17 18  1  0  0  0  0
M  CHG  2   5   1   6  -1
M  END
> <ChemID>
100260

> <source_casrn>
119-33-5

> <CAS>
119-33-5

> <SMILES>
Cc1cc(c(O)cc1)[N+]([O-])=O

> <NAME>
4-METHYL-2-NITROPHENOL

> <preferred_name>
4-Methyl-2-nitrophenol

> <iupac>
4-methyl-2-nitrophenol

> <MPID>
98191

> <dsstox_substance_id>
DTXSID0026961

> <Canonical_QSARr>
Cc1cc(c(O)cc1)[N+]([O-])=O

> <InChI_Code_QSARr>
InChI=1S/C7H7NO3/c1-5-2-3-7(9)6(4-5)8(10)11/h2-4,9H,1H3

> <InChI Key_QSARr>
SYDNSSSQVSOXTN-UHFFFAOYSA-N

> <Salt_Solvent>
?

> <LogBCF>
0.95

$$$$
100261
  -INDIGO-08031719362D

 57 58  0  0  0  0  0  0  0  0999 V2000
   -3.3486    0.7528    0.0000 O   0  0  0  0  0  0  0  0  0  0  0  0
   -2.3201    1.9786    0.0000 H   0  0  0  0  0  0  0  0  0  0  0  0
   -2.8014   -0.7507    0.0000 C   0  0  0  0  0  0  0  0  0  0  0  0
   -3.8297   -1.9763    0.0000 C   0  0  0  0  0  0  0  0  0  0  0  0
   -5.4056   -1.6985    0.0000 C   0  0  0  0  0  0  0  0  0  0  0  0
   -4.7932   -0.2203    0.0000 H   0  0  0  0  0  0  0  0  0  0  0  0
   -6.0177   -0.2203    0.0000 H   0  0  0  0  0  0  0  0  0  0  0  0
   -6.7911   -2.4985    0.0000 C   0  0  0  0  0  0  0  0  0  0  0  0
   -6.7911   -4.0985    0.0000 C   0  0  0  0  0  0  0  0  0  0  0  0
   -5.4056   -4.8985    0.0000 H   0  0  0  0  0  0  0  0  0  0  0  0
   -8.1768   -4.8985    0.0000 C   0  0  0  0  0  0  0  0  0  0  0  0
   -8.1768   -6.4985    0.0000 C   0  0  0  0  0  0  0  0  0  0  0  0
   -8.1768   -8.0985    0.0000 H   0  0  0  0  0  0  0  0  0  0  0  0
   -6.7911   -7.2985    0.0000 H   0  0  0  0  0  0  0  0  0  0  0  0
   -9.5625   -7.2985    0.0000 H   0  0  0  0  0  0  0  0  0  0  0  0
   -9.5625   -4.0985    0.0000 C   0  0  0  0  0  0  0  0  0  0  0  0
  -10.9480   -4.8985    0.0000 H   0  0  0  0  0  0  0  0  0  0  0  0
   -9.5625   -2.4985    0.0000 C   0  0  0  0  0  0  0  0  0  0  0  0
  -10.9480   -1.6985    0.0000 C   0  0  0  0  0  0  0  0  0  0  0  0
  -12.3337   -0.8985    0.0000 C   0  0  0  0  0  0  0  0  0  0  0  0
  -13.7194   -0.0984    0.0000 H   0  0  0  0  0  0  0  0  0  0  0  0
  -13.8372   -1.4457    0.0000 H   0  0  0  0  0  0  0  0  0  0  0  0
  -12.6115    0.6772    0.0000 H   0  0  0  0  0  0  0  0  0  0  0  0
  -11.7480   -3.0841    0.0000 C   0  0  0  0  0  0  0  0  0  0  0  0
  -12.2954   -4.5876    0.0000 H   0  0  0  0  0  0  0  0  0  0  0  0
  -13.3239   -3.3620    0.0000 H   0  0  0  0  0  0  0  0  0  0  0  0
  -12.7765   -1.8585    0.0000 H   0  0  0  0  0  0  0  0  0  0  0  0
  -10.1480   -0.3128    0.0000 C   0  0  0  0  0  0  0  0  0  0  0  0
   -9.1197    0.9129    0.0000 H   0  0  0  0  0  0  0  0  0  0  0  0
  -10.6954    1.1907    0.0000 H   0  0  0  0  0  0  0  0  0  0  0  0
  -11.7239   -0.0349    0.0000 H   0  0  0  0  0  0  0  0  0  0  0  0
   -8.1768   -1.6985    0.0000 C   0  0  0  0  0  0  0  0  0  0  0  0
   -8.1768   -0.0984    0.0000 O   0  0  0  0  0  0  0  0  0  0  0  0
   -6.7911    0.7016    0.0000 H   0  0  0  0  0  0  0  0  0  0  0  0
   -3.2826   -3.4798    0.0000 C   0  0  0  0  0  0  0  0  0  0  0  0
   -4.3111   -4.7055    0.0000 H   0  0  0  0  0  0  0  0  0  0  0  0
   -1.7069   -3.7577    0.0000 C   0  0  0  0  0  0  0  0  0  0  0  0
   -1.1596   -5.2612    0.0000 C   0  0  0  0  0  0  0  0  0  0  0  0
   -0.6124   -6.7646    0.0000 H   0  0  0  0  0  0  0  0  0  0  0  0
    0.4161   -5.5391    0.0000 H   0  0  0  0  0  0  0  0  0  0  0  0
   -2.1881   -6.4867    0.0000 H   0  0  0  0  0  0  0  0  0  0  0  0
   -0.6784   -2.5319    0.0000 C   0  0  0  0  0  0  0  0  0  0  0  0
    0.8972   -2.8098    0.0000 H   0  0  0  0  0  0  0  0  0  0  0  0
   -1.2256   -1.0284    0.0000 C   0  0  0  0  0  0  0  0  0  0  0  0
   -0.0000   -0.0001    0.0000 C   0  0  0  0  0  0  0  0  0  0  0  0
    1.2257    1.0284    0.0000 C   0  0  0  0  0  0  0  0  0  0  0  0
    2.4513    2.0569    0.0000 H   0  0  0  0  0  0  0  0  0  0  0  0
    1.2257    2.6284    0.0000 H   0  0  0  0  0  0  0  0  0  0  0  0
    2.8014    0.7507    0.0000 H   0  0  0  0  0  0  0  0  0  0  0  0
    1.0285   -1.2257    0.0000 C   0  0  0  0  0  0  0  0  0  0  0  0
    2.0570   -2.4513    0.0000 H   0  0  0  0  0  0  0  0  0  0  0  0
    2.6041   -0.9478    0.0000 H   0  0  0  0  0  0  0  0  0  0  0  0
    1.8285    0.1600    0.0000 H   0  0  0  0  0  0  0  0  0  0  0  0
   -1.0285    1.2257    0.0000 C   0  0  0  0  0  0  0  0  0  0  0  0
   -0.4812    2.7292    0.0000 H   0  0  0  0  0  0  0  0  0  0  0  0
    0.4750    1.7729    0.0000 H   0  0  0  0  0  0  0  0  0  0  0  0
   -1.8285   -0.1600    0.0000 H   0  0  0  0  0  0  0  0  0  0  0  0
  1  2  1  0  0  0  0
  1  3  1  0  0  0  0
  3  4  1  0  0  0  0
  4  5  1  0  0  0  0
  5  6  1  0  0  0  0
  5  7  1  0  0  0  0
  5  8  1  0  0  0  0
  8  9  1  0  0  0  0
  9 10  1  0  0  0  0
  9 11  2  0  0  0  0
 11 12  1  0  0  0  0
 12 13  1  0  0  0  0
 12 14  1  0  0  0  0
 12 15  1  0  0  0  0
 11 16  1  0  0  0  0
 16 17  1  0  0  0  0
 16 18  2  0  0  0  0
 18 19  1  0  0  0  0
 19 20  1  0  0  0  0
 20 21  1  0  0  0  0
 20 22  1  0  0  0  0
 20 23  1  0  0  0  0
 19 24  1  0  0  0  0
 24 25  1  0  0  0  0
 24 26  1  0  0  0  0
 24 27  1  0  0  0  0
 19 28  1  0  0  0  0
 28 29  1  0  0  0  0
 28 30  1  0  0  0  0
 28 31  1  0  0  0  0
 18 32  1  0  0  0  0
 32  8  2  0  0  0  0
 32 33  1  0  0  0  0
 33 34  1  0  0  0  0
  4 35  2  0  0  0  0
 35 36  1  0  0  0  0
 35 37  1  0  0  0  0
 37 38  1  0  0  0  0
 38 39  1  0  0  0  0
 38 40  1  0  0  0  0
 38 41  1  0  0  0  0
 37 42  2  0  0  0  0
 42 43  1  0  0  0  0
 42 44  1  0  0  0  0
 44  3  2  0  0  0  0
 44 45  1  0  0  0  0
 45 46  1  0  0  0  0
 46 47  1  0  0  0  0
 46 48  1  0  0  0  0
 46 49  1  0  0  0  0
 45 50  1  0  0  0  0
 50 51  1  0  0  0  0
 50 52  1  0  0  0  0
 50 53  1  0  0  0  0
 45 54  1  0  0  0  0
 54 55  1  0  0  0  0
 54 56  1  0  0  0  0
 54 57  1  0  0  0  0
M  END
> <ChemID>
100261

> <source_casrn>
119-47-1

> <CAS>
119-47-1

> <SMILES>
Oc(c(cc(c1)C)Cc(c(O)c(cc2C)C(C)(C)C)c2)c1C(C)(C)C

> <NAME>
BIS (2-HYDROXY-3TERT-BUTYL-5-METHYLPHENYL) METHA

> <preferred_name>
2,2'-Methylenebis(4-methyl-6-tert-butylphenol)

> <iupac>
2,2'-methanediylbis(6-tert-butyl-4-methylphenol)

> <MPID>
98192

> <dsstox_substance_id>
DTXSID4020870

> <Canonical_QSARr>
CC(C)(C)c1cc(C)cc(Cc2cc(C)cc(c2O)C(C)(C)C)c1O

> <InChI_Code_QSARr>
InChI=1S/C23H32O2/c1-14-9-16(20(24)18(11-14)22(3,4)5)13-17-10-15(2)12-19(21(17)25)23(6,7)8/h9-12,24-25H,13H2,1-8H3

> <InChI Key_QSARr>
KGRVJHAUYBGFFP-UHFFFAOYSA-N

> <Salt_Solvent>
?

> <LogBCF>
2.74

$$$$
100263
  -INDIGO-08031719362D

 24 25  0  0  0  0  0  0  0  0999 V2000
   -0.5473   -1.5035    0.0000 C   0  0  0  0  0  0  0  0  0  0  0  0
    0.4812   -2.7292    0.0000 H   0  0  0  0  0  0  0  0  0  0  0  0
   -2.1229   -1.7813    0.0000 C   0  0  0  0  0  0  0  0  0  0  0  0
   -2.6702   -3.2849    0.0000 H   0  0  0  0  0  0  0  0  0  0  0  0
   -3.1513   -0.5556    0.0000 C   0  0  0  0  0  0  0  0  0  0  0  0
   -4.7271   -0.8335    0.0000 H   0  0  0  0  0  0  0  0  0  0  0  0
   -2.6042    0.9479    0.0000 C   0  0  0  0  0  0  0  0  0  0  0  0
   -3.6326    2.1735    0.0000 H   0  0  0  0  0  0  0  0  0  0  0  0
   -1.0284    1.2257    0.0000 C   0  0  0  0  0  0  0  0  0  0  0  0
   -0.4813    2.7292    0.0000 H   0  0  0  0  0  0  0  0  0  0  0  0
    0.0000    0.0000    0.0000 C   0  0  0  0  0  0  0  0  0  0  0  0
    1.5756    0.2779    0.0000 C   0  0  0  0  0  0  0  0  0  0  0  0
    1.8536    1.8535    0.0000 O   0  0  0  0  0  0  0  0  0  0  0  0
    2.9614   -0.5221    0.0000 C   0  0  0  0  0  0  0  0  0  0  0  0
    2.9614   -2.1222    0.0000 C   0  0  0  0  0  0  0  0  0  0  0  0
    1.5756   -2.9222    0.0000 H   0  0  0  0  0  0  0  0  0  0  0  0
    4.3470   -2.9222    0.0000 C   0  0  0  0  0  0  0  0  0  0  0  0
    4.3470   -4.5222    0.0000 H   0  0  0  0  0  0  0  0  0  0  0  0
    5.7326   -2.1222    0.0000 C   0  0  0  0  0  0  0  0  0  0  0  0
    7.1183   -2.9222    0.0000 H   0  0  0  0  0  0  0  0  0  0  0  0
    5.7326   -0.5221    0.0000 C   0  0  0  0  0  0  0  0  0  0  0  0
    7.1183    0.2779    0.0000 H   0  0  0  0  0  0  0  0  0  0  0  0
    4.3470    0.2779    0.0000 C   0  0  0  0  0  0  0  0  0  0  0  0
    4.3470    1.8779    0.0000 H   0  0  0  0  0  0  0  0  0  0  0  0
  1  2  1  0  0  0  0
  1  3  1  0  0  0  0
  3  4  1  0  0  0  0
  3  5  2  0  0  0  0
  5  6  1  0  0  0  0
  5  7  1  0  0  0  0
  7  8  1  0  0  0  0
  7  9  2  0  0  0  0
  9 10  1  0  0  0  0
  9 11  1  0  0  0  0
 11  1  2  0  0  0  0
 11 12  1  0  0  0  0
 12 13  2  0  0  0  0
 12 14  1  0  0  0  0
 14 15  1  0  0  0  0
 15 16  1  0  0  0  0
 15 17  2  0  0  0  0
 17 18  1  0  0  0  0
 17 19  1  0  0  0  0
 19 20  1  0  0  0  0
 19 21  2  0  0  0  0
 21 22  1  0  0  0  0
 21 23  1  0  0  0  0
 23 14  2  0  0  0  0
 23 24  1  0  0  0  0
M  END
> <ChemID>
100263

> <source_casrn>
119-61-9

> <CAS>
119-61-9

> <SMILES>
O=C(c1ccccc1)c1ccccc1

> <NAME>
BENZOPHENONE

> <preferred_name>
Benzophenone

> <iupac>
diphenylmethanone

> <MPID>
98194

> <dsstox_substance_id>
DTXSID0021961

> <Canonical_QSARr>
O=C(c1ccccc1)c1ccccc1

> <InChI_Code_QSARr>
InChI=1S/C13H10O/c14-13(11-7-3-1-4-8-11)12-9-5-2-6-10-12/h1-10H

> <InChI Key_QSARr>
RWCCWEUUXYIKHB-UHFFFAOYSA-N

> <Salt_Solvent>
?

> <LogBCF>
1.08

$$$$
100264
  -INDIGO-08031719362D

 22 23  0  0  0  0  0  0  0  0999 V2000
   -2.7713    1.6000    0.0000 C   0  0  0  0  0  0  0  0  0  0  0  0
   -1.3856    2.4000    0.0000 C   0  0  0  0  0  0  0  0  0  0  0  0
   -2.4141    3.6257    0.0000 H   0  0  0  0  0  0  0  0  0  0  0  0
   -0.3572    3.6257    0.0000 H   0  0  0  0  0  0  0  0  0  0  0  0
    0.0000    1.6000    0.0000 C   0  0  0  0  0  0  0  0  0  0  0  0
    0.5472    3.1035    0.0000 H   0  0  0  0  0  0  0  0  0  0  0  0
    1.5757    1.3221    0.0000 H   0  0  0  0  0  0  0  0  0  0  0  0
    0.0000    0.0000    0.0000 C   0  0  0  0  0  0  0  0  0  0  0  0
    1.5757    0.2779    0.0000 H   0  0  0  0  0  0  0  0  0  0  0  0
    0.5472   -1.5035    0.0000 H   0  0  0  0  0  0  0  0  0  0  0  0
   -1.3856   -0.8000    0.0000 C   0  0  0  0  0  0  0  0  0  0  0  0
   -0.3572   -2.0257    0.0000 H   0  0  0  0  0  0  0  0  0  0  0  0
   -2.4141   -2.0257    0.0000 H   0  0  0  0  0  0  0  0  0  0  0  0
   -2.7713    0.0000    0.0000 C   0  0  0  0  0  0  0  0  0  0  0  0
   -4.1569   -0.8000    0.0000 C   0  0  0  0  0  0  0  0  0  0  0  0
   -4.1569   -2.4000    0.0000 H   0  0  0  0  0  0  0  0  0  0  0  0
   -5.5426    0.0000    0.0000 C   0  0  0  0  0  0  0  0  0  0  0  0
   -6.9282   -0.8000    0.0000 H   0  0  0  0  0  0  0  0  0  0  0  0
   -5.5426    1.6000    0.0000 C   0  0  0  0  0  0  0  0  0  0  0  0
   -6.9282    2.4000    0.0000 H   0  0  0  0  0  0  0  0  0  0  0  0
   -4.1569    2.4000    0.0000 C   0  0  0  0  0  0  0  0  0  0  0  0
   -4.1569    4.0000    0.0000 H   0  0  0  0  0  0  0  0  0  0  0  0
  1  2  1  0  0  0  0
  2  3  1  0  0  0  0
  2  4  1  0  0  0  0
  2  5  1  0  0  0  0
  5  6  1  0  0  0  0
  5  7  1  0  0  0  0
  5  8  1  0  0  0  0
  8  9  1  0  0  0  0
  8 10  1  0  0  0  0
  8 11  1  0  0  0  0
 11 12  1  0  0  0  0
 11 13  1  0  0  0  0
 11 14  1  0  0  0  0
 14  1  1  0  0  0  0
 14 15  2  0  0  0  0
 15 16  1  0  0  0  0
 15 17  1  0  0  0  0
 17 18  1  0  0  0  0
 17 19  2  0  0  0  0
 19 20  1  0  0  0  0
 19 21  1  0  0  0  0
 21  1  2  0  0  0  0
 21 22  1  0  0  0  0
M  END
> <ChemID>
100264

> <source_casrn>
119-64-2

> <CAS>
119-64-2

> <SMILES>
C1CCCc2ccccc21

> <NAME>
TETRALIN

> <preferred_name>
Tetralin

> <iupac>
1,2,3,4-tetrahydronaphthalene

> <MPID>
98195

> <dsstox_substance_id>
DTXSID1026118

> <Canonical_QSARr>
C1CCCc2ccccc21

> <InChI_Code_QSARr>
InChI=1S/C10H12/c1-2-6-10-8-4-3-7-9(10)5-1/h1-2,5-6H,3-4,7-8H2

> <InChI Key_QSARr>
CXWXQJXEFPUFDZ-UHFFFAOYSA-N

> <Salt_Solvent>
?

> <LogBCF>
2.53

$$$$
100265
  -INDIGO-08031719362D

 32 33  0  0  0  0  0  0  0  0999 V2000
    0.0001   -0.0001    0.0000 C   0  0  0  0  0  0  0  0  0  0  0  0
    1.5999   -0.0001    0.0000 C   0  0  0  0  0  0  0  0  0  0  0  0
    2.3999   -1.3856    0.0000 C   0  0  0  0  0  0  0  0  0  0  0  0
    1.5999   -2.7713    0.0000 H   0  0  0  0  0  0  0  0  0  0  0  0
    4.0000   -1.3856    0.0000 C   0  0  0  0  0  0  0  0  0  0  0  0
    4.8000   -2.7712    0.0000 C   0  0  0  0  0  0  0  0  0  0  0  0
    5.6000   -4.1569    0.0000 H   0  0  0  0  0  0  0  0  0  0  0  0
    6.4000   -2.7712    0.0000 H   0  0  0  0  0  0  0  0  0  0  0  0
    4.0000   -4.1569    0.0000 H   0  0  0  0  0  0  0  0  0  0  0  0
    4.8000    0.0001    0.0000 C   0  0  0  0  0  0  0  0  0  0  0  0
    6.4000    0.0001    0.0000 N   0  0  0  0  0  0  0  0  0  0  0  0
    7.2000    1.3856    0.0000 H   0  0  0  0  0  0  0  0  0  0  0  0
    7.2000   -1.3856    0.0000 H   0  0  0  0  0  0  0  0  0  0  0  0
    4.0000    1.3856    0.0000 C   0  0  0  0  0  0  0  0  0  0  0  0
    4.8000    2.7713    0.0000 H   0  0  0  0  0  0  0  0  0  0  0  0
    2.3999    1.3856    0.0000 C   0  0  0  0  0  0  0  0  0  0  0  0
    1.5999    2.7713    0.0000 H   0  0  0  0  0  0  0  0  0  0  0  0
   -0.7999    1.3856    0.0000 C   0  0  0  0  0  0  0  0  0  0  0  0
    0.0001    2.7713    0.0000 H   0  0  0  0  0  0  0  0  0  0  0  0
   -2.4000    1.3856    0.0000 C   0  0  0  0  0  0  0  0  0  0  0  0
   -3.2000    2.7713    0.0000 C   0  0  0  0  0  0  0  0  0  0  0  0
   -4.0000    4.1569    0.0000 H   0  0  0  0  0  0  0  0  0  0  0  0
   -4.8000    2.7713    0.0000 H   0  0  0  0  0  0  0  0  0  0  0  0
   -2.4000    4.1569    0.0000 H   0  0  0  0  0  0  0  0  0  0  0  0
   -3.2000   -0.0001    0.0000 C   0  0  0  0  0  0  0  0  0  0  0  0
   -4.8000   -0.0001    0.0000 N   0  0  0  0  0  0  0  0  0  0  0  0
   -5.6000   -1.3856    0.0000 H   0  0  0  0  0  0  0  0  0  0  0  0
   -5.6000    1.3856    0.0000 H   0  0  0  0  0  0  0  0  0  0  0  0
   -2.4000   -1.3856    0.0000 C   0  0  0  0  0  0  0  0  0  0  0  0
   -3.2000   -2.7712    0.0000 H   0  0  0  0  0  0  0  0  0  0  0  0
   -0.7999   -1.3856    0.0000 C   0  0  0  0  0  0  0  0  0  0  0  0
    0.0001   -2.7712    0.0000 H   0  0  0  0  0  0  0  0  0  0  0  0
  1  2  1  0  0  0  0
  2  3  1  0  0  0  0
  3  4  1  0  0  0  0
  3  5  2  0  0  0  0
  5  6  1  0  0  0  0
  6  7  1  0  0  0  0
  6  8  1  0  0  0  0
  6  9  1  0  0  0  0
  5 10  1  0  0  0  0
 10 11  1  0  0  0  0
 11 12  1  0  0  0  0
 11 13  1  0  0  0  0
 10 14  2  0  0  0  0
 14 15  1  0  0  0  0
 14 16  1  0  0  0  0
 16  2  2  0  0  0  0
 16 17  1  0  0  0  0
  1 18  1  0  0  0  0
 18 19  1  0  0  0  0
 18 20  2  0  0  0  0
 20 21  1  0  0  0  0
 21 22  1  0  0  0  0
 21 23  1  0  0  0  0
 21 24  1  0  0  0  0
 20 25  1  0  0  0  0
 25 26  1  0  0  0  0
 26 27  1  0  0  0  0
 26 28  1  0  0  0  0
 25 29  2  0  0  0  0
 29 30  1  0  0  0  0
 29 31  1  0  0  0  0
 31  1  2  0  0  0  0
 31 32  1  0  0  0  0
M  END
> <ChemID>
100265

> <source_casrn>
119-93-7

> <CAS>
119-93-7

> <SMILES>
Nc(c(cc(c(ccc(N)c1C)c1)c2)C)c2

> <NAME>
BIANISIDINE

> <preferred_name>
3,3'-Dimethylbenzidine

> <iupac>
3,3'-dimethylbiphenyl-4,4'-diamine

> <MPID>
98196

> <dsstox_substance_id>
DTXSID5024059

> <Canonical_QSARr>
Cc1cc(ccc1N)-c1cc(C)c(N)cc1

> <InChI_Code_QSARr>
InChI=1S/C14H16N2/c1-9-7-11(3-5-13(9)15)12-4-6-14(16)10(2)8-12/h3-8H,15-16H2,1-2H3

> <InChI Key_QSARr>
NUIURNJTPRWVAP-UHFFFAOYSA-N

> <Salt_Solvent>
?

> <LogBCF>
1.67

$$$$
100267
  -INDIGO-08031719362D

 40 41  0  0  0  0  0  0  0  0999 V2000
  -12.4708    2.4000    0.0000 N   0  0  0  0  0  0  0  0  0  0  0  0
  -12.4708    4.0000    0.0000 C   0  0  0  0  0  0  0  0  0  0  0  0
  -10.8951    3.7221    0.0000 H   0  0  0  0  0  0  0  0  0  0  0  0
  -11.9235    5.5035    0.0000 H   0  0  0  0  0  0  0  0  0  0  0  0
  -13.8564    4.7999    0.0000 C   0  0  0  0  0  0  0  0  0  0  0  0
  -12.8281    6.0257    0.0000 H   0  0  0  0  0  0  0  0  0  0  0  0
  -14.8848    6.0257    0.0000 H   0  0  0  0  0  0  0  0  0  0  0  0
  -15.2421    4.0000    0.0000 C   0  0  0  0  0  0  0  0  0  0  0  0
  -15.7894    5.5035    0.0000 H   0  0  0  0  0  0  0  0  0  0  0  0
  -16.8177    3.7221    0.0000 H   0  0  0  0  0  0  0  0  0  0  0  0
  -15.2421    2.4000    0.0000 C   0  0  0  0  0  0  0  0  0  0  0  0
  -16.8177    2.6779    0.0000 H   0  0  0  0  0  0  0  0  0  0  0  0
  -15.7894    0.8964    0.0000 H   0  0  0  0  0  0  0  0  0  0  0  0
  -13.8564    1.6000    0.0000 C   0  0  0  0  0  0  0  0  0  0  0  0
  -14.8848    0.3743    0.0000 H   0  0  0  0  0  0  0  0  0  0  0  0
  -12.8281    0.3743    0.0000 H   0  0  0  0  0  0  0  0  0  0  0  0
  -11.0851    1.6000    0.0000 C   0  0  0  0  0  0  0  0  0  0  0  0
   -9.6995    2.4000    0.0000 S   0  0  0  0  0  0  0  0  0  0  0  0
   -8.3138    1.6000    0.0000 S   0  0  0  0  0  0  0  0  0  0  0  0
   -6.9282    2.4000    0.0000 S   0  0  0  0  0  0  0  0  0  0  0  0
   -5.5426    1.6000    0.0000 S   0  0  0  0  0  0  0  0  0  0  0  0
   -4.1569    2.4000    0.0000 C   0  0  0  0  0  0  0  0  0  0  0  0
   -2.7713    1.6000    0.0000 N   0  0  0  0  0  0  0  0  0  0  0  0
   -2.7713   -0.0000    0.0000 C   0  0  0  0  0  0  0  0  0  0  0  0
   -4.3469    0.2779    0.0000 H   0  0  0  0  0  0  0  0  0  0  0  0
   -3.3186   -1.5035    0.0000 H   0  0  0  0  0  0  0  0  0  0  0  0
   -1.3856   -0.7999    0.0000 C   0  0  0  0  0  0  0  0  0  0  0  0
   -2.4140   -2.0257    0.0000 H   0  0  0  0  0  0  0  0  0  0  0  0
   -0.3573   -2.0257    0.0000 H   0  0  0  0  0  0  0  0  0  0  0  0
    0.0000   -0.0000    0.0000 C   0  0  0  0  0  0  0  0  0  0  0  0
    0.5473   -1.5035    0.0000 H   0  0  0  0  0  0  0  0  0  0  0  0
    1.5757    0.2779    0.0000 H   0  0  0  0  0  0  0  0  0  0  0  0
    0.0000    1.6000    0.0000 C   0  0  0  0  0  0  0  0  0  0  0  0
    1.5757    1.3221    0.0000 H   0  0  0  0  0  0  0  0  0  0  0  0
    0.5473    3.1036    0.0000 H   0  0  0  0  0  0  0  0  0  0  0  0
   -1.3856    2.4000    0.0000 C   0  0  0  0  0  0  0  0  0  0  0  0
   -0.3573    3.6257    0.0000 H   0  0  0  0  0  0  0  0  0  0  0  0
   -2.4140    3.6257    0.0000 H   0  0  0  0  0  0  0  0  0  0  0  0
   -4.1569    4.0000    0.0000 S   0  0  0  0  0  0  0  0  0  0  0  0
  -11.0851   -0.0000    0.0000 S   0  0  0  0  0  0  0  0  0  0  0  0
  1  2  1  0  0  0  0
  2  3  1  0  0  0  0
  2  4  1  0  0  0  0
  2  5  1  0  0  0  0
  5  6  1  0  0  0  0
  5  7  1  0  0  0  0
  5  8  1  0  0  0  0
  8  9  1  0  0  0  0
  8 10  1  0  0  0  0
  8 11  1  0  0  0  0
 11 12  1  0  0  0  0
 11 13  1  0  0  0  0
 11 14  1  0  0  0  0
 14  1  1  0  0  0  0
 14 15  1  0  0  0  0
 14 16  1  0  0  0  0
  1 17  1  0  0  0  0
 17 18  1  0  0  0  0
 18 19  1  0  0  0  0
 19 20  1  0  0  0  0
 20 21  1  0  0  0  0
 21 22  1  0  0  0  0
 22 23  1  0  0  0  0
 23 24  1  0  0  0  0
 24 25  1  0  0  0  0
 24 26  1  0  0  0  0
 24 27  1  0  0  0  0
 27 28  1  0  0  0  0
 27 29  1  0  0  0  0
 27 30  1  0  0  0  0
 30 31  1  0  0  0  0
 30 32  1  0  0  0  0
 30 33  1  0  0  0  0
 33 34  1  0  0  0  0
 33 35  1  0  0  0  0
 33 36  1  0  0  0  0
 36 23  1  0  0  0  0
 36 37  1  0  0  0  0
 36 38  1  0  0  0  0
 22 39  2  0  0  0  0
 17 40  2  0  0  0  0
M  END
> <ChemID>
100267

> <source_casrn>
120-54-7

> <CAS>
120-54-7

> <SMILES>
N(C(=S)SSSSC(N(CCCC1)C1)=S)(CCCC2)C2

> <NAME>
Thiuram MT

> <preferred_name>
Tetrasulfane-1,4-diylbis(piperidin-1-ylmethanethione)

> <iupac>
tetrasulfane-1,4-diylbis(piperidin-1-ylmethanethione)

> <MPID>
98198

> <dsstox_substance_id>
DTXSID0044789

> <Canonical_QSARr>
S=C(SSSSC(=S)N1CCCCC1)N1CCCCC1

> <InChI_Code_QSARr>
InChI=1S/C12H20N2S6/c15-11(13-7-3-1-4-8-13)17-19-20-18-12(16)14-9-5-2-6-10-14/h1-10H2

> <InChI Key_QSARr>
VNDRMZTXEFFQDR-UHFFFAOYSA-N

> <Salt_Solvent>
?

> <LogBCF>
1.23

$$$$
100268
  -INDIGO-08031719362D

 21 21  0  0  0  0  0  0  0  0999 V2000
   -3.2000    2.7713    0.0000 N   0  0  0  0  0  0  0  0  0  0  0  0
   -2.4000    4.1569    0.0000 H   0  0  0  0  0  0  0  0  0  0  0  0
   -4.8001    2.7713    0.0000 H   0  0  0  0  0  0  0  0  0  0  0  0
   -2.4000    1.3856    0.0000 C   0  0  0  0  0  0  0  0  0  0  0  0
   -0.8000    1.3856    0.0000 C   0  0  0  0  0  0  0  0  0  0  0  0
   -0.0001    2.7713    0.0000 H   0  0  0  0  0  0  0  0  0  0  0  0
   -0.0001    0.0000    0.0000 C   0  0  0  0  0  0  0  0  0  0  0  0
    1.6000    0.0000    0.0000 C   0  0  0  0  0  0  0  0  0  0  0  0
    3.2000    0.0000    0.0000 H   0  0  0  0  0  0  0  0  0  0  0  0
    2.4000   -1.3856    0.0000 H   0  0  0  0  0  0  0  0  0  0  0  0
    2.4000    1.3856    0.0000 H   0  0  0  0  0  0  0  0  0  0  0  0
   -0.8000   -1.3856    0.0000 C   0  0  0  0  0  0  0  0  0  0  0  0
   -0.0001   -2.7713    0.0000 H   0  0  0  0  0  0  0  0  0  0  0  0
   -2.4000   -1.3856    0.0000 C   0  0  0  0  0  0  0  0  0  0  0  0
   -3.2000   -2.7713    0.0000 H   0  0  0  0  0  0  0  0  0  0  0  0
   -3.2000    0.0000    0.0000 C   0  0  0  0  0  0  0  0  0  0  0  0
   -4.8001    0.0000    0.0000 O   0  0  0  0  0  0  0  0  0  0  0  0
   -5.6000   -1.3856    0.0000 C   0  0  0  0  0  0  0  0  0  0  0  0
   -7.2000   -1.3856    0.0000 H   0  0  0  0  0  0  0  0  0  0  0  0
   -6.4000   -2.7713    0.0000 H   0  0  0  0  0  0  0  0  0  0  0  0
   -6.4000    0.0000    0.0000 H   0  0  0  0  0  0  0  0  0  0  0  0
  1  2  1  0  0  0  0
  1  3  1  0  0  0  0
  1  4  1  0  0  0  0
  4  5  1  0  0  0  0
  5  6  1  0  0  0  0
  5  7  2  0  0  0  0
  7  8  1  0  0  0  0
  8  9  1  0  0  0  0
  8 10  1  0  0  0  0
  8 11  1  0  0  0  0
  7 12  1  0  0  0  0
 12 13  1  0  0  0  0
 12 14  2  0  0  0  0
 14 15  1  0  0  0  0
 14 16  1  0  0  0  0
 16  4  2  0  0  0  0
 16 17  1  0  0  0  0
 17 18  1  0  0  0  0
 18 19  1  0  0  0  0
 18 20  1  0  0  0  0
 18 21  1  0  0  0  0
M  END
> <ChemID>
100268

> <source_casrn>
120-71-8

> <CAS>
120-71-8

> <SMILES>
Cc1ccc(OC)c(N)c1

> <NAME>
2-METHOXY-5-METHYLBENZENAMINE

> <preferred_name>
2-Methoxy-5-methylaniline

> <iupac>
2-methoxy-5-methylaniline

> <MPID>
98199

> <dsstox_substance_id>
DTXSID1020350

> <Canonical_QSARr>
Cc1ccc(OC)c(N)c1

> <InChI_Code_QSARr>
InChI=1S/C8H11NO/c1-6-3-4-8(10-2)7(9)5-6/h3-5H,9H2,1-2H3

> <InChI Key_QSARr>
WXWCDTXEKCVRRO-UHFFFAOYSA-N

> <Salt_Solvent>
?

> <LogBCF>
0.55

$$$$
100269
  -INDIGO-08031719362D

 28 31  0  0  0  0  0  0  0  0999 V2000
   -1.5218   -0.4944    0.0000 N   0  0  0  0  0  0  0  0  0  0  0  0
   -2.4621    0.8000    0.0000 C   0  0  0  0  0  0  0  0  0  0  0  0
   -4.0622    0.8000    0.0000 S   0  0  0  0  0  0  0  0  0  0  0  0
   -4.8621   -0.5856    0.0000 S   0  0  0  0  0  0  0  0  0  0  0  0
   -6.4621   -0.5856    0.0000 C   0  0  0  0  0  0  0  0  0  0  0  0
   -7.4025   -1.8801    0.0000 N   0  0  0  0  0  0  0  0  0  0  0  0
   -8.9242   -1.3856    0.0000 C   0  0  0  0  0  0  0  0  0  0  0  0
   -8.9242    0.2144    0.0000 C   0  0  0  0  0  0  0  0  0  0  0  0
  -10.3099    1.0144    0.0000 C   0  0  0  0  0  0  0  0  0  0  0  0
  -10.3099    2.6143    0.0000 H   0  0  0  0  0  0  0  0  0  0  0  0
  -11.6955    0.2144    0.0000 C   0  0  0  0  0  0  0  0  0  0  0  0
  -13.0812    1.0144    0.0000 H   0  0  0  0  0  0  0  0  0  0  0  0
  -11.6955   -1.3856    0.0000 C   0  0  0  0  0  0  0  0  0  0  0  0
  -13.0812   -2.1856    0.0000 H   0  0  0  0  0  0  0  0  0  0  0  0
  -10.3099   -2.1856    0.0000 C   0  0  0  0  0  0  0  0  0  0  0  0
  -10.3099   -3.7856    0.0000 H   0  0  0  0  0  0  0  0  0  0  0  0
   -7.4025    0.7087    0.0000 S   0  0  0  0  0  0  0  0  0  0  0  0
   -1.5218    2.0944    0.0000 S   0  0  0  0  0  0  0  0  0  0  0  0
   -0.0001    1.6000    0.0000 C   0  0  0  0  0  0  0  0  0  0  0  0
   -0.0001   -0.0000    0.0000 C   0  0  0  0  0  0  0  0  0  0  0  0
    1.3856   -0.8000    0.0000 C   0  0  0  0  0  0  0  0  0  0  0  0
    1.3856   -2.3999    0.0000 H   0  0  0  0  0  0  0  0  0  0  0  0
    2.7712   -0.0000    0.0000 C   0  0  0  0  0  0  0  0  0  0  0  0
    4.1569   -0.8000    0.0000 H   0  0  0  0  0  0  0  0  0  0  0  0
    2.7712    1.6000    0.0000 C   0  0  0  0  0  0  0  0  0  0  0  0
    4.1569    2.4000    0.0000 H   0  0  0  0  0  0  0  0  0  0  0  0
    1.3856    2.4000    0.0000 C   0  0  0  0  0  0  0  0  0  0  0  0
    1.3856    4.0000    0.0000 H   0  0  0  0  0  0  0  0  0  0  0  0
  1  2  2  0  0  0  0
  2  3  1  0  0  0  0
  3  4  1  0  0  0  0
  4  5  1  0  0  0  0
  5  6  2  0  0  0  0
  6  7  1  0  0  0  0
  7  8  1  0  0  0  0
  8  9  2  0  0  0  0
  9 10  1  0  0  0  0
  9 11  1  0  0  0  0
 11 12  1  0  0  0  0
 11 13  2  0  0  0  0
 13 14  1  0  0  0  0
 13 15  1  0  0  0  0
 15  7  2  0  0  0  0
 15 16  1  0  0  0  0
  8 17  1  0  0  0  0
 17  5  1  0  0  0  0
  2 18  1  0  0  0  0
 18 19  1  0  0  0  0
 19 20  1  0  0  0  0
 20  1  1  0  0  0  0
 20 21  2  0  0  0  0
 21 22  1  0  0  0  0
 21 23  1  0  0  0  0
 23 24  1  0  0  0  0
 23 25  2  0  0  0  0
 25 26  1  0  0  0  0
 25 27  1  0  0  0  0
 27 19  2  0  0  0  0
 27 28  1  0  0  0  0
M  END
> <ChemID>
100269

> <source_casrn>
120-78-5

> <CAS>
120-78-5

> <SMILES>
c1cccc2[s]c([n]c21)SSc1[n]c2ccccc2[s]1

> <NAME>
2,2'-DITHIOBISBENZOTHIAZOLE

> <preferred_name>
2,2'-Dithiobisbenzothiazole

> <iupac>
2,2'-disulfanediylbis(1,3-benzothiazole)

> <MPID>
98200

> <dsstox_substance_id>
DTXSID1020146

> <Canonical_QSARr>
c1cccc2[s]c([n]c21)SSc1[n]c2ccccc2[s]1

> <InChI_Code_QSARr>
InChI=1S/C14H8N2S4/c1-3-7-11-9(5-1)15-13(17-11)19-20-14-16-10-6-2-4-8-12(10)18-14/h1-8H

> <InChI Key_QSARr>
AFZSMODLJJCVPP-UHFFFAOYSA-N

> <Salt_Solvent>
?

> <LogBCF>
1.42

$$$$
100271
  -INDIGO-08031719362D

 13 13  0  0  0  0  0  0  0  0999 V2000
    0.0000    2.7713    0.0000 Cl  0  0  0  0  0  0  0  0  0  0  0  0
   -0.8000    1.3856    0.0000 C   0  0  0  0  0  0  0  0  0  0  0  0
    0.0000   -0.0000    0.0000 C   0  0  0  0  0  0  0  0  0  0  0  0
    1.6000   -0.0000    0.0000 O   0  0  0  0  0  0  0  0  0  0  0  0
    2.4000    1.3856    0.0000 H   0  0  0  0  0  0  0  0  0  0  0  0
   -0.8000   -1.3856    0.0000 C   0  0  0  0  0  0  0  0  0  0  0  0
    0.0000   -2.7713    0.0000 H   0  0  0  0  0  0  0  0  0  0  0  0
   -2.4000   -1.3856    0.0000 C   0  0  0  0  0  0  0  0  0  0  0  0
   -3.2000   -2.7713    0.0000 H   0  0  0  0  0  0  0  0  0  0  0  0
   -3.2000   -0.0000    0.0000 C   0  0  0  0  0  0  0  0  0  0  0  0
   -4.8000   -0.0000    0.0000 Cl  0  0  0  0  0  0  0  0  0  0  0  0
   -2.4000    1.3856    0.0000 C   0  0  0  0  0  0  0  0  0  0  0  0
   -3.2000    2.7713    0.0000 H   0  0  0  0  0  0  0  0  0  0  0  0
  1  2  1  0  0  0  0
  2  3  1  0  0  0  0
  3  4  1  0  0  0  0
  4  5  1  0  0  0  0
  3  6  2  0  0  0  0
  6  7  1  0  0  0  0
  6  8  1  0  0  0  0
  8  9  1  0  0  0  0
  8 10  2  0  0  0  0
 10 11  1  0  0  0  0
 10 12  1  0  0  0  0
 12  2  2  0  0  0  0
 12 13  1  0  0  0  0
M  END
> <ChemID>
100271

> <source_casrn>
120-83-2

> <CAS>
120-83-2

> <SMILES>
Oc1ccc(Cl)cc1Cl

> <NAME>
2,4-DICHLOROPHENOL

> <preferred_name>
2,4-Dichlorophenol

> <iupac>
2,4-dichlorophenol

> <MPID>
98202

> <dsstox_substance_id>
DTXSID1020439

> <Canonical_QSARr>
Oc1ccc(Cl)cc1Cl

> <InChI_Code_QSARr>
InChI=1S/C6H4Cl2O/c7-4-1-2-6(9)5(8)3-4/h1-3,9H

> <InChI Key_QSARr>
HFZWRUODUSTPEG-UHFFFAOYSA-N

> <Salt_Solvent>
?

> <LogBCF>
1.53

$$$$
100272
  -INDIGO-08031719362D

 19 19  0  0  0  0  0  0  0  0999 V2000
    1.3857   -0.8000    0.0000 C   0  0  0  0  0  0  0  0  0  0  0  0
    2.7713   -1.6000    0.0000 H   0  0  0  0  0  0  0  0  0  0  0  0
    1.3856   -2.4000    0.0000 H   0  0  0  0  0  0  0  0  0  0  0  0
    2.7713    0.0000    0.0000 H   0  0  0  0  0  0  0  0  0  0  0  0
    0.0000    0.0000    0.0000 C   0  0  0  0  0  0  0  0  0  0  0  0
    0.0000    1.6000    0.0000 C   0  0  0  0  0  0  0  0  0  0  0  0
    1.3857    2.4000    0.0000 N   0  0  0  0  0  0  0  0  0  0  0  0
    1.3857    4.0000    0.0000 O   0  0  0  0  0  0  0  0  0  0  0  0
    2.7713    1.6000    0.0000 O   0  0  0  0  0  0  0  0  0  0  0  0
   -1.3856    2.4000    0.0000 C   0  0  0  0  0  0  0  0  0  0  0  0
   -1.3856    4.0000    0.0000 H   0  0  0  0  0  0  0  0  0  0  0  0
   -2.7713    1.6000    0.0000 C   0  0  0  0  0  0  0  0  0  0  0  0
   -4.1570    2.4000    0.0000 N   0  0  0  0  0  0  0  0  0  0  0  0
   -5.5426    1.6000    0.0000 O   0  0  0  0  0  0  0  0  0  0  0  0
   -4.1570    4.0000    0.0000 O   0  0  0  0  0  0  0  0  0  0  0  0
   -2.7713    0.0000    0.0000 C   0  0  0  0  0  0  0  0  0  0  0  0
   -4.1570   -0.8000    0.0000 H   0  0  0  0  0  0  0  0  0  0  0  0
   -1.3856   -0.8000    0.0000 C   0  0  0  0  0  0  0  0  0  0  0  0
   -1.3856   -2.4000    0.0000 H   0  0  0  0  0  0  0  0  0  0  0  0
  1  2  1  0  0  0  0
  1  3  1  0  0  0  0
  1  4  1  0  0  0  0
  1  5  1  0  0  0  0
  5  6  1  0  0  0  0
  6  7  1  0  0  0  0
  7  8  2  0  0  0  0
  7  9  1  0  0  0  0
  6 10  2  0  0  0  0
 10 11  1  0  0  0  0
 10 12  1  0  0  0  0
 12 13  1  0  0  0  0
 13 14  2  0  0  0  0
 13 15  1  0  0  0  0
 12 16  2  0  0  0  0
 16 17  1  0  0  0  0
 16 18  1  0  0  0  0
 18  5  2  0  0  0  0
 18 19  1  0  0  0  0
M  CHG  4   7   1   9  -1  13   1  15  -1
M  END
> <ChemID>
100272

> <source_casrn>
121-14-2

> <CAS>
121-14-2

> <SMILES>
Cc1ccc(cc1[N+]([O-])=O)[N+]([O-])=O

> <NAME>
2,4-DINITROTOLUENE

> <preferred_name>
2,4-Dinitrotoluene

> <iupac>
1-methyl-2,4-dinitrobenzene

> <MPID>
98203

> <dsstox_substance_id>
DTXSID0020529

> <Canonical_QSARr>
Cc1ccc(cc1[N+]([O-])=O)[N+]([O-])=O

> <InChI_Code_QSARr>
InChI=1S/C7H6N2O4/c1-5-2-3-6(8(10)11)4-7(5)9(12)13/h2-4H,1H3

> <InChI Key_QSARr>
RMBFBMJGBANMMK-UHFFFAOYSA-N

> <Salt_Solvent>
?

> <LogBCF>
0.96

$$$$
100273
  -INDIGO-08031719362D

 22 21  0  0  0  0  0  0  0  0999 V2000
    2.4000    1.3856    0.0000 C   0  0  0  0  0  0  0  0  0  0  0  0
    3.2001    2.7713    0.0000 H   0  0  0  0  0  0  0  0  0  0  0  0
    4.0000    1.3856    0.0000 H   0  0  0  0  0  0  0  0  0  0  0  0
    1.6001    2.7713    0.0000 H   0  0  0  0  0  0  0  0  0  0  0  0
    1.6001   -0.0000    0.0000 C   0  0  0  0  0  0  0  0  0  0  0  0
    2.8694   -0.9740    0.0000 H   0  0  0  0  0  0  0  0  0  0  0  0
    1.8088   -1.5864    0.0000 H   0  0  0  0  0  0  0  0  0  0  0  0
    0.0001   -0.0000    0.0000 N   0  0  0  0  0  0  0  0  0  0  0  0
   -0.8000    1.3856    0.0000 C   0  0  0  0  0  0  0  0  0  0  0  0
   -0.5911    2.9720    0.0000 H   0  0  0  0  0  0  0  0  0  0  0  0
    0.4693    2.3596    0.0000 H   0  0  0  0  0  0  0  0  0  0  0  0
   -2.4000    1.3856    0.0000 C   0  0  0  0  0  0  0  0  0  0  0  0
   -4.0000    1.3856    0.0000 H   0  0  0  0  0  0  0  0  0  0  0  0
   -3.2001    2.7713    0.0000 H   0  0  0  0  0  0  0  0  0  0  0  0
   -3.2001   -0.0000    0.0000 H   0  0  0  0  0  0  0  0  0  0  0  0
   -0.8000   -1.3857    0.0000 C   0  0  0  0  0  0  0  0  0  0  0  0
   -2.2782   -1.9980    0.0000 H   0  0  0  0  0  0  0  0  0  0  0  0
   -2.2782   -0.7733    0.0000 H   0  0  0  0  0  0  0  0  0  0  0  0
    0.0001   -2.7713    0.0000 C   0  0  0  0  0  0  0  0  0  0  0  0
    0.8000   -4.1569    0.0000 H   0  0  0  0  0  0  0  0  0  0  0  0
   -0.8000   -4.1569    0.0000 H   0  0  0  0  0  0  0  0  0  0  0  0
    1.6001   -2.7713    0.0000 H   0  0  0  0  0  0  0  0  0  0  0  0
  1  2  1  0  0  0  0
  1  3  1  0  0  0  0
  1  4  1  0  0  0  0
  1  5  1  0  0  0  0
  5  6  1  0  0  0  0
  5  7  1  0  0  0  0
  5  8  1  0  0  0  0
  8  9  1  0  0  0  0
  9 10  1  0  0  0  0
  9 11  1  0  0  0  0
  9 12  1  0  0  0  0
 12 13  1  0  0  0  0
 12 14  1  0  0  0  0
 12 15  1  0  0  0  0
  8 16  1  0  0  0  0
 16 17  1  0  0  0  0
 16 18  1  0  0  0  0
 16 19  1  0  0  0  0
 19 20  1  0  0  0  0
 19 21  1  0  0  0  0
 19 22  1  0  0  0  0
M  END
> <ChemID>
100273

> <source_casrn>
121-44-8

> <CAS>
121-44-8

> <SMILES>
CCN(CC)CC

> <NAME>
TRIETHYLAMINE

> <preferred_name>
Triethylamine

> <iupac>
N,N-diethylethanamine

> <MPID>
98204

> <dsstox_substance_id>
DTXSID3024366

> <Canonical_QSARr>
CCN(CC)CC

> <InChI_Code_QSARr>
InChI=1S/C6H15N/c1-4-7(5-2)6-3/h4-6H2,1-3H3

> <InChI Key_QSARr>
ZMANZCXQSJIPKH-UHFFFAOYSA-N

> <Salt_Solvent>
?

> <LogBCF>
0.69

$$$$
100275
  -INDIGO-08031719362D

 14 14  0  0  0  0  0  0  0  0999 V2000
   -3.2000    2.7713    0.0000 Cl  0  0  0  0  0  0  0  0  0  0  0  0
   -2.4000    1.3856    0.0000 C   0  0  0  0  0  0  0  0  0  0  0  0
   -0.8000    1.3856    0.0000 C   0  0  0  0  0  0  0  0  0  0  0  0
    0.0000    2.7713    0.0000 H   0  0  0  0  0  0  0  0  0  0  0  0
    0.0000    0.0000    0.0000 C   0  0  0  0  0  0  0  0  0  0  0  0
    1.6000    0.0000    0.0000 N   0  0  0  0  0  0  0  0  0  0  0  0
    2.4000   -1.3856    0.0000 O   0  0  0  0  0  0  0  0  0  0  0  0
    2.4000    1.3856    0.0000 O   0  0  0  0  0  0  0  0  0  0  0  0
   -0.8000   -1.3856    0.0000 C   0  0  0  0  0  0  0  0  0  0  0  0
    0.0000   -2.7713    0.0000 H   0  0  0  0  0  0  0  0  0  0  0  0
   -2.4000   -1.3856    0.0000 C   0  0  0  0  0  0  0  0  0  0  0  0
   -3.2000   -2.7713    0.0000 H   0  0  0  0  0  0  0  0  0  0  0  0
   -3.2000   -0.0000    0.0000 C   0  0  0  0  0  0  0  0  0  0  0  0
   -4.8000    0.0000    0.0000 H   0  0  0  0  0  0  0  0  0  0  0  0
  1  2  1  0  0  0  0
  2  3  1  0  0  0  0
  3  4  1  0  0  0  0
  3  5  2  0  0  0  0
  5  6  1  0  0  0  0
  6  7  2  0  0  0  0
  6  8  1  0  0  0  0
  5  9  1  0  0  0  0
  9 10  1  0  0  0  0
  9 11  2  0  0  0  0
 11 12  1  0  0  0  0
 11 13  1  0  0  0  0
 13  2  2  0  0  0  0
 13 14  1  0  0  0  0
M  CHG  2   6   1   8  -1
M  END
> <ChemID>
100275

> <source_casrn>
121-73-3

> <CAS>
121-73-3

> <SMILES>
[O-][N+](=O)c1cccc(Cl)c1

> <NAME>
3-CHLORO-NITROBENZENE

> <preferred_name>
1-Chloro-3-nitrobenzene

> <iupac>
1-chloro-3-nitrobenzene

> <MPID>
98206

> <dsstox_substance_id>
DTXSID4021971

> <Canonical_QSARr>
[O-][N+](=O)c1cccc(Cl)c1

> <InChI_Code_QSARr>
InChI=1S/C6H4ClNO2/c7-5-2-1-3-6(4-5)8(9)10/h1-4H

> <InChI Key_QSARr>
KMAQZIILEGKYQZ-UHFFFAOYSA-N

> <Salt_Solvent>
?

> <LogBCF>
1.89

$$$$
100276
  -INDIGO-08031719362D

 38 37  0  0  0  0  0  0  0  0999 V2000
   -2.4000    1.3856    0.0000 O   0  0  0  0  0  0  0  0  0  0  0  0
   -1.6000    0.0001    0.0000 C   0  0  0  0  0  0  0  0  0  0  0  0
    0.0001    0.0001    0.0000 C   0  0  0  0  0  0  0  0  0  0  0  0
    0.0001   -1.6000    0.0000 H   0  0  0  0  0  0  0  0  0  0  0  0
    0.0001    1.5999    0.0000 S   0  0  0  0  0  0  0  0  0  0  0  0
    1.2257    2.6285    0.0000 P   0  0  0  0  0  0  0  0  0  0  0  0
   -0.2779    3.1756    0.0000 S   0  0  0  0  0  0  0  0  0  0  0  0
    0.9478    4.2042    0.0000 O   0  0  0  0  0  0  0  0  0  0  0  0
    2.1734    5.2326    0.0000 C   0  0  0  0  0  0  0  0  0  0  0  0
    1.8957    6.8083    0.0000 H   0  0  0  0  0  0  0  0  0  0  0  0
    3.3991    6.2610    0.0000 H   0  0  0  0  0  0  0  0  0  0  0  0
    0.6700    5.7799    0.0000 H   0  0  0  0  0  0  0  0  0  0  0  0
    2.4514    3.6569    0.0000 O   0  0  0  0  0  0  0  0  0  0  0  0
    3.9548    3.1097    0.0000 C   0  0  0  0  0  0  0  0  0  0  0  0
    5.1804    4.1381    0.0000 H   0  0  0  0  0  0  0  0  0  0  0  0
    5.4584    2.5624    0.0000 H   0  0  0  0  0  0  0  0  0  0  0  0
    4.2327    1.5340    0.0000 H   0  0  0  0  0  0  0  0  0  0  0  0
    1.5999    0.0001    0.0000 C   0  0  0  0  0  0  0  0  0  0  0  0
    1.8089    1.5863    0.0000 H   0  0  0  0  0  0  0  0  0  0  0  0
    2.8693    0.9740    0.0000 H   0  0  0  0  0  0  0  0  0  0  0  0
    2.4000   -1.3856    0.0000 C   0  0  0  0  0  0  0  0  0  0  0  0
    1.5999   -2.7713    0.0000 O   0  0  0  0  0  0  0  0  0  0  0  0
    4.0000   -1.3856    0.0000 O   0  0  0  0  0  0  0  0  0  0  0  0
    4.8001   -2.7713    0.0000 C   0  0  0  0  0  0  0  0  0  0  0  0
    4.5911   -4.3576    0.0000 H   0  0  0  0  0  0  0  0  0  0  0  0
    3.5307   -3.7452    0.0000 H   0  0  0  0  0  0  0  0  0  0  0  0
    6.3999   -2.7713    0.0000 C   0  0  0  0  0  0  0  0  0  0  0  0
    8.0000   -2.7713    0.0000 H   0  0  0  0  0  0  0  0  0  0  0  0
    7.2000   -4.1569    0.0000 H   0  0  0  0  0  0  0  0  0  0  0  0
    7.2000   -1.3856    0.0000 H   0  0  0  0  0  0  0  0  0  0  0  0
   -2.4000   -1.3856    0.0000 O   0  0  0  0  0  0  0  0  0  0  0  0
   -3.9999   -1.3856    0.0000 C   0  0  0  0  0  0  0  0  0  0  0  0
   -5.2693   -0.4116    0.0000 H   0  0  0  0  0  0  0  0  0  0  0  0
   -4.2089    0.2006    0.0000 H   0  0  0  0  0  0  0  0  0  0  0  0
   -4.7999   -2.7713    0.0000 C   0  0  0  0  0  0  0  0  0  0  0  0
   -5.6000   -4.1569    0.0000 H   0  0  0  0  0  0  0  0  0  0  0  0
   -6.4000   -2.7713    0.0000 H   0  0  0  0  0  0  0  0  0  0  0  0
   -3.9999   -4.1569    0.0000 H   0  0  0  0  0  0  0  0  0  0  0  0
  1  2  2  0  0  0  0
  2  3  1  0  0  0  0
  3  4  1  0  0  0  0
  3  5  1  0  0  0  0
  5  6  1  0  0  0  0
  6  7  2  0  0  0  0
  6  8  1  0  0  0  0
  8  9  1  0  0  0  0
  9 10  1  0  0  0  0
  9 11  1  0  0  0  0
  9 12  1  0  0  0  0
  6 13  1  0  0  0  0
 13 14  1  0  0  0  0
 14 15  1  0  0  0  0
 14 16  1  0  0  0  0
 14 17  1  0  0  0  0
  3 18  1  0  0  0  0
 18 19  1  0  0  0  0
 18 20  1  0  0  0  0
 18 21  1  0  0  0  0
 21 22  2  0  0  0  0
 21 23  1  0  0  0  0
 23 24  1  0  0  0  0
 24 25  1  0  0  0  0
 24 26  1  0  0  0  0
 24 27  1  0  0  0  0
 27 28  1  0  0  0  0
 27 29  1  0  0  0  0
 27 30  1  0  0  0  0
  2 31  1  0  0  0  0
 31 32  1  0  0  0  0
 32 33  1  0  0  0  0
 32 34  1  0  0  0  0
 32 35  1  0  0  0  0
 35 36  1  0  0  0  0
 35 37  1  0  0  0  0
 35 38  1  0  0  0  0
M  END
> <ChemID>
100276

> <source_casrn>
121-75-5

> <CAS>
121-75-5

> <SMILES>
CCOC(=O)C(CC(=O)OCC)SP(=S)(OC)OC

> <NAME>
MALATHION

> <preferred_name>
Malathion

> <iupac>
diethyl 2-[(dimethoxyphosphorothioyl)sulfanyl]butanedioate

> <MPID>
98207

> <dsstox_substance_id>
DTXSID4020791

> <Canonical_QSARr>
CCOC(=O)C(CC(=O)OCC)SP(=S)(OC)OC

> <InChI_Code_QSARr>
InChI=1S/C10H19O6PS2/c1-5-15-9(11)7-8(10(12)16-6-2)19-17(18,13-3)14-4/h8H,5-7H2,1-4H3

> <InChI Key_QSARr>
JXSJBGJIGXNWCI-UHFFFAOYSA-N

> <Salt_Solvent>
?

> <LogBCF>
1.52

$$$$
100277
  -INDIGO-08031719362D

 21 21  0  0  0  0  0  0  0  0999 V2000
    0.0000    1.6000    0.0000 N   0  0  0  0  0  0  0  0  0  0  0  0
    1.3857    2.4000    0.0000 N   0  0  0  0  0  0  0  0  0  0  0  0
    1.3857    4.0000    0.0000 O   0  0  0  0  0  0  0  0  0  0  0  0
    2.7713    1.6000    0.0000 O   0  0  0  0  0  0  0  0  0  0  0  0
   -1.3856    2.4000    0.0000 C   0  0  0  0  0  0  0  0  0  0  0  0
   -0.3572    3.6257    0.0000 H   0  0  0  0  0  0  0  0  0  0  0  0
   -2.4140    3.6257    0.0000 H   0  0  0  0  0  0  0  0  0  0  0  0
   -2.7713    1.6000    0.0000 N   0  0  0  0  0  0  0  0  0  0  0  0
   -4.1570    2.4000    0.0000 N   0  0  0  0  0  0  0  0  0  0  0  0
   -5.5426    1.6000    0.0000 O   0  0  0  0  0  0  0  0  0  0  0  0
   -4.1569    4.0000    0.0000 O   0  0  0  0  0  0  0  0  0  0  0  0
   -2.7713    0.0000    0.0000 C   0  0  0  0  0  0  0  0  0  0  0  0
   -4.3470    0.2779    0.0000 H   0  0  0  0  0  0  0  0  0  0  0  0
   -3.3186   -1.5035    0.0000 H   0  0  0  0  0  0  0  0  0  0  0  0
   -1.3856   -0.8000    0.0000 N   0  0  0  0  0  0  0  0  0  0  0  0
   -1.3856   -2.4000    0.0000 N   0  0  0  0  0  0  0  0  0  0  0  0
    0.0000   -3.2000    0.0000 O   0  0  0  0  0  0  0  0  0  0  0  0
   -2.7713   -3.2000    0.0000 O   0  0  0  0  0  0  0  0  0  0  0  0
    0.0000    0.0000    0.0000 C   0  0  0  0  0  0  0  0  0  0  0  0
    0.5473   -1.5035    0.0000 H   0  0  0  0  0  0  0  0  0  0  0  0
    1.5757    0.2779    0.0000 H   0  0  0  0  0  0  0  0  0  0  0  0
  1  2  1  0  0  0  0
  2  3  1  0  0  0  0
  2  4  2  0  0  0  0
  1  5  1  0  0  0  0
  5  6  1  0  0  0  0
  5  7  1  0  0  0  0
  5  8  1  0  0  0  0
  8  9  1  0  0  0  0
  9 10  1  0  0  0  0
  9 11  2  0  0  0  0
  8 12  1  0  0  0  0
 12 13  1  0  0  0  0
 12 14  1  0  0  0  0
 12 15  1  0  0  0  0
 15 16  1  0  0  0  0
 16 17  1  0  0  0  0
 16 18  2  0  0  0  0
 15 19  1  0  0  0  0
 19  1  1  0  0  0  0
 19 20  1  0  0  0  0
 19 21  1  0  0  0  0
M  CHG  6   2   1   3  -1   9   1  10  -1  16   1  17  -1
M  END
> <ChemID>
100277

> <source_casrn>
121-82-4

> <CAS>
121-82-4

> <SMILES>
N(=O)(=O)N(CN(N(=O)(=O))CN1N(=O)(=O))C1

> <NAME>
1,3,5,-TRINITROHEXAHYDRO-1,3,5-TRIAZINE

> <preferred_name>
Cyclonite

> <iupac>
C3H6N6O6

> <MPID>
98208

> <dsstox_substance_id>
DTXSID9024142

> <Canonical_QSARr>
[O-][N+](=O)N1CN(CN(C1)[N+]([O-])=O)[N+]([O-])=O

> <InChI_Code_QSARr>
InChI=1S/C3H6N6O6/c10-7(11)4-1-5(8(12)13)3-6(2-4)9(14)15/h1-3H2

> <InChI Key_QSARr>
XTFIVUDBNACUBN-UHFFFAOYSA-N

> <Salt_Solvent>
?

> <LogBCF>
0.3

$$$$
100279
  -INDIGO-08031719362D

 29 29  0  0  0  0  0  0  0  0999 V2000
   -5.5426    1.6000    0.0000 S   0  0  0  0  0  0  0  0  0  0  0  0
   -5.5426   -0.0000    0.0000 P   0  0  0  0  0  0  0  0  0  0  0  0
   -4.1569    0.8000    0.0000 O   0  0  0  0  0  0  0  0  0  0  0  0
   -2.7713   -0.0000    0.0000 C   0  0  0  0  0  0  0  0  0  0  0  0
   -1.3856    0.8000    0.0000 C   0  0  0  0  0  0  0  0  0  0  0  0
   -1.3856    2.4000    0.0000 H   0  0  0  0  0  0  0  0  0  0  0  0
    0.0001   -0.0000    0.0000 C   0  0  0  0  0  0  0  0  0  0  0  0
    1.3856    0.8000    0.0000 C   0  0  0  0  0  0  0  0  0  0  0  0
    2.7713    1.6000    0.0000 H   0  0  0  0  0  0  0  0  0  0  0  0
    1.3856    2.4000    0.0000 H   0  0  0  0  0  0  0  0  0  0  0  0
    2.7713   -0.0000    0.0000 H   0  0  0  0  0  0  0  0  0  0  0  0
    0.0001   -1.6000    0.0000 C   0  0  0  0  0  0  0  0  0  0  0  0
    1.3856   -2.4000    0.0000 N   0  0  0  0  0  0  0  0  0  0  0  0
    1.3856   -4.0000    0.0000 O   0  0  0  0  0  0  0  0  0  0  0  0
    2.7713   -1.6000    0.0000 O   0  0  0  0  0  0  0  0  0  0  0  0
   -1.3856   -2.4000    0.0000 C   0  0  0  0  0  0  0  0  0  0  0  0
   -1.3856   -4.0000    0.0000 H   0  0  0  0  0  0  0  0  0  0  0  0
   -2.7713   -1.6000    0.0000 C   0  0  0  0  0  0  0  0  0  0  0  0
   -4.1569   -2.4000    0.0000 H   0  0  0  0  0  0  0  0  0  0  0  0
   -6.9283    0.8000    0.0000 O   0  0  0  0  0  0  0  0  0  0  0  0
   -8.3138   -0.0000    0.0000 C   0  0  0  0  0  0  0  0  0  0  0  0
   -9.6995    0.8000    0.0000 H   0  0  0  0  0  0  0  0  0  0  0  0
   -9.6995   -0.8000    0.0000 H   0  0  0  0  0  0  0  0  0  0  0  0
   -8.3138    1.6000    0.0000 H   0  0  0  0  0  0  0  0  0  0  0  0
   -6.9283   -0.8000    0.0000 O   0  0  0  0  0  0  0  0  0  0  0  0
   -6.9283   -2.4000    0.0000 C   0  0  0  0  0  0  0  0  0  0  0  0
   -6.9283   -4.0000    0.0000 H   0  0  0  0  0  0  0  0  0  0  0  0
   -8.3138   -3.2000    0.0000 H   0  0  0  0  0  0  0  0  0  0  0  0
   -5.5426   -3.2000    0.0000 H   0  0  0  0  0  0  0  0  0  0  0  0
  1  2  2  0  0  0  0
  2  3  1  0  0  0  0
  3  4  1  0  0  0  0
  4  5  1  0  0  0  0
  5  6  1  0  0  0  0
  5  7  2  0  0  0  0
  7  8  1  0  0  0  0
  8  9  1  0  0  0  0
  8 10  1  0  0  0  0
  8 11  1  0  0  0  0
  7 12  1  0  0  0  0
 12 13  1  0  0  0  0
 13 14  2  0  0  0  0
 13 15  1  0  0  0  0
 12 16  2  0  0  0  0
 16 17  1  0  0  0  0
 16 18  1  0  0  0  0
 18  4  2  0  0  0  0
 18 19  1  0  0  0  0
  2 20  1  0  0  0  0
 20 21  1  0  0  0  0
 21 22  1  0  0  0  0
 21 23  1  0  0  0  0
 21 24  1  0  0  0  0
  2 25  1  0  0  0  0
 25 26  1  0  0  0  0
 26 27  1  0  0  0  0
 26 28  1  0  0  0  0
 26 29  1  0  0  0  0
M  CHG  2  13   1  15  -1
M  END
> <ChemID>
100279

> <source_casrn>
122-14-5

> <CAS>
122-14-5

> <SMILES>
Cc1cc(ccc1[N+]([O-])=O)OP(=S)(OC)OC

> <NAME>
FENITROTHION

> <preferred_name>
Fenitrothion

> <iupac>
O,O-dimethyl O-(3-methyl-4-nitrophenyl) phosphorothioate

> <MPID>
98210

> <dsstox_substance_id>
DTXSID4032613

> <Canonical_QSARr>
Cc1cc(ccc1[N+]([O-])=O)OP(=S)(OC)OC

> <InChI_Code_QSARr>
InChI=1S/C9H12NO5PS/c1-7-6-8(4-5-9(7)10(11)12)15-16(17,13-2)14-3/h4-6H,1-3H3

> <InChI Key_QSARr>
ZNOLGFHPUIJIMJ-UHFFFAOYSA-N

> <Salt_Solvent>
?

> <LogBCF>
1.95

$$$$
100280
  -INDIGO-08031719362D

 34 33  0  0  0  0  0  0  0  0999 V2000
    4.0514    2.0569    0.0000 C   0  0  0  0  0  0  0  0  0  0  0  0
    5.2770    3.0853    0.0000 H   0  0  0  0  0  0  0  0  0  0  0  0
    5.5549    1.5096    0.0000 H   0  0  0  0  0  0  0  0  0  0  0  0
    3.7735    3.6327    0.0000 H   0  0  0  0  0  0  0  0  0  0  0  0
    2.8257    1.0285    0.0000 C   0  0  0  0  0  0  0  0  0  0  0  0
    1.7973    2.2541    0.0000 H   0  0  0  0  0  0  0  0  0  0  0  0
    1.6000   -0.0000    0.0000 C   0  0  0  0  0  0  0  0  0  0  0  0
    2.8693   -0.9740    0.0000 H   0  0  0  0  0  0  0  0  0  0  0  0
    1.8089   -1.5863    0.0000 H   0  0  0  0  0  0  0  0  0  0  0  0
    0.0001   -0.0000    0.0000 N   0  0  0  0  0  0  0  0  0  0  0  0
   -0.8001    1.3856    0.0000 C   0  0  0  0  0  0  0  0  0  0  0  0
   -0.5912    2.9719    0.0000 H   0  0  0  0  0  0  0  0  0  0  0  0
    0.4694    2.3596    0.0000 H   0  0  0  0  0  0  0  0  0  0  0  0
   -2.3035    1.9328    0.0000 C   0  0  0  0  0  0  0  0  0  0  0  0
   -2.8508    0.4294    0.0000 H   0  0  0  0  0  0  0  0  0  0  0  0
   -3.8071    2.4801    0.0000 C   0  0  0  0  0  0  0  0  0  0  0  0
   -5.3105    3.0273    0.0000 H   0  0  0  0  0  0  0  0  0  0  0  0
   -4.0848    4.0559    0.0000 H   0  0  0  0  0  0  0  0  0  0  0  0
   -5.0327    1.4516    0.0000 H   0  0  0  0  0  0  0  0  0  0  0  0
   -1.7562    3.4364    0.0000 O   0  0  0  0  0  0  0  0  0  0  0  0
   -2.7848    4.6621    0.0000 H   0  0  0  0  0  0  0  0  0  0  0  0
   -0.8001   -1.3857    0.0000 C   0  0  0  0  0  0  0  0  0  0  0  0
   -2.2781   -1.9980    0.0000 H   0  0  0  0  0  0  0  0  0  0  0  0
   -2.2781   -0.7734    0.0000 H   0  0  0  0  0  0  0  0  0  0  0  0
   -0.5222   -2.9613    0.0000 C   0  0  0  0  0  0  0  0  0  0  0  0
    1.0535   -2.6836    0.0000 H   0  0  0  0  0  0  0  0  0  0  0  0
   -0.2443   -4.5370    0.0000 C   0  0  0  0  0  0  0  0  0  0  0  0
    0.0335   -6.1127    0.0000 H   0  0  0  0  0  0  0  0  0  0  0  0
   -1.4700   -5.5656    0.0000 H   0  0  0  0  0  0  0  0  0  0  0  0
    1.2591   -5.0843    0.0000 H   0  0  0  0  0  0  0  0  0  0  0  0
   -2.0979   -3.2391    0.0000 O   0  0  0  0  0  0  0  0  0  0  0  0
   -2.6450   -4.7427    0.0000 H   0  0  0  0  0  0  0  0  0  0  0  0
    3.8541   -0.1972    0.0000 O   0  0  0  0  0  0  0  0  0  0  0  0
    5.4298    0.0807    0.0000 H   0  0  0  0  0  0  0  0  0  0  0  0
  1  2  1  0  0  0  0
  1  3  1  0  0  0  0
  1  4  1  0  0  0  0
  1  5  1  0  0  0  0
  5  6  1  0  0  0  0
  5  7  1  0  0  0  0
  7  8  1  0  0  0  0
  7  9  1  0  0  0  0
  7 10  1  0  0  0  0
 10 11  1  0  0  0  0
 11 12  1  0  0  0  0
 11 13  1  0  0  0  0
 11 14  1  0  0  0  0
 14 15  1  0  0  0  0
 14 16  1  0  0  0  0
 16 17  1  0  0  0  0
 16 18  1  0  0  0  0
 16 19  1  0  0  0  0
 14 20  1  0  0  0  0
 20 21  1  0  0  0  0
 10 22  1  0  0  0  0
 22 23  1  0  0  0  0
 22 24  1  0  0  0  0
 22 25  1  0  0  0  0
 25 26  1  0  0  0  0
 25 27  1  0  0  0  0
 27 28  1  0  0  0  0
 27 29  1  0  0  0  0
 27 30  1  0  0  0  0
 25 31  1  0  0  0  0
 31 32  1  0  0  0  0
  5 33  1  0  0  0  0
 33 34  1  0  0  0  0
M  END
> <ChemID>
100280

> <source_casrn>
122-20-3

> <CAS>
122-20-3

> <SMILES>
CC(O)CN(CC(C)O)CC(C)O

> <NAME>
2-Propanol, 1,1',1''-nitrilotris-

> <preferred_name>
Triisopropanolamine

> <iupac>
1,1',1''-nitrilotripropan-2-ol

> <MPID>
98211

> <dsstox_substance_id>
DTXSID5021415

> <Canonical_QSARr>
CC(O)CN(CC(C)O)CC(C)O

> <InChI_Code_QSARr>
InChI=1S/C9H21NO3/c1-7(11)4-10(5-8(2)12)6-9(3)13/h7-9,11-13H,4-6H2,1-3H3

> <InChI Key_QSARr>
SLINHMUFWFWBMU-UHFFFAOYSA-N

> <Salt_Solvent>
?

> <LogBCF>
-0.24

$$$$
100281
  -INDIGO-08031719362D

 25 25  0  0  0  0  0  0  0  0999 V2000
    4.1568    4.0000    0.0000 Cl  0  0  0  0  0  0  0  0  0  0  0  0
    4.1570    2.4000    0.0000 C   0  0  0  0  0  0  0  0  0  0  0  0
    5.5426    1.6000    0.0000 N   0  0  0  0  0  0  0  0  0  0  0  0
    5.5426    0.0000    0.0000 C   0  0  0  0  0  0  0  0  0  0  0  0
    6.9283   -0.8000    0.0000 N   0  0  0  0  0  0  0  0  0  0  0  0
    6.9283   -2.4000    0.0000 H   0  0  0  0  0  0  0  0  0  0  0  0
    8.3138    0.0000    0.0000 C   0  0  0  0  0  0  0  0  0  0  0  0
    8.9262    1.4782    0.0000 H   0  0  0  0  0  0  0  0  0  0  0  0
    7.7015    1.4782    0.0000 H   0  0  0  0  0  0  0  0  0  0  0  0
    9.6996   -0.8000    0.0000 C   0  0  0  0  0  0  0  0  0  0  0  0
   11.0851   -1.6000    0.0000 H   0  0  0  0  0  0  0  0  0  0  0  0
   11.0851    0.0000    0.0000 H   0  0  0  0  0  0  0  0  0  0  0  0
    9.6996   -2.4000    0.0000 H   0  0  0  0  0  0  0  0  0  0  0  0
    4.1570   -0.8000    0.0000 N   0  0  0  0  0  0  0  0  0  0  0  0
    2.7713    0.0000    0.0000 C   0  0  0  0  0  0  0  0  0  0  0  0
    1.3857   -0.8000    0.0000 N   0  0  0  0  0  0  0  0  0  0  0  0
    1.3857   -2.4000    0.0000 H   0  0  0  0  0  0  0  0  0  0  0  0
    0.0000    0.0000    0.0000 C   0  0  0  0  0  0  0  0  0  0  0  0
    0.6123    1.4782    0.0000 H   0  0  0  0  0  0  0  0  0  0  0  0
   -0.6123    1.4782    0.0000 H   0  0  0  0  0  0  0  0  0  0  0  0
   -1.3855   -0.8000    0.0000 C   0  0  0  0  0  0  0  0  0  0  0  0
   -2.7713   -1.6000    0.0000 H   0  0  0  0  0  0  0  0  0  0  0  0
   -2.7713    0.0000    0.0000 H   0  0  0  0  0  0  0  0  0  0  0  0
   -1.3855   -2.4000    0.0000 H   0  0  0  0  0  0  0  0  0  0  0  0
    2.7713    1.6000    0.0000 N   0  0  0  0  0  0  0  0  0  0  0  0
  1  2  1  0  0  0  0
  2  3  1  0  0  0  0
  3  4  2  0  0  0  0
  4  5  1  0  0  0  0
  5  6  1  0  0  0  0
  5  7  1  0  0  0  0
  7  8  1  0  0  0  0
  7  9  1  0  0  0  0
  7 10  1  0  0  0  0
 10 11  1  0  0  0  0
 10 12  1  0  0  0  0
 10 13  1  0  0  0  0
  4 14  1  0  0  0  0
 14 15  2  0  0  0  0
 15 16  1  0  0  0  0
 16 17  1  0  0  0  0
 16 18  1  0  0  0  0
 18 19  1  0  0  0  0
 18 20  1  0  0  0  0
 18 21  1  0  0  0  0
 21 22  1  0  0  0  0
 21 23  1  0  0  0  0
 21 24  1  0  0  0  0
 15 25  1  0  0  0  0
 25  2  2  0  0  0  0
M  END
> <ChemID>
100281

> <source_casrn>
122-34-9

> <CAS>
122-34-9

> <SMILES>
CCNc1[n]c(Cl)[n]c(NCC)[n]1

> <NAME>
SIMAZINE

> <preferred_name>
Simazine

> <iupac>
6-chloro-N,N'-diethyl-1,3,5-triazine-2,4-diamine

> <MPID>
98212

> <dsstox_substance_id>
DTXSID4021268

> <Canonical_QSARr>
CCNc1[n]c(Cl)[n]c(NCC)[n]1

> <InChI_Code_QSARr>
InChI=1S/C7H12ClN5/c1-3-9-6-11-5(8)12-7(13-6)10-4-2/h3-4H2,1-2H3,(H2,9,10,11,12,13)

> <InChI Key_QSARr>
ODCWYMIRDDJXKW-UHFFFAOYSA-N

> <Salt_Solvent>
?

> <LogBCF>
0.56

$$$$
100283
  -INDIGO-08031719362D

 21 21  0  0  0  0  0  0  0  0999 V2000
    0.0000    0.0000    0.0000 C   0  0  0  0  0  0  0  0  0  0  0  0
    0.2779    1.5757    0.0000 H   0  0  0  0  0  0  0  0  0  0  0  0
   -1.5036    0.5472    0.0000 C   0  0  0  0  0  0  0  0  0  0  0  0
   -3.0070    1.0945    0.0000 H   0  0  0  0  0  0  0  0  0  0  0  0
   -1.7814    2.1229    0.0000 H   0  0  0  0  0  0  0  0  0  0  0  0
   -2.7292   -0.4812    0.0000 H   0  0  0  0  0  0  0  0  0  0  0  0
   -0.8000   -1.3857    0.0000 O   0  0  0  0  0  0  0  0  0  0  0  0
    0.0000   -2.7713    0.0000 C   0  0  0  0  0  0  0  0  0  0  0  0
   -1.5036   -3.3185    0.0000 H   0  0  0  0  0  0  0  0  0  0  0  0
    0.2779   -4.3469    0.0000 C   0  0  0  0  0  0  0  0  0  0  0  0
    0.5557   -5.9227    0.0000 H   0  0  0  0  0  0  0  0  0  0  0  0
   -0.9479   -5.3755    0.0000 H   0  0  0  0  0  0  0  0  0  0  0  0
    1.7813   -4.8942    0.0000 H   0  0  0  0  0  0  0  0  0  0  0  0
    1.6000   -2.7713    0.0000 O   0  0  0  0  0  0  0  0  0  0  0  0
    2.4000   -1.3857    0.0000 C   0  0  0  0  0  0  0  0  0  0  0  0
    3.6257   -2.4141    0.0000 H   0  0  0  0  0  0  0  0  0  0  0  0
    3.6257   -0.3572    0.0000 C   0  0  0  0  0  0  0  0  0  0  0  0
    4.8513    0.6713    0.0000 H   0  0  0  0  0  0  0  0  0  0  0  0
    5.1292   -0.9044    0.0000 H   0  0  0  0  0  0  0  0  0  0  0  0
    3.3479    1.2185    0.0000 H   0  0  0  0  0  0  0  0  0  0  0  0
    1.6000    0.0000    0.0000 O   0  0  0  0  0  0  0  0  0  0  0  0
  1  2  1  0  0  0  0
  1  3  1  0  0  0  0
  3  4  1  0  0  0  0
  3  5  1  0  0  0  0
  3  6  1  0  0  0  0
  1  7  1  0  0  0  0
  7  8  1  0  0  0  0
  8  9  1  0  0  0  0
  8 10  1  0  0  0  0
 10 11  1  0  0  0  0
 10 12  1  0  0  0  0
 10 13  1  0  0  0  0
  8 14  1  0  0  0  0
 14 15  1  0  0  0  0
 15 16  1  0  0  0  0
 15 17  1  0  0  0  0
 17 18  1  0  0  0  0
 17 19  1  0  0  0  0
 17 20  1  0  0  0  0
 15 21  1  0  0  0  0
 21  1  1  0  0  0  0
M  END
> <ChemID>
100283

> <source_casrn>
123-63-7

> <CAS>
123-63-7

> <SMILES>
CC1OC(C)OC(C)O1

> <NAME>
PARALDEHYDE

> <preferred_name>
Paraldehyde

> <iupac>
2,4,6-trimethyl-1,3,5-trioxane

> <MPID>
98214

> <dsstox_substance_id>
DTXSID9023419

> <Canonical_QSARr>
CC1OC(C)OC(C)O1

> <InChI_Code_QSARr>
InChI=1S/C6H12O3/c1-4-7-5(2)9-6(3)8-4/h4-6H,1-3H3

> <InChI Key_QSARr>
SQYNKIJPMDEDEG-UHFFFAOYSA-N

> <Salt_Solvent>
?

> <LogBCF>
0.48

$$$$
100284
  -INDIGO-08031719362D

 14 14  0  0  0  0  0  0  0  0999 V2000
    0.0000   -0.0000    0.0000 C   0  0  0  0  0  0  0  0  0  0  0  0
    1.5757    0.2779    0.0000 H   0  0  0  0  0  0  0  0  0  0  0  0
    0.5472   -1.5035    0.0000 H   0  0  0  0  0  0  0  0  0  0  0  0
    0.0000    1.6000    0.0000 C   0  0  0  0  0  0  0  0  0  0  0  0
    1.5757    1.3221    0.0000 H   0  0  0  0  0  0  0  0  0  0  0  0
    0.5472    3.1035    0.0000 H   0  0  0  0  0  0  0  0  0  0  0  0
   -1.3856    2.4000    0.0000 O   0  0  0  0  0  0  0  0  0  0  0  0
   -2.7713    1.6000    0.0000 C   0  0  0  0  0  0  0  0  0  0  0  0
   -3.3185    3.1035    0.0000 H   0  0  0  0  0  0  0  0  0  0  0  0
   -4.3470    1.3221    0.0000 H   0  0  0  0  0  0  0  0  0  0  0  0
   -2.7713   -0.0000    0.0000 C   0  0  0  0  0  0  0  0  0  0  0  0
   -4.3470    0.2779    0.0000 H   0  0  0  0  0  0  0  0  0  0  0  0
   -3.3185   -1.5035    0.0000 H   0  0  0  0  0  0  0  0  0  0  0  0
   -1.3856   -0.8000    0.0000 O   0  0  0  0  0  0  0  0  0  0  0  0
  1  2  1  0  0  0  0
  1  3  1  0  0  0  0
  1  4  1  0  0  0  0
  4  5  1  0  0  0  0
  4  6  1  0  0  0  0
  4  7  1  0  0  0  0
  7  8  1  0  0  0  0
  8  9  1  0  0  0  0
  8 10  1  0  0  0  0
  8 11  1  0  0  0  0
 11 12  1  0  0  0  0
 11 13  1  0  0  0  0
 11 14  1  0  0  0  0
 14  1  1  0  0  0  0
M  END
> <ChemID>
100284

> <source_casrn>
123-91-1

> <CAS>
123-91-1

> <SMILES>
C1COCCO1

> <NAME>
1,4-DIOXANE

> <preferred_name>
1,4-Dioxane

> <iupac>
1,4-dioxane

> <MPID>
98215

> <dsstox_substance_id>
DTXSID4020533

> <Canonical_QSARr>
C1COCCO1

> <InChI_Code_QSARr>
InChI=1S/C4H8O2/c1-2-6-4-3-5-1/h1-4H2

> <InChI Key_QSARr>
RYHBNJHYFVUHQT-UHFFFAOYSA-N

> <Salt_Solvent>
?

> <LogBCF>
-0.3

$$$$
100285
  -INDIGO-08031719362D

 27 26  0  0  0  0  0  0  0  0999 V2000
   -1.3855    0.8000    0.0000 C   0  0  0  0  0  0  0  0  0  0  0  0
   -0.7734    2.2782    0.0000 H   0  0  0  0  0  0  0  0  0  0  0  0
   -1.9979    2.2782    0.0000 H   0  0  0  0  0  0  0  0  0  0  0  0
    0.0000    0.0000    0.0000 C   0  0  0  0  0  0  0  0  0  0  0  0
   -0.6123   -1.4782    0.0000 H   0  0  0  0  0  0  0  0  0  0  0  0
    0.6123   -1.4782    0.0000 H   0  0  0  0  0  0  0  0  0  0  0  0
    1.3857    0.8000    0.0000 C   0  0  0  0  0  0  0  0  0  0  0  0
    1.9979    2.2782    0.0000 H   0  0  0  0  0  0  0  0  0  0  0  0
    0.7734    2.2782    0.0000 H   0  0  0  0  0  0  0  0  0  0  0  0
    2.7713    0.0000    0.0000 C   0  0  0  0  0  0  0  0  0  0  0  0
    2.1590   -1.4782    0.0000 H   0  0  0  0  0  0  0  0  0  0  0  0
    3.3836   -1.4782    0.0000 H   0  0  0  0  0  0  0  0  0  0  0  0
    4.1570    0.8000    0.0000 C   0  0  0  0  0  0  0  0  0  0  0  0
    5.5426    1.6000    0.0000 H   0  0  0  0  0  0  0  0  0  0  0  0
    5.5426    0.0000    0.0000 H   0  0  0  0  0  0  0  0  0  0  0  0
    4.1570    2.4000    0.0000 H   0  0  0  0  0  0  0  0  0  0  0  0
   -2.7713    0.0000    0.0000 C   0  0  0  0  0  0  0  0  0  0  0  0
   -3.3836   -1.4782    0.0000 H   0  0  0  0  0  0  0  0  0  0  0  0
   -2.1590   -1.4782    0.0000 H   0  0  0  0  0  0  0  0  0  0  0  0
   -4.1568    0.8000    0.0000 C   0  0  0  0  0  0  0  0  0  0  0  0
   -3.5447    2.2782    0.0000 H   0  0  0  0  0  0  0  0  0  0  0  0
   -4.7691    2.2782    0.0000 H   0  0  0  0  0  0  0  0  0  0  0  0
   -5.5426    0.0000    0.0000 C   0  0  0  0  0  0  0  0  0  0  0  0
   -5.5426   -1.6000    0.0000 H   0  0  0  0  0  0  0  0  0  0  0  0
   -6.9281    0.8000    0.0000 C   0  0  0  0  0  0  0  0  0  0  0  0
   -8.3138    0.0000    0.0000 H   0  0  0  0  0  0  0  0  0  0  0  0
   -6.9281    2.4000    0.0000 H   0  0  0  0  0  0  0  0  0  0  0  0
  1  2  1  0  0  0  0
  1  3  1  0  0  0  0
  1  4  1  0  0  0  0
  4  5  1  0  0  0  0
  4  6  1  0  0  0  0
  4  7  1  0  0  0  0
  7  8  1  0  0  0  0
  7  9  1  0  0  0  0
  7 10  1  0  0  0  0
 10 11  1  0  0  0  0
 10 12  1  0  0  0  0
 10 13  1  0  0  0  0
 13 14  1  0  0  0  0
 13 15  1  0  0  0  0
 13 16  1  0  0  0  0
  1 17  1  0  0  0  0
 17 18  1  0  0  0  0
 17 19  1  0  0  0  0
 17 20  1  0  0  0  0
 20 21  1  0  0  0  0
 20 22  1  0  0  0  0
 20 23  1  0  0  0  0
 23 24  1  0  0  0  0
 23 25  2  0  0  0  0
 25 26  1  0  0  0  0
 25 27  1  0  0  0  0
M  END
> <ChemID>
100285

> <source_casrn>
124-11-8

> <CAS>
124-11-8

> <SMILES>
C(=C)CCCCCCC

> <NAME>
ISONONENE

> <preferred_name>
1-Nonene

> <iupac>
non-1-ene

> <MPID>
98216

> <dsstox_substance_id>
DTXSID2059562

> <Canonical_QSARr>
CCCCCCCC=C

> <InChI_Code_QSARr>
InChI=1S/C9H18/c1-3-5-7-9-8-6-4-2/h3H,1,4-9H2,2H3

> <InChI Key_QSARr>
JRZJOMJEPLMPRA-UHFFFAOYSA-N

> <Salt_Solvent>
?

> <LogBCF>
3.17

$$$$
100287
  -INDIGO-08031719362D

 15 15  0  0  0  0  0  0  0  0999 V2000
    0.0000    0.0000    0.0000 S   0  0  0  0  0  0  0  0  0  0  0  0
    0.4944   -1.5217    0.0000 C   0  0  0  0  0  0  0  0  0  0  0  0
    1.9561   -0.8709    0.0000 H   0  0  0  0  0  0  0  0  0  0  0  0
    1.2944   -2.9073    0.0000 H   0  0  0  0  0  0  0  0  0  0  0  0
   -0.8000   -2.4621    0.0000 C   0  0  0  0  0  0  0  0  0  0  0  0
    0.2706   -3.6512    0.0000 H   0  0  0  0  0  0  0  0  0  0  0  0
   -1.8706   -3.6512    0.0000 H   0  0  0  0  0  0  0  0  0  0  0  0
   -2.0944   -1.5217    0.0000 C   0  0  0  0  0  0  0  0  0  0  0  0
   -2.8944   -2.9073    0.0000 H   0  0  0  0  0  0  0  0  0  0  0  0
   -3.5561   -0.8709    0.0000 H   0  0  0  0  0  0  0  0  0  0  0  0
   -1.6000    0.0000    0.0000 C   0  0  0  0  0  0  0  0  0  0  0  0
   -3.1651    0.3327    0.0000 H   0  0  0  0  0  0  0  0  0  0  0  0
   -1.4327    1.5912    0.0000 H   0  0  0  0  0  0  0  0  0  0  0  0
   -0.1673    1.5912    0.0000 O   0  0  0  0  0  0  0  0  0  0  0  0
    1.5651    0.3327    0.0000 O   0  0  0  0  0  0  0  0  0  0  0  0
  1  2  1  0  0  0  0
  2  3  1  0  0  0  0
  2  4  1  0  0  0  0
  2  5  1  0  0  0  0
  5  6  1  0  0  0  0
  5  7  1  0  0  0  0
  5  8  1  0  0  0  0
  8  9  1  0  0  0  0
  8 10  1  0  0  0  0
  8 11  1  0  0  0  0
 11  1  1  0  0  0  0
 11 12  1  0  0  0  0
 11 13  1  0  0  0  0
  1 14  2  0  0  0  0
  1 15  2  0  0  0  0
M  END
> <ChemID>
100287

> <source_casrn>
126-33-0

> <CAS>
126-33-0

> <SMILES>
O=S1(=O)CCCC1

> <NAME>
TETRAHYDROTHIOPHENE-1,1-DIOXIDE

> <preferred_name>
Sulfolane

> <iupac>
tetrahydrothiophene 1,1-dioxide

> <MPID>
98218

> <dsstox_substance_id>
DTXSID3027037

> <Canonical_QSARr>
O=S1(=O)CCCC1

> <InChI_Code_QSARr>
InChI=1S/C4H8O2S/c5-7(6)3-1-2-4-7/h1-4H2

> <InChI Key_QSARr>
HXJUTPCZVOIRIF-UHFFFAOYSA-N

> <Salt_Solvent>
?

> <LogBCF>
0.85

$$$$
100288
  -INDIGO-08031719362D

 35 34  0  0  0  0  0  0  0  0999 V2000
    0.7999   -1.3856    0.0000 O   0  0  0  0  0  0  0  0  0  0  0  0
    0.0001    0.0001    0.0000 P   0  0  0  0  0  0  0  0  0  0  0  0
    1.5999    0.0001    0.0000 O   0  0  0  0  0  0  0  0  0  0  0  0
    2.3999   -1.3856    0.0000 C   0  0  0  0  0  0  0  0  0  0  0  0
    1.1306   -2.3597    0.0000 H   0  0  0  0  0  0  0  0  0  0  0  0
    2.1911   -2.9719    0.0000 H   0  0  0  0  0  0  0  0  0  0  0  0
    4.0000   -1.3856    0.0000 C   0  0  0  0  0  0  0  0  0  0  0  0
    5.2693   -0.4116    0.0000 H   0  0  0  0  0  0  0  0  0  0  0  0
    4.8000   -2.7713    0.0000 C   0  0  0  0  0  0  0  0  0  0  0  0
    5.6000   -4.1569    0.0000 H   0  0  0  0  0  0  0  0  0  0  0  0
    6.4000   -2.7713    0.0000 H   0  0  0  0  0  0  0  0  0  0  0  0
    4.0000   -4.1569    0.0000 Br  0  0  0  0  0  0  0  0  0  0  0  0
    4.2088    0.2007    0.0000 Br  0  0  0  0  0  0  0  0  0  0  0  0
    0.7999    1.3857    0.0000 O   0  0  0  0  0  0  0  0  0  0  0  0
    0.0001    2.7712    0.0000 C   0  0  0  0  0  0  0  0  0  0  0  0
   -1.4782    3.3835    0.0000 H   0  0  0  0  0  0  0  0  0  0  0  0
   -1.4782    2.1591    0.0000 H   0  0  0  0  0  0  0  0  0  0  0  0
    0.7999    4.1569    0.0000 C   0  0  0  0  0  0  0  0  0  0  0  0
    2.2783    3.5446    0.0000 H   0  0  0  0  0  0  0  0  0  0  0  0
    0.0001    5.5425    0.0000 C   0  0  0  0  0  0  0  0  0  0  0  0
   -0.7999    6.9282    0.0000 H   0  0  0  0  0  0  0  0  0  0  0  0
    0.7999    6.9282    0.0000 H   0  0  0  0  0  0  0  0  0  0  0  0
   -1.5999    5.5425    0.0000 Br  0  0  0  0  0  0  0  0  0  0  0  0
    2.2783    4.7692    0.0000 Br  0  0  0  0  0  0  0  0  0  0  0  0
   -1.5999    0.0001    0.0000 O   0  0  0  0  0  0  0  0  0  0  0  0
   -2.3999   -1.3856    0.0000 C   0  0  0  0  0  0  0  0  0  0  0  0
   -2.1911   -2.9719    0.0000 H   0  0  0  0  0  0  0  0  0  0  0  0
   -1.1306   -2.3597    0.0000 H   0  0  0  0  0  0  0  0  0  0  0  0
   -4.0000   -1.3856    0.0000 C   0  0  0  0  0  0  0  0  0  0  0  0
   -4.2088    0.2007    0.0000 H   0  0  0  0  0  0  0  0  0  0  0  0
   -4.8000   -2.7713    0.0000 C   0  0  0  0  0  0  0  0  0  0  0  0
   -5.6000   -4.1569    0.0000 H   0  0  0  0  0  0  0  0  0  0  0  0
   -6.4000   -2.7713    0.0000 H   0  0  0  0  0  0  0  0  0  0  0  0
   -4.0000   -4.1569    0.0000 Br  0  0  0  0  0  0  0  0  0  0  0  0
   -5.2693   -0.4116    0.0000 Br  0  0  0  0  0  0  0  0  0  0  0  0
  1  2  2  0  0  0  0
  2  3  1  0  0  0  0
  3  4  1  0  0  0  0
  4  5  1  0  0  0  0
  4  6  1  0  0  0  0
  4  7  1  0  0  0  0
  7  8  1  0  0  0  0
  7  9  1  0  0  0  0
  9 10  1  0  0  0  0
  9 11  1  0  0  0  0
  9 12  1  0  0  0  0
  7 13  1  0  0  0  0
  2 14  1  0  0  0  0
 14 15  1  0  0  0  0
 15 16  1  0  0  0  0
 15 17  1  0  0  0  0
 15 18  1  0  0  0  0
 18 19  1  0  0  0  0
 18 20  1  0  0  0  0
 20 21  1  0  0  0  0
 20 22  1  0  0  0  0
 20 23  1  0  0  0  0
 18 24  1  0  0  0  0
  2 25  1  0  0  0  0
 25 26  1  0  0  0  0
 26 27  1  0  0  0  0
 26 28  1  0  0  0  0
 26 29  1  0  0  0  0
 29 30  1  0  0  0  0
 29 31  1  0  0  0  0
 31 32  1  0  0  0  0
 31 33  1  0  0  0  0
 31 34  1  0  0  0  0
 29 35  1  0  0  0  0
M  END
> <ChemID>
100288

> <source_casrn>
126-72-7

> <CAS>
126-72-7

> <SMILES>
O=P(OCC(Br)CBr)(OCC(Br)CBr)OCC(Br)CBr

> <NAME>
TRIS(2,3-DIBROMOPROPYL) PHOSPHATE

> <preferred_name>
Tris(2,3-dibromopropyl) phosphate

> <iupac>
tris(2,3-dibromopropyl) phosphate

> <MPID>
98219

> <dsstox_substance_id>
DTXSID5021413

> <Canonical_QSARr>
O=P(OCC(Br)CBr)(OCC(Br)CBr)OCC(Br)CBr

> <InChI_Code_QSARr>
InChI=1S/C9H15Br6O4P/c10-1-7(13)4-17-20(16,18-5-8(14)2-11)19-6-9(15)3-12/h7-9H,1-6H2

> <InChI Key_QSARr>
PQYJRMFWJJONBO-UHFFFAOYSA-N

> <Salt_Solvent>
?

> <LogBCF>
0.51

$$$$
100289
  -INDIGO-08031719362D

 44 43  0  0  0  0  0  0  0  0999 V2000
    2.4001    1.3857    0.0000 C   0  0  0  0  0  0  0  0  0  0  0  0
    4.0000    1.3857    0.0000 H   0  0  0  0  0  0  0  0  0  0  0  0
    3.1999    2.7713    0.0000 H   0  0  0  0  0  0  0  0  0  0  0  0
    3.1999   -0.0001    0.0000 H   0  0  0  0  0  0  0  0  0  0  0  0
    0.8000    1.3857    0.0000 C   0  0  0  0  0  0  0  0  0  0  0  0
   -0.4693    2.3596    0.0000 H   0  0  0  0  0  0  0  0  0  0  0  0
    0.5913    2.9720    0.0000 H   0  0  0  0  0  0  0  0  0  0  0  0
   -0.0001   -0.0001    0.0000 C   0  0  0  0  0  0  0  0  0  0  0  0
    1.2692   -0.9740    0.0000 H   0  0  0  0  0  0  0  0  0  0  0  0
    0.2089   -1.5864    0.0000 H   0  0  0  0  0  0  0  0  0  0  0  0
   -1.5999   -0.0001    0.0000 C   0  0  0  0  0  0  0  0  0  0  0  0
   -2.8692    0.9740    0.0000 H   0  0  0  0  0  0  0  0  0  0  0  0
   -1.8089    1.5864    0.0000 H   0  0  0  0  0  0  0  0  0  0  0  0
   -2.4000   -1.3857    0.0000 O   0  0  0  0  0  0  0  0  0  0  0  0
   -3.9999   -1.3857    0.0000 P   0  0  0  0  0  0  0  0  0  0  0  0
   -4.7999   -0.0001    0.0000 O   0  0  0  0  0  0  0  0  0  0  0  0
   -5.6000   -1.3857    0.0000 O   0  0  0  0  0  0  0  0  0  0  0  0
   -6.4001   -0.0001    0.0000 C   0  0  0  0  0  0  0  0  0  0  0  0
   -6.1911    1.5864    0.0000 H   0  0  0  0  0  0  0  0  0  0  0  0
   -5.1308    0.9740    0.0000 H   0  0  0  0  0  0  0  0  0  0  0  0
   -7.9999   -0.0001    0.0000 C   0  0  0  0  0  0  0  0  0  0  0  0
   -8.2089   -1.5864    0.0000 H   0  0  0  0  0  0  0  0  0  0  0  0
   -9.2692   -0.9740    0.0000 H   0  0  0  0  0  0  0  0  0  0  0  0
   -8.8000    1.3857    0.0000 C   0  0  0  0  0  0  0  0  0  0  0  0
   -8.5913    2.9720    0.0000 H   0  0  0  0  0  0  0  0  0  0  0  0
   -7.5307    2.3596    0.0000 H   0  0  0  0  0  0  0  0  0  0  0  0
  -10.4001    1.3857    0.0000 C   0  0  0  0  0  0  0  0  0  0  0  0
  -12.0000    1.3857    0.0000 H   0  0  0  0  0  0  0  0  0  0  0  0
  -11.1999    2.7713    0.0000 H   0  0  0  0  0  0  0  0  0  0  0  0
  -11.1999   -0.0001    0.0000 H   0  0  0  0  0  0  0  0  0  0  0  0
   -4.7999   -2.7712    0.0000 O   0  0  0  0  0  0  0  0  0  0  0  0
   -3.9999   -4.1570    0.0000 C   0  0  0  0  0  0  0  0  0  0  0  0
   -2.5218   -3.5446    0.0000 H   0  0  0  0  0  0  0  0  0  0  0  0
   -2.5218   -4.7692    0.0000 H   0  0  0  0  0  0  0  0  0  0  0  0
   -4.7999   -5.5426    0.0000 C   0  0  0  0  0  0  0  0  0  0  0  0
   -6.2782   -6.1549    0.0000 H   0  0  0  0  0  0  0  0  0  0  0  0
   -6.2782   -4.9302    0.0000 H   0  0  0  0  0  0  0  0  0  0  0  0
   -3.9999   -6.9281    0.0000 C   0  0  0  0  0  0  0  0  0  0  0  0
   -2.5218   -6.3160    0.0000 H   0  0  0  0  0  0  0  0  0  0  0  0
   -2.5218   -7.5405    0.0000 H   0  0  0  0  0  0  0  0  0  0  0  0
   -4.7999   -8.3139    0.0000 C   0  0  0  0  0  0  0  0  0  0  0  0
   -5.6000   -9.6995    0.0000 H   0  0  0  0  0  0  0  0  0  0  0  0
   -3.9999   -9.6995    0.0000 H   0  0  0  0  0  0  0  0  0  0  0  0
   -6.4001   -8.3139    0.0000 H   0  0  0  0  0  0  0  0  0  0  0  0
  1  2  1  0  0  0  0
  1  3  1  0  0  0  0
  1  4  1  0  0  0  0
  1  5  1  0  0  0  0
  5  6  1  0  0  0  0
  5  7  1  0  0  0  0
  5  8  1  0  0  0  0
  8  9  1  0  0  0  0
  8 10  1  0  0  0  0
  8 11  1  0  0  0  0
 11 12  1  0  0  0  0
 11 13  1  0  0  0  0
 11 14  1  0  0  0  0
 14 15  1  0  0  0  0
 15 16  2  0  0  0  0
 15 17  1  0  0  0  0
 17 18  1  0  0  0  0
 18 19  1  0  0  0  0
 18 20  1  0  0  0  0
 18 21  1  0  0  0  0
 21 22  1  0  0  0  0
 21 23  1  0  0  0  0
 21 24  1  0  0  0  0
 24 25  1  0  0  0  0
 24 26  1  0  0  0  0
 24 27  1  0  0  0  0
 27 28  1  0  0  0  0
 27 29  1  0  0  0  0
 27 30  1  0  0  0  0
 15 31  1  0  0  0  0
 31 32  1  0  0  0  0
 32 33  1  0  0  0  0
 32 34  1  0  0  0  0
 32 35  1  0  0  0  0
 35 36  1  0  0  0  0
 35 37  1  0  0  0  0
 35 38  1  0  0  0  0
 38 39  1  0  0  0  0
 38 40  1  0  0  0  0
 38 41  1  0  0  0  0
 41 42  1  0  0  0  0
 41 43  1  0  0  0  0
 41 44  1  0  0  0  0
M  END
> <ChemID>
100289

> <source_casrn>
126-73-8

> <CAS>
126-73-8

> <SMILES>
O=P(OCCCC)(OCCCC)OCCCC

> <NAME>
TRIBUTYLPHOSPHATE

> <preferred_name>
Tributyl phosphate

> <iupac>
tributyl phosphate

> <MPID>
98220

> <dsstox_substance_id>
DTXSID3021986

> <Canonical_QSARr>
CCCCOP(=O)(OCCCC)OCCCC

> <InChI_Code_QSARr>
InChI=1S/C12H27O4P/c1-4-7-10-14-17(13,15-11-8-5-2)16-12-9-6-3/h4-12H2,1-3H3

> <InChI Key_QSARr>
STCOOQWBFONSKY-UHFFFAOYSA-N

> <Salt_Solvent>
?

> <LogBCF>
1.47

$$$$
100291
  -INDIGO-08031719362D

 11 10  0  0  0  0  0  0  0  0999 V2000
    2.7713    0.0000    0.0000 O   0  0  0  0  0  0  0  0  0  0  0  0
    4.1569    0.8000    0.0000 H   0  0  0  0  0  0  0  0  0  0  0  0
    1.3856    0.8000    0.0000 C   0  0  0  0  0  0  0  0  0  0  0  0
    0.0000    0.0000    0.0000 C   0  0  0  0  0  0  0  0  0  0  0  0
   -0.6123   -1.4782    0.0000 Cl  0  0  0  0  0  0  0  0  0  0  0  0
    0.6123   -1.4782    0.0000 Cl  0  0  0  0  0  0  0  0  0  0  0  0
   -1.3856    0.8000    0.0000 C   0  0  0  0  0  0  0  0  0  0  0  0
   -2.7713    1.6000    0.0000 H   0  0  0  0  0  0  0  0  0  0  0  0
   -2.7713    0.0000    0.0000 H   0  0  0  0  0  0  0  0  0  0  0  0
   -1.3856    2.4000    0.0000 H   0  0  0  0  0  0  0  0  0  0  0  0
    1.3856    2.4000    0.0000 O   0  0  0  0  0  0  0  0  0  0  0  0
  1  2  1  0  0  0  0
  1  3  1  0  0  0  0
  3  4  1  0  0  0  0
  4  5  1  0  0  0  0
  4  6  1  0  0  0  0
  4  7  1  0  0  0  0
  7  8  1  0  0  0  0
  7  9  1  0  0  0  0
  7 10  1  0  0  0  0
  3 11  2  0  0  0  0
M  END
> <ChemID>
100291

> <source_casrn>
127-20-8

> <CAS>
127-20-8

> <SMILES>
CC(Cl)(Cl)C(O[Na])=O

> <NAME>
DALAPON (SODIUM SALT)

> <preferred_name>
Dalapon-sodium

> <iupac>
sodium 2,2-dichloropropanoate

> <MPID>
98222

> <dsstox_substance_id>
DTXSID5024001

> <Canonical_QSARr>
CC(Cl)(Cl)C(O)=O

> <InChI_Code_QSARr>
InChI=1S/C3H4Cl2O2/c1-3(4,5)2(6)7/h1H3,(H,6,7)

> <InChI Key_QSARr>
NDUPDOJHUQKPAG-UHFFFAOYSA-N

> <Salt_Solvent>
[Na+]

> <LogBCF>
0.86

$$$$
100292
  -INDIGO-08031719362D

 52 54  0  0  0  0  0  0  0  0999 V2000
   -0.0001    0.0000    0.0000 C   0  0  0  0  0  0  0  0  0  0  0  0
    1.5999    0.0000    0.0000 C   0  0  0  0  0  0  0  0  0  0  0  0
    1.5094   -0.9718    0.0000 H   0  0  0  0  0  0  0  0  0  0  0  0
    2.4001    1.3857    0.0000 C   0  0  0  0  0  0  0  0  0  0  0  0
    4.0001    1.3857    0.0000 C   0  0  0  0  0  0  0  0  0  0  0  0
    4.8001    2.7712    0.0000 H   0  0  0  0  0  0  0  0  0  0  0  0
    4.8001    0.0000    0.0000 C   0  0  0  0  0  0  0  0  0  0  0  0
    4.0001   -1.3857    0.0000 C   0  0  0  0  0  0  0  0  0  0  0  0
    3.7222   -2.9613    0.0000 H   0  0  0  0  0  0  0  0  0  0  0  0
    5.5035   -1.9328    0.0000 H   0  0  0  0  0  0  0  0  0  0  0  0
    2.4001   -1.3857    0.0000 C   0  0  0  0  0  0  0  0  0  0  0  0
    0.8965   -1.9329    0.0000 H   0  0  0  0  0  0  0  0  0  0  0  0
    2.6778   -2.9613    0.0000 H   0  0  0  0  0  0  0  0  0  0  0  0
    6.0258    1.0285    0.0000 C   0  0  0  0  0  0  0  0  0  0  0  0
    5.7479    2.6042    0.0000 H   0  0  0  0  0  0  0  0  0  0  0  0
    7.5292    0.4813    0.0000 C   0  0  0  0  0  0  0  0  0  0  0  0
    8.7548    1.5097    0.0000 H   0  0  0  0  0  0  0  0  0  0  0  0
    7.8071   -1.0945    0.0000 H   0  0  0  0  0  0  0  0  0  0  0  0
    6.0258   -1.0284    0.0000 C   0  0  0  0  0  0  0  0  0  0  0  0
    7.2513   -2.0569    0.0000 H   0  0  0  0  0  0  0  0  0  0  0  0
    7.5292   -0.4813    0.0000 H   0  0  0  0  0  0  0  0  0  0  0  0
    5.7479   -2.6042    0.0000 H   0  0  0  0  0  0  0  0  0  0  0  0
    1.5999    2.7712    0.0000 C   0  0  0  0  0  0  0  0  0  0  0  0
    3.1035    3.3185    0.0000 H   0  0  0  0  0  0  0  0  0  0  0  0
    1.3222    4.3470    0.0000 H   0  0  0  0  0  0  0  0  0  0  0  0
   -0.0001    2.7712    0.0000 C   0  0  0  0  0  0  0  0  0  0  0  0
    0.2778    4.3470    0.0000 H   0  0  0  0  0  0  0  0  0  0  0  0
   -0.4593    3.3185    0.0000 H   0  0  0  0  0  0  0  0  0  0  0  0
   -0.8001    1.3857    0.0000 C   0  0  0  0  0  0  0  0  0  0  0  0
   -1.6001    2.7712    0.0000 H   0  0  0  0  0  0  0  0  0  0  0  0
   -2.4000    1.3857    0.0000 C   0  0  0  0  0  0  0  0  0  0  0  0
   -2.1221    2.9613    0.0000 C   0  0  0  0  0  0  0  0  0  0  0  0
   -1.5035    3.3185    0.0000 O   0  0  0  0  0  0  0  0  0  0  0  0
   -3.3478    3.9898    0.0000 O   0  0  0  0  0  0  0  0  0  0  0  0
   -3.0699    5.5655    0.0000 H   0  0  0  0  0  0  0  0  0  0  0  0
   -3.9034    1.9329    0.0000 C   0  0  0  0  0  0  0  0  0  0  0  0
   -5.4070    2.4802    0.0000 H   0  0  0  0  0  0  0  0  0  0  0  0
   -4.1813    3.5086    0.0000 H   0  0  0  0  0  0  0  0  0  0  0  0
   -5.1291    0.9044    0.0000 H   0  0  0  0  0  0  0  0  0  0  0  0
   -3.2000    0.0000    0.0000 C   0  0  0  0  0  0  0  0  0  0  0  0
   -4.4257    1.0285    0.0000 H   0  0  0  0  0  0  0  0  0  0  0  0
   -4.4257   -1.0284    0.0000 H   0  0  0  0  0  0  0  0  0  0  0  0
   -2.4000   -1.3857    0.0000 C   0  0  0  0  0  0  0  0  0  0  0  0
   -3.9034   -1.9329    0.0000 H   0  0  0  0  0  0  0  0  0  0  0  0
   -2.1221   -2.9613    0.0000 H   0  0  0  0  0  0  0  0  0  0  0  0
   -0.8001   -1.3857    0.0000 C   0  0  0  0  0  0  0  0  0  0  0  0
   -1.0777   -2.9613    0.0000 H   0  0  0  0  0  0  0  0  0  0  0  0
   -0.1358   -1.9938    0.0000 H   0  0  0  0  0  0  0  0  0  0  0  0
    0.4114   -0.4903    0.0000 C   0  0  0  0  0  0  0  0  0  0  0  0
    0.7999   -1.3857    0.0000 H   0  0  0  0  0  0  0  0  0  0  0  0
    0.5901   -1.3728    0.0000 H   0  0  0  0  0  0  0  0  0  0  0  0
   -1.1644   -0.7681    0.0000 H   0  0  0  0  0  0  0  0  0  0  0  0
  1  2  1  0  0  0  0
  2  3  1  0  0  0  0
  2  4  1  0  0  0  0
  4  5  2  0  0  0  0
  5  6  1  0  0  0  0
  5  7  1  0  0  0  0
  7  8  1  0  0  0  0
  8  9  1  0  0  0  0
  8 10  1  0  0  0  0
  8 11  1  0  0  0  0
 11  2  1  0  0  0  0
 11 12  1  0  0  0  0
 11 13  1  0  0  0  0
  7 14  1  0  0  0  0
 14 15  1  0  0  0  0
 14 16  2  0  0  0  0
 16 17  1  0  0  0  0
 16 18  1  0  0  0  0
  7 19  1  0  0  0  0
 19 20  1  0  0  0  0
 19 21  1  0  0  0  0
 19 22  1  0  0  0  0
  4 23  1  0  0  0  0
 23 24  1  0  0  0  0
 23 25  1  0  0  0  0
 23 26  1  0  0  0  0
 26 27  1  0  0  0  0
 26 28  1  0  0  0  0
 26 29  1  0  0  0  0
 29  1  1  0  0  0  0
 29 30  1  0  0  0  0
 29 31  1  0  0  0  0
 31 32  1  0  0  0  0
 32 33  2  0  0  0  0
 32 34  1  0  0  0  0
 34 35  1  0  0  0  0
 31 36  1  0  0  0  0
 36 37  1  0  0  0  0
 36 38  1  0  0  0  0
 36 39  1  0  0  0  0
 31 40  1  0  0  0  0
 40 41  1  0  0  0  0
 40 42  1  0  0  0  0
 40 43  1  0  0  0  0
 43 44  1  0  0  0  0
 43 45  1  0  0  0  0
 43 46  1  0  0  0  0
 46  1  1  0  0  0  0
 46 47  1  0  0  0  0
 46 48  1  0  0  0  0
  1 49  1  0  0  0  0
 49 50  1  0  0  0  0
 49 51  1  0  0  0  0
 49 52  1  0  0  0  0
M  END
> <ChemID>
100292

> <source_casrn>
127-27-5

> <CAS>
127-27-5

> <SMILES>
C[C@]12CCC[C@](C)([C@@H]1CCC1=C[C@@](C)(CC[C@H]21)C=C)C(O)=O

> <NAME>
Pimaric acid

> <preferred_name>
alpha-Pimaricacid

> <iupac>
C20H30O2

> <MPID>
98223

> <dsstox_substance_id>
DTXSID80858728

> <Canonical_QSARr>
CC12CCCC(C)(C1CCC1=CC(C)(CCC21)C=C)C(O)=O

> <InChI_Code_QSARr>
InChI=1S/C20H30O2/c1-5-18(2)12-9-15-14(13-18)7-8-16-19(15,3)10-6-11-20(16,4)17(21)22/h5,13,15-16H,1,6-12H2,2-4H3,(H,21,22)

> <InChI Key_QSARr>
MHVJRKBZMUDEEV-UHFFFAOYSA-N

> <Salt_Solvent>
?

> <LogBCF>
1.92

$$$$
100293
  -INDIGO-08031719362D

 18 18  0  0  0  0  0  0  0  0999 V2000
    2.7713    1.6000    0.0000 O   0  0  0  0  0  0  0  0  0  0  0  0
    4.1569    0.8000    0.0000 H   0  0  0  0  0  0  0  0  0  0  0  0
    1.3857    0.8000    0.0000 S   0  0  0  0  0  0  0  0  0  0  0  0
    0.0001   -0.0000    0.0000 C   0  0  0  0  0  0  0  0  0  0  0  0
    0.0001   -1.6000    0.0000 C   0  0  0  0  0  0  0  0  0  0  0  0
    1.3857   -2.4000    0.0000 H   0  0  0  0  0  0  0  0  0  0  0  0
   -1.3857   -2.4000    0.0000 C   0  0  0  0  0  0  0  0  0  0  0  0
   -1.3857   -4.0000    0.0000 H   0  0  0  0  0  0  0  0  0  0  0  0
   -2.7713   -1.6000    0.0000 C   0  0  0  0  0  0  0  0  0  0  0  0
   -4.1569   -2.4000    0.0000 H   0  0  0  0  0  0  0  0  0  0  0  0
   -2.7713   -0.0000    0.0000 C   0  0  0  0  0  0  0  0  0  0  0  0
   -4.1569    0.8000    0.0000 N   0  0  0  0  0  0  0  0  0  0  0  0
   -5.5426   -0.0000    0.0000 O   0  0  0  0  0  0  0  0  0  0  0  0
   -4.1569    2.4000    0.0000 O   0  0  0  0  0  0  0  0  0  0  0  0
   -1.3857    0.8000    0.0000 C   0  0  0  0  0  0  0  0  0  0  0  0
   -1.3857    2.4000    0.0000 H   0  0  0  0  0  0  0  0  0  0  0  0
    2.1856   -0.5856    0.0000 O   0  0  0  0  0  0  0  0  0  0  0  0
    0.5856    2.1856    0.0000 O   0  0  0  0  0  0  0  0  0  0  0  0
  1  2  1  0  0  0  0
  1  3  1  0  0  0  0
  3  4  1  0  0  0  0
  4  5  1  0  0  0  0
  5  6  1  0  0  0  0
  5  7  2  0  0  0  0
  7  8  1  0  0  0  0
  7  9  1  0  0  0  0
  9 10  1  0  0  0  0
  9 11  2  0  0  0  0
 11 12  1  0  0  0  0
 12 13  1  0  0  0  0
 12 14  2  0  0  0  0
 11 15  1  0  0  0  0
 15  4  2  0  0  0  0
 15 16  1  0  0  0  0
  3 17  2  0  0  0  0
  3 18  2  0  0  0  0
M  CHG  2  12   1  13  -1
M  END
> <ChemID>
100293

> <source_casrn>
127-68-4

> <CAS>
127-68-4

> <SMILES>
[Na]OS(=O)(=O)c1cccc(c1)N(=O)=O

> <NAME>
M-NITROBENZENESULFONIC ACID, SODIUM SALT

> <preferred_name>
Sodium 3-nitrobenzenesulfonate

> <iupac>
sodium 3-nitrobenzenesulfonate

> <MPID>
98224

> <dsstox_substance_id>
DTXSID2027048

> <Canonical_QSARr>
[O-][N+](=O)c1cc(ccc1)S(O)(=O)=O

> <InChI_Code_QSARr>
InChI=1S/C6H5NO5S/c8-7(9)5-2-1-3-6(4-5)13(10,11)12/h1-4H,(H,10,11,12)

> <InChI Key_QSARr>
ONMOULMPIIOVTQ-UHFFFAOYSA-N

> <Salt_Solvent>
[Na+]

> <LogBCF>
0.7

$$$$
100294
  -INDIGO-08031719362D

 21 20  0  0  0  0  0  0  0  0999 V2000
   -4.1569    0.8000    0.0000 C   0  0  0  0  0  0  0  0  0  0  0  0
   -3.5447    2.2782    0.0000 H   0  0  0  0  0  0  0  0  0  0  0  0
   -4.7692    2.2782    0.0000 H   0  0  0  0  0  0  0  0  0  0  0  0
   -5.5425    0.0000    0.0000 C   0  0  0  0  0  0  0  0  0  0  0  0
   -6.1548   -1.4782    0.0000 H   0  0  0  0  0  0  0  0  0  0  0  0
   -6.9282    0.8000    0.0000 C   0  0  0  0  0  0  0  0  0  0  0  0
   -8.3138    1.6000    0.0000 Cl  0  0  0  0  0  0  0  0  0  0  0  0
   -8.3138    0.0000    0.0000 Cl  0  0  0  0  0  0  0  0  0  0  0  0
   -6.9282    2.4000    0.0000 Cl  0  0  0  0  0  0  0  0  0  0  0  0
   -4.9302   -1.4782    0.0000 Cl  0  0  0  0  0  0  0  0  0  0  0  0
   -2.7712    0.0000    0.0000 O   0  0  0  0  0  0  0  0  0  0  0  0
   -1.3857    0.8000    0.0000 C   0  0  0  0  0  0  0  0  0  0  0  0
   -0.7734    2.2782    0.0000 H   0  0  0  0  0  0  0  0  0  0  0  0
   -1.9979    2.2782    0.0000 H   0  0  0  0  0  0  0  0  0  0  0  0
   -0.0000    0.0000    0.0000 C   0  0  0  0  0  0  0  0  0  0  0  0
   -0.6124   -1.4782    0.0000 H   0  0  0  0  0  0  0  0  0  0  0  0
    1.3856    0.8000    0.0000 C   0  0  0  0  0  0  0  0  0  0  0  0
    2.7713    1.6000    0.0000 Cl  0  0  0  0  0  0  0  0  0  0  0  0
    2.7713    0.0000    0.0000 Cl  0  0  0  0  0  0  0  0  0  0  0  0
    1.3856    2.4000    0.0000 Cl  0  0  0  0  0  0  0  0  0  0  0  0
    0.6123   -1.4782    0.0000 Cl  0  0  0  0  0  0  0  0  0  0  0  0
  1  2  1  0  0  0  0
  1  3  1  0  0  0  0
  1  4  1  0  0  0  0
  4  5  1  0  0  0  0
  4  6  1  0  0  0  0
  6  7  1  0  0  0  0
  6  8  1  0  0  0  0
  6  9  1  0  0  0  0
  4 10  1  0  0  0  0
  1 11  1  0  0  0  0
 11 12  1  0  0  0  0
 12 13  1  0  0  0  0
 12 14  1  0  0  0  0
 12 15  1  0  0  0  0
 15 16  1  0  0  0  0
 15 17  1  0  0  0  0
 17 18  1  0  0  0  0
 17 19  1  0  0  0  0
 17 20  1  0  0  0  0
 15 21  1  0  0  0  0
M  END
> <ChemID>
100294

> <source_casrn>
127-90-2

> <CAS>
NOCAS_861778

> <SMILES>
C(Cl)(Cl)(Cl)C(Cl)COCC(Cl)C(Cl)(Cl)Cl

> <NAME>
1,1'-Oxybis[2,3,3,3-tetrachloropropane]

> <preferred_name>


> <iupac>


> <MPID>
98225

> <dsstox_substance_id>
DTXSID40861778

> <Canonical_QSARr>
ClC(Cl)(Cl)C(Cl)COCC(Cl)C(Cl)(Cl)Cl

> <InChI_Code_QSARr>
InChI=1S/C6H6Cl8O/c7-3(5(9,10)11)1-15-2-4(8)6(12,13)14/h3-4H,1-2H2

> <InChI Key_QSARr>
LNJXZKBHJZAIKQ-UHFFFAOYSA-N

> <Salt_Solvent>
?

> <LogBCF>
3.28

$$$$
100295
  -INDIGO-08031719362D

 40 40  0  0  0  0  0  0  0  0999 V2000
    2.7713    1.6000    0.0000 O   0  0  0  0  0  0  0  0  0  0  0  0
    4.1568    2.4000    0.0000 H   0  0  0  0  0  0  0  0  0  0  0  0
    2.7713    0.0000    0.0000 C   0  0  0  0  0  0  0  0  0  0  0  0
    4.1568   -0.8000    0.0000 C   0  0  0  0  0  0  0  0  0  0  0  0
    5.5425    0.0000    0.0000 C   0  0  0  0  0  0  0  0  0  0  0  0
    7.0461    0.5473    0.0000 C   0  0  0  0  0  0  0  0  0  0  0  0
    8.5496    1.0944    0.0000 H   0  0  0  0  0  0  0  0  0  0  0  0
    7.5933    2.0507    0.0000 H   0  0  0  0  0  0  0  0  0  0  0  0
    8.4318   -0.2527    0.0000 H   0  0  0  0  0  0  0  0  0  0  0  0
    6.0897   -1.5035    0.0000 C   0  0  0  0  0  0  0  0  0  0  0  0
    6.6371   -3.0069    0.0000 H   0  0  0  0  0  0  0  0  0  0  0  0
    7.6655   -1.7813    0.0000 H   0  0  0  0  0  0  0  0  0  0  0  0
    7.3154   -0.4750    0.0000 H   0  0  0  0  0  0  0  0  0  0  0  0
    4.9953    1.5035    0.0000 C   0  0  0  0  0  0  0  0  0  0  0  0
    5.7953    2.8891    0.0000 H   0  0  0  0  0  0  0  0  0  0  0  0
    6.5954    1.5035    0.0000 H   0  0  0  0  0  0  0  0  0  0  0  0
    3.9669    0.2778    0.0000 H   0  0  0  0  0  0  0  0  0  0  0  0
    4.1568   -2.4000    0.0000 C   0  0  0  0  0  0  0  0  0  0  0  0
    5.5425   -3.2000    0.0000 H   0  0  0  0  0  0  0  0  0  0  0  0
    2.7713   -3.2000    0.0000 C   0  0  0  0  0  0  0  0  0  0  0  0
    2.7713   -4.8000    0.0000 C   0  0  0  0  0  0  0  0  0  0  0  0
    2.7713   -6.4000    0.0000 H   0  0  0  0  0  0  0  0  0  0  0  0
    1.3856   -5.6000    0.0000 H   0  0  0  0  0  0  0  0  0  0  0  0
    4.1568   -5.6000    0.0000 H   0  0  0  0  0  0  0  0  0  0  0  0
    1.3856   -2.4000    0.0000 C   0  0  0  0  0  0  0  0  0  0  0  0
    0.0001   -3.2000    0.0000 H   0  0  0  0  0  0  0  0  0  0  0  0
    1.3856   -0.8000    0.0000 C   0  0  0  0  0  0  0  0  0  0  0  0
    0.0001    0.0000    0.0000 C   0  0  0  0  0  0  0  0  0  0  0  0
   -1.3856    0.8000    0.0000 C   0  0  0  0  0  0  0  0  0  0  0  0
   -2.7713    1.6000    0.0000 H   0  0  0  0  0  0  0  0  0  0  0  0
   -2.8891    0.2527    0.0000 H   0  0  0  0  0  0  0  0  0  0  0  0
   -1.6635    2.3758    0.0000 H   0  0  0  0  0  0  0  0  0  0  0  0
   -0.8000   -1.3857    0.0000 C   0  0  0  0  0  0  0  0  0  0  0  0
   -1.3472   -2.8892    0.0000 H   0  0  0  0  0  0  0  0  0  0  0  0
   -2.3756   -1.6635    0.0000 H   0  0  0  0  0  0  0  0  0  0  0  0
   -1.8284   -0.1600    0.0000 H   0  0  0  0  0  0  0  0  0  0  0  0
    0.8000    1.3857    0.0000 C   0  0  0  0  0  0  0  0  0  0  0  0
    1.8284    2.6113    0.0000 H   0  0  0  0  0  0  0  0  0  0  0  0
    0.2528    2.8891    0.0000 H   0  0  0  0  0  0  0  0  0  0  0  0
   -0.7758    1.6635    0.0000 H   0  0  0  0  0  0  0  0  0  0  0  0
  1  2  1  0  0  0  0
  1  3  1  0  0  0  0
  3  4  1  0  0  0  0
  4  5  1  0  0  0  0
  5  6  1  0  0  0  0
  6  7  1  0  0  0  0
  6  8  1  0  0  0  0
  6  9  1  0  0  0  0
  5 10  1  0  0  0  0
 10 11  1  0  0  0  0
 10 12  1  0  0  0  0
 10 13  1  0  0  0  0
  5 14  1  0  0  0  0
 14 15  1  0  0  0  0
 14 16  1  0  0  0  0
 14 17  1  0  0  0  0
  4 18  2  0  0  0  0
 18 19  1  0  0  0  0
 18 20  1  0  0  0  0
 20 21  1  0  0  0  0
 21 22  1  0  0  0  0
 21 23  1  0  0  0  0
 21 24  1  0  0  0  0
 20 25  2  0  0  0  0
 25 26  1  0  0  0  0
 25 27  1  0  0  0  0
 27  3  2  0  0  0  0
 27 28  1  0  0  0  0
 28 29  1  0  0  0  0
 29 30  1  0  0  0  0
 29 31  1  0  0  0  0
 29 32  1  0  0  0  0
 28 33  1  0  0  0  0
 33 34  1  0  0  0  0
 33 35  1  0  0  0  0
 33 36  1  0  0  0  0
 28 37  1  0  0  0  0
 37 38  1  0  0  0  0
 37 39  1  0  0  0  0
 37 40  1  0  0  0  0
M  END
> <ChemID>
100295

> <source_casrn>
128-37-0

> <CAS>
128-37-0

> <SMILES>
Oc(c(cc(c1)C)C(C)(C)C)c1C(C)(C)C

> <NAME>
2,6-DI-T-BUTYL-4-METHYLPHENOL (BHT)

> <preferred_name>
Butylated hydroxytoluene

> <iupac>
2,6-di-tert-butyl-4-methylphenol

> <MPID>
98226

> <dsstox_substance_id>
DTXSID2020216

> <Canonical_QSARr>
Cc1cc(c(O)c(c1)C(C)(C)C)C(C)(C)C

> <InChI_Code_QSARr>
InChI=1S/C15H24O/c1-10-8-11(14(2,3)4)13(16)12(9-10)15(5,6)7/h8-9,16H,1-7H3

> <InChI Key_QSARr>
NLZUEZXRPGMBCV-UHFFFAOYSA-N

> <Salt_Solvent>
?

> <LogBCF>
3.03

$$$$
100297
  -INDIGO-08031719362D

 25 27  0  0  0  0  0  0  0  0999 V2000
    1.3857    2.4000    0.0000 O   0  0  0  0  0  0  0  0  0  0  0  0
    1.3857    0.8000    0.0000 C   0  0  0  0  0  0  0  0  0  0  0  0
    0.0001   -0.0000    0.0000 C   0  0  0  0  0  0  0  0  0  0  0  0
    0.0001   -1.6000    0.0000 C   0  0  0  0  0  0  0  0  0  0  0  0
   -1.3856   -2.4000    0.0000 C   0  0  0  0  0  0  0  0  0  0  0  0
   -1.3856   -4.0000    0.0000 H   0  0  0  0  0  0  0  0  0  0  0  0
   -2.7713   -1.6000    0.0000 C   0  0  0  0  0  0  0  0  0  0  0  0
   -4.1569   -2.4000    0.0000 H   0  0  0  0  0  0  0  0  0  0  0  0
   -2.7713   -0.0000    0.0000 C   0  0  0  0  0  0  0  0  0  0  0  0
   -4.1569    0.8000    0.0000 H   0  0  0  0  0  0  0  0  0  0  0  0
   -1.3856    0.8000    0.0000 C   0  0  0  0  0  0  0  0  0  0  0  0
   -1.3856    2.4000    0.0000 O   0  0  0  0  0  0  0  0  0  0  0  0
   -2.7713    3.2000    0.0000 H   0  0  0  0  0  0  0  0  0  0  0  0
    1.3857   -2.4000    0.0000 C   0  0  0  0  0  0  0  0  0  0  0  0
    1.3857   -4.0000    0.0000 O   0  0  0  0  0  0  0  0  0  0  0  0
    2.7712   -1.6000    0.0000 C   0  0  0  0  0  0  0  0  0  0  0  0
    2.7712   -0.0000    0.0000 C   0  0  0  0  0  0  0  0  0  0  0  0
    4.1569    0.8000    0.0000 C   0  0  0  0  0  0  0  0  0  0  0  0
    4.1569    2.4000    0.0000 H   0  0  0  0  0  0  0  0  0  0  0  0
    5.5425   -0.0000    0.0000 C   0  0  0  0  0  0  0  0  0  0  0  0
    6.9282    0.8000    0.0000 H   0  0  0  0  0  0  0  0  0  0  0  0
    5.5425   -1.6000    0.0000 C   0  0  0  0  0  0  0  0  0  0  0  0
    6.9282   -2.4000    0.0000 H   0  0  0  0  0  0  0  0  0  0  0  0
    4.1569   -2.4000    0.0000 C   0  0  0  0  0  0  0  0  0  0  0  0
    4.1569   -4.0000    0.0000 H   0  0  0  0  0  0  0  0  0  0  0  0
  1  2  2  0  0  0  0
  2  3  1  0  0  0  0
  3  4  1  0  0  0  0
  4  5  2  0  0  0  0
  5  6  1  0  0  0  0
  5  7  1  0  0  0  0
  7  8  1  0  0  0  0
  7  9  2  0  0  0  0
  9 10  1  0  0  0  0
  9 11  1  0  0  0  0
 11  3  2  0  0  0  0
 11 12  1  0  0  0  0
 12 13  1  0  0  0  0
  4 14  1  0  0  0  0
 14 15  2  0  0  0  0
 14 16  1  0  0  0  0
 16 17  1  0  0  0  0
 17  2  1  0  0  0  0
 17 18  2  0  0  0  0
 18 19  1  0  0  0  0
 18 20  1  0  0  0  0
 20 21  1  0  0  0  0
 20 22  2  0  0  0  0
 22 23  1  0  0  0  0
 22 24  1  0  0  0  0
 24 16  2  0  0  0  0
 24 25  1  0  0  0  0
M  END
> <ChemID>
100297

> <source_casrn>
129-43-1

> <CAS>
129-43-1

> <SMILES>
Oc1cccc2c1C(=O)c1ccccc1C2=O

> <NAME>
1-HYDROXYANTHRAQUINONE

> <preferred_name>
1-Hydroxyanthraquinone

> <iupac>
1-hydroxyanthracene-9,10-dione

> <MPID>
98228

> <dsstox_substance_id>
DTXSID1020722

> <Canonical_QSARr>
Oc1cccc2c1C(=O)c1ccccc1C2=O

> <InChI_Code_QSARr>
InChI=1S/C14H8O3/c15-11-7-3-6-10-12(11)14(17)9-5-2-1-4-8(9)13(10)16/h1-7,15H

> <InChI Key_QSARr>
BTLXPCBPYBNQNR-UHFFFAOYSA-N

> <Salt_Solvent>
?

> <LogBCF>
2.25

$$$$
100299
  -INDIGO-08031719362D

 24 26  0  0  0  0  0  0  0  0999 V2000
    2.7713   -0.0000    0.0000 C   0  0  0  0  0  0  0  0  0  0  0  0
    4.1569    0.8000    0.0000 H   0  0  0  0  0  0  0  0  0  0  0  0
    2.7713   -1.6000    0.0000 C   0  0  0  0  0  0  0  0  0  0  0  0
    4.1569   -2.4000    0.0000 H   0  0  0  0  0  0  0  0  0  0  0  0
    1.3856   -2.4000    0.0000 C   0  0  0  0  0  0  0  0  0  0  0  0
    1.3856   -4.0000    0.0000 H   0  0  0  0  0  0  0  0  0  0  0  0
   -0.0001   -1.6000    0.0000 C   0  0  0  0  0  0  0  0  0  0  0  0
   -0.0001   -0.0000    0.0000 C   0  0  0  0  0  0  0  0  0  0  0  0
   -1.3857    0.8000    0.0000 C   0  0  0  0  0  0  0  0  0  0  0  0
   -2.7712   -0.0000    0.0000 C   0  0  0  0  0  0  0  0  0  0  0  0
   -4.1569    0.8000    0.0000 C   0  0  0  0  0  0  0  0  0  0  0  0
   -4.1569    2.4000    0.0000 H   0  0  0  0  0  0  0  0  0  0  0  0
   -5.5425   -0.0000    0.0000 C   0  0  0  0  0  0  0  0  0  0  0  0
   -6.9282    0.8000    0.0000 H   0  0  0  0  0  0  0  0  0  0  0  0
   -5.5425   -1.6000    0.0000 C   0  0  0  0  0  0  0  0  0  0  0  0
   -6.9282   -2.4000    0.0000 Cl  0  0  0  0  0  0  0  0  0  0  0  0
   -4.1569   -2.4000    0.0000 C   0  0  0  0  0  0  0  0  0  0  0  0
   -4.1569   -4.0000    0.0000 H   0  0  0  0  0  0  0  0  0  0  0  0
   -2.7712   -1.6000    0.0000 C   0  0  0  0  0  0  0  0  0  0  0  0
   -1.3857   -2.4000    0.0000 C   0  0  0  0  0  0  0  0  0  0  0  0
   -1.3857   -4.0000    0.0000 O   0  0  0  0  0  0  0  0  0  0  0  0
   -1.3856    2.4000    0.0000 O   0  0  0  0  0  0  0  0  0  0  0  0
    1.3856    0.8000    0.0000 C   0  0  0  0  0  0  0  0  0  0  0  0
    1.3856    2.4000    0.0000 H   0  0  0  0  0  0  0  0  0  0  0  0
  1  2  1  0  0  0  0
  1  3  1  0  0  0  0
  3  4  1  0  0  0  0
  3  5  2  0  0  0  0
  5  6  1  0  0  0  0
  5  7  1  0  0  0  0
  7  8  2  0  0  0  0
  8  9  1  0  0  0  0
  9 10  1  0  0  0  0
 10 11  1  0  0  0  0
 11 12  1  0  0  0  0
 11 13  2  0  0  0  0
 13 14  1  0  0  0  0
 13 15  1  0  0  0  0
 15 16  1  0  0  0  0
 15 17  2  0  0  0  0
 17 18  1  0  0  0  0
 17 19  1  0  0  0  0
 19 10  2  0  0  0  0
 19 20  1  0  0  0  0
 20  7  1  0  0  0  0
 20 21  2  0  0  0  0
  9 22  2  0  0  0  0
  8 23  1  0  0  0  0
 23  1  2  0  0  0  0
 23 24  1  0  0  0  0
M  END
> <ChemID>
100299

> <source_casrn>
131-09-9

> <CAS>
131-09-9

> <SMILES>
O=C1c2cc(Cl)ccc2C(=O)c2ccccc12

> <NAME>
9,10-Anthracenedione, 2-chloro-

> <preferred_name>
2-Chloroanthraquinone

> <iupac>
2-chloroanthracene-9,10-dione

> <MPID>
98230

> <dsstox_substance_id>
DTXSID7049213

> <Canonical_QSARr>
O=C1c2cc(Cl)ccc2C(=O)c2ccccc12

> <InChI_Code_QSARr>
InChI=1S/C14H7ClO2/c15-8-5-6-11-12(7-8)14(17)10-4-2-1-3-9(10)13(11)16/h1-7H

> <InChI Key_QSARr>
FPKCTSIVDAWGFA-UHFFFAOYSA-N

> <Salt_Solvent>
?

> <LogBCF>
2.28

$$$$
100300
  -INDIGO-08031719362D

 13 13  0  0  0  0  0  0  0  0999 V2000
    0.8000    1.3856    0.0000 O   0  0  0  0  0  0  0  0  0  0  0  0
    2.4000    1.3856    0.0000 H   0  0  0  0  0  0  0  0  0  0  0  0
   -0.0000   -0.0000    0.0000 C   0  0  0  0  0  0  0  0  0  0  0  0
    0.8000   -1.3857    0.0000 C   0  0  0  0  0  0  0  0  0  0  0  0
    2.4000   -1.3857    0.0000 Cl  0  0  0  0  0  0  0  0  0  0  0  0
   -0.0000   -2.7713    0.0000 C   0  0  0  0  0  0  0  0  0  0  0  0
    0.8000   -4.1569    0.0000 Cl  0  0  0  0  0  0  0  0  0  0  0  0
   -1.6000   -2.7713    0.0000 C   0  0  0  0  0  0  0  0  0  0  0  0
   -2.4000   -4.1569    0.0000 Cl  0  0  0  0  0  0  0  0  0  0  0  0
   -2.4000   -1.3856    0.0000 C   0  0  0  0  0  0  0  0  0  0  0  0
   -4.0000   -1.3856    0.0000 Cl  0  0  0  0  0  0  0  0  0  0  0  0
   -1.6000   -0.0000    0.0000 C   0  0  0  0  0  0  0  0  0  0  0  0
   -2.4000    1.3856    0.0000 Cl  0  0  0  0  0  0  0  0  0  0  0  0
  1  2  1  0  0  0  0
  1  3  1  0  0  0  0
  3  4  1  0  0  0  0
  4  5  1  0  0  0  0
  4  6  2  0  0  0  0
  6  7  1  0  0  0  0
  6  8  1  0  0  0  0
  8  9  1  0  0  0  0
  8 10  2  0  0  0  0
 10 11  1  0  0  0  0
 10 12  1  0  0  0  0
 12  3  2  0  0  0  0
 12 13  1  0  0  0  0
M  END
> <ChemID>
100300

> <source_casrn>
131-52-2

> <CAS>
131-52-2

> <SMILES>
[Na]Oc1c(Cl)c(Cl)c(Cl)c(Cl)c1Cl

> <NAME>
PENTACHLOROPHENOL, NA SALT

> <preferred_name>
Sodium pentachlorophenate

> <iupac>
sodium pentachlorophenolate

> <MPID>
98231

> <dsstox_substance_id>
DTXSID4040264

> <Canonical_QSARr>
Oc1c(Cl)c(Cl)c(Cl)c(Cl)c1Cl

> <InChI_Code_QSARr>
InChI=1S/C6HCl5O/c7-1-2(8)4(10)6(12)5(11)3(1)9/h12H

> <InChI Key_QSARr>
IZUPBVBPLAPZRR-UHFFFAOYSA-N

> <Salt_Solvent>
[Na+]

> <LogBCF>
2.78

$$$$
100301
  -INDIGO-08031719362D

 29 30  0  0  0  0  0  0  0  0999 V2000
   -0.0000   -0.0000    0.0000 C   0  0  0  0  0  0  0  0  0  0  0  0
    1.3856    0.8000    0.0000 C   0  0  0  0  0  0  0  0  0  0  0  0
    1.1078    2.3757    0.0000 O   0  0  0  0  0  0  0  0  0  0  0  0
    2.9613    0.5221    0.0000 C   0  0  0  0  0  0  0  0  0  0  0  0
    3.5086   -0.9814    0.0000 C   0  0  0  0  0  0  0  0  0  0  0  0
    2.4800   -2.2070    0.0000 H   0  0  0  0  0  0  0  0  0  0  0  0
    5.0842   -1.2592    0.0000 C   0  0  0  0  0  0  0  0  0  0  0  0
    5.6315   -2.7627    0.0000 H   0  0  0  0  0  0  0  0  0  0  0  0
    6.1126   -0.0335    0.0000 C   0  0  0  0  0  0  0  0  0  0  0  0
    7.6884   -0.3113    0.0000 H   0  0  0  0  0  0  0  0  0  0  0  0
    5.5655    1.4700    0.0000 C   0  0  0  0  0  0  0  0  0  0  0  0
    6.5940    2.6957    0.0000 H   0  0  0  0  0  0  0  0  0  0  0  0
    3.9898    1.7478    0.0000 C   0  0  0  0  0  0  0  0  0  0  0  0
    3.4426    3.2513    0.0000 H   0  0  0  0  0  0  0  0  0  0  0  0
   -1.3856    0.8000    0.0000 C   0  0  0  0  0  0  0  0  0  0  0  0
   -1.3856    2.4000    0.0000 O   0  0  0  0  0  0  0  0  0  0  0  0
   -2.7712    3.2000    0.0000 H   0  0  0  0  0  0  0  0  0  0  0  0
   -2.7712   -0.0000    0.0000 C   0  0  0  0  0  0  0  0  0  0  0  0
   -4.1570    0.8000    0.0000 H   0  0  0  0  0  0  0  0  0  0  0  0
   -2.7712   -1.6000    0.0000 C   0  0  0  0  0  0  0  0  0  0  0  0
   -4.1570   -2.4000    0.0000 O   0  0  0  0  0  0  0  0  0  0  0  0
   -4.1570   -4.0000    0.0000 C   0  0  0  0  0  0  0  0  0  0  0  0
   -5.5426   -4.8000    0.0000 H   0  0  0  0  0  0  0  0  0  0  0  0
   -4.1570   -5.6000    0.0000 H   0  0  0  0  0  0  0  0  0  0  0  0
   -5.5426   -3.1999    0.0000 H   0  0  0  0  0  0  0  0  0  0  0  0
   -1.3856   -2.4000    0.0000 C   0  0  0  0  0  0  0  0  0  0  0  0
   -1.3856   -4.0000    0.0000 H   0  0  0  0  0  0  0  0  0  0  0  0
   -0.0000   -1.6000    0.0000 C   0  0  0  0  0  0  0  0  0  0  0  0
    1.3856   -2.4000    0.0000 H   0  0  0  0  0  0  0  0  0  0  0  0
  1  2  1  0  0  0  0
  2  3  2  0  0  0  0
  2  4  1  0  0  0  0
  4  5  1  0  0  0  0
  5  6  1  0  0  0  0
  5  7  2  0  0  0  0
  7  8  1  0  0  0  0
  7  9  1  0  0  0  0
  9 10  1  0  0  0  0
  9 11  2  0  0  0  0
 11 12  1  0  0  0  0
 11 13  1  0  0  0  0
 13  4  2  0  0  0  0
 13 14  1  0  0  0  0
  1 15  1  0  0  0  0
 15 16  1  0  0  0  0
 16 17  1  0  0  0  0
 15 18  2  0  0  0  0
 18 19  1  0  0  0  0
 18 20  1  0  0  0  0
 20 21  1  0  0  0  0
 21 22  1  0  0  0  0
 22 23  1  0  0  0  0
 22 24  1  0  0  0  0
 22 25  1  0  0  0  0
 20 26  2  0  0  0  0
 26 27  1  0  0  0  0
 26 28  1  0  0  0  0
 28  1  2  0  0  0  0
 28 29  1  0  0  0  0
M  END
> <ChemID>
100301

> <source_casrn>
131-57-7

> <CAS>
131-57-7

> <SMILES>
COc1cc(O)c(cc1)C(=O)c1ccccc1

> <NAME>
OXYBENZONE

> <preferred_name>
2-Hydroxy-4-methoxybenzophenone

> <iupac>
(2-hydroxy-4-methoxyphenyl)(phenyl)methanone

> <MPID>
98232

> <dsstox_substance_id>
DTXSID3022405

> <Canonical_QSARr>
COc1cc(O)c(cc1)C(=O)c1ccccc1

> <InChI_Code_QSARr>
InChI=1S/C14H12O3/c1-17-11-7-8-12(13(15)9-11)14(16)10-5-3-2-4-6-10/h2-9,15H,1H3

> <InChI Key_QSARr>
DXGLGDHPHMLXJC-UHFFFAOYSA-N

> <Salt_Solvent>
?

> <LogBCF>
1.97

$$$$
100303
  -INDIGO-08031719362D

 21 23  0  0  0  0  0  0  0  0999 V2000
   -0.8000    1.3856    0.0000 C   0  0  0  0  0  0  0  0  0  0  0  0
    0.2707    2.5747    0.0000 S   0  0  0  0  0  0  0  0  0  0  0  0
    1.7322    1.9239    0.0000 C   0  0  0  0  0  0  0  0  0  0  0  0
    1.5651    0.3327    0.0000 C   0  0  0  0  0  0  0  0  0  0  0  0
    2.8595   -0.6078    0.0000 C   0  0  0  0  0  0  0  0  0  0  0  0
    2.6921   -2.1990    0.0000 H   0  0  0  0  0  0  0  0  0  0  0  0
    4.3212    0.0430    0.0000 C   0  0  0  0  0  0  0  0  0  0  0  0
    5.6156   -0.8974    0.0000 H   0  0  0  0  0  0  0  0  0  0  0  0
    4.4883    1.6342    0.0000 C   0  0  0  0  0  0  0  0  0  0  0  0
    5.9501    2.2850    0.0000 H   0  0  0  0  0  0  0  0  0  0  0  0
    3.1939    2.5747    0.0000 C   0  0  0  0  0  0  0  0  0  0  0  0
    3.3612    4.1659    0.0000 H   0  0  0  0  0  0  0  0  0  0  0  0
    0.0000    0.0000    0.0000 C   0  0  0  0  0  0  0  0  0  0  0  0
   -0.8000   -1.3856    0.0000 C   0  0  0  0  0  0  0  0  0  0  0  0
    0.0000   -2.7713    0.0000 H   0  0  0  0  0  0  0  0  0  0  0  0
   -2.4000   -1.3856    0.0000 C   0  0  0  0  0  0  0  0  0  0  0  0
   -3.2000   -2.7713    0.0000 H   0  0  0  0  0  0  0  0  0  0  0  0
   -3.2000    0.0000    0.0000 C   0  0  0  0  0  0  0  0  0  0  0  0
   -4.8000    0.0000    0.0000 H   0  0  0  0  0  0  0  0  0  0  0  0
   -2.4000    1.3856    0.0000 C   0  0  0  0  0  0  0  0  0  0  0  0
   -3.2000    2.7713    0.0000 H   0  0  0  0  0  0  0  0  0  0  0  0
  1  2  1  0  0  0  0
  2  3  1  0  0  0  0
  3  4  1  0  0  0  0
  4  5  2  0  0  0  0
  5  6  1  0  0  0  0
  5  7  1  0  0  0  0
  7  8  1  0  0  0  0
  7  9  2  0  0  0  0
  9 10  1  0  0  0  0
  9 11  1  0  0  0  0
 11  3  2  0  0  0  0
 11 12  1  0  0  0  0
  4 13  1  0  0  0  0
 13  1  1  0  0  0  0
 13 14  2  0  0  0  0
 14 15  1  0  0  0  0
 14 16  1  0  0  0  0
 16 17  1  0  0  0  0
 16 18  2  0  0  0  0
 18 19  1  0  0  0  0
 18 20  1  0  0  0  0
 20  1  2  0  0  0  0
 20 21  1  0  0  0  0
M  END
> <ChemID>
100303

> <source_casrn>
132-65-0

> <CAS>
132-65-0

> <SMILES>
c1cccc2[s]c3ccccc3c21

> <NAME>
DIBENZOTHIOPHENE

> <preferred_name>
Dibenzothiophene

> <iupac>
dibenzo[b,d]thiophene

> <MPID>
98234

> <dsstox_substance_id>
DTXSID0047741

> <Canonical_QSARr>
c1cccc2[s]c3ccccc3c21

> <InChI_Code_QSARr>
InChI=1S/C12H8S/c1-3-7-11-9(5-1)10-6-2-4-8-12(10)13-11/h1-8H

> <InChI Key_QSARr>
IYYZUPMFVPLQIF-UHFFFAOYSA-N

> <Salt_Solvent>
?

> <LogBCF>
3.05

$$$$
100304
  -INDIGO-08031719362D

 24 25  0  0  0  0  0  0  0  0999 V2000
   -2.0162    2.0161    0.0000 O   0  0  0  0  0  0  0  0  0  0  0  0
   -1.5217    0.4944    0.0000 C   0  0  0  0  0  0  0  0  0  0  0  0
   -2.4621   -0.8000    0.0000 N   0  0  0  0  0  0  0  0  0  0  0  0
   -4.0622   -0.8000    0.0000 S   0  0  0  0  0  0  0  0  0  0  0  0
   -4.8622    0.5856    0.0000 C   0  0  0  0  0  0  0  0  0  0  0  0
   -6.4621    0.5856    0.0000 Cl  0  0  0  0  0  0  0  0  0  0  0  0
   -5.6622    1.9713    0.0000 Cl  0  0  0  0  0  0  0  0  0  0  0  0
   -5.6622   -0.8000    0.0000 Cl  0  0  0  0  0  0  0  0  0  0  0  0
   -1.5217   -2.0944    0.0000 C   0  0  0  0  0  0  0  0  0  0  0  0
   -2.0162   -3.6161    0.0000 O   0  0  0  0  0  0  0  0  0  0  0  0
    0.0000   -1.6000    0.0000 C   0  0  0  0  0  0  0  0  0  0  0  0
   -0.1672   -3.1913    0.0000 H   0  0  0  0  0  0  0  0  0  0  0  0
    0.0000    0.0000    0.0000 C   0  0  0  0  0  0  0  0  0  0  0  0
   -0.1672    1.5913    0.0000 H   0  0  0  0  0  0  0  0  0  0  0  0
    1.3856    0.8000    0.0000 C   0  0  0  0  0  0  0  0  0  0  0  0
    2.4141    2.0257    0.0000 H   0  0  0  0  0  0  0  0  0  0  0  0
    0.8384    2.3035    0.0000 H   0  0  0  0  0  0  0  0  0  0  0  0
    2.7713    0.0000    0.0000 C   0  0  0  0  0  0  0  0  0  0  0  0
    4.1569    0.8000    0.0000 H   0  0  0  0  0  0  0  0  0  0  0  0
    2.7713   -1.6000    0.0000 C   0  0  0  0  0  0  0  0  0  0  0  0
    4.1569   -2.4000    0.0000 H   0  0  0  0  0  0  0  0  0  0  0  0
    1.3856   -2.4000    0.0000 C   0  0  0  0  0  0  0  0  0  0  0  0
    0.8384   -3.9035    0.0000 H   0  0  0  0  0  0  0  0  0  0  0  0
    2.4141   -3.6257    0.0000 H   0  0  0  0  0  0  0  0  0  0  0  0
  1  2  2  0  0  0  0
  2  3  1  0  0  0  0
  3  4  1  0  0  0  0
  4  5  1  0  0  0  0
  5  6  1  0  0  0  0
  5  7  1  0  0  0  0
  5  8  1  0  0  0  0
  3  9  1  0  0  0  0
  9 10  2  0  0  0  0
  9 11  1  0  0  0  0
 11 12  1  0  0  0  0
 11 13  1  0  0  0  0
 13  2  1  0  0  0  0
 13 14  1  0  0  0  0
 13 15  1  0  0  0  0
 15 16  1  0  0  0  0
 15 17  1  0  0  0  0
 15 18  1  0  0  0  0
 18 19  1  0  0  0  0
 18 20  2  0  0  0  0
 20 21  1  0  0  0  0
 20 22  1  0  0  0  0
 22 11  1  0  0  0  0
 22 23  1  0  0  0  0
 22 24  1  0  0  0  0
M  END
> <ChemID>
100304

> <source_casrn>
133-06-2

> <CAS>
133-06-2

> <SMILES>
O=C1C2CC=CCC2C(=O)N1SC(Cl)(Cl)Cl

> <NAME>
CAPTAN

> <preferred_name>
Captan

> <iupac>
2-[(trichloromethyl)sulfanyl]-3a,4,7,7a-tetrahydro-1H-isoindole-1,3(2H)-dione

> <MPID>
98235

> <dsstox_substance_id>
DTXSID9020243

> <Canonical_QSARr>
O=C1C2CC=CCC2C(=O)N1SC(Cl)(Cl)Cl

> <InChI_Code_QSARr>
InChI=1S/C9H8Cl3NO2S/c10-9(11,12)16-13-7(14)5-3-1-2-4-6(5)8(13)15/h1-2,5-6H,3-4H2

> <InChI Key_QSARr>
LDVVMCZRFWMZSG-UHFFFAOYSA-N

> <Salt_Solvent>
?

> <LogBCF>
1.98

$$$$
100305
  -INDIGO-08031719362D

 20 21  0  0  0  0  0  0  0  0999 V2000
   -0.0001    1.6000    0.0000 C   0  0  0  0  0  0  0  0  0  0  0  0
    1.3856    2.4000    0.0000 C   0  0  0  0  0  0  0  0  0  0  0  0
    1.3856    4.0000    0.0000 H   0  0  0  0  0  0  0  0  0  0  0  0
    2.7712    1.6000    0.0000 C   0  0  0  0  0  0  0  0  0  0  0  0
    4.1569    2.4000    0.0000 H   0  0  0  0  0  0  0  0  0  0  0  0
    2.7713    0.0000    0.0000 C   0  0  0  0  0  0  0  0  0  0  0  0
    4.1569   -0.8000    0.0000 H   0  0  0  0  0  0  0  0  0  0  0  0
    1.3856   -0.8000    0.0000 C   0  0  0  0  0  0  0  0  0  0  0  0
    1.3856   -2.4000    0.0000 H   0  0  0  0  0  0  0  0  0  0  0  0
    0.0001    0.0000    0.0000 C   0  0  0  0  0  0  0  0  0  0  0  0
   -1.3856   -0.8000    0.0000 C   0  0  0  0  0  0  0  0  0  0  0  0
   -1.3856   -2.4000    0.0000 N   0  0  0  0  0  0  0  0  0  0  0  0
   -2.7712   -3.2000    0.0000 H   0  0  0  0  0  0  0  0  0  0  0  0
    0.0001   -3.2000    0.0000 H   0  0  0  0  0  0  0  0  0  0  0  0
   -2.7713    0.0000    0.0000 C   0  0  0  0  0  0  0  0  0  0  0  0
   -4.1569   -0.8000    0.0000 H   0  0  0  0  0  0  0  0  0  0  0  0
   -2.7712    1.6000    0.0000 C   0  0  0  0  0  0  0  0  0  0  0  0
   -4.1569    2.4000    0.0000 H   0  0  0  0  0  0  0  0  0  0  0  0
   -1.3856    2.4000    0.0000 C   0  0  0  0  0  0  0  0  0  0  0  0
   -1.3856    4.0000    0.0000 H   0  0  0  0  0  0  0  0  0  0  0  0
  1  2  1  0  0  0  0
  2  3  1  0  0  0  0
  2  4  2  0  0  0  0
  4  5  1  0  0  0  0
  4  6  1  0  0  0  0
  6  7  1  0  0  0  0
  6  8  2  0  0  0  0
  8  9  1  0  0  0  0
  8 10  1  0  0  0  0
 10  1  1  0  0  0  0
 10 11  2  0  0  0  0
 11 12  1  0  0  0  0
 12 13  1  0  0  0  0
 12 14  1  0  0  0  0
 11 15  1  0  0  0  0
 15 16  1  0  0  0  0
 15 17  2  0  0  0  0
 17 18  1  0  0  0  0
 17 19  1  0  0  0  0
 19  1  2  0  0  0  0
 19 20  1  0  0  0  0
M  END
> <ChemID>
100305

> <source_casrn>
134-32-7

> <CAS>
134-32-7

> <SMILES>
Nc1cccc2ccccc21

> <NAME>
1-NAPHTHYLAMINE

> <preferred_name>
1-Naphthylamine

> <iupac>
naphthalen-1-amine

> <MPID>
98236

> <dsstox_substance_id>
DTXSID7020920

> <Canonical_QSARr>
Nc1cccc2ccccc21

> <InChI_Code_QSARr>
InChI=1S/C10H9N/c11-10-7-3-5-8-4-1-2-6-9(8)10/h1-7H,11H2

> <InChI Key_QSARr>
RUFPHBVGCFYCNW-UHFFFAOYSA-N

> <Salt_Solvent>
?

> <LogBCF>
1.4

$$$$
100307
  -INDIGO-08031719362D

 31 31  0  0  0  0  0  0  0  0999 V2000
    2.6042    0.9479    0.0000 C   0  0  0  0  0  0  0  0  0  0  0  0
    3.6325    2.1735    0.0000 H   0  0  0  0  0  0  0  0  0  0  0  0
    4.1798    0.6700    0.0000 H   0  0  0  0  0  0  0  0  0  0  0  0
    2.0569    2.4514    0.0000 H   0  0  0  0  0  0  0  0  0  0  0  0
    1.0284    1.2256    0.0000 C   0  0  0  0  0  0  0  0  0  0  0  0
   -0.0525    2.4053    0.0000 H   0  0  0  0  0  0  0  0  0  0  0  0
    1.0982    2.8241    0.0000 H   0  0  0  0  0  0  0  0  0  0  0  0
    0.0001   -0.0000    0.0000 N   0  0  0  0  0  0  0  0  0  0  0  0
    0.5472   -1.5035    0.0000 C   0  0  0  0  0  0  0  0  0  0  0  0
    0.0660   -3.0295    0.0000 H   0  0  0  0  0  0  0  0  0  0  0  0
   -0.8719   -2.2423    0.0000 H   0  0  0  0  0  0  0  0  0  0  0  0
    2.1228   -1.7814    0.0000 C   0  0  0  0  0  0  0  0  0  0  0  0
    2.6701   -3.2849    0.0000 H   0  0  0  0  0  0  0  0  0  0  0  0
    3.6987   -2.0591    0.0000 H   0  0  0  0  0  0  0  0  0  0  0  0
    1.0945   -3.0070    0.0000 H   0  0  0  0  0  0  0  0  0  0  0  0
   -1.5757    0.2778    0.0000 C   0  0  0  0  0  0  0  0  0  0  0  0
   -2.1228    1.7814    0.0000 O   0  0  0  0  0  0  0  0  0  0  0  0
   -2.8014   -0.7506    0.0000 C   0  0  0  0  0  0  0  0  0  0  0  0
   -2.8014   -2.3506    0.0000 C   0  0  0  0  0  0  0  0  0  0  0  0
   -1.4158   -3.1506    0.0000 H   0  0  0  0  0  0  0  0  0  0  0  0
   -4.1869   -3.1506    0.0000 C   0  0  0  0  0  0  0  0  0  0  0  0
   -4.1869   -4.7506    0.0000 H   0  0  0  0  0  0  0  0  0  0  0  0
   -5.5726   -2.3506    0.0000 C   0  0  0  0  0  0  0  0  0  0  0  0
   -6.9583   -3.1506    0.0000 H   0  0  0  0  0  0  0  0  0  0  0  0
   -5.5726   -0.7506    0.0000 C   0  0  0  0  0  0  0  0  0  0  0  0
   -6.9583    0.0493    0.0000 C   0  0  0  0  0  0  0  0  0  0  0  0
   -8.3439    0.8494    0.0000 H   0  0  0  0  0  0  0  0  0  0  0  0
   -8.3439   -0.7506    0.0000 H   0  0  0  0  0  0  0  0  0  0  0  0
   -6.9583    1.6494    0.0000 H   0  0  0  0  0  0  0  0  0  0  0  0
   -4.1869    0.0493    0.0000 C   0  0  0  0  0  0  0  0  0  0  0  0
   -4.1869    1.6494    0.0000 H   0  0  0  0  0  0  0  0  0  0  0  0
  1  2  1  0  0  0  0
  1  3  1  0  0  0  0
  1  4  1  0  0  0  0
  1  5  1  0  0  0  0
  5  6  1  0  0  0  0
  5  7  1  0  0  0  0
  5  8  1  0  0  0  0
  8  9  1  0  0  0  0
  9 10  1  0  0  0  0
  9 11  1  0  0  0  0
  9 12  1  0  0  0  0
 12 13  1  0  0  0  0
 12 14  1  0  0  0  0
 12 15  1  0  0  0  0
  8 16  1  0  0  0  0
 16 17  2  0  0  0  0
 16 18  1  0  0  0  0
 18 19  1  0  0  0  0
 19 20  1  0  0  0  0
 19 21  2  0  0  0  0
 21 22  1  0  0  0  0
 21 23  1  0  0  0  0
 23 24  1  0  0  0  0
 23 25  2  0  0  0  0
 25 26  1  0  0  0  0
 26 27  1  0  0  0  0
 26 28  1  0  0  0  0
 26 29  1  0  0  0  0
 25 30  1  0  0  0  0
 30 18  2  0  0  0  0
 30 31  1  0  0  0  0
M  END
> <ChemID>
100307

> <source_casrn>
134-62-3

> <CAS>
134-62-3

> <SMILES>
O=C(N(CC)CC)c(cccc1C)c1

> <NAME>
DEET [N,N,-DIET-3-ME BENZAMIDE]

> <preferred_name>
DEET

> <iupac>
N,N-diethyl-3-methylbenzamide

> <MPID>
98238

> <dsstox_substance_id>
DTXSID2021995

> <Canonical_QSARr>
Cc1cc(ccc1)C(=O)N(CC)CC

> <InChI_Code_QSARr>
InChI=1S/C12H17NO/c1-4-13(5-2)12(14)11-8-6-7-10(3)9-11/h6-9H,4-5H2,1-3H3

> <InChI Key_QSARr>
MMOXZBCLCQITDF-UHFFFAOYSA-N

> <Salt_Solvent>
?

> <LogBCF>
0.38

$$$$
100308
  -INDIGO-08031719362D

 30 32  0  0  0  0  0  0  0  0999 V2000
    1.3857    0.8000    0.0000 C   0  0  0  0  0  0  0  0  0  0  0  0
    1.3857    2.4000    0.0000 H   0  0  0  0  0  0  0  0  0  0  0  0
    0.0000    0.0001    0.0000 C   0  0  0  0  0  0  0  0  0  0  0  0
    0.0000   -1.6000    0.0000 C   0  0  0  0  0  0  0  0  0  0  0  0
   -1.3857   -2.4000    0.0000 C   0  0  0  0  0  0  0  0  0  0  0  0
   -1.3857   -4.0000    0.0000 H   0  0  0  0  0  0  0  0  0  0  0  0
   -2.7712   -1.6000    0.0000 C   0  0  0  0  0  0  0  0  0  0  0  0
   -4.1569   -2.4000    0.0000 H   0  0  0  0  0  0  0  0  0  0  0  0
   -2.7712    0.0001    0.0000 C   0  0  0  0  0  0  0  0  0  0  0  0
   -4.1569    0.8000    0.0000 H   0  0  0  0  0  0  0  0  0  0  0  0
   -1.3857    0.8000    0.0000 C   0  0  0  0  0  0  0  0  0  0  0  0
   -1.3857    2.4000    0.0000 H   0  0  0  0  0  0  0  0  0  0  0  0
    1.3857   -2.4000    0.0000 C   0  0  0  0  0  0  0  0  0  0  0  0
    1.3857   -4.0000    0.0000 H   0  0  0  0  0  0  0  0  0  0  0  0
    2.7712   -1.6000    0.0000 C   0  0  0  0  0  0  0  0  0  0  0  0
    4.1569   -2.4000    0.0000 H   0  0  0  0  0  0  0  0  0  0  0  0
    2.7712    0.0001    0.0000 C   0  0  0  0  0  0  0  0  0  0  0  0
    4.1569    0.8000    0.0000 N   0  0  0  0  0  0  0  0  0  0  0  0
    3.8790    2.3757    0.0000 H   0  0  0  0  0  0  0  0  0  0  0  0
    5.7327    0.5222    0.0000 C   0  0  0  0  0  0  0  0  0  0  0  0
    6.7611    1.7479    0.0000 C   0  0  0  0  0  0  0  0  0  0  0  0
    6.2138    3.2513    0.0000 H   0  0  0  0  0  0  0  0  0  0  0  0
    8.3368    1.4700    0.0000 C   0  0  0  0  0  0  0  0  0  0  0  0
    9.3653    2.6957    0.0000 H   0  0  0  0  0  0  0  0  0  0  0  0
    8.8839   -0.0335    0.0000 C   0  0  0  0  0  0  0  0  0  0  0  0
   10.4597   -0.3113    0.0000 H   0  0  0  0  0  0  0  0  0  0  0  0
    7.8555   -1.2591    0.0000 C   0  0  0  0  0  0  0  0  0  0  0  0
    8.4029   -2.7627    0.0000 H   0  0  0  0  0  0  0  0  0  0  0  0
    6.2798   -0.9813    0.0000 C   0  0  0  0  0  0  0  0  0  0  0  0
    5.2514   -2.2071    0.0000 H   0  0  0  0  0  0  0  0  0  0  0  0
  1  2  1  0  0  0  0
  1  3  1  0  0  0  0
  3  4  1  0  0  0  0
  4  5  2  0  0  0  0
  5  6  1  0  0  0  0
  5  7  1  0  0  0  0
  7  8  1  0  0  0  0
  7  9  2  0  0  0  0
  9 10  1  0  0  0  0
  9 11  1  0  0  0  0
 11  3  2  0  0  0  0
 11 12  1  0  0  0  0
  4 13  1  0  0  0  0
 13 14  1  0  0  0  0
 13 15  2  0  0  0  0
 15 16  1  0  0  0  0
 15 17  1  0  0  0  0
 17  1  2  0  0  0  0
 17 18  1  0  0  0  0
 18 19  1  0  0  0  0
 18 20  1  0  0  0  0
 20 21  1  0  0  0  0
 21 22  1  0  0  0  0
 21 23  2  0  0  0  0
 23 24  1  0  0  0  0
 23 25  1  0  0  0  0
 25 26  1  0  0  0  0
 25 27  2  0  0  0  0
 27 28  1  0  0  0  0
 27 29  1  0  0  0  0
 29 20  2  0  0  0  0
 29 30  1  0  0  0  0
M  END
> <ChemID>
100308

> <source_casrn>
135-88-6

> <CAS>
135-88-6

> <SMILES>
c1c(ccc2ccccc21)Nc1ccccc1

> <NAME>
N-PHENYL-2-NAPHTHYLAMINE

> <preferred_name>
N-Phenyl-2-naphthylamine

> <iupac>
N-phenylnaphthalen-2-amine

> <MPID>
98239

> <dsstox_substance_id>
DTXSID4021131

> <Canonical_QSARr>
c1c(ccc2ccccc21)Nc1ccccc1

> <InChI_Code_QSARr>
InChI=1S/C16H13N/c1-2-8-15(9-3-1)17-16-11-10-13-6-4-5-7-14(13)12-16/h1-12,17H

> <InChI Key_QSARr>
KEQFTVQCIQJIQW-UHFFFAOYSA-N

> <Salt_Solvent>
?

> <LogBCF>
2.37

$$$$
100309
  -INDIGO-08031719362D

 24 23  0  0  0  0  0  0  0  0999 V2000
    5.5426    1.6000    0.0000 S   0  0  0  0  0  0  0  0  0  0  0  0
    5.5426   -0.0000    0.0000 C   0  0  0  0  0  0  0  0  0  0  0  0
    6.9283   -0.8000    0.0000 N   0  0  0  0  0  0  0  0  0  0  0  0
    8.3138   -0.0000    0.0000 C   0  0  0  0  0  0  0  0  0  0  0  0
    9.6995    0.8000    0.0000 H   0  0  0  0  0  0  0  0  0  0  0  0
    9.6995   -0.8000    0.0000 H   0  0  0  0  0  0  0  0  0  0  0  0
    8.3138    1.6000    0.0000 H   0  0  0  0  0  0  0  0  0  0  0  0
    6.9283   -2.4000    0.0000 C   0  0  0  0  0  0  0  0  0  0  0  0
    6.9283   -4.0000    0.0000 H   0  0  0  0  0  0  0  0  0  0  0  0
    8.3138   -3.2000    0.0000 H   0  0  0  0  0  0  0  0  0  0  0  0
    5.5426   -3.2000    0.0000 H   0  0  0  0  0  0  0  0  0  0  0  0
    4.1569   -0.8000    0.0000 S   0  0  0  0  0  0  0  0  0  0  0  0
    2.7713   -0.0000    0.0000 S   0  0  0  0  0  0  0  0  0  0  0  0
    1.3856   -0.8000    0.0000 C   0  0  0  0  0  0  0  0  0  0  0  0
    1.3856   -2.4000    0.0000 S   0  0  0  0  0  0  0  0  0  0  0  0
   -0.0001   -0.0000    0.0000 N   0  0  0  0  0  0  0  0  0  0  0  0
   -0.0001    1.6000    0.0000 C   0  0  0  0  0  0  0  0  0  0  0  0
   -0.0001    3.2000    0.0000 H   0  0  0  0  0  0  0  0  0  0  0  0
    1.3856    2.4000    0.0000 H   0  0  0  0  0  0  0  0  0  0  0  0
   -1.3856    2.4000    0.0000 H   0  0  0  0  0  0  0  0  0  0  0  0
   -1.3856   -0.8000    0.0000 C   0  0  0  0  0  0  0  0  0  0  0  0
   -2.7713   -1.6000    0.0000 H   0  0  0  0  0  0  0  0  0  0  0  0
   -1.3856   -2.4000    0.0000 H   0  0  0  0  0  0  0  0  0  0  0  0
   -2.7713   -0.0000    0.0000 H   0  0  0  0  0  0  0  0  0  0  0  0
  1  2  2  0  0  0  0
  2  3  1  0  0  0  0
  3  4  1  0  0  0  0
  4  5  1  0  0  0  0
  4  6  1  0  0  0  0
  4  7  1  0  0  0  0
  3  8  1  0  0  0  0
  8  9  1  0  0  0  0
  8 10  1  0  0  0  0
  8 11  1  0  0  0  0
  2 12  1  0  0  0  0
 12 13  1  0  0  0  0
 13 14  1  0  0  0  0
 14 15  2  0  0  0  0
 14 16  1  0  0  0  0
 16 17  1  0  0  0  0
 17 18  1  0  0  0  0
 17 19  1  0  0  0  0
 17 20  1  0  0  0  0
 16 21  1  0  0  0  0
 21 22  1  0  0  0  0
 21 23  1  0  0  0  0
 21 24  1  0  0  0  0
M  END
> <ChemID>
100309

> <source_casrn>
137-26-8

> <CAS>
137-26-8

> <SMILES>
CN(C)C(=S)SSC(=S)N(C)C

> <NAME>
THIRAM

> <preferred_name>
Thiram

> <iupac>
[disulfanediylbis(carbonothioylnitrilo)]tetramethane

> <MPID>
98240

> <dsstox_substance_id>
DTXSID5021332

> <Canonical_QSARr>
CN(C)C(=S)SSC(=S)N(C)C

> <InChI_Code_QSARr>
InChI=1S/C6H12N2S4/c1-7(2)5(9)11-12-6(10)8(3)4/h1-4H3

> <InChI Key_QSARr>
KUAZQDVKQLNFPE-UHFFFAOYSA-N

> <Salt_Solvent>
?

> <LogBCF>
0.53

$$$$
100311
  -INDIGO-08031719362D

 24 24  0  0  0  0  0  0  0  0999 V2000
    2.7713   -0.0000    0.0000 C   0  0  0  0  0  0  0  0  0  0  0  0
    4.1569    0.8000    0.0000 H   0  0  0  0  0  0  0  0  0  0  0  0
    4.1569   -0.8000    0.0000 H   0  0  0  0  0  0  0  0  0  0  0  0
    2.7713    1.6000    0.0000 H   0  0  0  0  0  0  0  0  0  0  0  0
    1.3856    0.8000    0.0000 C   0  0  0  0  0  0  0  0  0  0  0  0
    0.7733    2.2782    0.0000 H   0  0  0  0  0  0  0  0  0  0  0  0
    1.9979    2.2782    0.0000 H   0  0  0  0  0  0  0  0  0  0  0  0
   -0.0001   -0.0000    0.0000 C   0  0  0  0  0  0  0  0  0  0  0  0
   -1.3857    0.8000    0.0000 C   0  0  0  0  0  0  0  0  0  0  0  0
   -1.3857    2.4000    0.0000 H   0  0  0  0  0  0  0  0  0  0  0  0
   -2.7712   -0.0000    0.0000 C   0  0  0  0  0  0  0  0  0  0  0  0
   -4.1569    0.8000    0.0000 C   0  0  0  0  0  0  0  0  0  0  0  0
   -4.7692    2.2782    0.0000 H   0  0  0  0  0  0  0  0  0  0  0  0
   -3.5446    2.2782    0.0000 H   0  0  0  0  0  0  0  0  0  0  0  0
   -5.5425   -0.0000    0.0000 C   0  0  0  0  0  0  0  0  0  0  0  0
   -6.9282    0.8000    0.0000 H   0  0  0  0  0  0  0  0  0  0  0  0
   -6.9282   -0.8000    0.0000 H   0  0  0  0  0  0  0  0  0  0  0  0
   -5.5425    1.6000    0.0000 H   0  0  0  0  0  0  0  0  0  0  0  0
   -2.7712   -1.6000    0.0000 C   0  0  0  0  0  0  0  0  0  0  0  0
   -4.1569   -2.4000    0.0000 H   0  0  0  0  0  0  0  0  0  0  0  0
   -1.3856   -2.4000    0.0000 C   0  0  0  0  0  0  0  0  0  0  0  0
   -1.3857   -4.0000    0.0000 H   0  0  0  0  0  0  0  0  0  0  0  0
   -0.0001   -1.6000    0.0000 C   0  0  0  0  0  0  0  0  0  0  0  0
    1.3856   -2.4000    0.0000 H   0  0  0  0  0  0  0  0  0  0  0  0
  1  2  1  0  0  0  0
  1  3  1  0  0  0  0
  1  4  1  0  0  0  0
  1  5  1  0  0  0  0
  5  6  1  0  0  0  0
  5  7  1  0  0  0  0
  5  8  1  0  0  0  0
  8  9  1  0  0  0  0
  9 10  1  0  0  0  0
  9 11  2  0  0  0  0
 11 12  1  0  0  0  0
 12 13  1  0  0  0  0
 12 14  1  0  0  0  0
 12 15  1  0  0  0  0
 15 16  1  0  0  0  0
 15 17  1  0  0  0  0
 15 18  1  0  0  0  0
 11 19  1  0  0  0  0
 19 20  1  0  0  0  0
 19 21  2  0  0  0  0
 21 22  1  0  0  0  0
 21 23  1  0  0  0  0
 23  8  2  0  0  0  0
 23 24  1  0  0  0  0
M  END
> <ChemID>
100311

> <source_casrn>
141-93-5

> <CAS>
141-93-5

> <SMILES>
CCc1cc(CC)ccc1

> <NAME>
M-DIETHYLBENZENE

> <preferred_name>
1,3-Diethylbenzene

> <iupac>
1,3-diethylbenzene

> <MPID>
98242

> <dsstox_substance_id>
DTXSID1022003

> <Canonical_QSARr>
CCc1cc(CC)ccc1

> <InChI_Code_QSARr>
InChI=1S/C10H14/c1-3-9-6-5-7-10(4-2)8-9/h5-8H,3-4H2,1-2H3

> <InChI Key_QSARr>
AFZZYIJIWUTJFO-UHFFFAOYSA-N

> <Salt_Solvent>
?

> <LogBCF>
2.73

$$$$
100312
  -INDIGO-08031719362D

 27 26  0  0  0  0  0  0  0  0999 V2000
    2.7714   -0.0000    0.0000 C   0  0  0  0  0  0  0  0  0  0  0  0
    4.1569   -0.8000    0.0000 H   0  0  0  0  0  0  0  0  0  0  0  0
    4.1569    0.8000    0.0000 H   0  0  0  0  0  0  0  0  0  0  0  0
    2.7714   -1.6000    0.0000 H   0  0  0  0  0  0  0  0  0  0  0  0
    1.3856    0.8000    0.0000 C   0  0  0  0  0  0  0  0  0  0  0  0
    0.7733    2.2782    0.0000 H   0  0  0  0  0  0  0  0  0  0  0  0
    1.9980    2.2782    0.0000 H   0  0  0  0  0  0  0  0  0  0  0  0
    0.0001   -0.0000    0.0000 C   0  0  0  0  0  0  0  0  0  0  0  0
    0.6122   -1.4782    0.0000 H   0  0  0  0  0  0  0  0  0  0  0  0
   -0.6122   -1.4782    0.0000 H   0  0  0  0  0  0  0  0  0  0  0  0
   -1.3856    0.8000    0.0000 C   0  0  0  0  0  0  0  0  0  0  0  0
   -1.9980    2.2782    0.0000 H   0  0  0  0  0  0  0  0  0  0  0  0
   -0.7733    2.2782    0.0000 H   0  0  0  0  0  0  0  0  0  0  0  0
   -2.7712   -0.0000    0.0000 O   0  0  0  0  0  0  0  0  0  0  0  0
   -4.1569    0.8000    0.0000 C   0  0  0  0  0  0  0  0  0  0  0  0
   -4.7692    2.2782    0.0000 H   0  0  0  0  0  0  0  0  0  0  0  0
   -3.5446    2.2782    0.0000 H   0  0  0  0  0  0  0  0  0  0  0  0
   -5.5425   -0.0000    0.0000 C   0  0  0  0  0  0  0  0  0  0  0  0
   -4.9304   -1.4782    0.0000 H   0  0  0  0  0  0  0  0  0  0  0  0
   -6.1548   -1.4782    0.0000 H   0  0  0  0  0  0  0  0  0  0  0  0
   -6.9282    0.8000    0.0000 C   0  0  0  0  0  0  0  0  0  0  0  0
   -7.5405    2.2782    0.0000 H   0  0  0  0  0  0  0  0  0  0  0  0
   -6.3159    2.2782    0.0000 H   0  0  0  0  0  0  0  0  0  0  0  0
   -8.3137   -0.0000    0.0000 C   0  0  0  0  0  0  0  0  0  0  0  0
   -9.6995   -0.8000    0.0000 H   0  0  0  0  0  0  0  0  0  0  0  0
   -9.6995    0.8000    0.0000 H   0  0  0  0  0  0  0  0  0  0  0  0
   -8.3137   -1.6000    0.0000 H   0  0  0  0  0  0  0  0  0  0  0  0
  1  2  1  0  0  0  0
  1  3  1  0  0  0  0
  1  4  1  0  0  0  0
  1  5  1  0  0  0  0
  5  6  1  0  0  0  0
  5  7  1  0  0  0  0
  5  8  1  0  0  0  0
  8  9  1  0  0  0  0
  8 10  1  0  0  0  0
  8 11  1  0  0  0  0
 11 12  1  0  0  0  0
 11 13  1  0  0  0  0
 11 14  1  0  0  0  0
 14 15  1  0  0  0  0
 15 16  1  0  0  0  0
 15 17  1  0  0  0  0
 15 18  1  0  0  0  0
 18 19  1  0  0  0  0
 18 20  1  0  0  0  0
 18 21  1  0  0  0  0
 21 22  1  0  0  0  0
 21 23  1  0  0  0  0
 21 24  1  0  0  0  0
 24 25  1  0  0  0  0
 24 26  1  0  0  0  0
 24 27  1  0  0  0  0
M  END
> <ChemID>
100312

> <source_casrn>
142-96-1

> <CAS>
142-96-1

> <SMILES>
CCCCOCCCC

> <NAME>
DI-N-BUTYL ETHER

> <preferred_name>
Butyl ether

> <iupac>
1-butoxybutane

> <MPID>
98243

> <dsstox_substance_id>
DTXSID1022007

> <Canonical_QSARr>
CCCCOCCCC

> <InChI_Code_QSARr>
InChI=1S/C8H18O/c1-3-5-7-9-8-6-4-2/h3-8H2,1-2H3

> <InChI Key_QSARr>
DURPTKYDGMDSBL-UHFFFAOYSA-N

> <Salt_Solvent>
?

> <LogBCF>
1.86

$$$$
100313
  -INDIGO-08031719362D

 21 25  0  0  0  0  0  0  0  0999 V2000
   -0.0000    0.0000    0.0000 C   0  0  0  0  0  0  0  0  0  0  0  0
   -1.5913    0.1672    0.0000 C   0  0  0  0  0  0  0  0  0  0  0  0
   -2.9769   -0.6328    0.0000 C   0  0  0  0  0  0  0  0  0  0  0  0
   -2.6442   -2.1978    0.0000 C   0  0  0  0  0  0  0  0  0  0  0  0
   -3.7148   -3.3868    0.0000 Cl  0  0  0  0  0  0  0  0  0  0  0  0
    1.9239   -1.7322    0.0000 C   0  0  0  0  0  0  0  0  0  0  0  0
    0.3327   -1.5650    0.0000 C   0  0  0  0  0  0  0  0  0  0  0  0
   -0.3516   -0.9270    0.0000 Cl  0  0  0  0  0  0  0  0  0  0  0  0
   -1.0530   -2.3650    0.0000 C   0  0  0  0  0  0  0  0  0  0  0  0
   -1.1832   -1.4386    0.0000 Cl  0  0  0  0  0  0  0  0  0  0  0  0
   -2.2420   -1.2944    0.0000 C   0  0  0  0  0  0  0  0  0  0  0  0
   -3.8071   -1.6271    0.0000 O   0  0  0  0  0  0  0  0  0  0  0  0
    2.8623   -3.0282    0.0000 Cl  0  0  0  0  0  0  0  0  0  0  0  0
    2.5747   -0.2706    0.0000 C   0  0  0  0  0  0  0  0  0  0  0  0
    3.9603   -1.0706    0.0000 Cl  0  0  0  0  0  0  0  0  0  0  0  0
    3.5151    1.0238    0.0000 Cl  0  0  0  0  0  0  0  0  0  0  0  0
    1.3856    0.8000    0.0000 C   0  0  0  0  0  0  0  0  0  0  0  0
    1.7159    2.3656    0.0000 Cl  0  0  0  0  0  0  0  0  0  0  0  0
   -4.4385    0.0180    0.0000 Cl  0  0  0  0  0  0  0  0  0  0  0  0
   -1.9240    1.7323    0.0000 Cl  0  0  0  0  0  0  0  0  0  0  0  0
    1.4616   -0.6508    0.0000 Cl  0  0  0  0  0  0  0  0  0  0  0  0
  1  2  1  0  0  0  0
  2  3  1  0  0  0  0
  3  4  1  0  0  0  0
  4  5  1  0  0  0  0
  4  6  1  0  0  0  0
  6  7  1  0  0  0  0
  7  1  1  0  0  0  0
  7  8  1  0  0  0  0
  7  9  1  0  0  0  0
  9  4  1  0  0  0  0
  9 10  1  0  0  0  0
  9 11  1  0  0  0  0
 11  2  1  0  0  0  0
 11 12  2  0  0  0  0
  6 13  1  0  0  0  0
  6 14  1  0  0  0  0
 14 15  1  0  0  0  0
 14 16  1  0  0  0  0
 14 17  1  0  0  0  0
 17  1  1  0  0  0  0
 17  3  1  0  0  0  0
 17 18  1  0  0  0  0
  3 19  1  0  0  0  0
  2 20  1  0  0  0  0
  1 21  1  0  0  0  0
M  END
> <ChemID>
100313

> <source_casrn>
143-50-0

> <CAS>
143-50-0

> <SMILES>
O=C1C2(Cl)C3(Cl)C4(Cl)C2(Cl)C2(Cl)C(Cl)(C3(Cl)C21Cl)C4(Cl)Cl

> <NAME>
KEPONE

> <preferred_name>
Kepone

> <iupac>
1,1a,3,3a,4,5,5,5a,5b,6-decachlorooctahydro-2H-1,3,4-(methanetriyl)cyclobuta[cd]pentalen-2-one

> <MPID>
98244

> <dsstox_substance_id>
DTXSID1020770

> <Canonical_QSARr>
O=C1C2(Cl)C3(Cl)C4(Cl)C2(Cl)C2(Cl)C(Cl)(C3(Cl)C21Cl)C4(Cl)Cl

> <InChI_Code_QSARr>
InChI=1S/C10Cl10O/c11-2-1(21)3(12)6(15)4(2,13)8(17)5(2,14)7(3,16)9(6,18)10(8,19)20

> <InChI Key_QSARr>
LHHGDZSESBACKH-UHFFFAOYSA-N

> <Salt_Solvent>
?

> <LogBCF>
3.19

$$$$
100315
  -INDIGO-08031719362D

 15 16  0  0  0  0  0  0  0  0999 V2000
    4.0621   -0.8000    0.0000 S   0  0  0  0  0  0  0  0  0  0  0  0
    4.8621    0.5856    0.0000 H   0  0  0  0  0  0  0  0  0  0  0  0
    2.4622   -0.8000    0.0000 C   0  0  0  0  0  0  0  0  0  0  0  0
    1.5216   -2.0944    0.0000 N   0  0  0  0  0  0  0  0  0  0  0  0
   -0.0000   -1.6000    0.0000 C   0  0  0  0  0  0  0  0  0  0  0  0
   -0.0000   -0.0000    0.0000 C   0  0  0  0  0  0  0  0  0  0  0  0
   -1.3856    0.8000    0.0000 C   0  0  0  0  0  0  0  0  0  0  0  0
   -1.3856    2.4000    0.0000 H   0  0  0  0  0  0  0  0  0  0  0  0
   -2.7713   -0.0000    0.0000 C   0  0  0  0  0  0  0  0  0  0  0  0
   -4.1569    0.8000    0.0000 H   0  0  0  0  0  0  0  0  0  0  0  0
   -2.7713   -1.6000    0.0000 C   0  0  0  0  0  0  0  0  0  0  0  0
   -4.1569   -2.4000    0.0000 H   0  0  0  0  0  0  0  0  0  0  0  0
   -1.3856   -2.4000    0.0000 C   0  0  0  0  0  0  0  0  0  0  0  0
   -1.3856   -4.0000    0.0000 H   0  0  0  0  0  0  0  0  0  0  0  0
    1.5216    0.4944    0.0000 S   0  0  0  0  0  0  0  0  0  0  0  0
  1  2  1  0  0  0  0
  1  3  1  0  0  0  0
  3  4  2  0  0  0  0
  4  5  1  0  0  0  0
  5  6  1  0  0  0  0
  6  7  2  0  0  0  0
  7  8  1  0  0  0  0
  7  9  1  0  0  0  0
  9 10  1  0  0  0  0
  9 11  2  0  0  0  0
 11 12  1  0  0  0  0
 11 13  1  0  0  0  0
 13  5  2  0  0  0  0
 13 14  1  0  0  0  0
  6 15  1  0  0  0  0
 15  3  1  0  0  0  0
M  END
> <ChemID>
100315

> <source_casrn>
149-30-4

> <CAS>
149-30-4

> <SMILES>
Sc1[n]c2ccccc2[s]1

> <NAME>
2-MERCAPTOBENZOTHIAZOLE

> <preferred_name>
2-Mercaptobenzothiazole

> <iupac>
1,3-benzothiazole-2-thiol

> <MPID>
98246

> <dsstox_substance_id>
DTXSID1020807

> <Canonical_QSARr>
Sc1[n]c2ccccc2[s]1

> <InChI_Code_QSARr>
InChI=1S/C7H5NS2/c9-7-8-5-3-1-2-4-6(5)10-7/h1-4H,(H,8,9)

> <InChI Key_QSARr>
YXIWHUQXZSMYRE-UHFFFAOYSA-N

> <Salt_Solvent>
?

> <LogBCF>
0.9

$$$$
100316
  -INDIGO-08031719362D

 21 21  0  0  0  0  0  0  0  0999 V2000
   -1.6001    0.0000    0.0000 O   0  0  0  0  0  0  0  0  0  0  0  0
    0.0001    0.0000    0.0000 C   0  0  0  0  0  0  0  0  0  0  0  0
    0.8001    1.3857    0.0000 C   0  0  0  0  0  0  0  0  0  0  0  0
    0.0001    2.7713    0.0000 H   0  0  0  0  0  0  0  0  0  0  0  0
    2.4000    1.3857    0.0000 C   0  0  0  0  0  0  0  0  0  0  0  0
    3.2000    2.7713    0.0000 H   0  0  0  0  0  0  0  0  0  0  0  0
    3.2000    0.0000    0.0000 C   0  0  0  0  0  0  0  0  0  0  0  0
    4.8000    0.0000    0.0000 N   0  0  0  0  0  0  0  0  0  0  0  0
    5.6000   -1.3857    0.0000 H   0  0  0  0  0  0  0  0  0  0  0  0
    5.6000    1.3857    0.0000 H   0  0  0  0  0  0  0  0  0  0  0  0
    2.4000   -1.3857    0.0000 C   0  0  0  0  0  0  0  0  0  0  0  0
    3.2000   -2.7713    0.0000 H   0  0  0  0  0  0  0  0  0  0  0  0
    0.8001   -1.3857    0.0000 C   0  0  0  0  0  0  0  0  0  0  0  0
    0.0001   -2.7713    0.0000 H   0  0  0  0  0  0  0  0  0  0  0  0
   -2.4000    1.3857    0.0000 C   0  0  0  0  0  0  0  0  0  0  0  0
   -1.1306    2.3596    0.0000 H   0  0  0  0  0  0  0  0  0  0  0  0
   -2.1912    2.9720    0.0000 H   0  0  0  0  0  0  0  0  0  0  0  0
   -4.0000    1.3857    0.0000 C   0  0  0  0  0  0  0  0  0  0  0  0
   -5.6000    1.3857    0.0000 H   0  0  0  0  0  0  0  0  0  0  0  0
   -4.8000    2.7713    0.0000 H   0  0  0  0  0  0  0  0  0  0  0  0
   -4.8000    0.0000    0.0000 H   0  0  0  0  0  0  0  0  0  0  0  0
  1  2  1  0  0  0  0
  2  3  1  0  0  0  0
  3  4  1  0  0  0  0
  3  5  2  0  0  0  0
  5  6  1  0  0  0  0
  5  7  1  0  0  0  0
  7  8  1  0  0  0  0
  8  9  1  0  0  0  0
  8 10  1  0  0  0  0
  7 11  2  0  0  0  0
 11 12  1  0  0  0  0
 11 13  1  0  0  0  0
 13  2  2  0  0  0  0
 13 14  1  0  0  0  0
  1 15  1  0  0  0  0
 15 16  1  0  0  0  0
 15 17  1  0  0  0  0
 15 18  1  0  0  0  0
 18 19  1  0  0  0  0
 18 20  1  0  0  0  0
 18 21  1  0  0  0  0
M  END
> <ChemID>
100316

> <source_casrn>
156-43-4

> <CAS>
156-43-4

> <SMILES>
CCOc1ccc(N)cc1

> <NAME>
P-ETHOXYANILINE

> <preferred_name>
4-Ethoxyaniline

> <iupac>
4-ethoxyaniline

> <MPID>
98247

> <dsstox_substance_id>
DTXSID0025864

> <Canonical_QSARr>
CCOc1ccc(N)cc1

> <InChI_Code_QSARr>
InChI=1S/C8H11NO/c1-2-10-8-5-3-7(9)4-6-8/h3-6H,2,9H2,1H3

> <InChI Key_QSARr>
IMPPGHMHELILKG-UHFFFAOYSA-N

> <Salt_Solvent>
?

> <LogBCF>
1.0

$$$$
100317
  -INDIGO-08031719362D

 26 29  0  0  0  0  0  0  0  0999 V2000
    0.0000    0.0001    0.0000 C   0  0  0  0  0  0  0  0  0  0  0  0
    0.8000    1.3856    0.0000 C   0  0  0  0  0  0  0  0  0  0  0  0
    2.2889    0.8000    0.0000 C   0  0  0  0  0  0  0  0  0  0  0  0
    3.6747    1.6000    0.0000 C   0  0  0  0  0  0  0  0  0  0  0  0
    3.6747    3.2000    0.0000 H   0  0  0  0  0  0  0  0  0  0  0  0
    5.0603    0.8000    0.0000 C   0  0  0  0  0  0  0  0  0  0  0  0
    6.4459    1.6000    0.0000 H   0  0  0  0  0  0  0  0  0  0  0  0
    5.0603   -0.8000    0.0000 C   0  0  0  0  0  0  0  0  0  0  0  0
    6.4459   -1.6000    0.0000 H   0  0  0  0  0  0  0  0  0  0  0  0
    3.6747   -1.6000    0.0000 C   0  0  0  0  0  0  0  0  0  0  0  0
    3.6747   -3.2000    0.0000 H   0  0  0  0  0  0  0  0  0  0  0  0
    2.2889   -0.8000    0.0000 C   0  0  0  0  0  0  0  0  0  0  0  0
    0.8000   -1.3856    0.0000 C   0  0  0  0  0  0  0  0  0  0  0  0
    0.0000   -2.7712    0.0000 C   0  0  0  0  0  0  0  0  0  0  0  0
    0.8000   -4.1569    0.0000 H   0  0  0  0  0  0  0  0  0  0  0  0
   -1.6000   -2.7712    0.0000 C   0  0  0  0  0  0  0  0  0  0  0  0
   -2.4000   -4.1569    0.0000 H   0  0  0  0  0  0  0  0  0  0  0  0
   -2.4000   -1.3856    0.0000 C   0  0  0  0  0  0  0  0  0  0  0  0
   -1.6000    0.0001    0.0000 C   0  0  0  0  0  0  0  0  0  0  0  0
   -2.4000    1.3856    0.0000 C   0  0  0  0  0  0  0  0  0  0  0  0
   -4.0000    1.3856    0.0000 H   0  0  0  0  0  0  0  0  0  0  0  0
   -1.6000    2.7713    0.0000 C   0  0  0  0  0  0  0  0  0  0  0  0
   -2.4000    4.1569    0.0000 H   0  0  0  0  0  0  0  0  0  0  0  0
    0.0000    2.7713    0.0000 C   0  0  0  0  0  0  0  0  0  0  0  0
    0.8000    4.1569    0.0000 H   0  0  0  0  0  0  0  0  0  0  0  0
   -4.0000   -1.3856    0.0000 H   0  0  0  0  0  0  0  0  0  0  0  0
  1  2  2  0  0  0  0
  2  3  1  0  0  0  0
  3  4  1  0  0  0  0
  4  5  1  0  0  0  0
  4  6  2  0  0  0  0
  6  7  1  0  0  0  0
  6  8  1  0  0  0  0
  8  9  1  0  0  0  0
  8 10  2  0  0  0  0
 10 11  1  0  0  0  0
 10 12  1  0  0  0  0
 12  3  2  0  0  0  0
 12 13  1  0  0  0  0
 13  1  1  0  0  0  0
 13 14  2  0  0  0  0
 14 15  1  0  0  0  0
 14 16  1  0  0  0  0
 16 17  1  0  0  0  0
 16 18  2  0  0  0  0
 18 19  1  0  0  0  0
 19  1  1  0  0  0  0
 19 20  2  0  0  0  0
 20 21  1  0  0  0  0
 20 22  1  0  0  0  0
 22 23  1  0  0  0  0
 22 24  2  0  0  0  0
 24  2  1  0  0  0  0
 24 25  1  0  0  0  0
 18 26  1  0  0  0  0
M  END
> <ChemID>
100317

> <source_casrn>
206-44-0

> <CAS>
206-44-0

> <SMILES>
c1ccc2c3c(cccc31)-c1ccccc1-2

> <NAME>
FLUORANTHENE

> <preferred_name>
Fluoranthene

> <iupac>
fluoranthene

> <MPID>
98248

> <dsstox_substance_id>
DTXSID3024104

> <Canonical_QSARr>
c1ccc2c3c(cccc31)-c1ccccc1-2

> <InChI_Code_QSARr>
InChI=1S/C16H10/c1-2-8-13-12(7-1)14-9-3-5-11-6-4-10-15(13)16(11)14/h1-10H

> <InChI Key_QSARr>
GVEPBJHOBDJJJI-UHFFFAOYSA-N

> <Salt_Solvent>
?

> <LogBCF>
3.56

$$$$
100319
  -INDIGO-08031719362D

 29 32  0  0  0  0  0  0  0  0999 V2000
    0.0000    0.0001    0.0000 C   0  0  0  0  0  0  0  0  0  0  0  0
    1.6000    0.0001    0.0000 C   0  0  0  0  0  0  0  0  0  0  0  0
    2.4000   -1.3856    0.0000 C   0  0  0  0  0  0  0  0  0  0  0  0
    4.0000   -1.3856    0.0000 C   0  0  0  0  0  0  0  0  0  0  0  0
    4.8000   -2.7712    0.0000 H   0  0  0  0  0  0  0  0  0  0  0  0
    4.8000    0.0001    0.0000 C   0  0  0  0  0  0  0  0  0  0  0  0
    6.4000    0.0001    0.0000 H   0  0  0  0  0  0  0  0  0  0  0  0
    4.0000    1.3856    0.0000 C   0  0  0  0  0  0  0  0  0  0  0  0
    4.8000    2.7713    0.0000 H   0  0  0  0  0  0  0  0  0  0  0  0
    2.4000    1.3856    0.0000 C   0  0  0  0  0  0  0  0  0  0  0  0
    1.6000    2.7713    0.0000 H   0  0  0  0  0  0  0  0  0  0  0  0
    1.6000   -2.7712    0.0000 C   0  0  0  0  0  0  0  0  0  0  0  0
    2.4000   -4.1569    0.0000 H   0  0  0  0  0  0  0  0  0  0  0  0
    0.0000   -2.7712    0.0000 C   0  0  0  0  0  0  0  0  0  0  0  0
   -0.8000   -4.1569    0.0000 H   0  0  0  0  0  0  0  0  0  0  0  0
   -0.8000   -1.3856    0.0000 C   0  0  0  0  0  0  0  0  0  0  0  0
   -2.4000   -1.3856    0.0000 N   0  0  0  0  0  0  0  0  0  0  0  0
   -3.2000    0.0001    0.0000 C   0  0  0  0  0  0  0  0  0  0  0  0
   -4.8000    0.0001    0.0000 C   0  0  0  0  0  0  0  0  0  0  0  0
   -5.6000   -1.3856    0.0000 H   0  0  0  0  0  0  0  0  0  0  0  0
   -5.6000    1.3856    0.0000 C   0  0  0  0  0  0  0  0  0  0  0  0
   -7.2000    1.3856    0.0000 H   0  0  0  0  0  0  0  0  0  0  0  0
   -4.8000    2.7712    0.0000 C   0  0  0  0  0  0  0  0  0  0  0  0
   -5.6000    4.1569    0.0000 H   0  0  0  0  0  0  0  0  0  0  0  0
   -3.2000    2.7712    0.0000 C   0  0  0  0  0  0  0  0  0  0  0  0
   -2.4000    4.1569    0.0000 H   0  0  0  0  0  0  0  0  0  0  0  0
   -2.4000    1.3856    0.0000 C   0  0  0  0  0  0  0  0  0  0  0  0
   -0.8000    1.3856    0.0000 C   0  0  0  0  0  0  0  0  0  0  0  0
    0.0000    2.7713    0.0000 H   0  0  0  0  0  0  0  0  0  0  0  0
  1  2  1  0  0  0  0
  2  3  1  0  0  0  0
  3  4  2  0  0  0  0
  4  5  1  0  0  0  0
  4  6  1  0  0  0  0
  6  7  1  0  0  0  0
  6  8  2  0  0  0  0
  8  9  1  0  0  0  0
  8 10  1  0  0  0  0
 10  2  2  0  0  0  0
 10 11  1  0  0  0  0
  3 12  1  0  0  0  0
 12 13  1  0  0  0  0
 12 14  2  0  0  0  0
 14 15  1  0  0  0  0
 14 16  1  0  0  0  0
 16  1  1  0  0  0  0
 16 17  2  0  0  0  0
 17 18  1  0  0  0  0
 18 19  1  0  0  0  0
 19 20  1  0  0  0  0
 19 21  2  0  0  0  0
 21 22  1  0  0  0  0
 21 23  1  0  0  0  0
 23 24  1  0  0  0  0
 23 25  2  0  0  0  0
 25 26  1  0  0  0  0
 25 27  1  0  0  0  0
 27 18  2  0  0  0  0
 27 28  1  0  0  0  0
 28  1  2  0  0  0  0
 28 29  1  0  0  0  0
M  END
> <ChemID>
100319

> <source_casrn>
225-11-6

> <CAS>
225-11-6

> <SMILES>
c4ccc3nc2ccc1ccccc1c2cc3c4

> <NAME>
BENZ(A)ACRIDINE

> <preferred_name>
Benz[a]acridine

> <iupac>
benzo[a]acridine

> <MPID>
98250

> <dsstox_substance_id>
DTXSID9075371

> <Canonical_QSARr>
c1c2c3ccccc3ccc2[n]c2ccccc21

> <InChI_Code_QSARr>
InChI=1S/C17H11N/c1-3-7-14-12(5-1)9-10-17-15(14)11-13-6-2-4-8-16(13)18-17/h1-11H

> <InChI Key_QSARr>
JEGZRTMZYUDVBF-UHFFFAOYSA-N

> <Salt_Solvent>
?

> <LogBCF>
2.02

$$$$
100320
  -INDIGO-08031719362D

 35 39  0  0  0  0  0  0  0  0999 V2000
    0.0000   -0.0001    0.0000 C   0  0  0  0  0  0  0  0  0  0  0  0
    1.6001    0.0001    0.0000 C   0  0  0  0  0  0  0  0  0  0  0  0
    2.3999    1.3856    0.0000 C   0  0  0  0  0  0  0  0  0  0  0  0
    4.0001    1.3856    0.0000 C   0  0  0  0  0  0  0  0  0  0  0  0
    4.8001    2.7712    0.0000 H   0  0  0  0  0  0  0  0  0  0  0  0
    4.8001   -0.0001    0.0000 C   0  0  0  0  0  0  0  0  0  0  0  0
    6.4000   -0.0001    0.0000 H   0  0  0  0  0  0  0  0  0  0  0  0
    4.0001   -1.3856    0.0000 C   0  0  0  0  0  0  0  0  0  0  0  0
    4.8001   -2.7712    0.0000 H   0  0  0  0  0  0  0  0  0  0  0  0
    2.3999   -1.3856    0.0000 C   0  0  0  0  0  0  0  0  0  0  0  0
    1.6001   -2.7712    0.0000 H   0  0  0  0  0  0  0  0  0  0  0  0
    1.6001    2.7712    0.0000 C   0  0  0  0  0  0  0  0  0  0  0  0
    2.3999    4.1569    0.0000 H   0  0  0  0  0  0  0  0  0  0  0  0
    0.0000    2.7712    0.0000 C   0  0  0  0  0  0  0  0  0  0  0  0
   -0.8001    4.1569    0.0000 H   0  0  0  0  0  0  0  0  0  0  0  0
   -0.8001    1.3856    0.0000 C   0  0  0  0  0  0  0  0  0  0  0  0
   -2.3999    1.3856    0.0000 N   0  0  0  0  0  0  0  0  0  0  0  0
   -3.2000    0.0001    0.0000 C   0  0  0  0  0  0  0  0  0  0  0  0
   -4.7999   -0.0001    0.0000 C   0  0  0  0  0  0  0  0  0  0  0  0
   -5.5999   -1.3856    0.0000 C   0  0  0  0  0  0  0  0  0  0  0  0
   -4.8001   -2.7712    0.0000 C   0  0  0  0  0  0  0  0  0  0  0  0
   -5.5999   -4.1569    0.0000 H   0  0  0  0  0  0  0  0  0  0  0  0
   -3.2000   -2.7712    0.0000 C   0  0  0  0  0  0  0  0  0  0  0  0
   -2.3999   -4.1569    0.0000 H   0  0  0  0  0  0  0  0  0  0  0  0
   -2.3999   -1.3856    0.0000 C   0  0  0  0  0  0  0  0  0  0  0  0
   -0.8001   -1.3856    0.0000 C   0  0  0  0  0  0  0  0  0  0  0  0
    0.0000   -2.7713    0.0000 H   0  0  0  0  0  0  0  0  0  0  0  0
   -7.2001   -1.3856    0.0000 C   0  0  0  0  0  0  0  0  0  0  0  0
   -8.0001   -2.7713    0.0000 H   0  0  0  0  0  0  0  0  0  0  0  0
   -7.9999   -0.0001    0.0000 C   0  0  0  0  0  0  0  0  0  0  0  0
   -9.6000   -0.0001    0.0000 H   0  0  0  0  0  0  0  0  0  0  0  0
   -7.2001    1.3856    0.0000 C   0  0  0  0  0  0  0  0  0  0  0  0
   -8.0001    2.7712    0.0000 H   0  0  0  0  0  0  0  0  0  0  0  0
   -5.5999    1.3856    0.0000 C   0  0  0  0  0  0  0  0  0  0  0  0
   -4.8001    2.7712    0.0000 H   0  0  0  0  0  0  0  0  0  0  0  0
  1  2  1  0  0  0  0
  2  3  1  0  0  0  0
  3  4  2  0  0  0  0
  4  5  1  0  0  0  0
  4  6  1  0  0  0  0
  6  7  1  0  0  0  0
  6  8  2  0  0  0  0
  8  9  1  0  0  0  0
  8 10  1  0  0  0  0
 10  2  2  0  0  0  0
 10 11  1  0  0  0  0
  3 12  1  0  0  0  0
 12 13  1  0  0  0  0
 12 14  2  0  0  0  0
 14 15  1  0  0  0  0
 14 16  1  0  0  0  0
 16  1  1  0  0  0  0
 16 17  2  0  0  0  0
 17 18  1  0  0  0  0
 18 19  1  0  0  0  0
 19 20  1  0  0  0  0
 20 21  1  0  0  0  0
 21 22  1  0  0  0  0
 21 23  2  0  0  0  0
 23 24  1  0  0  0  0
 23 25  1  0  0  0  0
 25 18  2  0  0  0  0
 25 26  1  0  0  0  0
 26  1  2  0  0  0  0
 26 27  1  0  0  0  0
 20 28  2  0  0  0  0
 28 29  1  0  0  0  0
 28 30  1  0  0  0  0
 30 31  1  0  0  0  0
 30 32  2  0  0  0  0
 32 33  1  0  0  0  0
 32 34  1  0  0  0  0
 34 19  2  0  0  0  0
 34 35  1  0  0  0  0
M  END
> <ChemID>
100320

> <source_casrn>
226-36-8

> <CAS>
226-36-8

> <SMILES>
c1c2c(ccc3ccccc32)[n]c2c3ccccc3ccc21

> <NAME>
DIBENZ(A,H)ACRIDINE

> <preferred_name>
Dibenz[a,h]acridine

> <iupac>


> <MPID>
98251

> <dsstox_substance_id>
DTXSID3059761

> <Canonical_QSARr>
c1c2c(ccc3ccccc32)[n]c2c3ccccc3ccc21

> <InChI_Code_QSARr>
InChI=1S/C21H13N/c1-3-7-17-14(5-1)11-12-20-19(17)13-16-10-9-15-6-2-4-8-18(15)21(16)22-20/h1-13H

> <InChI Key_QSARr>
JNCSIWAONQTVCF-UHFFFAOYSA-N

> <Salt_Solvent>
?

> <LogBCF>
2.03

$$$$
100321
  -INDIGO-08031719362D

 23 25  0  0  0  0  0  0  0  0999 V2000
    0.0001   -0.0000    0.0000 C   0  0  0  0  0  0  0  0  0  0  0  0
    1.3857    0.8000    0.0000 C   0  0  0  0  0  0  0  0  0  0  0  0
    1.3857    2.4000    0.0000 H   0  0  0  0  0  0  0  0  0  0  0  0
    2.7712   -0.0000    0.0000 C   0  0  0  0  0  0  0  0  0  0  0  0
    4.1569    0.8000    0.0000 C   0  0  0  0  0  0  0  0  0  0  0  0
    4.1569    2.4000    0.0000 H   0  0  0  0  0  0  0  0  0  0  0  0
    5.5425   -0.0000    0.0000 C   0  0  0  0  0  0  0  0  0  0  0  0
    6.9282    0.8000    0.0000 H   0  0  0  0  0  0  0  0  0  0  0  0
    5.5425   -1.6000    0.0000 C   0  0  0  0  0  0  0  0  0  0  0  0
    6.9282   -2.4000    0.0000 H   0  0  0  0  0  0  0  0  0  0  0  0
    4.1569   -2.4000    0.0000 C   0  0  0  0  0  0  0  0  0  0  0  0
    4.1569   -4.0000    0.0000 H   0  0  0  0  0  0  0  0  0  0  0  0
    2.7712   -1.6000    0.0000 C   0  0  0  0  0  0  0  0  0  0  0  0
    1.3857   -2.4000    0.0000 N   0  0  0  0  0  0  0  0  0  0  0  0
    0.0001   -1.6000    0.0000 C   0  0  0  0  0  0  0  0  0  0  0  0
   -1.3856   -2.4000    0.0000 C   0  0  0  0  0  0  0  0  0  0  0  0
   -1.3856   -4.0000    0.0000 H   0  0  0  0  0  0  0  0  0  0  0  0
   -2.7713   -1.6000    0.0000 C   0  0  0  0  0  0  0  0  0  0  0  0
   -4.1569   -2.4000    0.0000 H   0  0  0  0  0  0  0  0  0  0  0  0
   -2.7713   -0.0000    0.0000 C   0  0  0  0  0  0  0  0  0  0  0  0
   -4.1569    0.8000    0.0000 H   0  0  0  0  0  0  0  0  0  0  0  0
   -1.3856    0.8000    0.0000 C   0  0  0  0  0  0  0  0  0  0  0  0
   -1.3856    2.4000    0.0000 H   0  0  0  0  0  0  0  0  0  0  0  0
  1  2  2  0  0  0  0
  2  3  1  0  0  0  0
  2  4  1  0  0  0  0
  4  5  1  0  0  0  0
  5  6  1  0  0  0  0
  5  7  2  0  0  0  0
  7  8  1  0  0  0  0
  7  9  1  0  0  0  0
  9 10  1  0  0  0  0
  9 11  2  0  0  0  0
 11 12  1  0  0  0  0
 11 13  1  0  0  0  0
 13  4  2  0  0  0  0
 13 14  1  0  0  0  0
 14 15  2  0  0  0  0
 15  1  1  0  0  0  0
 15 16  1  0  0  0  0
 16 17  1  0  0  0  0
 16 18  2  0  0  0  0
 18 19  1  0  0  0  0
 18 20  1  0  0  0  0
 20 21  1  0  0  0  0
 20 22  2  0  0  0  0
 22  1  1  0  0  0  0
 22 23  1  0  0  0  0
M  END
> <ChemID>
100321

> <source_casrn>
260-49-6

> <CAS>
260-94-6

> <SMILES>
n(c(c(ccc1)cc2cccc3)c1)c23

> <NAME>
Acridine

> <preferred_name>
Acridine

> <iupac>
Acridine

> <MPID>
98252

> <dsstox_substance_id>
DTXSID8059766

> <Canonical_QSARr>
c1c2ccccc2[n]c2ccccc21

> <InChI_Code_QSARr>
InChI=1S/C13H9N/c1-3-7-12-10(5-1)9-11-6-2-4-8-13(11)14-12/h1-9H

> <InChI Key_QSARr>
DZBUGLKDJFMEHC-UHFFFAOYSA-N

> <Salt_Solvent>
?

> <LogBCF>
2.1

$$$$
100323
  -INDIGO-08031719362D

 26 26  0  0  0  0  0  0  0  0999 V2000
    0.0000    1.6000    0.0000 S   0  0  0  0  0  0  0  0  0  0  0  0
    0.0000   -0.0000    0.0000 P   0  0  0  0  0  0  0  0  0  0  0  0
    1.3857    0.8000    0.0000 O   0  0  0  0  0  0  0  0  0  0  0  0
    2.7712   -0.0000    0.0000 C   0  0  0  0  0  0  0  0  0  0  0  0
    2.7712   -1.6000    0.0000 C   0  0  0  0  0  0  0  0  0  0  0  0
    1.3857   -2.4000    0.0000 H   0  0  0  0  0  0  0  0  0  0  0  0
    4.1569   -2.4000    0.0000 C   0  0  0  0  0  0  0  0  0  0  0  0
    4.1569   -4.0000    0.0000 H   0  0  0  0  0  0  0  0  0  0  0  0
    5.5426   -1.6000    0.0000 C   0  0  0  0  0  0  0  0  0  0  0  0
    6.9281   -2.4000    0.0000 N   0  0  0  0  0  0  0  0  0  0  0  0
    8.3138   -1.6000    0.0000 O   0  0  0  0  0  0  0  0  0  0  0  0
    6.9281   -4.0000    0.0000 O   0  0  0  0  0  0  0  0  0  0  0  0
    5.5426   -0.0000    0.0000 C   0  0  0  0  0  0  0  0  0  0  0  0
    6.9281    0.8000    0.0000 H   0  0  0  0  0  0  0  0  0  0  0  0
    4.1569    0.8000    0.0000 C   0  0  0  0  0  0  0  0  0  0  0  0
    4.1569    2.4000    0.0000 H   0  0  0  0  0  0  0  0  0  0  0  0
   -1.3857    0.8000    0.0000 O   0  0  0  0  0  0  0  0  0  0  0  0
   -2.7712   -0.0000    0.0000 C   0  0  0  0  0  0  0  0  0  0  0  0
   -4.1569    0.8000    0.0000 H   0  0  0  0  0  0  0  0  0  0  0  0
   -4.1569   -0.8000    0.0000 H   0  0  0  0  0  0  0  0  0  0  0  0
   -2.7712    1.6000    0.0000 H   0  0  0  0  0  0  0  0  0  0  0  0
   -1.3857   -0.8000    0.0000 O   0  0  0  0  0  0  0  0  0  0  0  0
   -1.3857   -2.4000    0.0000 C   0  0  0  0  0  0  0  0  0  0  0  0
   -1.3857   -4.0000    0.0000 H   0  0  0  0  0  0  0  0  0  0  0  0
   -2.7712   -3.2000    0.0000 H   0  0  0  0  0  0  0  0  0  0  0  0
    0.0000   -3.2000    0.0000 H   0  0  0  0  0  0  0  0  0  0  0  0
  1  2  2  0  0  0  0
  2  3  1  0  0  0  0
  3  4  1  0  0  0  0
  4  5  1  0  0  0  0
  5  6  1  0  0  0  0
  5  7  2  0  0  0  0
  7  8  1  0  0  0  0
  7  9  1  0  0  0  0
  9 10  1  0  0  0  0
 10 11  2  0  0  0  0
 10 12  1  0  0  0  0
  9 13  2  0  0  0  0
 13 14  1  0  0  0  0
 13 15  1  0  0  0  0
 15  4  2  0  0  0  0
 15 16  1  0  0  0  0
  2 17  1  0  0  0  0
 17 18  1  0  0  0  0
 18 19  1  0  0  0  0
 18 20  1  0  0  0  0
 18 21  1  0  0  0  0
  2 22  1  0  0  0  0
 22 23  1  0  0  0  0
 23 24  1  0  0  0  0
 23 25  1  0  0  0  0
 23 26  1  0  0  0  0
M  CHG  2  10   1  12  -1
M  END
> <ChemID>
100323

> <source_casrn>
298-00-0

> <CAS>
298-00-0

> <SMILES>
COP(=S)(OC)Oc1ccc(cc1)N(=O)=O

> <NAME>
PARATHION METHYL

> <preferred_name>
Methyl parathion

> <iupac>
O,O-dimethyl O-(4-nitrophenyl) phosphorothioate

> <MPID>
98254

> <dsstox_substance_id>
DTXSID1020855

> <Canonical_QSARr>
COP(=S)(Oc1ccc(cc1)[N+]([O-])=O)OC

> <InChI_Code_QSARr>
InChI=1S/C8H10NO5PS/c1-12-15(16,13-2)14-8-5-3-7(4-6-8)9(10)11/h3-6H,1-2H3

> <InChI Key_QSARr>
RLBIQVVOMOPOHC-UHFFFAOYSA-N

> <Salt_Solvent>
?

> <LogBCF>
1.93

$$$$
100324
  -INDIGO-08031719362D

 33 32  0  0  0  0  0  0  0  0999 V2000
    2.7714    3.2001    0.0000 C   0  0  0  0  0  0  0  0  0  0  0  0
    4.1569    4.0000    0.0000 H   0  0  0  0  0  0  0  0  0  0  0  0
    2.7714    4.8000    0.0000 H   0  0  0  0  0  0  0  0  0  0  0  0
    4.1569    2.4000    0.0000 H   0  0  0  0  0  0  0  0  0  0  0  0
    1.3856    2.4000    0.0000 C   0  0  0  0  0  0  0  0  0  0  0  0
    0.4116    3.6694    0.0000 H   0  0  0  0  0  0  0  0  0  0  0  0
   -0.2008    2.6089    0.0000 H   0  0  0  0  0  0  0  0  0  0  0  0
    1.3856    0.8000    0.0000 O   0  0  0  0  0  0  0  0  0  0  0  0
    0.0001    0.0001    0.0000 P   0  0  0  0  0  0  0  0  0  0  0  0
    1.3856   -0.8000    0.0000 O   0  0  0  0  0  0  0  0  0  0  0  0
    1.3856   -2.4000    0.0000 C   0  0  0  0  0  0  0  0  0  0  0  0
   -0.2008   -2.6089    0.0000 H   0  0  0  0  0  0  0  0  0  0  0  0
    0.4116   -3.6694    0.0000 H   0  0  0  0  0  0  0  0  0  0  0  0
    2.7714   -3.2001    0.0000 C   0  0  0  0  0  0  0  0  0  0  0  0
    4.1569   -4.0000    0.0000 H   0  0  0  0  0  0  0  0  0  0  0  0
    2.7714   -4.8000    0.0000 H   0  0  0  0  0  0  0  0  0  0  0  0
    4.1569   -2.4000    0.0000 H   0  0  0  0  0  0  0  0  0  0  0  0
    0.0001   -1.6000    0.0000 S   0  0  0  0  0  0  0  0  0  0  0  0
   -1.3856    0.8000    0.0000 S   0  0  0  0  0  0  0  0  0  0  0  0
   -2.7712    0.0001    0.0000 C   0  0  0  0  0  0  0  0  0  0  0  0
   -3.3835   -1.4783    0.0000 H   0  0  0  0  0  0  0  0  0  0  0  0
   -2.1591   -1.4783    0.0000 H   0  0  0  0  0  0  0  0  0  0  0  0
   -4.1569    0.8000    0.0000 C   0  0  0  0  0  0  0  0  0  0  0  0
   -3.5446    2.2782    0.0000 H   0  0  0  0  0  0  0  0  0  0  0  0
   -4.7692    2.2782    0.0000 H   0  0  0  0  0  0  0  0  0  0  0  0
   -5.5425    0.0001    0.0000 S   0  0  0  0  0  0  0  0  0  0  0  0
   -6.9282    0.8000    0.0000 C   0  0  0  0  0  0  0  0  0  0  0  0
   -6.3159    2.2782    0.0000 H   0  0  0  0  0  0  0  0  0  0  0  0
   -7.5405    2.2782    0.0000 H   0  0  0  0  0  0  0  0  0  0  0  0
   -8.3137    0.0001    0.0000 C   0  0  0  0  0  0  0  0  0  0  0  0
   -9.6995   -0.8000    0.0000 H   0  0  0  0  0  0  0  0  0  0  0  0
   -9.6995    0.8000    0.0000 H   0  0  0  0  0  0  0  0  0  0  0  0
   -8.3137   -1.6000    0.0000 H   0  0  0  0  0  0  0  0  0  0  0  0
  1  2  1  0  0  0  0
  1  3  1  0  0  0  0
  1  4  1  0  0  0  0
  1  5  1  0  0  0  0
  5  6  1  0  0  0  0
  5  7  1  0  0  0  0
  5  8  1  0  0  0  0
  8  9  1  0  0  0  0
  9 10  1  0  0  0  0
 10 11  1  0  0  0  0
 11 12  1  0  0  0  0
 11 13  1  0  0  0  0
 11 14  1  0  0  0  0
 14 15  1  0  0  0  0
 14 16  1  0  0  0  0
 14 17  1  0  0  0  0
  9 18  2  0  0  0  0
  9 19  1  0  0  0  0
 19 20  1  0  0  0  0
 20 21  1  0  0  0  0
 20 22  1  0  0  0  0
 20 23  1  0  0  0  0
 23 24  1  0  0  0  0
 23 25  1  0  0  0  0
 23 26  1  0  0  0  0
 26 27  1  0  0  0  0
 27 28  1  0  0  0  0
 27 29  1  0  0  0  0
 27 30  1  0  0  0  0
 30 31  1  0  0  0  0
 30 32  1  0  0  0  0
 30 33  1  0  0  0  0
M  END
> <ChemID>
100324

> <source_casrn>
298-04-4

> <CAS>
298-04-4

> <SMILES>
CCSCCSP(=S)(OCC)OCC

> <NAME>
DISULFOTON

> <preferred_name>
Disulfoton

> <iupac>
O,O-diethyl S-[2-(ethylsulfanyl)ethyl] phosphorodithioate

> <MPID>
98255

> <dsstox_substance_id>
DTXSID0022018

> <Canonical_QSARr>
CCSCCSP(=S)(OCC)OCC

> <InChI_Code_QSARr>
InChI=1S/C8H19O2PS3/c1-4-9-11(12,10-5-2)14-8-7-13-6-3/h4-8H2,1-3H3

> <InChI Key_QSARr>
DOFZAZXDOSGAJZ-UHFFFAOYSA-N

> <Salt_Solvent>
?

> <LogBCF>
2.34

$$$$
100325
  -INDIGO-08031719362D

 20 19  0  0  0  0  0  0  0  0999 V2000
    0.0001    0.0000    0.0000 P   0  0  0  0  0  0  0  0  0  0  0  0
    1.3856   -0.8000    0.0000 O   0  0  0  0  0  0  0  0  0  0  0  0
    2.7712    0.0000    0.0000 C   0  0  0  0  0  0  0  0  0  0  0  0
    3.3836    1.4782    0.0000 H   0  0  0  0  0  0  0  0  0  0  0  0
    2.1589    1.4782    0.0000 H   0  0  0  0  0  0  0  0  0  0  0  0
    4.1569   -0.8000    0.0000 C   0  0  0  0  0  0  0  0  0  0  0  0
    5.5426   -1.6000    0.0000 H   0  0  0  0  0  0  0  0  0  0  0  0
    5.5426   -0.0000    0.0000 H   0  0  0  0  0  0  0  0  0  0  0  0
    4.1569   -2.4000    0.0000 H   0  0  0  0  0  0  0  0  0  0  0  0
   -1.3856    0.8000    0.0000 O   0  0  0  0  0  0  0  0  0  0  0  0
   -2.7712    0.0000    0.0000 C   0  0  0  0  0  0  0  0  0  0  0  0
   -3.3836   -1.4782    0.0000 H   0  0  0  0  0  0  0  0  0  0  0  0
   -2.1589   -1.4782    0.0000 H   0  0  0  0  0  0  0  0  0  0  0  0
   -4.1569    0.8000    0.0000 C   0  0  0  0  0  0  0  0  0  0  0  0
   -5.5426    1.6000    0.0000 H   0  0  0  0  0  0  0  0  0  0  0  0
   -5.5426    0.0000    0.0000 H   0  0  0  0  0  0  0  0  0  0  0  0
   -4.1569    2.4000    0.0000 H   0  0  0  0  0  0  0  0  0  0  0  0
    1.3856    0.8000    0.0000 S   0  0  0  0  0  0  0  0  0  0  0  0
    1.3856    2.4000    0.0000 H   0  0  0  0  0  0  0  0  0  0  0  0
    0.0001   -1.6000    0.0000 S   0  0  0  0  0  0  0  0  0  0  0  0
  1  2  1  0  0  0  0
  2  3  1  0  0  0  0
  3  4  1  0  0  0  0
  3  5  1  0  0  0  0
  3  6  1  0  0  0  0
  6  7  1  0  0  0  0
  6  8  1  0  0  0  0
  6  9  1  0  0  0  0
  1 10  1  0  0  0  0
 10 11  1  0  0  0  0
 11 12  1  0  0  0  0
 11 13  1  0  0  0  0
 11 14  1  0  0  0  0
 14 15  1  0  0  0  0
 14 16  1  0  0  0  0
 14 17  1  0  0  0  0
  1 18  1  0  0  0  0
 18 19  1  0  0  0  0
  1 20  2  0  0  0  0
M  END
> <ChemID>
100325

> <source_casrn>
298-06-6

> <CAS>
298-06-6

> <SMILES>
CCOP(S)(=S)OCC

> <NAME>
O,O-Diethyl dithiophosphate

> <preferred_name>
O,O-Diethyl dithiophosphate

> <iupac>
O,O-diethyl hydrogen phosphorodithioate

> <MPID>
98256

> <dsstox_substance_id>
DTXSID6027133

> <Canonical_QSARr>
CCOP(S)(=S)OCC

> <InChI_Code_QSARr>
InChI=1S/C4H11O2PS2/c1-3-5-7(8,9)6-4-2/h3-4H2,1-2H3,(H,8,9)

> <InChI Key_QSARr>
IRDLUHRVLVEUHA-UHFFFAOYSA-N

> <Salt_Solvent>
?

> <LogBCF>
0.7

$$$$
100327
  -INDIGO-08031719362D

 24 24  0  0  0  0  0  0  0  0999 V2000
    0.0001   -0.0000    0.0000 P   0  0  0  0  0  0  0  0  0  0  0  0
    1.3857    0.8000    0.0000 O   0  0  0  0  0  0  0  0  0  0  0  0
    2.7712   -0.0000    0.0000 C   0  0  0  0  0  0  0  0  0  0  0  0
    2.7712   -1.6000    0.0000 C   0  0  0  0  0  0  0  0  0  0  0  0
    1.3856   -2.4000    0.0000 H   0  0  0  0  0  0  0  0  0  0  0  0
    4.1569   -2.4000    0.0000 C   0  0  0  0  0  0  0  0  0  0  0  0
    4.1569   -4.0000    0.0000 Cl  0  0  0  0  0  0  0  0  0  0  0  0
    5.5425   -1.6000    0.0000 C   0  0  0  0  0  0  0  0  0  0  0  0
    6.9282   -2.4000    0.0000 Cl  0  0  0  0  0  0  0  0  0  0  0  0
    5.5425   -0.0000    0.0000 C   0  0  0  0  0  0  0  0  0  0  0  0
    6.9282    0.8000    0.0000 H   0  0  0  0  0  0  0  0  0  0  0  0
    4.1569    0.8000    0.0000 C   0  0  0  0  0  0  0  0  0  0  0  0
    4.1569    2.4000    0.0000 Cl  0  0  0  0  0  0  0  0  0  0  0  0
    0.0001    1.6000    0.0000 S   0  0  0  0  0  0  0  0  0  0  0  0
   -1.3856    0.8000    0.0000 O   0  0  0  0  0  0  0  0  0  0  0  0
   -2.7713   -0.0000    0.0000 C   0  0  0  0  0  0  0  0  0  0  0  0
   -4.1569    0.8000    0.0000 H   0  0  0  0  0  0  0  0  0  0  0  0
   -4.1569   -0.8000    0.0000 H   0  0  0  0  0  0  0  0  0  0  0  0
   -2.7713    1.6000    0.0000 H   0  0  0  0  0  0  0  0  0  0  0  0
   -1.3856   -0.8000    0.0000 O   0  0  0  0  0  0  0  0  0  0  0  0
   -1.3856   -2.4000    0.0000 C   0  0  0  0  0  0  0  0  0  0  0  0
   -1.3856   -4.0000    0.0000 H   0  0  0  0  0  0  0  0  0  0  0  0
   -2.7713   -3.2000    0.0000 H   0  0  0  0  0  0  0  0  0  0  0  0
    0.0001   -3.2000    0.0000 H   0  0  0  0  0  0  0  0  0  0  0  0
  1  2  1  0  0  0  0
  2  3  1  0  0  0  0
  3  4  1  0  0  0  0
  4  5  1  0  0  0  0
  4  6  2  0  0  0  0
  6  7  1  0  0  0  0
  6  8  1  0  0  0  0
  8  9  1  0  0  0  0
  8 10  2  0  0  0  0
 10 11  1  0  0  0  0
 10 12  1  0  0  0  0
 12  3  2  0  0  0  0
 12 13  1  0  0  0  0
  1 14  2  0  0  0  0
  1 15  1  0  0  0  0
 15 16  1  0  0  0  0
 16 17  1  0  0  0  0
 16 18  1  0  0  0  0
 16 19  1  0  0  0  0
  1 20  1  0  0  0  0
 20 21  1  0  0  0  0
 21 22  1  0  0  0  0
 21 23  1  0  0  0  0
 21 24  1  0  0  0  0
M  END
> <ChemID>
100327

> <source_casrn>
299-84-3

> <CAS>
299-84-3

> <SMILES>
COP(=S)(Oc1cc(Cl)c(Cl)cc1Cl)OC

> <NAME>
RONNEL

> <preferred_name>
Fenchlorphos

> <iupac>
O,O-dimethyl O-(2,4,5-trichlorophenyl) phosphorothioate

> <MPID>
98258

> <dsstox_substance_id>
DTXSID2034885

> <Canonical_QSARr>
COP(=S)(Oc1cc(Cl)c(Cl)cc1Cl)OC

> <InChI_Code_QSARr>
InChI=1S/C8H8Cl3O3PS/c1-12-15(16,13-2)14-8-4-6(10)5(9)3-7(8)11/h3-4H,1-2H3

> <InChI Key_QSARr>
JHJOOSLFWRRSGU-UHFFFAOYSA-N

> <Salt_Solvent>
?

> <LogBCF>
3.58

$$$$
100328
  -INDIGO-08031719362D

 26 29  0  0  0  0  0  0  0  0999 V2000
   -0.0000    0.0000    0.0000 C   0  0  0  0  0  0  0  0  0  0  0  0
    0.3326    1.5651    0.0000 H   0  0  0  0  0  0  0  0  0  0  0  0
    1.5912    0.1672    0.0000 C   0  0  0  0  0  0  0  0  0  0  0  0
    1.9239    1.7323    0.0000 H   0  0  0  0  0  0  0  0  0  0  0  0
    2.9769   -0.6327    0.0000 C   0  0  0  0  0  0  0  0  0  0  0  0
    4.4385    0.0181    0.0000 H   0  0  0  0  0  0  0  0  0  0  0  0
    2.6442   -2.1978    0.0000 C   0  0  0  0  0  0  0  0  0  0  0  0
    3.7148   -3.3868    0.0000 H   0  0  0  0  0  0  0  0  0  0  0  0
    1.0530   -2.3650    0.0000 C   0  0  0  0  0  0  0  0  0  0  0  0
    0.7204   -3.9301    0.0000 H   0  0  0  0  0  0  0  0  0  0  0  0
    2.2420   -1.2945    0.0000 C   0  0  0  0  0  0  0  0  0  0  0  0
    3.8177   -1.0166    0.0000 H   0  0  0  0  0  0  0  0  0  0  0  0
    3.5685   -2.1891    0.0000 H   0  0  0  0  0  0  0  0  0  0  0  0
   -0.3326   -1.5650    0.0000 C   0  0  0  0  0  0  0  0  0  0  0  0
   -0.6653   -3.1301    0.0000 H   0  0  0  0  0  0  0  0  0  0  0  0
   -1.9239   -1.7323    0.0000 C   0  0  0  0  0  0  0  0  0  0  0  0
   -3.3095   -0.9323    0.0000 C   0  0  0  0  0  0  0  0  0  0  0  0
   -4.7712   -1.5831    0.0000 Cl  0  0  0  0  0  0  0  0  0  0  0  0
   -2.9769    0.6327    0.0000 C   0  0  0  0  0  0  0  0  0  0  0  0
   -4.0475    1.8218    0.0000 Cl  0  0  0  0  0  0  0  0  0  0  0  0
   -1.3857    0.8000    0.0000 C   0  0  0  0  0  0  0  0  0  0  0  0
   -1.0530    2.3650    0.0000 Cl  0  0  0  0  0  0  0  0  0  0  0  0
   -2.5747   -0.2706    0.0000 C   0  0  0  0  0  0  0  0  0  0  0  0
   -4.1503   -0.5485    0.0000 Cl  0  0  0  0  0  0  0  0  0  0  0  0
   -3.9012    0.6241    0.0000 Cl  0  0  0  0  0  0  0  0  0  0  0  0
   -2.2565   -3.2973    0.0000 Cl  0  0  0  0  0  0  0  0  0  0  0  0
  1  2  1  0  0  0  0
  1  3  1  0  0  0  0
  3  4  1  0  0  0  0
  3  5  1  0  0  0  0
  5  6  1  0  0  0  0
  5  7  2  0  0  0  0
  7  8  1  0  0  0  0
  7  9  1  0  0  0  0
  9 10  1  0  0  0  0
  9 11  1  0  0  0  0
 11  3  1  0  0  0  0
 11 12  1  0  0  0  0
 11 13  1  0  0  0  0
  9 14  1  0  0  0  0
 14  1  1  0  0  0  0
 14 15  1  0  0  0  0
 14 16  1  0  0  0  0
 16 17  1  0  0  0  0
 17 18  1  0  0  0  0
 17 19  2  0  0  0  0
 19 20  1  0  0  0  0
 19 21  1  0  0  0  0
 21  1  1  0  0  0  0
 21 22  1  0  0  0  0
 21 23  1  0  0  0  0
 23 16  1  0  0  0  0
 23 24  1  0  0  0  0
 23 25  1  0  0  0  0
 16 26  1  0  0  0  0
M  END
> <ChemID>
100328

> <source_casrn>
309-00-2

> <CAS>
309-00-2

> <SMILES>
ClC1(Cl)[C@@]2(Cl)[C@@H]3[C@@H]4C[C@@H](C=C4)[C@@H]3[C@]1(Cl)C(Cl)=C2Cl |&1:3,5,6,8,11,12|

> <NAME>
ALDRIN

> <preferred_name>
Aldrin

> <iupac>
C12H8Cl6

> <MPID>
98259

> <dsstox_substance_id>
DTXSID8020040

> <Canonical_QSARr>
ClC1(Cl)C2(Cl)C3C4CC(C=C4)C3C1(Cl)C(Cl)=C2Cl

> <InChI_Code_QSARr>
InChI=1S/C12H8Cl6/c13-8-9(14)11(16)7-5-2-1-4(3-5)6(7)10(8,15)12(11,17)18/h1-2,4-7H,3H2

> <InChI Key_QSARr>
QBYJBZPUGVGKQQ-UHFFFAOYSA-N

> <Salt_Solvent>
?

> <LogBCF>
3.74

$$$$
100329
  -INDIGO-08031719362D

 27 27  0  0  0  0  0  0  0  0999 V2000
    4.8001    2.7713    0.0000 Br  0  0  0  0  0  0  0  0  0  0  0  0
    4.0000    1.3857    0.0000 C   0  0  0  0  0  0  0  0  0  0  0  0
    4.8001   -0.0000    0.0000 C   0  0  0  0  0  0  0  0  0  0  0  0
    6.4000   -0.0000    0.0000 C   0  0  0  0  0  0  0  0  0  0  0  0
    8.0000   -0.0000    0.0000 H   0  0  0  0  0  0  0  0  0  0  0  0
    7.2001   -1.3857    0.0000 H   0  0  0  0  0  0  0  0  0  0  0  0
    7.2001    1.3857    0.0000 H   0  0  0  0  0  0  0  0  0  0  0  0
    4.0000   -1.3857    0.0000 N   0  0  0  0  0  0  0  0  0  0  0  0
    4.8001   -2.7713    0.0000 H   0  0  0  0  0  0  0  0  0  0  0  0
    2.3999   -1.3857    0.0000 C   0  0  0  0  0  0  0  0  0  0  0  0
    1.6000   -2.7713    0.0000 O   0  0  0  0  0  0  0  0  0  0  0  0
    1.6000   -0.0000    0.0000 N   0  0  0  0  0  0  0  0  0  0  0  0
   -0.0001   -0.0000    0.0000 C   0  0  0  0  0  0  0  0  0  0  0  0
   -0.0001   -1.6000    0.0000 H   0  0  0  0  0  0  0  0  0  0  0  0
   -0.0001    1.6000    0.0000 C   0  0  0  0  0  0  0  0  0  0  0  0
   -1.3856    2.4000    0.0000 H   0  0  0  0  0  0  0  0  0  0  0  0
   -0.0001    3.2000    0.0000 H   0  0  0  0  0  0  0  0  0  0  0  0
   -1.3856    0.8000    0.0000 H   0  0  0  0  0  0  0  0  0  0  0  0
   -1.3856   -0.8000    0.0000 C   0  0  0  0  0  0  0  0  0  0  0  0
   -2.3597    0.4694    0.0000 H   0  0  0  0  0  0  0  0  0  0  0  0
   -2.9720   -0.5911    0.0000 H   0  0  0  0  0  0  0  0  0  0  0  0
   -1.3856   -2.4000    0.0000 C   0  0  0  0  0  0  0  0  0  0  0  0
   -1.3856   -4.0000    0.0000 H   0  0  0  0  0  0  0  0  0  0  0  0
   -2.7712   -3.2000    0.0000 H   0  0  0  0  0  0  0  0  0  0  0  0
   -0.0001   -3.2000    0.0000 H   0  0  0  0  0  0  0  0  0  0  0  0
    2.3999    1.3857    0.0000 C   0  0  0  0  0  0  0  0  0  0  0  0
    1.6000    2.7713    0.0000 O   0  0  0  0  0  0  0  0  0  0  0  0
  1  2  1  0  0  0  0
  2  3  2  0  0  0  0
  3  4  1  0  0  0  0
  4  5  1  0  0  0  0
  4  6  1  0  0  0  0
  4  7  1  0  0  0  0
  3  8  1  0  0  0  0
  8  9  1  0  0  0  0
  8 10  1  0  0  0  0
 10 11  2  0  0  0  0
 10 12  1  0  0  0  0
 12 13  1  0  0  0  0
 13 14  1  0  0  0  0
 13 15  1  0  0  0  0
 15 16  1  0  0  0  0
 15 17  1  0  0  0  0
 15 18  1  0  0  0  0
 13 19  1  0  0  0  0
 19 20  1  0  0  0  0
 19 21  1  0  0  0  0
 19 22  1  0  0  0  0
 22 23  1  0  0  0  0
 22 24  1  0  0  0  0
 22 25  1  0  0  0  0
 12 26  1  0  0  0  0
 26  2  1  0  0  0  0
 26 27  2  0  0  0  0
M  END
> <ChemID>
100329

> <source_casrn>
314-40-9

> <CAS>
314-40-9

> <SMILES>
CC1NC(=O)N(C(C)CC)C(=O)C=1Br

> <NAME>
BROMACIL

> <preferred_name>
Bromacil

> <iupac>
5-bromo-3-(butan-2-yl)-6-methylpyrimidine-2,4(1H,3H)-dione

> <MPID>
98260

> <dsstox_substance_id>
DTXSID4022020

> <Canonical_QSARr>
CC1NC(=O)N(C(C)CC)C(=O)C=1Br

> <InChI_Code_QSARr>
InChI=1S/C9H13BrN2O2/c1-4-5(2)12-8(13)7(10)6(3)11-9(12)14/h5H,4H2,1-3H3,(H,11,14)

> <InChI Key_QSARr>
CTSLUCNDVMMDHG-UHFFFAOYSA-N

> <Salt_Solvent>
?

> <LogBCF>
0.51

$$$$
100334
  -INDIGO-08031719362D

 15 15  0  0  0  0  0  0  0  0999 V2000
    2.4001    1.3856    0.0000 C   0  0  0  0  0  0  0  0  0  0  0  0
    3.2000    2.7713    0.0000 H   0  0  0  0  0  0  0  0  0  0  0  0
    0.7999    1.3856    0.0000 C   0  0  0  0  0  0  0  0  0  0  0  0
    0.0000    2.7713    0.0000 Cl  0  0  0  0  0  0  0  0  0  0  0  0
    0.0000    0.0000    0.0000 C   0  0  0  0  0  0  0  0  0  0  0  0
   -1.6000    0.0000    0.0000 C   0  0  0  0  0  0  0  0  0  0  0  0
   -3.2000    0.0000    0.0000 F   0  0  0  0  0  0  0  0  0  0  0  0
   -2.4001   -1.3856    0.0000 F   0  0  0  0  0  0  0  0  0  0  0  0
   -2.4001    1.3856    0.0000 F   0  0  0  0  0  0  0  0  0  0  0  0
    0.8001   -1.3856    0.0000 C   0  0  0  0  0  0  0  0  0  0  0  0
    0.0000   -2.7713    0.0000 H   0  0  0  0  0  0  0  0  0  0  0  0
    2.4001   -1.3856    0.0000 C   0  0  0  0  0  0  0  0  0  0  0  0
    3.2000   -2.7713    0.0000 H   0  0  0  0  0  0  0  0  0  0  0  0
    3.2000   -0.0000    0.0000 C   0  0  0  0  0  0  0  0  0  0  0  0
    4.8000    0.0000    0.0000 Cl  0  0  0  0  0  0  0  0  0  0  0  0
  1  2  1  0  0  0  0
  1  3  1  0  0  0  0
  3  4  1  0  0  0  0
  3  5  2  0  0  0  0
  5  6  1  0  0  0  0
  6  7  1  0  0  0  0
  6  8  1  0  0  0  0
  6  9  1  0  0  0  0
  5 10  1  0  0  0  0
 10 11  1  0  0  0  0
 10 12  2  0  0  0  0
 12 13  1  0  0  0  0
 12 14  1  0  0  0  0
 14  1  2  0  0  0  0
 14 15  1  0  0  0  0
M  END
> <ChemID>
100334

> <source_casrn>
320-60-5

> <CAS>
320-60-5

> <SMILES>
FC(F)(F)c1ccc(Cl)cc1Cl

> <NAME>
2,4-DICHLORO(TRIFLUOROMETHYL)BENZENE

> <preferred_name>
2,4-Dichlorobenzotrifluoride

> <iupac>
2,4-dichloro-1-(trifluoromethyl)benzene

> <MPID>
98265

> <dsstox_substance_id>
DTXSID0047959

> <Canonical_QSARr>
FC(F)(F)c1ccc(Cl)cc1Cl

> <InChI_Code_QSARr>
InChI=1S/C7H3Cl2F3/c8-4-1-2-5(6(9)3-4)7(10,11)12/h1-3H

> <InChI Key_QSARr>
KALSHRGEFLVFHE-UHFFFAOYSA-N

> <Salt_Solvent>
?

> <LogBCF>
3.37

$$$$
100335
  -INDIGO-08031719362D

 15 15  0  0  0  0  0  0  0  0999 V2000
    3.2000   -0.0000    0.0000 C   0  0  0  0  0  0  0  0  0  0  0  0
    2.4001    1.3856    0.0000 C   0  0  0  0  0  0  0  0  0  0  0  0
    3.2000    2.7713    0.0000 H   0  0  0  0  0  0  0  0  0  0  0  0
    0.7999    1.3856    0.0000 C   0  0  0  0  0  0  0  0  0  0  0  0
    0.0000    2.7713    0.0000 H   0  0  0  0  0  0  0  0  0  0  0  0
    0.0000   -0.0000    0.0000 C   0  0  0  0  0  0  0  0  0  0  0  0
   -1.6000   -0.0000    0.0000 C   0  0  0  0  0  0  0  0  0  0  0  0
   -3.2000   -0.0000    0.0000 F   0  0  0  0  0  0  0  0  0  0  0  0
   -2.4001   -1.3856    0.0000 F   0  0  0  0  0  0  0  0  0  0  0  0
   -2.4001    1.3856    0.0000 F   0  0  0  0  0  0  0  0  0  0  0  0
    0.7999   -1.3856    0.0000 C   0  0  0  0  0  0  0  0  0  0  0  0
    0.0000   -2.7713    0.0000 H   0  0  0  0  0  0  0  0  0  0  0  0
    2.4001   -1.3856    0.0000 C   0  0  0  0  0  0  0  0  0  0  0  0
    3.2000   -2.7713    0.0000 Cl  0  0  0  0  0  0  0  0  0  0  0  0
    4.8000   -0.0000    0.0000 Cl  0  0  0  0  0  0  0  0  0  0  0  0
  1  2  1  0  0  0  0
  2  3  1  0  0  0  0
  2  4  2  0  0  0  0
  4  5  1  0  0  0  0
  4  6  1  0  0  0  0
  6  7  1  0  0  0  0
  7  8  1  0  0  0  0
  7  9  1  0  0  0  0
  7 10  1  0  0  0  0
  6 11  2  0  0  0  0
 11 12  1  0  0  0  0
 11 13  1  0  0  0  0
 13  1  2  0  0  0  0
 13 14  1  0  0  0  0
  1 15  1  0  0  0  0
M  END
> <ChemID>
100335

> <source_casrn>
328-84-7

> <CAS>
328-84-7

> <SMILES>
FC(F)(F)c1cc(Cl)c(Cl)cc1

> <NAME>
3,4-DICHLOROBENZOTRIFLUORIDE

> <preferred_name>
1,2-Dichloro-4-(trifluoromethyl)benzene

> <iupac>
1,2-dichloro-4-(trifluoromethyl)benzene

> <MPID>
98266

> <dsstox_substance_id>
DTXSID5027142

> <Canonical_QSARr>
FC(F)(F)c1cc(Cl)c(Cl)cc1

> <InChI_Code_QSARr>
InChI=1S/C7H3Cl2F3/c8-5-2-1-4(3-6(5)9)7(10,11)12/h1-3H

> <InChI Key_QSARr>
XILPLWOGHPSJBK-UHFFFAOYSA-N

> <Salt_Solvent>
?

> <LogBCF>
3.18

$$$$
100336
  -INDIGO-08031719362D

 24 24  0  0  0  0  0  0  0  0999 V2000
    7.2000    4.1569    0.0000 Cl  0  0  0  0  0  0  0  0  0  0  0  0
    6.4000    2.7713    0.0000 C   0  0  0  0  0  0  0  0  0  0  0  0
    7.2000    1.3856    0.0000 C   0  0  0  0  0  0  0  0  0  0  0  0
    8.8000    1.3856    0.0000 Cl  0  0  0  0  0  0  0  0  0  0  0  0
    6.4000    0.0000    0.0000 C   0  0  0  0  0  0  0  0  0  0  0  0
    7.2000   -1.3856    0.0000 H   0  0  0  0  0  0  0  0  0  0  0  0
    4.8001    0.0000    0.0000 C   0  0  0  0  0  0  0  0  0  0  0  0
    4.0001   -1.3856    0.0000 H   0  0  0  0  0  0  0  0  0  0  0  0
    4.0001    1.3856    0.0000 C   0  0  0  0  0  0  0  0  0  0  0  0
    2.3999    1.3856    0.0000 N   0  0  0  0  0  0  0  0  0  0  0  0
    1.5999    2.7713    0.0000 H   0  0  0  0  0  0  0  0  0  0  0  0
    1.5999    0.0000    0.0000 C   0  0  0  0  0  0  0  0  0  0  0  0
    2.3999   -1.3856    0.0000 O   0  0  0  0  0  0  0  0  0  0  0  0
   -0.0000    0.0000    0.0000 N   0  0  0  0  0  0  0  0  0  0  0  0
   -0.8000   -1.3856    0.0000 C   0  0  0  0  0  0  0  0  0  0  0  0
   -1.6000   -2.7713    0.0000 H   0  0  0  0  0  0  0  0  0  0  0  0
   -2.4000   -1.3856    0.0000 H   0  0  0  0  0  0  0  0  0  0  0  0
   -0.0000   -2.7713    0.0000 H   0  0  0  0  0  0  0  0  0  0  0  0
   -0.8000    1.3856    0.0000 C   0  0  0  0  0  0  0  0  0  0  0  0
   -1.6000    2.7713    0.0000 H   0  0  0  0  0  0  0  0  0  0  0  0
   -2.4000    1.3856    0.0000 H   0  0  0  0  0  0  0  0  0  0  0  0
   -0.0000    2.7713    0.0000 H   0  0  0  0  0  0  0  0  0  0  0  0
    4.8001    2.7713    0.0000 C   0  0  0  0  0  0  0  0  0  0  0  0
    4.0001    4.1569    0.0000 H   0  0  0  0  0  0  0  0  0  0  0  0
  1  2  1  0  0  0  0
  2  3  1  0  0  0  0
  3  4  1  0  0  0  0
  3  5  2  0  0  0  0
  5  6  1  0  0  0  0
  5  7  1  0  0  0  0
  7  8  1  0  0  0  0
  7  9  2  0  0  0  0
  9 10  1  0  0  0  0
 10 11  1  0  0  0  0
 10 12  1  0  0  0  0
 12 13  2  0  0  0  0
 12 14  1  0  0  0  0
 14 15  1  0  0  0  0
 15 16  1  0  0  0  0
 15 17  1  0  0  0  0
 15 18  1  0  0  0  0
 14 19  1  0  0  0  0
 19 20  1  0  0  0  0
 19 21  1  0  0  0  0
 19 22  1  0  0  0  0
  9 23  1  0  0  0  0
 23  2  2  0  0  0  0
 23 24  1  0  0  0  0
M  END
> <ChemID>
100336

> <source_casrn>
330-54-1

> <CAS>
330-54-1

> <SMILES>
CN(C)C(=O)Nc1cc(Cl)c(Cl)cc1

> <NAME>
DIURON

> <preferred_name>
Diuron

> <iupac>
3-(3,4-dichlorophenyl)-1,1-dimethylurea

> <MPID>
98267

> <dsstox_substance_id>
DTXSID0020446

> <Canonical_QSARr>
CN(C)C(=O)Nc1cc(Cl)c(Cl)cc1

> <InChI_Code_QSARr>
InChI=1S/C9H10Cl2N2O/c1-13(2)9(14)12-6-3-4-7(10)8(11)5-6/h3-5H,1-2H3,(H,12,14)

> <InChI Key_QSARr>
XMTQQYYKAHVGBJ-UHFFFAOYSA-N

> <Salt_Solvent>
?

> <LogBCF>
1.15

$$$$
100338
  -INDIGO-08031719362D

 40 40  0  0  0  0  0  0  0  0999 V2000
   -4.8000    0.0000    0.0000 S   0  0  0  0  0  0  0  0  0  0  0  0
   -5.6000   -1.3856    0.0000 P   0  0  0  0  0  0  0  0  0  0  0  0
   -4.8000   -2.7713    0.0000 O   0  0  0  0  0  0  0  0  0  0  0  0
   -3.2000   -2.7713    0.0000 C   0  0  0  0  0  0  0  0  0  0  0  0
   -2.4000   -1.3856    0.0000 N   0  0  0  0  0  0  0  0  0  0  0  0
   -0.8000   -1.3856    0.0000 C   0  0  0  0  0  0  0  0  0  0  0  0
    0.0000    0.0000    0.0000 C   0  0  0  0  0  0  0  0  0  0  0  0
    1.3856   -0.8001    0.0000 H   0  0  0  0  0  0  0  0  0  0  0  0
    0.8000    1.3857    0.0000 C   0  0  0  0  0  0  0  0  0  0  0  0
    1.6000    2.7713    0.0000 H   0  0  0  0  0  0  0  0  0  0  0  0
    2.4000    1.3857    0.0000 H   0  0  0  0  0  0  0  0  0  0  0  0
    0.0000    2.7713    0.0000 H   0  0  0  0  0  0  0  0  0  0  0  0
   -1.3856    0.8000    0.0000 C   0  0  0  0  0  0  0  0  0  0  0  0
   -2.7713    1.6000    0.0000 H   0  0  0  0  0  0  0  0  0  0  0  0
   -1.3856    2.3999    0.0000 H   0  0  0  0  0  0  0  0  0  0  0  0
   -2.7713    0.0000    0.0000 H   0  0  0  0  0  0  0  0  0  0  0  0
    0.0000   -2.7713    0.0000 N   0  0  0  0  0  0  0  0  0  0  0  0
   -0.8000   -4.1570    0.0000 C   0  0  0  0  0  0  0  0  0  0  0  0
    0.0000   -5.5426    0.0000 C   0  0  0  0  0  0  0  0  0  0  0  0
    0.8000   -6.9282    0.0000 H   0  0  0  0  0  0  0  0  0  0  0  0
    1.6000   -5.5426    0.0000 H   0  0  0  0  0  0  0  0  0  0  0  0
   -0.8000   -6.9282    0.0000 H   0  0  0  0  0  0  0  0  0  0  0  0
   -2.4000   -4.1570    0.0000 C   0  0  0  0  0  0  0  0  0  0  0  0
   -3.2000   -5.5426    0.0000 H   0  0  0  0  0  0  0  0  0  0  0  0
   -7.2000   -1.3856    0.0000 O   0  0  0  0  0  0  0  0  0  0  0  0
   -8.0000   -2.7713    0.0000 C   0  0  0  0  0  0  0  0  0  0  0  0
   -7.7912   -4.3577    0.0000 H   0  0  0  0  0  0  0  0  0  0  0  0
   -6.7306   -3.7454    0.0000 H   0  0  0  0  0  0  0  0  0  0  0  0
   -9.6000   -2.7713    0.0000 C   0  0  0  0  0  0  0  0  0  0  0  0
  -11.2000   -2.7713    0.0000 H   0  0  0  0  0  0  0  0  0  0  0  0
  -10.4000   -4.1570    0.0000 H   0  0  0  0  0  0  0  0  0  0  0  0
  -10.4000   -1.3856    0.0000 H   0  0  0  0  0  0  0  0  0  0  0  0
   -6.4000    0.0000    0.0000 O   0  0  0  0  0  0  0  0  0  0  0  0
   -8.0000    0.0000    0.0000 C   0  0  0  0  0  0  0  0  0  0  0  0
   -9.2694   -0.9740    0.0000 H   0  0  0  0  0  0  0  0  0  0  0  0
   -8.2088   -1.5863    0.0000 H   0  0  0  0  0  0  0  0  0  0  0  0
   -8.8000    1.3857    0.0000 C   0  0  0  0  0  0  0  0  0  0  0  0
   -9.6000    2.7713    0.0000 H   0  0  0  0  0  0  0  0  0  0  0  0
  -10.4000    1.3857    0.0000 H   0  0  0  0  0  0  0  0  0  0  0  0
   -8.0000    2.7713    0.0000 H   0  0  0  0  0  0  0  0  0  0  0  0
  1  2  2  0  0  0  0
  2  3  1  0  0  0  0
  3  4  1  0  0  0  0
  4  5  1  0  0  0  0
  5  6  2  0  0  0  0
  6  7  1  0  0  0  0
  7  8  1  0  0  0  0
  7  9  1  0  0  0  0
  9 10  1  0  0  0  0
  9 11  1  0  0  0  0
  9 12  1  0  0  0  0
  7 13  1  0  0  0  0
 13 14  1  0  0  0  0
 13 15  1  0  0  0  0
 13 16  1  0  0  0  0
  6 17  1  0  0  0  0
 17 18  2  0  0  0  0
 18 19  1  0  0  0  0
 19 20  1  0  0  0  0
 19 21  1  0  0  0  0
 19 22  1  0  0  0  0
 18 23  1  0  0  0  0
 23  4  2  0  0  0  0
 23 24  1  0  0  0  0
  2 25  1  0  0  0  0
 25 26  1  0  0  0  0
 26 27  1  0  0  0  0
 26 28  1  0  0  0  0
 26 29  1  0  0  0  0
 29 30  1  0  0  0  0
 29 31  1  0  0  0  0
 29 32  1  0  0  0  0
  2 33  1  0  0  0  0
 33 34  1  0  0  0  0
 34 35  1  0  0  0  0
 34 36  1  0  0  0  0
 34 37  1  0  0  0  0
 37 38  1  0  0  0  0
 37 39  1  0  0  0  0
 37 40  1  0  0  0  0
M  END
> <ChemID>
100338

> <source_casrn>
333-41-5

> <CAS>
333-41-5

> <SMILES>
Cc1cc([n]c([n]1)C(C)C)OP(=S)(OCC)OCC

> <NAME>
DIAZINON

> <preferred_name>
Diazinon

> <iupac>
O,O-diethyl O-[6-methyl-2-(propan-2-yl)pyrimidin-4-yl] phosphorothioate

> <MPID>
98269

> <dsstox_substance_id>
DTXSID9020407

> <Canonical_QSARr>
Cc1cc([n]c([n]1)C(C)C)OP(=S)(OCC)OCC

> <InChI_Code_QSARr>
InChI=1S/C12H21N2O3PS/c1-6-15-18(19,16-7-2)17-11-8-10(5)13-12(14-11)9(3)4/h8-9H,6-7H2,1-5H3

> <InChI Key_QSARr>
FHIVAFMUCKRCQO-UHFFFAOYSA-N

> <Salt_Solvent>
?

> <LogBCF>
1.85

$$$$
100339
  -INDIGO-08031719362D

 10  9  0  0  0  0  0  0  0  0999 V2000
   -2.7713    0.0000    0.0000 C   0  0  0  0  0  0  0  0  0  0  0  0
   -1.3856    0.8000    0.0000 N   0  0  0  0  0  0  0  0  0  0  0  0
   -1.3856    2.4000    0.0000 H   0  0  0  0  0  0  0  0  0  0  0  0
    0.0000    0.0000    0.0000 C   0  0  0  0  0  0  0  0  0  0  0  0
    0.0000   -1.6000    0.0000 N   0  0  0  0  0  0  0  0  0  0  0  0
    1.3856   -2.4000    0.0000 H   0  0  0  0  0  0  0  0  0  0  0  0
    1.3856    0.8000    0.0000 N   0  0  0  0  0  0  0  0  0  0  0  0
    2.7713   -0.0000    0.0000 H   0  0  0  0  0  0  0  0  0  0  0  0
    1.3856    2.4000    0.0000 H   0  0  0  0  0  0  0  0  0  0  0  0
   -4.1569   -0.8000    0.0000 N   0  0  0  0  0  0  0  0  0  0  0  0
  1  2  1  0  0  0  0
  2  3  1  0  0  0  0
  2  4  1  0  0  0  0
  4  5  2  0  0  0  0
  5  6  1  0  0  0  0
  4  7  1  0  0  0  0
  7  8  1  0  0  0  0
  7  9  1  0  0  0  0
  1 10  3  0  0  0  0
M  END
> <ChemID>
100339

> <source_casrn>
461-58-5

> <CAS>
461-58-5

> <SMILES>
NC(=N)NC#N

> <NAME>
2-CYANOGUANIDINE

> <preferred_name>
Cyanoguanidine

> <iupac>
1-cyanoguanidine

> <MPID>
98270

> <dsstox_substance_id>
DTXSID1020354

> <Canonical_QSARr>
NC(=N)NC#N

> <InChI_Code_QSARr>
InChI=1S/C2H4N4/c3-1-6-2(4)5/h(H4,4,5,6)

> <InChI Key_QSARr>
QGBSISYHAICWAH-UHFFFAOYSA-N

> <Salt_Solvent>
?

> <LogBCF>
0.49

$$$$
100340
  -INDIGO-08031719362D

 13 13  0  0  0  0  0  0  0  0999 V2000
    1.3856    2.4000    0.0000 N   0  0  0  0  0  0  0  0  0  0  0  0
    2.7713    1.6000    0.0000 C   0  0  0  0  0  0  0  0  0  0  0  0
    4.1569    2.4000    0.0000 H   0  0  0  0  0  0  0  0  0  0  0  0
    2.7713   -0.0000    0.0000 C   0  0  0  0  0  0  0  0  0  0  0  0
    4.1569   -0.8000    0.0000 H   0  0  0  0  0  0  0  0  0  0  0  0
    1.3856   -0.8000    0.0000 C   0  0  0  0  0  0  0  0  0  0  0  0
    1.3856   -2.4000    0.0000 H   0  0  0  0  0  0  0  0  0  0  0  0
    0.0000    0.0000    0.0000 C   0  0  0  0  0  0  0  0  0  0  0  0
   -1.3856   -0.8000    0.0000 N   0  0  0  0  0  0  0  0  0  0  0  0
   -2.7713    0.0000    0.0000 H   0  0  0  0  0  0  0  0  0  0  0  0
   -1.3856   -2.4000    0.0000 H   0  0  0  0  0  0  0  0  0  0  0  0
    0.0000    1.6000    0.0000 C   0  0  0  0  0  0  0  0  0  0  0  0
   -1.3856    2.4000    0.0000 H   0  0  0  0  0  0  0  0  0  0  0  0
  1  2  1  0  0  0  0
  2  3  1  0  0  0  0
  2  4  2  0  0  0  0
  4  5  1  0  0  0  0
  4  6  1  0  0  0  0
  6  7  1  0  0  0  0
  6  8  2  0  0  0  0
  8  9  1  0  0  0  0
  9 10  1  0  0  0  0
  9 11  1  0  0  0  0
  8 12  1  0  0  0  0
 12  1  2  0  0  0  0
 12 13  1  0  0  0  0
M  END
> <ChemID>
100340

> <source_casrn>
462-08-8

> <CAS>
462-08-8

> <SMILES>
Nc1c[n]ccc1

> <NAME>
3-AMINOPYRIDINE

> <preferred_name>
3-Pyridinamine

> <iupac>
pyridin-3-amine

> <MPID>
98271

> <dsstox_substance_id>
DTXSID9047461

> <Canonical_QSARr>
Nc1c[n]ccc1

> <InChI_Code_QSARr>
InChI=1S/C5H6N2/c6-5-2-1-3-7-4-5/h1-4H,6H2

> <InChI Key_QSARr>
CUYKNJBYIJFRCU-UHFFFAOYSA-N

> <Salt_Solvent>
?

> <LogBCF>
0.32

$$$$
100343
  -INDIGO-08031719362D

 22 23  0  0  0  0  0  0  0  0999 V2000
    0.0001    0.0001    0.0000 C   0  0  0  0  0  0  0  0  0  0  0  0
    1.3856    0.8000    0.0000 C   0  0  0  0  0  0  0  0  0  0  0  0
    1.3856    2.3999    0.0000 N   0  0  0  0  0  0  0  0  0  0  0  0
    2.7713    3.2000    0.0000 H   0  0  0  0  0  0  0  0  0  0  0  0
    0.0001    3.2000    0.0000 H   0  0  0  0  0  0  0  0  0  0  0  0
    2.7713    0.0001    0.0000 C   0  0  0  0  0  0  0  0  0  0  0  0
    4.1569    0.8000    0.0000 H   0  0  0  0  0  0  0  0  0  0  0  0
    2.7713   -1.6000    0.0000 C   0  0  0  0  0  0  0  0  0  0  0  0
    4.1569   -2.4000    0.0000 H   0  0  0  0  0  0  0  0  0  0  0  0
    1.3856   -2.4000    0.0000 C   0  0  0  0  0  0  0  0  0  0  0  0
    1.3856   -4.0000    0.0000 H   0  0  0  0  0  0  0  0  0  0  0  0
    0.0001   -1.6000    0.0000 C   0  0  0  0  0  0  0  0  0  0  0  0
   -1.3856   -2.4000    0.0000 C   0  0  0  0  0  0  0  0  0  0  0  0
   -1.3856   -4.0000    0.0000 H   0  0  0  0  0  0  0  0  0  0  0  0
   -2.7712   -1.6000    0.0000 C   0  0  0  0  0  0  0  0  0  0  0  0
   -4.1569   -2.4000    0.0000 H   0  0  0  0  0  0  0  0  0  0  0  0
   -2.7712    0.0001    0.0000 C   0  0  0  0  0  0  0  0  0  0  0  0
   -4.1569    0.8000    0.0000 H   0  0  0  0  0  0  0  0  0  0  0  0
   -1.3856    0.8000    0.0000 C   0  0  0  0  0  0  0  0  0  0  0  0
   -1.9329    2.3036    0.0000 N   0  0  0  0  0  0  0  0  0  0  0  0
   -3.5085    2.5814    0.0000 H   0  0  0  0  0  0  0  0  0  0  0  0
   -0.9045    3.5292    0.0000 H   0  0  0  0  0  0  0  0  0  0  0  0
  1  2  1  0  0  0  0
  2  3  1  0  0  0  0
  3  4  1  0  0  0  0
  3  5  1  0  0  0  0
  2  6  2  0  0  0  0
  6  7  1  0  0  0  0
  6  8  1  0  0  0  0
  8  9  1  0  0  0  0
  8 10  2  0  0  0  0
 10 11  1  0  0  0  0
 10 12  1  0  0  0  0
 12  1  1  0  0  0  0
 12 13  2  0  0  0  0
 13 14  1  0  0  0  0
 13 15  1  0  0  0  0
 15 16  1  0  0  0  0
 15 17  2  0  0  0  0
 17 18  1  0  0  0  0
 17 19  1  0  0  0  0
 19  1  2  0  0  0  0
 19 20  1  0  0  0  0
 20 21  1  0  0  0  0
 20 22  1  0  0  0  0
M  END
> <ChemID>
100343

> <source_casrn>
479-27-6

> <CAS>
479-27-6

> <SMILES>
Nc1cccc2cccc(N)c12

> <NAME>
1,8-NAPHTHALENEDIAMINE

> <preferred_name>
1,8-Naphthalenediamine

> <iupac>
naphthalene-1,8-diamine

> <MPID>
98273

> <dsstox_substance_id>
DTXSID6044432

> <Canonical_QSARr>
Nc1cccc2cccc(N)c12

> <InChI_Code_QSARr>
InChI=1S/C10H10N2/c11-8-5-1-3-7-4-2-6-9(12)10(7)8/h1-6H,11-12H2

> <InChI Key_QSARr>
YFOOEYJGMMJJLS-UHFFFAOYSA-N

> <Salt_Solvent>
?

> <LogBCF>
0.8

$$$$
100344
  -INDIGO-08031719362D

 28 29  0  0  0  0  0  0  0  0999 V2000
    0.0001    0.0000    0.0000 C   0  0  0  0  0  0  0  0  0  0  0  0
   -0.0001    1.6000    0.0000 H   0  0  0  0  0  0  0  0  0  0  0  0
   -1.3856    0.8000    0.0000 C   0  0  0  0  0  0  0  0  0  0  0  0
   -0.8384    2.3035    0.0000 H   0  0  0  0  0  0  0  0  0  0  0  0
   -2.4141    2.0257    0.0000 H   0  0  0  0  0  0  0  0  0  0  0  0
   -2.7712    0.0000    0.0000 C   0  0  0  0  0  0  0  0  0  0  0  0
   -3.3185    1.5035    0.0000 H   0  0  0  0  0  0  0  0  0  0  0  0
   -4.3470   -0.2778    0.0000 H   0  0  0  0  0  0  0  0  0  0  0  0
   -2.7712   -1.6000    0.0000 C   0  0  0  0  0  0  0  0  0  0  0  0
   -4.3470   -1.3222    0.0000 H   0  0  0  0  0  0  0  0  0  0  0  0
   -3.3185   -3.1035    0.0000 H   0  0  0  0  0  0  0  0  0  0  0  0
   -1.3856   -2.4000    0.0000 C   0  0  0  0  0  0  0  0  0  0  0  0
   -2.4141   -3.6257    0.0000 H   0  0  0  0  0  0  0  0  0  0  0  0
   -0.8384   -3.9035    0.0000 H   0  0  0  0  0  0  0  0  0  0  0  0
   -0.0001   -1.6000    0.0000 C   0  0  0  0  0  0  0  0  0  0  0  0
   -0.0001   -3.2000    0.0000 H   0  0  0  0  0  0  0  0  0  0  0  0
    1.3856   -2.4000    0.0000 C   0  0  0  0  0  0  0  0  0  0  0  0
    0.8384   -3.9035    0.0000 H   0  0  0  0  0  0  0  0  0  0  0  0
    2.4141   -3.6257    0.0000 H   0  0  0  0  0  0  0  0  0  0  0  0
    2.7712   -1.6000    0.0000 C   0  0  0  0  0  0  0  0  0  0  0  0
    3.3185   -3.1035    0.0000 H   0  0  0  0  0  0  0  0  0  0  0  0
    4.3470   -1.3222    0.0000 H   0  0  0  0  0  0  0  0  0  0  0  0
    2.7712    0.0000    0.0000 C   0  0  0  0  0  0  0  0  0  0  0  0
    4.3470   -0.2778    0.0000 H   0  0  0  0  0  0  0  0  0  0  0  0
    3.3185    1.5035    0.0000 H   0  0  0  0  0  0  0  0  0  0  0  0
    1.3856    0.8000    0.0000 C   0  0  0  0  0  0  0  0  0  0  0  0
    2.4141    2.0257    0.0000 H   0  0  0  0  0  0  0  0  0  0  0  0
    0.8384    2.3035    0.0000 H   0  0  0  0  0  0  0  0  0  0  0  0
  1  2  1  0  0  0  0
  1  3  1  0  0  0  0
  3  4  1  0  0  0  0
  3  5  1  0  0  0  0
  3  6  1  0  0  0  0
  6  7  1  0  0  0  0
  6  8  1  0  0  0  0
  6  9  1  0  0  0  0
  9 10  1  0  0  0  0
  9 11  1  0  0  0  0
  9 12  1  0  0  0  0
 12 13  1  0  0  0  0
 12 14  1  0  0  0  0
 12 15  1  0  0  0  0
 15  1  1  0  0  0  0
 15 16  1  0  0  0  0
 15 17  1  0  0  0  0
 17 18  1  0  0  0  0
 17 19  1  0  0  0  0
 17 20  1  0  0  0  0
 20 21  1  0  0  0  0
 20 22  1  0  0  0  0
 20 23  1  0  0  0  0
 23 24  1  0  0  0  0
 23 25  1  0  0  0  0
 23 26  1  0  0  0  0
 26  1  1  0  0  0  0
 26 27  1  0  0  0  0
 26 28  1  0  0  0  0
M  END
> <ChemID>
100344

> <source_casrn>
493-01-6|493-02-7

> <CAS>
91-17-8

> <SMILES>
C(C(CCC1)CCC2)(C1)C2

> <NAME>
CIS-BICYCLO[4.4.0]DECANE, TRANS-BICYCLO[4.4.0]DECANE

> <preferred_name>
Decalin

> <iupac>
decahydronaphthalene

> <MPID>
98274|98275

> <dsstox_substance_id>
DTXSID1024912

> <Canonical_QSARr>
C1CCCC2CCCCC21

> <InChI_Code_QSARr>
InChI=1S/C10H18/c1-2-6-10-8-4-3-7-9(10)5-1/h9-10H,1-8H2

> <InChI Key_QSARr>
NNBZCPXTIHJBJL-UHFFFAOYSA-N

> <Salt_Solvent>
?

> <LogBCF>
3.245

$$$$
100346
  -INDIGO-08031719362D

 26 26  0  0  0  0  0  0  0  0999 V2000
   -6.9281    2.4000    0.0000 N   0  0  0  0  0  0  0  0  0  0  0  0
   -5.5426    1.6000    0.0000 C   0  0  0  0  0  0  0  0  0  0  0  0
   -4.1569    2.4000    0.0000 C   0  0  0  0  0  0  0  0  0  0  0  0
   -4.1569    4.0000    0.0000 Cl  0  0  0  0  0  0  0  0  0  0  0  0
   -2.7712    1.6000    0.0000 C   0  0  0  0  0  0  0  0  0  0  0  0
   -1.3857    2.4000    0.0000 H   0  0  0  0  0  0  0  0  0  0  0  0
   -2.7712    0.0000    0.0000 C   0  0  0  0  0  0  0  0  0  0  0  0
   -1.3857   -0.8000    0.0000 O   0  0  0  0  0  0  0  0  0  0  0  0
    0.0000    0.0000    0.0000 P   0  0  0  0  0  0  0  0  0  0  0  0
    0.0000   -1.6000    0.0000 S   0  0  0  0  0  0  0  0  0  0  0  0
    1.3857   -0.8000    0.0000 O   0  0  0  0  0  0  0  0  0  0  0  0
    2.7712    0.0000    0.0000 C   0  0  0  0  0  0  0  0  0  0  0  0
    4.1569   -0.8000    0.0000 H   0  0  0  0  0  0  0  0  0  0  0  0
    4.1569    0.8000    0.0000 H   0  0  0  0  0  0  0  0  0  0  0  0
    2.7712   -1.6000    0.0000 H   0  0  0  0  0  0  0  0  0  0  0  0
    1.3857    0.8000    0.0000 O   0  0  0  0  0  0  0  0  0  0  0  0
    1.3857    2.4000    0.0000 C   0  0  0  0  0  0  0  0  0  0  0  0
    1.3857    4.0000    0.0000 H   0  0  0  0  0  0  0  0  0  0  0  0
    2.7712    3.2000    0.0000 H   0  0  0  0  0  0  0  0  0  0  0  0
    0.0000    3.2000    0.0000 H   0  0  0  0  0  0  0  0  0  0  0  0
   -4.1569   -0.8000    0.0000 C   0  0  0  0  0  0  0  0  0  0  0  0
   -4.1569   -2.4000    0.0000 H   0  0  0  0  0  0  0  0  0  0  0  0
   -5.5426    0.0000    0.0000 C   0  0  0  0  0  0  0  0  0  0  0  0
   -6.9281   -0.8000    0.0000 H   0  0  0  0  0  0  0  0  0  0  0  0
   -8.3138    1.6000    0.0000 O   0  0  0  0  0  0  0  0  0  0  0  0
   -6.9281    4.0000    0.0000 O   0  0  0  0  0  0  0  0  0  0  0  0
  1  2  1  0  0  0  0
  2  3  1  0  0  0  0
  3  4  1  0  0  0  0
  3  5  2  0  0  0  0
  5  6  1  0  0  0  0
  5  7  1  0  0  0  0
  7  8  1  0  0  0  0
  8  9  1  0  0  0  0
  9 10  2  0  0  0  0
  9 11  1  0  0  0  0
 11 12  1  0  0  0  0
 12 13  1  0  0  0  0
 12 14  1  0  0  0  0
 12 15  1  0  0  0  0
  9 16  1  0  0  0  0
 16 17  1  0  0  0  0
 17 18  1  0  0  0  0
 17 19  1  0  0  0  0
 17 20  1  0  0  0  0
  7 21  2  0  0  0  0
 21 22  1  0  0  0  0
 21 23  1  0  0  0  0
 23  2  2  0  0  0  0
 23 24  1  0  0  0  0
  1 25  1  0  0  0  0
  1 26  2  0  0  0  0
M  CHG  2   1   1  25  -1
M  END
> <ChemID>
100346

> <source_casrn>
500-28-7

> <CAS>
500-28-7

> <SMILES>
COP(=S)(OC)Oc1ccc(N(=O)=O)c(Cl)c1

> <NAME>
3-CHLORO-DIMETHYL PARATHION

> <preferred_name>
Chlorthion

> <iupac>
O-(3-chloro-4-nitrophenyl) O,O-dimethyl phosphorothioate

> <MPID>
98276

> <dsstox_substance_id>
DTXSID9041784

> <Canonical_QSARr>
COP(=S)(Oc1cc(Cl)c(cc1)[N+]([O-])=O)OC

> <InChI_Code_QSARr>
InChI=1S/C8H9ClNO5PS/c1-13-16(17,14-2)15-6-3-4-8(10(11)12)7(9)5-6/h3-5H,1-2H3

> <InChI Key_QSARr>
NZNRRXXETLSZRO-UHFFFAOYSA-N

> <Salt_Solvent>
?

> <LogBCF>
1.55

$$$$
100348
  -INDIGO-08031719362D

 13 13  0  0  0  0  0  0  0  0999 V2000
    0.0000   -0.0000    0.0000 C   0  0  0  0  0  0  0  0  0  0  0  0
   -0.8000    1.3856    0.0000 C   0  0  0  0  0  0  0  0  0  0  0  0
    0.0000    2.7713    0.0000 H   0  0  0  0  0  0  0  0  0  0  0  0
   -2.4000    1.3856    0.0000 C   0  0  0  0  0  0  0  0  0  0  0  0
   -3.2000    2.7713    0.0000 H   0  0  0  0  0  0  0  0  0  0  0  0
   -3.2000   -0.0000    0.0000 N   0  0  0  0  0  0  0  0  0  0  0  0
   -2.4000   -1.3856    0.0000 C   0  0  0  0  0  0  0  0  0  0  0  0
   -3.2000   -2.7713    0.0000 H   0  0  0  0  0  0  0  0  0  0  0  0
   -0.8000   -1.3856    0.0000 C   0  0  0  0  0  0  0  0  0  0  0  0
    0.0000   -2.7713    0.0000 H   0  0  0  0  0  0  0  0  0  0  0  0
    1.6000   -0.0000    0.0000 N   0  0  0  0  0  0  0  0  0  0  0  0
    2.4000    1.3856    0.0000 H   0  0  0  0  0  0  0  0  0  0  0  0
    2.4000   -1.3856    0.0000 H   0  0  0  0  0  0  0  0  0  0  0  0
  1  2  1  0  0  0  0
  2  3  1  0  0  0  0
  2  4  2  0  0  0  0
  4  5  1  0  0  0  0
  4  6  1  0  0  0  0
  6  7  2  0  0  0  0
  7  8  1  0  0  0  0
  7  9  1  0  0  0  0
  9  1  2  0  0  0  0
  9 10  1  0  0  0  0
  1 11  1  0  0  0  0
 11 12  1  0  0  0  0
 11 13  1  0  0  0  0
M  END
> <ChemID>
100348

> <source_casrn>
504-24-5

> <CAS>
504-24-5

> <SMILES>
Nc1cc[n]cc1

> <NAME>
4-AMINOPYRIDINE

> <preferred_name>
4-Aminopyridine

> <iupac>
pyridin-4-amine

> <MPID>
98278

> <dsstox_substance_id>
DTXSID0023870

> <Canonical_QSARr>
Nc1cc[n]cc1

> <InChI_Code_QSARr>
InChI=1S/C5H6N2/c6-5-1-3-7-4-2-5/h1-4H,(H2,6,7)

> <InChI Key_QSARr>
NUKYPUAOHBNCPY-UHFFFAOYSA-N

> <Salt_Solvent>
?

> <LogBCF>
0.66

$$$$
100349
  -INDIGO-08031719362D

 13 13  0  0  0  0  0  0  0  0999 V2000
    1.6000   -0.0000    0.0000 N   0  0  0  0  0  0  0  0  0  0  0  0
    2.4000   -1.3856    0.0000 H   0  0  0  0  0  0  0  0  0  0  0  0
    2.4000    1.3856    0.0000 H   0  0  0  0  0  0  0  0  0  0  0  0
    0.0000   -0.0000    0.0000 C   0  0  0  0  0  0  0  0  0  0  0  0
   -0.8000    1.3856    0.0000 C   0  0  0  0  0  0  0  0  0  0  0  0
    0.0000    2.7713    0.0000 H   0  0  0  0  0  0  0  0  0  0  0  0
   -2.4000    1.3856    0.0000 C   0  0  0  0  0  0  0  0  0  0  0  0
   -3.2000    2.7713    0.0000 H   0  0  0  0  0  0  0  0  0  0  0  0
   -3.2000   -0.0000    0.0000 C   0  0  0  0  0  0  0  0  0  0  0  0
   -4.8000   -0.0000    0.0000 H   0  0  0  0  0  0  0  0  0  0  0  0
   -2.4000   -1.3856    0.0000 C   0  0  0  0  0  0  0  0  0  0  0  0
   -3.2000   -2.7713    0.0000 H   0  0  0  0  0  0  0  0  0  0  0  0
   -0.8000   -1.3856    0.0000 N   0  0  0  0  0  0  0  0  0  0  0  0
  1  2  1  0  0  0  0
  1  3  1  0  0  0  0
  1  4  1  0  0  0  0
  4  5  1  0  0  0  0
  5  6  1  0  0  0  0
  5  7  2  0  0  0  0
  7  8  1  0  0  0  0
  7  9  1  0  0  0  0
  9 10  1  0  0  0  0
  9 11  2  0  0  0  0
 11 12  1  0  0  0  0
 11 13  1  0  0  0  0
 13  4  2  0  0  0  0
M  END
> <ChemID>
100349

> <source_casrn>
504-29-0

> <CAS>
504-29-0

> <SMILES>
Nc1cccc[n]1

> <NAME>
2-AMINOPYRIDINE

> <preferred_name>
2-Aminopyridine

> <iupac>
pyridin-2-amine

> <MPID>
98279

> <dsstox_substance_id>
DTXSID0024505

> <Canonical_QSARr>
Nc1cccc[n]1

> <InChI_Code_QSARr>
InChI=1S/C5H6N2/c6-5-3-1-2-4-7-5/h1-4H,(H2,6,7)

> <InChI Key_QSARr>
ICSNLGPSRYBMBD-UHFFFAOYSA-N

> <Salt_Solvent>
?

> <LogBCF>
1.06

$$$$
100350
  -INDIGO-08031719362D

 35 36  0  0  0  0  0  0  0  0999 V2000
   -1.3857   -0.8001    0.0000 O   0  0  0  0  0  0  0  0  0  0  0  0
   -1.3857   -2.4000    0.0000 H   0  0  0  0  0  0  0  0  0  0  0  0
   -0.0000   -0.0000    0.0000 C   0  0  0  0  0  0  0  0  0  0  0  0
   -1.2257    1.0285    0.0000 C   0  0  0  0  0  0  0  0  0  0  0  0
   -1.2257    2.6284    0.0000 C   0  0  0  0  0  0  0  0  0  0  0  0
   -0.0000    3.6569    0.0000 H   0  0  0  0  0  0  0  0  0  0  0  0
   -2.6114    3.4285    0.0000 C   0  0  0  0  0  0  0  0  0  0  0  0
   -2.6114    5.0285    0.0000 H   0  0  0  0  0  0  0  0  0  0  0  0
   -3.9969    2.6284    0.0000 C   0  0  0  0  0  0  0  0  0  0  0  0
   -5.3826    3.4285    0.0000 Cl  0  0  0  0  0  0  0  0  0  0  0  0
   -3.9969    1.0285    0.0000 C   0  0  0  0  0  0  0  0  0  0  0  0
   -5.3826    0.2284    0.0000 H   0  0  0  0  0  0  0  0  0  0  0  0
   -2.6114    0.2284    0.0000 C   0  0  0  0  0  0  0  0  0  0  0  0
   -2.6114   -1.3716    0.0000 H   0  0  0  0  0  0  0  0  0  0  0  0
    0.7999   -1.3856    0.0000 C   0  0  0  0  0  0  0  0  0  0  0  0
   -0.0000   -2.7712    0.0000 C   0  0  0  0  0  0  0  0  0  0  0  0
   -1.3857   -3.5713    0.0000 H   0  0  0  0  0  0  0  0  0  0  0  0
    0.7999   -4.1570    0.0000 C   0  0  0  0  0  0  0  0  0  0  0  0
   -0.0000   -5.5426    0.0000 H   0  0  0  0  0  0  0  0  0  0  0  0
    2.4001   -4.1570    0.0000 C   0  0  0  0  0  0  0  0  0  0  0  0
    3.2000   -5.5426    0.0000 Cl  0  0  0  0  0  0  0  0  0  0  0  0
    3.2000   -2.7712    0.0000 C   0  0  0  0  0  0  0  0  0  0  0  0
    4.8000   -2.7712    0.0000 H   0  0  0  0  0  0  0  0  0  0  0  0
    2.4001   -1.3856    0.0000 C   0  0  0  0  0  0  0  0  0  0  0  0
    3.2000   -0.0000    0.0000 H   0  0  0  0  0  0  0  0  0  0  0  0
    1.0285    1.2257    0.0000 C   0  0  0  0  0  0  0  0  0  0  0  0
    0.4812    2.7292    0.0000 O   0  0  0  0  0  0  0  0  0  0  0  0
    2.6041    0.9478    0.0000 O   0  0  0  0  0  0  0  0  0  0  0  0
    3.6326    2.1735    0.0000 C   0  0  0  0  0  0  0  0  0  0  0  0
    2.5517    3.3532    0.0000 H   0  0  0  0  0  0  0  0  0  0  0  0
    3.7024    3.7719    0.0000 H   0  0  0  0  0  0  0  0  0  0  0  0
    5.2084    1.8956    0.0000 C   0  0  0  0  0  0  0  0  0  0  0  0
    6.2367    3.1214    0.0000 H   0  0  0  0  0  0  0  0  0  0  0  0
    6.7840    1.6179    0.0000 H   0  0  0  0  0  0  0  0  0  0  0  0
    4.6611    3.3991    0.0000 H   0  0  0  0  0  0  0  0  0  0  0  0
  1  2  1  0  0  0  0
  1  3  1  0  0  0  0
  3  4  1  0  0  0  0
  4  5  1  0  0  0  0
  5  6  1  0  0  0  0
  5  7  2  0  0  0  0
  7  8  1  0  0  0  0
  7  9  1  0  0  0  0
  9 10  1  0  0  0  0
  9 11  2  0  0  0  0
 11 12  1  0  0  0  0
 11 13  1  0  0  0  0
 13  4  2  0  0  0  0
 13 14  1  0  0  0  0
  3 15  1  0  0  0  0
 15 16  1  0  0  0  0
 16 17  1  0  0  0  0
 16 18  2  0  0  0  0
 18 19  1  0  0  0  0
 18 20  1  0  0  0  0
 20 21  1  0  0  0  0
 20 22  2  0  0  0  0
 22 23  1  0  0  0  0
 22 24  1  0  0  0  0
 24 15  2  0  0  0  0
 24 25  1  0  0  0  0
  3 26  1  0  0  0  0
 26 27  2  0  0  0  0
 26 28  1  0  0  0  0
 28 29  1  0  0  0  0
 29 30  1  0  0  0  0
 29 31  1  0  0  0  0
 29 32  1  0  0  0  0
 32 33  1  0  0  0  0
 32 34  1  0  0  0  0
 32 35  1  0  0  0  0
M  END
> <ChemID>
100350

> <source_casrn>
510-15-6

> <CAS>
510-15-6

> <SMILES>
CCOC(=O)C(O)(c1ccc(Cl)cc1)c1ccc(Cl)cc1

> <NAME>
CHLOROBENZILATE

> <preferred_name>
Chlorobenzilate

> <iupac>
ethyl bis(4-chlorophenyl)(hydroxy)acetate

> <MPID>
98280

> <dsstox_substance_id>
DTXSID9020299

> <Canonical_QSARr>
CCOC(=O)C(O)(c1ccc(Cl)cc1)c1ccc(Cl)cc1

> <InChI_Code_QSARr>
InChI=1S/C16H14Cl2O3/c1-2-21-15(19)16(20,11-3-7-13(17)8-4-11)12-5-9-14(18)10-6-12/h3-10,20H,2H2,1H3

> <InChI Key_QSARr>
RAPBNVDSDCTNRC-UHFFFAOYSA-N

> <Salt_Solvent>
?

> <LogBCF>
2.68

$$$$
100352
  -INDIGO-08031719362D

 52 54  0  0  0  0  0  0  0  0999 V2000
   -0.0000    0.0000    0.0000 C   0  0  0  0  0  0  0  0  0  0  0  0
    1.5999    0.0000    0.0000 C   0  0  0  0  0  0  0  0  0  0  0  0
    1.5092   -0.9718    0.0000 H   0  0  0  0  0  0  0  0  0  0  0  0
    2.4000    1.3857    0.0000 C   0  0  0  0  0  0  0  0  0  0  0  0
    4.0000    1.3857    0.0000 C   0  0  0  0  0  0  0  0  0  0  0  0
    4.8001    2.7712    0.0000 H   0  0  0  0  0  0  0  0  0  0  0  0
    4.8001    0.0000    0.0000 C   0  0  0  0  0  0  0  0  0  0  0  0
    4.0000   -1.3857    0.0000 C   0  0  0  0  0  0  0  0  0  0  0  0
    3.7222   -2.9613    0.0000 H   0  0  0  0  0  0  0  0  0  0  0  0
    5.5036   -1.9328    0.0000 H   0  0  0  0  0  0  0  0  0  0  0  0
    2.4000   -1.3857    0.0000 C   0  0  0  0  0  0  0  0  0  0  0  0
    0.8965   -1.9329    0.0000 H   0  0  0  0  0  0  0  0  0  0  0  0
    2.6778   -2.9613    0.0000 H   0  0  0  0  0  0  0  0  0  0  0  0
    6.4001    0.0000    0.0000 C   0  0  0  0  0  0  0  0  0  0  0  0
    6.4001   -1.6000    0.0000 H   0  0  0  0  0  0  0  0  0  0  0  0
    8.0000    0.0000    0.0000 C   0  0  0  0  0  0  0  0  0  0  0  0
    9.6000    0.0000    0.0000 H   0  0  0  0  0  0  0  0  0  0  0  0
    8.7999    1.3857    0.0000 H   0  0  0  0  0  0  0  0  0  0  0  0
    8.7999   -1.3857    0.0000 H   0  0  0  0  0  0  0  0  0  0  0  0
    6.4001    1.6000    0.0000 C   0  0  0  0  0  0  0  0  0  0  0  0
    6.4001    3.1999    0.0000 H   0  0  0  0  0  0  0  0  0  0  0  0
    7.7857    2.4000    0.0000 H   0  0  0  0  0  0  0  0  0  0  0  0
    7.7857    0.8000    0.0000 H   0  0  0  0  0  0  0  0  0  0  0  0
    1.5999    2.7712    0.0000 C   0  0  0  0  0  0  0  0  0  0  0  0
    2.4000    4.1569    0.0000 H   0  0  0  0  0  0  0  0  0  0  0  0
   -0.0000    2.7712    0.0000 C   0  0  0  0  0  0  0  0  0  0  0  0
    0.2779    4.3470    0.0000 H   0  0  0  0  0  0  0  0  0  0  0  0
   -0.4592    3.3185    0.0000 H   0  0  0  0  0  0  0  0  0  0  0  0
   -0.7999    1.3857    0.0000 C   0  0  0  0  0  0  0  0  0  0  0  0
   -1.6000    2.7712    0.0000 H   0  0  0  0  0  0  0  0  0  0  0  0
   -2.3999    1.3857    0.0000 C   0  0  0  0  0  0  0  0  0  0  0  0
   -2.1221    2.9613    0.0000 C   0  0  0  0  0  0  0  0  0  0  0  0
   -1.5036    3.3185    0.0000 O   0  0  0  0  0  0  0  0  0  0  0  0
   -3.3479    3.9898    0.0000 O   0  0  0  0  0  0  0  0  0  0  0  0
   -3.0699    5.5655    0.0000 H   0  0  0  0  0  0  0  0  0  0  0  0
   -3.9035    1.9329    0.0000 C   0  0  0  0  0  0  0  0  0  0  0  0
   -5.4070    2.4802    0.0000 H   0  0  0  0  0  0  0  0  0  0  0  0
   -4.1814    3.5086    0.0000 H   0  0  0  0  0  0  0  0  0  0  0  0
   -5.1292    0.9044    0.0000 H   0  0  0  0  0  0  0  0  0  0  0  0
   -3.2000    0.0000    0.0000 C   0  0  0  0  0  0  0  0  0  0  0  0
   -4.4258    1.0285    0.0000 H   0  0  0  0  0  0  0  0  0  0  0  0
   -4.4256   -1.0284    0.0000 H   0  0  0  0  0  0  0  0  0  0  0  0
   -2.3999   -1.3857    0.0000 C   0  0  0  0  0  0  0  0  0  0  0  0
   -3.9035   -1.9329    0.0000 H   0  0  0  0  0  0  0  0  0  0  0  0
   -2.1221   -2.9613    0.0000 H   0  0  0  0  0  0  0  0  0  0  0  0
   -0.7999   -1.3857    0.0000 C   0  0  0  0  0  0  0  0  0  0  0  0
   -1.0779   -2.9613    0.0000 H   0  0  0  0  0  0  0  0  0  0  0  0
   -0.1358   -1.9938    0.0000 H   0  0  0  0  0  0  0  0  0  0  0  0
    0.4115   -0.4903    0.0000 C   0  0  0  0  0  0  0  0  0  0  0  0
    0.8001   -1.3857    0.0000 H   0  0  0  0  0  0  0  0  0  0  0  0
    0.5901   -1.3728    0.0000 H   0  0  0  0  0  0  0  0  0  0  0  0
   -1.1642   -0.7681    0.0000 H   0  0  0  0  0  0  0  0  0  0  0  0
  1  2  1  0  0  0  0
  2  3  1  0  0  0  0
  2  4  1  0  0  0  0
  4  5  1  0  0  0  0
  5  6  1  0  0  0  0
  5  7  2  0  0  0  0
  7  8  1  0  0  0  0
  8  9  1  0  0  0  0
  8 10  1  0  0  0  0
  8 11  1  0  0  0  0
 11  2  1  0  0  0  0
 11 12  1  0  0  0  0
 11 13  1  0  0  0  0
  7 14  1  0  0  0  0
 14 15  1  0  0  0  0
 14 16  1  0  0  0  0
 16 17  1  0  0  0  0
 16 18  1  0  0  0  0
 16 19  1  0  0  0  0
 14 20  1  0  0  0  0
 20 21  1  0  0  0  0
 20 22  1  0  0  0  0
 20 23  1  0  0  0  0
  4 24  2  0  0  0  0
 24 25  1  0  0  0  0
 24 26  1  0  0  0  0
 26 27  1  0  0  0  0
 26 28  1  0  0  0  0
 26 29  1  0  0  0  0
 29  1  1  0  0  0  0
 29 30  1  0  0  0  0
 29 31  1  0  0  0  0
 31 32  1  0  0  0  0
 32 33  2  0  0  0  0
 32 34  1  0  0  0  0
 34 35  1  0  0  0  0
 31 36  1  0  0  0  0
 36 37  1  0  0  0  0
 36 38  1  0  0  0  0
 36 39  1  0  0  0  0
 31 40  1  0  0  0  0
 40 41  1  0  0  0  0
 40 42  1  0  0  0  0
 40 43  1  0  0  0  0
 43 44  1  0  0  0  0
 43 45  1  0  0  0  0
 43 46  1  0  0  0  0
 46  1  1  0  0  0  0
 46 47  1  0  0  0  0
 46 48  1  0  0  0  0
  1 49  1  0  0  0  0
 49 50  1  0  0  0  0
 49 51  1  0  0  0  0
 49 52  1  0  0  0  0
M  END
> <ChemID>
100352

> <source_casrn>
514-10-3

> <CAS>
514-10-3

> <SMILES>
CC(C)C1CC[C@H]2C(C=1)=CC[C@H]1[C@@](C)(CCC[C@]21C)C(O)=O

> <NAME>
Abietic acid

> <preferred_name>
Abietic acid

> <iupac>
C20H30O2

> <MPID>
98282

> <dsstox_substance_id>
DTXSID7022047

> <Canonical_QSARr>
CC(C)C1CCC2C(C=1)=CCC1C(C)(CCCC21C)C(O)=O

> <InChI_Code_QSARr>
InChI=1S/C20H30O2/c1-13(2)14-6-8-16-15(12-14)7-9-17-19(16,3)10-5-11-20(17,4)18(21)22/h7,12-13,16-17H,5-6,8-11H2,1-4H3,(H,21,22)

> <InChI Key_QSARr>
RSWGJHLUYNHPMX-UHFFFAOYSA-N

> <Salt_Solvent>
?

> <LogBCF>
1.97

$$$$
100353
  -INDIGO-08031719362D

 21 21  0  0  0  0  0  0  0  0999 V2000
    1.5999    0.0000    0.0000 C   0  0  0  0  0  0  0  0  0  0  0  0
    2.4000   -1.3856    0.0000 C   0  0  0  0  0  0  0  0  0  0  0  0
    4.0000   -1.3856    0.0000 H   0  0  0  0  0  0  0  0  0  0  0  0
    1.6001   -2.7713    0.0000 C   0  0  0  0  0  0  0  0  0  0  0  0
    2.4000   -4.1569    0.0000 H   0  0  0  0  0  0  0  0  0  0  0  0
   -0.0001   -2.7713    0.0000 C   0  0  0  0  0  0  0  0  0  0  0  0
   -0.8000   -4.1569    0.0000 H   0  0  0  0  0  0  0  0  0  0  0  0
   -0.8000   -1.3856    0.0000 C   0  0  0  0  0  0  0  0  0  0  0  0
   -2.4000   -1.3856    0.0000 C   0  0  0  0  0  0  0  0  0  0  0  0
   -4.0000   -1.3856    0.0000 H   0  0  0  0  0  0  0  0  0  0  0  0
   -3.2001   -2.7713    0.0000 H   0  0  0  0  0  0  0  0  0  0  0  0
   -3.2001    0.0000    0.0000 H   0  0  0  0  0  0  0  0  0  0  0  0
   -0.0001    0.0000    0.0000 C   0  0  0  0  0  0  0  0  0  0  0  0
   -0.8000    1.3856    0.0000 C   0  0  0  0  0  0  0  0  0  0  0  0
   -1.5999    2.7713    0.0000 H   0  0  0  0  0  0  0  0  0  0  0  0
   -2.4000    1.3856    0.0000 H   0  0  0  0  0  0  0  0  0  0  0  0
    0.0001    2.7713    0.0000 H   0  0  0  0  0  0  0  0  0  0  0  0
    2.4000    1.3856    0.0000 C   0  0  0  0  0  0  0  0  0  0  0  0
    3.1999    2.7713    0.0000 H   0  0  0  0  0  0  0  0  0  0  0  0
    4.0000    1.3856    0.0000 H   0  0  0  0  0  0  0  0  0  0  0  0
    1.5999    2.7713    0.0000 H   0  0  0  0  0  0  0  0  0  0  0  0
  1  2  1  0  0  0  0
  2  3  1  0  0  0  0
  2  4  2  0  0  0  0
  4  5  1  0  0  0  0
  4  6  1  0  0  0  0
  6  7  1  0  0  0  0
  6  8  2  0  0  0  0
  8  9  1  0  0  0  0
  9 10  1  0  0  0  0
  9 11  1  0  0  0  0
  9 12  1  0  0  0  0
  8 13  1  0  0  0  0
 13  1  2  0  0  0  0
 13 14  1  0  0  0  0
 14 15  1  0  0  0  0
 14 16  1  0  0  0  0
 14 17  1  0  0  0  0
  1 18  1  0  0  0  0
 18 19  1  0  0  0  0
 18 20  1  0  0  0  0
 18 21  1  0  0  0  0
M  END
> <ChemID>
100353

> <source_casrn>
526-73-8

> <CAS>
526-73-8

> <SMILES>
Cc1c(C)cccc1C

> <NAME>
1,2,3-TRIMETHYLBENZENE

> <preferred_name>
1,2,3-Trimethylbenzene

> <iupac>
1,2,3-trimethylbenzene

> <MPID>
98283

> <dsstox_substance_id>
DTXSID8047769

> <Canonical_QSARr>
Cc1c(C)cccc1C

> <InChI_Code_QSARr>
InChI=1S/C9H12/c1-7-5-4-6-8(2)9(7)3/h4-6H,1-3H3

> <InChI Key_QSARr>
FYGHSUNMUKGBRK-UHFFFAOYSA-N

> <Salt_Solvent>
?

> <LogBCF>
2.29

$$$$
100354
  -INDIGO-08031719362D

 14 13  0  0  0  0  0  0  0  0999 V2000
   -1.3857   -0.8000    0.0000 C   0  0  0  0  0  0  0  0  0  0  0  0
   -1.3857   -2.4000    0.0000 O   0  0  0  0  0  0  0  0  0  0  0  0
   -2.7713    0.0000    0.0000 O   0  0  0  0  0  0  0  0  0  0  0  0
   -4.1569   -0.8000    0.0000 H   0  0  0  0  0  0  0  0  0  0  0  0
   -0.0001    0.0000    0.0000 C   0  0  0  0  0  0  0  0  0  0  0  0
   -0.6124    1.4782    0.0000 H   0  0  0  0  0  0  0  0  0  0  0  0
    1.3857   -0.8000    0.0000 C   0  0  0  0  0  0  0  0  0  0  0  0
    1.9980   -2.2782    0.0000 H   0  0  0  0  0  0  0  0  0  0  0  0
    2.7713    0.0000    0.0000 C   0  0  0  0  0  0  0  0  0  0  0  0
    2.7713    1.6000    0.0000 O   0  0  0  0  0  0  0  0  0  0  0  0
    4.1569   -0.8000    0.0000 O   0  0  0  0  0  0  0  0  0  0  0  0
    5.5426    0.0000    0.0000 H   0  0  0  0  0  0  0  0  0  0  0  0
    0.7734   -2.2782    0.0000 Br  0  0  0  0  0  0  0  0  0  0  0  0
    0.6122    1.4782    0.0000 Br  0  0  0  0  0  0  0  0  0  0  0  0
  1  2  2  0  0  0  0
  1  3  1  0  0  0  0
  3  4  1  0  0  0  0
  1  5  1  0  0  0  0
  5  6  1  0  0  0  0
  5  7  1  0  0  0  0
  7  8  1  0  0  0  0
  7  9  1  0  0  0  0
  9 10  2  0  0  0  0
  9 11  1  0  0  0  0
 11 12  1  0  0  0  0
  7 13  1  0  0  0  0
  5 14  1  0  0  0  0
M  END
> <ChemID>
100354

> <source_casrn>
526-78-3

> <CAS>
NOCAS_862120

> <SMILES>
O=C(O)C(Br)C(Br)C(=O)O

> <NAME>
2,3-Dibromosuccinic Acid

> <preferred_name>


> <iupac>


> <MPID>
98284

> <dsstox_substance_id>
DTXSID00862120

> <Canonical_QSARr>
OC(=O)C(Br)C(Br)C(O)=O

> <InChI_Code_QSARr>
InChI=1S/C4H4Br2O4/c5-1(3(7)8)2(6)4(9)10/h1-2H,(H,7,8)(H,9,10)

> <InChI Key_QSARr>
FJWGRXKOBIVTFA-UHFFFAOYSA-N

> <Salt_Solvent>
?

> <LogBCF>
0.81

$$$$
100356
  -INDIGO-08031719362D

 22 22  0  0  0  0  0  0  0  0999 V2000
    1.3857    2.4000    0.0000 O   0  0  0  0  0  0  0  0  0  0  0  0
    1.3857    4.0000    0.0000 H   0  0  0  0  0  0  0  0  0  0  0  0
    0.0000    1.6001    0.0000 C   0  0  0  0  0  0  0  0  0  0  0  0
   -1.3857    2.4000    0.0000 C   0  0  0  0  0  0  0  0  0  0  0  0
   -1.3857    4.0000    0.0000 C   0  0  0  0  0  0  0  0  0  0  0  0
   -1.3857    5.6000    0.0000 H   0  0  0  0  0  0  0  0  0  0  0  0
   -2.7713    4.8001    0.0000 H   0  0  0  0  0  0  0  0  0  0  0  0
    0.0000    4.8001    0.0000 H   0  0  0  0  0  0  0  0  0  0  0  0
   -2.7713    1.6001    0.0000 C   0  0  0  0  0  0  0  0  0  0  0  0
   -4.1570    2.4000    0.0000 H   0  0  0  0  0  0  0  0  0  0  0  0
   -2.7713    0.0001    0.0000 C   0  0  0  0  0  0  0  0  0  0  0  0
   -4.1569   -0.8000    0.0000 C   0  0  0  0  0  0  0  0  0  0  0  0
   -5.5426   -1.6001    0.0000 H   0  0  0  0  0  0  0  0  0  0  0  0
   -4.1569   -2.4000    0.0000 H   0  0  0  0  0  0  0  0  0  0  0  0
   -5.5426   -0.0001    0.0000 H   0  0  0  0  0  0  0  0  0  0  0  0
   -1.3856   -0.8000    0.0000 C   0  0  0  0  0  0  0  0  0  0  0  0
   -1.3856   -2.4000    0.0000 H   0  0  0  0  0  0  0  0  0  0  0  0
    0.0000    0.0001    0.0000 C   0  0  0  0  0  0  0  0  0  0  0  0
    1.3857   -0.8000    0.0000 C   0  0  0  0  0  0  0  0  0  0  0  0
    2.7713   -1.5999    0.0000 H   0  0  0  0  0  0  0  0  0  0  0  0
    1.3857   -2.4000    0.0000 H   0  0  0  0  0  0  0  0  0  0  0  0
    2.7713    0.0001    0.0000 H   0  0  0  0  0  0  0  0  0  0  0  0
  1  2  1  0  0  0  0
  1  3  1  0  0  0  0
  3  4  1  0  0  0  0
  4  5  1  0  0  0  0
  5  6  1  0  0  0  0
  5  7  1  0  0  0  0
  5  8  1  0  0  0  0
  4  9  2  0  0  0  0
  9 10  1  0  0  0  0
  9 11  1  0  0  0  0
 11 12  1  0  0  0  0
 12 13  1  0  0  0  0
 12 14  1  0  0  0  0
 12 15  1  0  0  0  0
 11 16  2  0  0  0  0
 16 17  1  0  0  0  0
 16 18  1  0  0  0  0
 18  3  2  0  0  0  0
 18 19  1  0  0  0  0
 19 20  1  0  0  0  0
 19 21  1  0  0  0  0
 19 22  1  0  0  0  0
M  END
> <ChemID>
100356

> <source_casrn>
527-60-6

> <CAS>
527-60-6

> <SMILES>
Cc1cc(C)c(O)c(C)c1

> <NAME>
2,4,6-TRIMETHYLPHENOL

> <preferred_name>
2,4,6-Trimethylphenol

> <iupac>
2,4,6-trimethylphenol

> <MPID>
98286

> <dsstox_substance_id>
DTXSID7022049

> <Canonical_QSARr>
Cc1cc(C)c(O)c(C)c1

> <InChI_Code_QSARr>
InChI=1S/C9H12O/c1-6-4-7(2)9(10)8(3)5-6/h4-5,10H,1-3H3

> <InChI Key_QSARr>
BPRYUXCVCCNUFE-UHFFFAOYSA-N

> <Salt_Solvent>
?

> <LogBCF>
0.93

$$$$
100357
  -INDIGO-08031719362D

 20 20  0  0  0  0  0  0  0  0999 V2000
    1.3856   -2.4000    0.0000 O   0  0  0  0  0  0  0  0  0  0  0  0
    1.3856   -4.0000    0.0000 H   0  0  0  0  0  0  0  0  0  0  0  0
    0.0000   -1.6000    0.0000 C   0  0  0  0  0  0  0  0  0  0  0  0
    0.0000    0.0000    0.0000 C   0  0  0  0  0  0  0  0  0  0  0  0
    1.3857    0.8000    0.0000 C   0  0  0  0  0  0  0  0  0  0  0  0
    2.7713    1.6000    0.0000 H   0  0  0  0  0  0  0  0  0  0  0  0
    1.3857    2.4000    0.0000 H   0  0  0  0  0  0  0  0  0  0  0  0
    2.7713    0.0000    0.0000 H   0  0  0  0  0  0  0  0  0  0  0  0
   -1.3857    0.8000    0.0000 C   0  0  0  0  0  0  0  0  0  0  0  0
   -1.3856    2.4000    0.0000 H   0  0  0  0  0  0  0  0  0  0  0  0
   -2.7713    0.0000    0.0000 C   0  0  0  0  0  0  0  0  0  0  0  0
   -4.1570    0.8000    0.0000 N   0  0  0  0  0  0  0  0  0  0  0  0
   -5.5426    0.0000    0.0000 O   0  0  0  0  0  0  0  0  0  0  0  0
   -4.1570    2.4000    0.0000 O   0  0  0  0  0  0  0  0  0  0  0  0
   -2.7713   -1.6000    0.0000 C   0  0  0  0  0  0  0  0  0  0  0  0
   -4.1570   -2.4000    0.0000 H   0  0  0  0  0  0  0  0  0  0  0  0
   -1.3857   -2.4000    0.0000 C   0  0  0  0  0  0  0  0  0  0  0  0
   -1.3856   -4.0000    0.0000 N   0  0  0  0  0  0  0  0  0  0  0  0
   -2.7713   -4.8000    0.0000 O   0  0  0  0  0  0  0  0  0  0  0  0
    0.0000   -4.8000    0.0000 O   0  0  0  0  0  0  0  0  0  0  0  0
  1  2  1  0  0  0  0
  1  3  1  0  0  0  0
  3  4  1  0  0  0  0
  4  5  1  0  0  0  0
  5  6  1  0  0  0  0
  5  7  1  0  0  0  0
  5  8  1  0  0  0  0
  4  9  2  0  0  0  0
  9 10  1  0  0  0  0
  9 11  1  0  0  0  0
 11 12  1  0  0  0  0
 12 13  1  0  0  0  0
 12 14  2  0  0  0  0
 11 15  2  0  0  0  0
 15 16  1  0  0  0  0
 15 17  1  0  0  0  0
 17  3  2  0  0  0  0
 17 18  1  0  0  0  0
 18 19  1  0  0  0  0
 18 20  2  0  0  0  0
M  CHG  4  12   1  13  -1  18   1  19  -1
M  END
> <ChemID>
100357

> <source_casrn>
534-52-1

> <CAS>
534-52-1

> <SMILES>
Cc1cc(cc(c1O)[N+]([O-])=O)[N+]([O-])=O

> <NAME>
4,6-DINITRO-O-CRESOL

> <preferred_name>
2-Methyl-4,6-dinitrophenol

> <iupac>
2-methyl-4,6-dinitrophenol

> <MPID>
98287

> <dsstox_substance_id>
DTXSID1022053

> <Canonical_QSARr>
Cc1cc(cc(c1O)[N+]([O-])=O)[N+]([O-])=O

> <InChI_Code_QSARr>
InChI=1S/C7H6N2O5/c1-4-2-5(8(11)12)3-6(7(4)10)9(13)14/h2-3,10H,1H3

> <InChI Key_QSARr>
ZXVONLUNISGICL-UHFFFAOYSA-N

> <Salt_Solvent>
?

> <LogBCF>
0.46

$$$$
100358
  -INDIGO-08031719362D

 24 24  0  0  0  0  0  0  0  0999 V2000
   -1.6000   -0.0000    0.0000 C   0  0  0  0  0  0  0  0  0  0  0  0
   -2.4000    1.3857    0.0000 C   0  0  0  0  0  0  0  0  0  0  0  0
   -1.6000    2.7713    0.0000 H   0  0  0  0  0  0  0  0  0  0  0  0
   -4.0000    1.3857    0.0000 C   0  0  0  0  0  0  0  0  0  0  0  0
   -4.8000    2.7713    0.0000 C   0  0  0  0  0  0  0  0  0  0  0  0
   -5.6000    4.1569    0.0000 H   0  0  0  0  0  0  0  0  0  0  0  0
   -6.4000    2.7713    0.0000 H   0  0  0  0  0  0  0  0  0  0  0  0
   -4.0000    4.1569    0.0000 H   0  0  0  0  0  0  0  0  0  0  0  0
   -4.8000   -0.0000    0.0000 C   0  0  0  0  0  0  0  0  0  0  0  0
   -6.4000   -0.0000    0.0000 H   0  0  0  0  0  0  0  0  0  0  0  0
   -4.0000   -1.3857    0.0000 C   0  0  0  0  0  0  0  0  0  0  0  0
   -4.8000   -2.7713    0.0000 H   0  0  0  0  0  0  0  0  0  0  0  0
   -2.4000   -1.3857    0.0000 C   0  0  0  0  0  0  0  0  0  0  0  0
   -1.6000   -2.7713    0.0000 H   0  0  0  0  0  0  0  0  0  0  0  0
   -0.0001   -0.0000    0.0000 C   0  0  0  0  0  0  0  0  0  0  0  0
   -0.0001    1.6000    0.0000 H   0  0  0  0  0  0  0  0  0  0  0  0
    1.5757    0.2778    0.0000 C   0  0  0  0  0  0  0  0  0  0  0  0
    3.1514    0.5556    0.0000 H   0  0  0  0  0  0  0  0  0  0  0  0
    2.1229    1.7814    0.0000 H   0  0  0  0  0  0  0  0  0  0  0  0
    2.6041   -0.9479    0.0000 H   0  0  0  0  0  0  0  0  0  0  0  0
   -0.0001   -1.6000    0.0000 C   0  0  0  0  0  0  0  0  0  0  0  0
   -0.0001   -3.2000    0.0000 H   0  0  0  0  0  0  0  0  0  0  0  0
    1.3857   -2.4000    0.0000 H   0  0  0  0  0  0  0  0  0  0  0  0
    1.3857   -0.8000    0.0000 H   0  0  0  0  0  0  0  0  0  0  0  0
  1  2  1  0  0  0  0
  2  3  1  0  0  0  0
  2  4  2  0  0  0  0
  4  5  1  0  0  0  0
  5  6  1  0  0  0  0
  5  7  1  0  0  0  0
  5  8  1  0  0  0  0
  4  9  1  0  0  0  0
  9 10  1  0  0  0  0
  9 11  2  0  0  0  0
 11 12  1  0  0  0  0
 11 13  1  0  0  0  0
 13  1  2  0  0  0  0
 13 14  1  0  0  0  0
  1 15  1  0  0  0  0
 15 16  1  0  0  0  0
 15 17  1  0  0  0  0
 17 18  1  0  0  0  0
 17 19  1  0  0  0  0
 17 20  1  0  0  0  0
 15 21  1  0  0  0  0
 21 22  1  0  0  0  0
 21 23  1  0  0  0  0
 21 24  1  0  0  0  0
M  END
> <ChemID>
100358

> <source_casrn>
535-77-3

> <CAS>
535-77-3

> <SMILES>
Cc1cccc(c1)C(C)C

> <NAME>
M-CYMENE

> <preferred_name>
m-Cymene

> <iupac>
1-methyl-3-propan-2-ylbenzene

> <MPID>
98288

> <dsstox_substance_id>
DTXSID2060206

> <Canonical_QSARr>
Cc1cccc(c1)C(C)C

> <InChI_Code_QSARr>
InChI=1S/C10H14/c1-8(2)10-6-4-5-9(3)7-10/h4-8H,1-3H3

> <InChI Key_QSARr>
XCYJPXQACVEIOS-UHFFFAOYSA-N

> <Salt_Solvent>
?

> <LogBCF>
2.73

$$$$
100360
  -INDIGO-08031719362D

 18 18  0  0  0  0  0  0  0  0999 V2000
    0.0000    0.0000    0.0000 C   0  0  0  0  0  0  0  0  0  0  0  0
    1.5757   -0.2778    0.0000 H   0  0  0  0  0  0  0  0  0  0  0  0
   -1.3856    0.8000    0.0000 C   0  0  0  0  0  0  0  0  0  0  0  0
   -0.3571    2.0257    0.0000 H   0  0  0  0  0  0  0  0  0  0  0  0
   -2.4141    2.0257    0.0000 H   0  0  0  0  0  0  0  0  0  0  0  0
   -2.7713    0.0000    0.0000 C   0  0  0  0  0  0  0  0  0  0  0  0
   -3.3185    1.5035    0.0000 H   0  0  0  0  0  0  0  0  0  0  0  0
   -4.3470   -0.2778    0.0000 H   0  0  0  0  0  0  0  0  0  0  0  0
   -2.7713   -1.6000    0.0000 C   0  0  0  0  0  0  0  0  0  0  0  0
   -4.3470   -1.3222    0.0000 H   0  0  0  0  0  0  0  0  0  0  0  0
   -3.3185   -3.1035    0.0000 H   0  0  0  0  0  0  0  0  0  0  0  0
   -1.3856   -2.4000    0.0000 C   0  0  0  0  0  0  0  0  0  0  0  0
   -2.4141   -3.6257    0.0000 H   0  0  0  0  0  0  0  0  0  0  0  0
   -0.3571   -3.6257    0.0000 H   0  0  0  0  0  0  0  0  0  0  0  0
    0.0000   -1.6000    0.0000 C   0  0  0  0  0  0  0  0  0  0  0  0
    0.5472   -3.1035    0.0000 H   0  0  0  0  0  0  0  0  0  0  0  0
    1.5757   -1.3222    0.0000 H   0  0  0  0  0  0  0  0  0  0  0  0
    0.5472    1.5035    0.0000 Cl  0  0  0  0  0  0  0  0  0  0  0  0
  1  2  1  0  0  0  0
  1  3  1  0  0  0  0
  3  4  1  0  0  0  0
  3  5  1  0  0  0  0
  3  6  1  0  0  0  0
  6  7  1  0  0  0  0
  6  8  1  0  0  0  0
  6  9  1  0  0  0  0
  9 10  1  0  0  0  0
  9 11  1  0  0  0  0
  9 12  1  0  0  0  0
 12 13  1  0  0  0  0
 12 14  1  0  0  0  0
 12 15  1  0  0  0  0
 15  1  1  0  0  0  0
 15 16  1  0  0  0  0
 15 17  1  0  0  0  0
  1 18  1  0  0  0  0
M  END
> <ChemID>
100360

> <source_casrn>
542-18-7

> <CAS>
542-18-7

> <SMILES>
ClC1CCCCC1

> <NAME>
CHLOROCYCLOHEXANE

> <preferred_name>
Chlorocyclohexane

> <iupac>
chlorocyclohexane

> <MPID>
98290

> <dsstox_substance_id>
DTXSID3052193

> <Canonical_QSARr>
ClC1CCCCC1

> <InChI_Code_QSARr>
InChI=1S/C6H11Cl/c7-6-4-2-1-3-5-6/h6H,1-5H2

> <InChI Key_QSARr>
UNFUYWDGSFDHCW-UHFFFAOYSA-N

> <Salt_Solvent>
?

> <LogBCF>
2.34

$$$$
100361
  -INDIGO-08031719362D

 33 32  0  0  0  0  0  0  0  0999 V2000
   -0.0001   -0.0000    0.0000 C   0  0  0  0  0  0  0  0  0  0  0  0
    0.7999   -1.3857    0.0000 H   0  0  0  0  0  0  0  0  0  0  0  0
    1.5036    0.5473    0.0000 C   0  0  0  0  0  0  0  0  0  0  0  0
    1.1573    2.1093    0.0000 H   0  0  0  0  0  0  0  0  0  0  0  0
    2.3633    1.8967    0.0000 H   0  0  0  0  0  0  0  0  0  0  0  0
    2.7292   -0.4812    0.0000 C   0  0  0  0  0  0  0  0  0  0  0  0
    3.0755   -2.0433    0.0000 H   0  0  0  0  0  0  0  0  0  0  0  0
    1.8695   -1.8307    0.0000 H   0  0  0  0  0  0  0  0  0  0  0  0
    4.2326    0.0660    0.0000 O   0  0  0  0  0  0  0  0  0  0  0  0
    5.4584   -0.9625    0.0000 C   0  0  0  0  0  0  0  0  0  0  0  0
    5.8047   -2.5245    0.0000 H   0  0  0  0  0  0  0  0  0  0  0  0
    4.5987   -2.3119    0.0000 H   0  0  0  0  0  0  0  0  0  0  0  0
    6.9618   -0.4152    0.0000 C   0  0  0  0  0  0  0  0  0  0  0  0
    6.6156    1.1469    0.0000 H   0  0  0  0  0  0  0  0  0  0  0  0
    7.8215    0.9342    0.0000 H   0  0  0  0  0  0  0  0  0  0  0  0
    8.1875   -1.4437    0.0000 C   0  0  0  0  0  0  0  0  0  0  0  0
    6.9618   -2.4722    0.0000 H   0  0  0  0  0  0  0  0  0  0  0  0
    9.2159   -2.6694    0.0000 C   0  0  0  0  0  0  0  0  0  0  0  0
   10.2444   -3.8950    0.0000 H   0  0  0  0  0  0  0  0  0  0  0  0
   10.7916   -2.3916    0.0000 H   0  0  0  0  0  0  0  0  0  0  0  0
    8.6687   -4.1729    0.0000 H   0  0  0  0  0  0  0  0  0  0  0  0
    9.4133   -0.4152    0.0000 C   0  0  0  0  0  0  0  0  0  0  0  0
   10.6389    0.6133    0.0000 H   0  0  0  0  0  0  0  0  0  0  0  0
    9.1353    1.1605    0.0000 H   0  0  0  0  0  0  0  0  0  0  0  0
   10.9167   -0.9625    0.0000 H   0  0  0  0  0  0  0  0  0  0  0  0
   -1.3857   -0.8000    0.0000 C   0  0  0  0  0  0  0  0  0  0  0  0
   -2.7713   -1.6000    0.0000 H   0  0  0  0  0  0  0  0  0  0  0  0
   -1.3857   -2.4000    0.0000 H   0  0  0  0  0  0  0  0  0  0  0  0
   -2.7713   -0.0000    0.0000 H   0  0  0  0  0  0  0  0  0  0  0  0
   -0.8000    1.3856    0.0000 C   0  0  0  0  0  0  0  0  0  0  0  0
   -1.6000    2.7713    0.0000 H   0  0  0  0  0  0  0  0  0  0  0  0
   -0.0001    2.7713    0.0000 H   0  0  0  0  0  0  0  0  0  0  0  0
   -2.3999    1.3856    0.0000 H   0  0  0  0  0  0  0  0  0  0  0  0
  1  2  1  0  0  0  0
  1  3  1  0  0  0  0
  3  4  1  0  0  0  0
  3  5  1  0  0  0  0
  3  6  1  0  0  0  0
  6  7  1  0  0  0  0
  6  8  1  0  0  0  0
  6  9  1  0  0  0  0
  9 10  1  0  0  0  0
 10 11  1  0  0  0  0
 10 12  1  0  0  0  0
 10 13  1  0  0  0  0
 13 14  1  0  0  0  0
 13 15  1  0  0  0  0
 13 16  1  0  0  0  0
 16 17  1  0  0  0  0
 16 18  1  0  0  0  0
 18 19  1  0  0  0  0
 18 20  1  0  0  0  0
 18 21  1  0  0  0  0
 16 22  1  0  0  0  0
 22 23  1  0  0  0  0
 22 24  1  0  0  0  0
 22 25  1  0  0  0  0
  1 26  1  0  0  0  0
 26 27  1  0  0  0  0
 26 28  1  0  0  0  0
 26 29  1  0  0  0  0
  1 30  1  0  0  0  0
 30 31  1  0  0  0  0
 30 32  1  0  0  0  0
 30 33  1  0  0  0  0
M  END
> <ChemID>
100361

> <source_casrn>
544-01-4

> <CAS>
544-01-4

> <SMILES>
CC(C)CCOCCC(C)C

> <NAME>
DIISOPENTYL ETHER

> <preferred_name>
Isoamyl ether

> <iupac>
bis(3-methylbutyl) ether

> <MPID>
98291

> <dsstox_substance_id>
DTXSID8052198

> <Canonical_QSARr>
CC(C)CCOCCC(C)C

> <InChI_Code_QSARr>
InChI=1S/C10H22O/c1-9(2)5-7-11-8-6-10(3)4/h9-10H,5-8H2,1-4H3

> <InChI Key_QSARr>
AQZGPSLYZOOYQP-UHFFFAOYSA-N

> <Salt_Solvent>
?

> <LogBCF>
2.23

$$$$
100362
  -INDIGO-08031719362D

 50 49  0  0  0  0  0  0  0  0999 V2000
    9.6995   -0.8000    0.0000 C   0  0  0  0  0  0  0  0  0  0  0  0
   11.0851   -1.6000    0.0000 H   0  0  0  0  0  0  0  0  0  0  0  0
   11.0851    0.0000    0.0000 H   0  0  0  0  0  0  0  0  0  0  0  0
    9.6995   -2.4000    0.0000 H   0  0  0  0  0  0  0  0  0  0  0  0
    8.3138    0.0000    0.0000 C   0  0  0  0  0  0  0  0  0  0  0  0
    8.9260    1.4782    0.0000 H   0  0  0  0  0  0  0  0  0  0  0  0
    7.7017    1.4782    0.0000 H   0  0  0  0  0  0  0  0  0  0  0  0
    6.9282   -0.8000    0.0000 C   0  0  0  0  0  0  0  0  0  0  0  0
    6.3161   -2.2782    0.0000 H   0  0  0  0  0  0  0  0  0  0  0  0
    7.5403   -2.2782    0.0000 H   0  0  0  0  0  0  0  0  0  0  0  0
    5.5426    0.0000    0.0000 C   0  0  0  0  0  0  0  0  0  0  0  0
    6.1547    1.4782    0.0000 H   0  0  0  0  0  0  0  0  0  0  0  0
    4.9304    1.4782    0.0000 H   0  0  0  0  0  0  0  0  0  0  0  0
    4.1569   -0.8000    0.0000 C   0  0  0  0  0  0  0  0  0  0  0  0
    3.5448   -2.2782    0.0000 H   0  0  0  0  0  0  0  0  0  0  0  0
    4.7690   -2.2782    0.0000 H   0  0  0  0  0  0  0  0  0  0  0  0
    2.7713    0.0000    0.0000 C   0  0  0  0  0  0  0  0  0  0  0  0
    3.3834    1.4782    0.0000 H   0  0  0  0  0  0  0  0  0  0  0  0
    2.1592    1.4782    0.0000 H   0  0  0  0  0  0  0  0  0  0  0  0
    1.3856   -0.8000    0.0000 C   0  0  0  0  0  0  0  0  0  0  0  0
    0.7735   -2.2782    0.0000 H   0  0  0  0  0  0  0  0  0  0  0  0
    1.9978   -2.2782    0.0000 H   0  0  0  0  0  0  0  0  0  0  0  0
    0.0000    0.0000    0.0000 C   0  0  0  0  0  0  0  0  0  0  0  0
    0.6121    1.4782    0.0000 H   0  0  0  0  0  0  0  0  0  0  0  0
   -0.6121    1.4782    0.0000 H   0  0  0  0  0  0  0  0  0  0  0  0
   -1.3856   -0.8000    0.0000 C   0  0  0  0  0  0  0  0  0  0  0  0
   -1.9978   -2.2782    0.0000 H   0  0  0  0  0  0  0  0  0  0  0  0
   -0.7735   -2.2782    0.0000 H   0  0  0  0  0  0  0  0  0  0  0  0
   -2.7713    0.0000    0.0000 C   0  0  0  0  0  0  0  0  0  0  0  0
   -2.1592    1.4782    0.0000 H   0  0  0  0  0  0  0  0  0  0  0  0
   -3.3834    1.4782    0.0000 H   0  0  0  0  0  0  0  0  0  0  0  0
   -4.1569   -0.8000    0.0000 C   0  0  0  0  0  0  0  0  0  0  0  0
   -4.7690   -2.2782    0.0000 H   0  0  0  0  0  0  0  0  0  0  0  0
   -3.5448   -2.2782    0.0000 H   0  0  0  0  0  0  0  0  0  0  0  0
   -5.5426    0.0000    0.0000 C   0  0  0  0  0  0  0  0  0  0  0  0
   -4.9304    1.4782    0.0000 H   0  0  0  0  0  0  0  0  0  0  0  0
   -6.1547    1.4782    0.0000 H   0  0  0  0  0  0  0  0  0  0  0  0
   -6.9282   -0.8000    0.0000 C   0  0  0  0  0  0  0  0  0  0  0  0
   -7.5403   -2.2782    0.0000 H   0  0  0  0  0  0  0  0  0  0  0  0
   -6.3161   -2.2782    0.0000 H   0  0  0  0  0  0  0  0  0  0  0  0
   -8.3138    0.0000    0.0000 C   0  0  0  0  0  0  0  0  0  0  0  0
   -7.7017    1.4782    0.0000 H   0  0  0  0  0  0  0  0  0  0  0  0
   -8.9260    1.4782    0.0000 H   0  0  0  0  0  0  0  0  0  0  0  0
   -9.6995   -0.8000    0.0000 C   0  0  0  0  0  0  0  0  0  0  0  0
  -10.3116   -2.2782    0.0000 H   0  0  0  0  0  0  0  0  0  0  0  0
   -9.0874   -2.2782    0.0000 H   0  0  0  0  0  0  0  0  0  0  0  0
  -11.0851    0.0000    0.0000 C   0  0  0  0  0  0  0  0  0  0  0  0
  -12.4708    0.8000    0.0000 H   0  0  0  0  0  0  0  0  0  0  0  0
  -12.4708   -0.8000    0.0000 H   0  0  0  0  0  0  0  0  0  0  0  0
  -11.0851    1.6000    0.0000 H   0  0  0  0  0  0  0  0  0  0  0  0
  1  2  1  0  0  0  0
  1  3  1  0  0  0  0
  1  4  1  0  0  0  0
  1  5  1  0  0  0  0
  5  6  1  0  0  0  0
  5  7  1  0  0  0  0
  5  8  1  0  0  0  0
  8  9  1  0  0  0  0
  8 10  1  0  0  0  0
  8 11  1  0  0  0  0
 11 12  1  0  0  0  0
 11 13  1  0  0  0  0
 11 14  1  0  0  0  0
 14 15  1  0  0  0  0
 14 16  1  0  0  0  0
 14 17  1  0  0  0  0
 17 18  1  0  0  0  0
 17 19  1  0  0  0  0
 17 20  1  0  0  0  0
 20 21  1  0  0  0  0
 20 22  1  0  0  0  0
 20 23  1  0  0  0  0
 23 24  1  0  0  0  0
 23 25  1  0  0  0  0
 23 26  1  0  0  0  0
 26 27  1  0  0  0  0
 26 28  1  0  0  0  0
 26 29  1  0  0  0  0
 29 30  1  0  0  0  0
 29 31  1  0  0  0  0
 29 32  1  0  0  0  0
 32 33  1  0  0  0  0
 32 34  1  0  0  0  0
 32 35  1  0  0  0  0
 35 36  1  0  0  0  0
 35 37  1  0  0  0  0
 35 38  1  0  0  0  0
 38 39  1  0  0  0  0
 38 40  1  0  0  0  0
 38 41  1  0  0  0  0
 41 42  1  0  0  0  0
 41 43  1  0  0  0  0
 41 44  1  0  0  0  0
 44 45  1  0  0  0  0
 44 46  1  0  0  0  0
 44 47  1  0  0  0  0
 47 48  1  0  0  0  0
 47 49  1  0  0  0  0
 47 50  1  0  0  0  0
M  END
> <ChemID>
100362

> <source_casrn>
544-76-3

> <CAS>
544-76-3

> <SMILES>
CCCCCCCCCCCCCCCC

> <NAME>
N-HEXADECANE

> <preferred_name>
Hexadecane

> <iupac>
hexadecane

> <MPID>
98292

> <dsstox_substance_id>
DTXSID0027195

> <Canonical_QSARr>
CCCCCCCCCCCCCCCC

> <InChI_Code_QSARr>
InChI=1S/C16H34/c1-3-5-7-9-11-13-15-16-14-12-10-8-6-4-2/h3-16H2,1-2H3

> <InChI Key_QSARr>
DCAYPVUWAIABOU-UHFFFAOYSA-N

> <Salt_Solvent>
?

> <LogBCF>
3.7

$$$$
100364
  -INDIGO-08031719362D

 15 15  0  0  0  0  0  0  0  0999 V2000
    3.2000    2.7713    0.0000 O   0  0  0  0  0  0  0  0  0  0  0  0
    4.8000    2.7713    0.0000 H   0  0  0  0  0  0  0  0  0  0  0  0
    2.4000    1.3856    0.0000 C   0  0  0  0  0  0  0  0  0  0  0  0
    3.2000   -0.0000    0.0000 C   0  0  0  0  0  0  0  0  0  0  0  0
    4.8000   -0.0000    0.0000 H   0  0  0  0  0  0  0  0  0  0  0  0
    2.4000   -1.3856    0.0000 C   0  0  0  0  0  0  0  0  0  0  0  0
    3.2000   -2.7713    0.0000 H   0  0  0  0  0  0  0  0  0  0  0  0
    0.8000   -1.3856    0.0000 C   0  0  0  0  0  0  0  0  0  0  0  0
    0.0000   -2.7713    0.0000 H   0  0  0  0  0  0  0  0  0  0  0  0
    0.0000   -0.0000    0.0000 C   0  0  0  0  0  0  0  0  0  0  0  0
   -1.6000   -0.0000    0.0000 N   0  0  0  0  0  0  0  0  0  0  0  0
   -2.4000   -1.3856    0.0000 O   0  0  0  0  0  0  0  0  0  0  0  0
   -2.4000    1.3856    0.0000 O   0  0  0  0  0  0  0  0  0  0  0  0
    0.8000    1.3856    0.0000 C   0  0  0  0  0  0  0  0  0  0  0  0
    0.0000    2.7713    0.0000 H   0  0  0  0  0  0  0  0  0  0  0  0
  1  2  1  0  0  0  0
  1  3  1  0  0  0  0
  3  4  1  0  0  0  0
  4  5  1  0  0  0  0
  4  6  2  0  0  0  0
  6  7  1  0  0  0  0
  6  8  1  0  0  0  0
  8  9  1  0  0  0  0
  8 10  2  0  0  0  0
 10 11  1  0  0  0  0
 11 12  1  0  0  0  0
 11 13  2  0  0  0  0
 10 14  1  0  0  0  0
 14  3  2  0  0  0  0
 14 15  1  0  0  0  0
M  CHG  2  11   1  12  -1
M  END
> <ChemID>
100364

> <source_casrn>
554-84-7

> <CAS>
554-84-7

> <SMILES>
[O-][N+](=O)c1cccc(O)c1

> <NAME>
3-NITROPHENOL

> <preferred_name>
3-Nitrophenol

> <iupac>
3-nitrophenol

> <MPID>
98294

> <dsstox_substance_id>
DTXSID2025765

> <Canonical_QSARr>
[O-][N+](=O)c1cccc(O)c1

> <InChI_Code_QSARr>
InChI=1S/C6H5NO3/c8-6-3-1-2-5(4-6)7(9)10/h1-4,8H

> <InChI Key_QSARr>
RTZZCYNQPHTPPL-UHFFFAOYSA-N

> <Salt_Solvent>
?

> <LogBCF>
1.4

$$$$
100365
  -INDIGO-08031719362D

 18 18  0  0  0  0  0  0  0  0999 V2000
   -2.7713   -0.0000    0.0000 C   0  0  0  0  0  0  0  0  0  0  0  0
   -1.3857    0.8000    0.0000 C   0  0  0  0  0  0  0  0  0  0  0  0
   -1.3857    2.4000    0.0000 H   0  0  0  0  0  0  0  0  0  0  0  0
    0.0001   -0.0000    0.0000 C   0  0  0  0  0  0  0  0  0  0  0  0
    1.3857    0.8000    0.0000 O   0  0  0  0  0  0  0  0  0  0  0  0
    2.7713   -0.0000    0.0000 C   0  0  0  0  0  0  0  0  0  0  0  0
    4.1569    0.8000    0.0000 H   0  0  0  0  0  0  0  0  0  0  0  0
    4.1569   -0.8000    0.0000 H   0  0  0  0  0  0  0  0  0  0  0  0
    2.7713    1.6000    0.0000 H   0  0  0  0  0  0  0  0  0  0  0  0
    0.0001   -1.6000    0.0000 C   0  0  0  0  0  0  0  0  0  0  0  0
    1.3857   -2.4000    0.0000 H   0  0  0  0  0  0  0  0  0  0  0  0
   -1.3857   -2.4000    0.0000 C   0  0  0  0  0  0  0  0  0  0  0  0
   -1.3857   -4.0000    0.0000 H   0  0  0  0  0  0  0  0  0  0  0  0
   -2.7713   -1.6000    0.0000 C   0  0  0  0  0  0  0  0  0  0  0  0
   -4.1569   -2.4000    0.0000 H   0  0  0  0  0  0  0  0  0  0  0  0
   -4.1569    0.8000    0.0000 N   0  0  0  0  0  0  0  0  0  0  0  0
   -5.5426   -0.0000    0.0000 O   0  0  0  0  0  0  0  0  0  0  0  0
   -4.1569    2.4000    0.0000 O   0  0  0  0  0  0  0  0  0  0  0  0
  1  2  1  0  0  0  0
  2  3  1  0  0  0  0
  2  4  2  0  0  0  0
  4  5  1  0  0  0  0
  5  6  1  0  0  0  0
  6  7  1  0  0  0  0
  6  8  1  0  0  0  0
  6  9  1  0  0  0  0
  4 10  1  0  0  0  0
 10 11  1  0  0  0  0
 10 12  2  0  0  0  0
 12 13  1  0  0  0  0
 12 14  1  0  0  0  0
 14  1  2  0  0  0  0
 14 15  1  0  0  0  0
  1 16  1  0  0  0  0
 16 17  2  0  0  0  0
 16 18  1  0  0  0  0
M  CHG  2  16   1  18  -1
M  END
> <ChemID>
100365

> <source_casrn>
555-03-3

> <CAS>
555-03-3

> <SMILES>
COc1cc(ccc1)[N+]([O-])=O

> <NAME>
M-NITROANISOLE

> <preferred_name>
Benzene, 1-methoxy-3-nitro-

> <iupac>
1-Methoxy-3-nitrobenzene

> <MPID>
98295

> <dsstox_substance_id>
DTXSID3060295

> <Canonical_QSARr>
COc1cc(ccc1)[N+]([O-])=O

> <InChI_Code_QSARr>
InChI=1S/C7H7NO3/c1-11-7-4-2-3-6(5-7)8(9)10/h2-5H,1H3

> <InChI Key_QSARr>
WGYFINWERLNPHR-UHFFFAOYSA-N

> <Salt_Solvent>
?

> <LogBCF>
0.78

$$$$
100366
  -INDIGO-08031719362D

 13 13  0  0  0  0  0  0  0  0999 V2000
    2.4000    1.3856    0.0000 Cl  0  0  0  0  0  0  0  0  0  0  0  0
    1.6000   -0.0000    0.0000 C   0  0  0  0  0  0  0  0  0  0  0  0
    2.4000   -1.3857    0.0000 C   0  0  0  0  0  0  0  0  0  0  0  0
    4.0000   -1.3857    0.0000 Cl  0  0  0  0  0  0  0  0  0  0  0  0
    1.6000   -2.7713    0.0000 C   0  0  0  0  0  0  0  0  0  0  0  0
    2.4000   -4.1569    0.0000 H   0  0  0  0  0  0  0  0  0  0  0  0
    0.0000   -2.7713    0.0000 C   0  0  0  0  0  0  0  0  0  0  0  0
   -0.8000   -4.1569    0.0000 H   0  0  0  0  0  0  0  0  0  0  0  0
   -0.8000   -1.3856    0.0000 C   0  0  0  0  0  0  0  0  0  0  0  0
   -2.4000   -1.3856    0.0000 H   0  0  0  0  0  0  0  0  0  0  0  0
    0.0000   -0.0000    0.0000 C   0  0  0  0  0  0  0  0  0  0  0  0
   -0.8000    1.3856    0.0000 O   0  0  0  0  0  0  0  0  0  0  0  0
   -2.4000    1.3856    0.0000 H   0  0  0  0  0  0  0  0  0  0  0  0
  1  2  1  0  0  0  0
  2  3  1  0  0  0  0
  3  4  1  0  0  0  0
  3  5  2  0  0  0  0
  5  6  1  0  0  0  0
  5  7  1  0  0  0  0
  7  8  1  0  0  0  0
  7  9  2  0  0  0  0
  9 10  1  0  0  0  0
  9 11  1  0  0  0  0
 11  2  2  0  0  0  0
 11 12  1  0  0  0  0
 12 13  1  0  0  0  0
M  END
> <ChemID>
100366

> <source_casrn>
576-24-9

> <CAS>
576-24-9

> <SMILES>
Oc1cccc(Cl)c1Cl

> <NAME>
2,3-DICHLOROPHENOL

> <preferred_name>
2,3-Dichlorophenol

> <iupac>
2,3-dichlorophenol

> <MPID>
98296

> <dsstox_substance_id>
DTXSID7025001

> <Canonical_QSARr>
Oc1cccc(Cl)c1Cl

> <InChI_Code_QSARr>
InChI=1S/C6H4Cl2O/c7-4-2-1-3-5(9)6(4)8/h1-3,9H

> <InChI Key_QSARr>
UMPSXRYVXUPCOS-UHFFFAOYSA-N

> <Salt_Solvent>
?

> <LogBCF>
1.13

$$$$
100367
  -INDIGO-08031719362D

 66 65  0  0  0  0  0  0  0  0999 V2000
   -4.4987    6.6448    0.0000 O   0  0  0  0  0  0  0  0  0  0  0  0
   -3.1129    7.4449    0.0000 H   0  0  0  0  0  0  0  0  0  0  0  0
   -4.4987    5.0448    0.0000 S   0  0  0  0  0  0  0  0  0  0  0  0
   -4.4987    3.4449    0.0000 C   0  0  0  0  0  0  0  0  0  0  0  0
   -4.4987    1.8447    0.0000 H   0  0  0  0  0  0  0  0  0  0  0  0
   -6.0985    3.4449    0.0000 C   0  0  0  0  0  0  0  0  0  0  0  0
   -6.3076    1.8584    0.0000 H   0  0  0  0  0  0  0  0  0  0  0  0
   -7.3679    2.4708    0.0000 H   0  0  0  0  0  0  0  0  0  0  0  0
   -7.1271    4.6706    0.0000 C   0  0  0  0  0  0  0  0  0  0  0  0
   -6.5800    6.1740    0.0000 O   0  0  0  0  0  0  0  0  0  0  0  0
   -8.7029    4.3926    0.0000 O   0  0  0  0  0  0  0  0  0  0  0  0
   -9.7311    5.6183    0.0000 C   0  0  0  0  0  0  0  0  0  0  0  0
   -9.8010    7.2168    0.0000 H   0  0  0  0  0  0  0  0  0  0  0  0
   -8.6502    6.7981    0.0000 H   0  0  0  0  0  0  0  0  0  0  0  0
  -11.3069    5.3404    0.0000 C   0  0  0  0  0  0  0  0  0  0  0  0
  -10.7598    3.8370    0.0000 H   0  0  0  0  0  0  0  0  0  0  0  0
  -11.8540    6.8440    0.0000 C   0  0  0  0  0  0  0  0  0  0  0  0
  -13.4161    6.4977    0.0000 H   0  0  0  0  0  0  0  0  0  0  0  0
  -13.2036    7.7038    0.0000 H   0  0  0  0  0  0  0  0  0  0  0  0
  -10.8258    8.0697    0.0000 C   0  0  0  0  0  0  0  0  0  0  0  0
  -11.3729    9.5732    0.0000 H   0  0  0  0  0  0  0  0  0  0  0  0
   -9.7971    9.2954    0.0000 H   0  0  0  0  0  0  0  0  0  0  0  0
  -12.4015    8.3475    0.0000 H   0  0  0  0  0  0  0  0  0  0  0  0
  -12.6927    4.5405    0.0000 C   0  0  0  0  0  0  0  0  0  0  0  0
  -11.6118    3.3608    0.0000 H   0  0  0  0  0  0  0  0  0  0  0  0
  -12.7625    2.9420    0.0000 H   0  0  0  0  0  0  0  0  0  0  0  0
  -14.2925    4.5405    0.0000 C   0  0  0  0  0  0  0  0  0  0  0  0
  -15.5619    5.5146    0.0000 H   0  0  0  0  0  0  0  0  0  0  0  0
  -14.5016    6.1268    0.0000 H   0  0  0  0  0  0  0  0  0  0  0  0
  -15.0926    3.1549    0.0000 C   0  0  0  0  0  0  0  0  0  0  0  0
  -13.8232    2.1809    0.0000 H   0  0  0  0  0  0  0  0  0  0  0  0
  -14.8839    1.5684    0.0000 H   0  0  0  0  0  0  0  0  0  0  0  0
  -16.6924    3.1549    0.0000 C   0  0  0  0  0  0  0  0  0  0  0  0
  -18.2926    3.1549    0.0000 H   0  0  0  0  0  0  0  0  0  0  0  0
  -17.4925    1.7691    0.0000 H   0  0  0  0  0  0  0  0  0  0  0  0
  -17.4925    4.5405    0.0000 H   0  0  0  0  0  0  0  0  0  0  0  0
   -2.9229    3.1669    0.0000 C   0  0  0  0  0  0  0  0  0  0  0  0
   -2.3758    1.6635    0.0000 O   0  0  0  0  0  0  0  0  0  0  0  0
   -0.8000    1.3856    0.0000 C   0  0  0  0  0  0  0  0  0  0  0  0
   -0.5913    2.9721    0.0000 H   0  0  0  0  0  0  0  0  0  0  0  0
    0.4694    2.3596    0.0000 H   0  0  0  0  0  0  0  0  0  0  0  0
    0.0001   -0.0000    0.0000 C   0  0  0  0  0  0  0  0  0  0  0  0
    0.7998   -1.3856    0.0000 H   0  0  0  0  0  0  0  0  0  0  0  0
   -1.3857   -0.8001    0.0000 C   0  0  0  0  0  0  0  0  0  0  0  0
   -2.9721   -0.5911    0.0000 H   0  0  0  0  0  0  0  0  0  0  0  0
   -2.3597    0.4693    0.0000 H   0  0  0  0  0  0  0  0  0  0  0  0
   -1.3857   -2.4000    0.0000 C   0  0  0  0  0  0  0  0  0  0  0  0
   -1.3857   -4.0000    0.0000 H   0  0  0  0  0  0  0  0  0  0  0  0
   -2.7714   -3.1999    0.0000 H   0  0  0  0  0  0  0  0  0  0  0  0
    0.0001   -3.1999    0.0000 H   0  0  0  0  0  0  0  0  0  0  0  0
    1.5034    0.5472    0.0000 C   0  0  0  0  0  0  0  0  0  0  0  0
    1.7125   -1.0391    0.0000 H   0  0  0  0  0  0  0  0  0  0  0  0
    2.7728   -0.4269    0.0000 H   0  0  0  0  0  0  0  0  0  0  0  0
    2.5320    1.7729    0.0000 C   0  0  0  0  0  0  0  0  0  0  0  0
    2.6018    3.3714    0.0000 H   0  0  0  0  0  0  0  0  0  0  0  0
    1.4511    2.9526    0.0000 H   0  0  0  0  0  0  0  0  0  0  0  0
    4.1078    1.4951    0.0000 C   0  0  0  0  0  0  0  0  0  0  0  0
    4.0380   -0.1034    0.0000 H   0  0  0  0  0  0  0  0  0  0  0  0
    5.1887    0.3154    0.0000 H   0  0  0  0  0  0  0  0  0  0  0  0
    5.1360    2.7208    0.0000 C   0  0  0  0  0  0  0  0  0  0  0  0
    6.1647    3.9463    0.0000 H   0  0  0  0  0  0  0  0  0  0  0  0
    6.7118    2.4429    0.0000 H   0  0  0  0  0  0  0  0  0  0  0  0
    4.5889    4.2243    0.0000 H   0  0  0  0  0  0  0  0  0  0  0  0
   -1.8946    4.3926    0.0000 O   0  0  0  0  0  0  0  0  0  0  0  0
   -2.8985    5.0448    0.0000 O   0  0  0  0  0  0  0  0  0  0  0  0
   -6.0985    5.0448    0.0000 O   0  0  0  0  0  0  0  0  0  0  0  0
  1  2  1  0  0  0  0
  1  3  1  0  0  0  0
  3  4  1  0  0  0  0
  4  5  1  0  0  0  0
  4  6  1  0  0  0  0
  6  7  1  0  0  0  0
  6  8  1  0  0  0  0
  6  9  1  0  0  0  0
  9 10  2  0  0  0  0
  9 11  1  0  0  0  0
 11 12  1  0  0  0  0
 12 13  1  0  0  0  0
 12 14  1  0  0  0  0
 12 15  1  0  0  0  0
 15 16  1  0  0  0  0
 15 17  1  0  0  0  0
 17 18  1  0  0  0  0
 17 19  1  0  0  0  0
 17 20  1  0  0  0  0
 20 21  1  0  0  0  0
 20 22  1  0  0  0  0
 20 23  1  0  0  0  0
 15 24  1  0  0  0  0
 24 25  1  0  0  0  0
 24 26  1  0  0  0  0
 24 27  1  0  0  0  0
 27 28  1  0  0  0  0
 27 29  1  0  0  0  0
 27 30  1  0  0  0  0
 30 31  1  0  0  0  0
 30 32  1  0  0  0  0
 30 33  1  0  0  0  0
 33 34  1  0  0  0  0
 33 35  1  0  0  0  0
 33 36  1  0  0  0  0
  4 37  1  0  0  0  0
 37 38  1  0  0  0  0
 38 39  1  0  0  0  0
 39 40  1  0  0  0  0
 39 41  1  0  0  0  0
 39 42  1  0  0  0  0
 42 43  1  0  0  0  0
 42 44  1  0  0  0  0
 44 45  1  0  0  0  0
 44 46  1  0  0  0  0
 44 47  1  0  0  0  0
 47 48  1  0  0  0  0
 47 49  1  0  0  0  0
 47 50  1  0  0  0  0
 42 51  1  0  0  0  0
 51 52  1  0  0  0  0
 51 53  1  0  0  0  0
 51 54  1  0  0  0  0
 54 55  1  0  0  0  0
 54 56  1  0  0  0  0
 54 57  1  0  0  0  0
 57 58  1  0  0  0  0
 57 59  1  0  0  0  0
 57 60  1  0  0  0  0
 60 61  1  0  0  0  0
 60 62  1  0  0  0  0
 60 63  1  0  0  0  0
 37 64  2  0  0  0  0
  3 65  2  0  0  0  0
  3 66  2  0  0  0  0
M  END
> <ChemID>
100367

> <source_casrn>
577-11-7

> <CAS>
577-11-7

> <SMILES>
[Na+].CCC(COC(=O)CC(C(=O)OCC(CCCC)CC)S([O-])(=O)=O)CCCC

> <NAME>
BIS(2-ETHYLHEXYL) SODIUM SULFOSUCCINATE

> <preferred_name>
Docusate sodium

> <iupac>
sodium 1,4-bis[(2-ethylhexyl)oxy]-1,4-dioxobutane-2-sulfonate

> <MPID>
98297

> <dsstox_substance_id>
DTXSID8022959

> <Canonical_QSARr>
CCC(COC(=O)CC(C(=O)OCC(CCCC)CC)S(O)(=O)=O)CCCC

> <InChI_Code_QSARr>
InChI=1S/C20H38O7S/c1-5-9-11-16(7-3)14-26-19(21)13-18(28(23,24)25)20(22)27-15-17(8-4)12-10-6-2/h16-18H,5-15H2,1-4H3,(H,23,24,25)

> <InChI Key_QSARr>
HNSDLXPSAYFUHK-UHFFFAOYSA-N

> <Salt_Solvent>
[Na+]

> <LogBCF>
0.97

$$$$
100369
  -INDIGO-08031719362D

 22 22  0  0  0  0  0  0  0  0999 V2000
   -1.3857   -0.7999    0.0000 C   0  0  0  0  0  0  0  0  0  0  0  0
    0.0001    0.0000    0.0000 N   0  0  0  0  0  0  0  0  0  0  0  0
    1.3857   -0.7999    0.0000 C   0  0  0  0  0  0  0  0  0  0  0  0
    2.7713    0.0000    0.0000 C   0  0  0  0  0  0  0  0  0  0  0  0
    4.1569    0.8001    0.0000 H   0  0  0  0  0  0  0  0  0  0  0  0
    4.1569   -0.7999    0.0000 H   0  0  0  0  0  0  0  0  0  0  0  0
    2.7713    1.6000    0.0000 H   0  0  0  0  0  0  0  0  0  0  0  0
    1.3857   -2.3999    0.0000 O   0  0  0  0  0  0  0  0  0  0  0  0
    0.0001    1.6000    0.0000 C   0  0  0  0  0  0  0  0  0  0  0  0
    0.0001    3.2000    0.0000 H   0  0  0  0  0  0  0  0  0  0  0  0
    1.3857    2.4001    0.0000 H   0  0  0  0  0  0  0  0  0  0  0  0
   -1.3857    2.4001    0.0000 H   0  0  0  0  0  0  0  0  0  0  0  0
   -1.3857   -2.4001    0.0000 C   0  0  0  0  0  0  0  0  0  0  0  0
    0.0001   -3.2000    0.0000 H   0  0  0  0  0  0  0  0  0  0  0  0
   -2.7713   -3.2000    0.0000 C   0  0  0  0  0  0  0  0  0  0  0  0
   -2.7713   -4.8000    0.0000 H   0  0  0  0  0  0  0  0  0  0  0  0
   -4.1569   -2.3999    0.0000 C   0  0  0  0  0  0  0  0  0  0  0  0
   -5.5426   -3.2000    0.0000 H   0  0  0  0  0  0  0  0  0  0  0  0
   -4.1569   -0.7999    0.0000 C   0  0  0  0  0  0  0  0  0  0  0  0
   -5.5426    0.0000    0.0000 H   0  0  0  0  0  0  0  0  0  0  0  0
   -2.7713    0.0000    0.0000 C   0  0  0  0  0  0  0  0  0  0  0  0
   -2.7713    1.6000    0.0000 H   0  0  0  0  0  0  0  0  0  0  0  0
  1  2  1  0  0  0  0
  2  3  1  0  0  0  0
  3  4  1  0  0  0  0
  4  5  1  0  0  0  0
  4  6  1  0  0  0  0
  4  7  1  0  0  0  0
  3  8  2  0  0  0  0
  2  9  1  0  0  0  0
  9 10  1  0  0  0  0
  9 11  1  0  0  0  0
  9 12  1  0  0  0  0
  1 13  1  0  0  0  0
 13 14  1  0  0  0  0
 13 15  2  0  0  0  0
 15 16  1  0  0  0  0
 15 17  1  0  0  0  0
 17 18  1  0  0  0  0
 17 19  2  0  0  0  0
 19 20  1  0  0  0  0
 19 21  1  0  0  0  0
 21  1  2  0  0  0  0
 21 22  1  0  0  0  0
M  END
> <ChemID>
100369

> <source_casrn>
579-10-2

> <CAS>
579-10-2

> <SMILES>
CC(=O)N(C)c1ccccc1

> <NAME>
N-METHYLACETANILIDE

> <preferred_name>
Acetamide, N-methyl-N-phenyl-

> <iupac>
N-Methyl-N-phenylacetamide

> <MPID>
98299

> <dsstox_substance_id>
DTXSID8060373

> <Canonical_QSARr>
CC(=O)N(C)c1ccccc1

> <InChI_Code_QSARr>
InChI=1S/C9H11NO/c1-8(11)10(2)9-6-4-3-5-7-9/h3-7H,1-2H3

> <InChI Key_QSARr>
LMTGCJANOQOGPI-UHFFFAOYSA-N

> <Salt_Solvent>
?

> <LogBCF>
0.18

$$$$
100370
  -INDIGO-08031719362D

 16 17  0  0  0  0  0  0  0  0999 V2000
   -4.0621   -0.8000    0.0000 S   0  0  0  0  0  0  0  0  0  0  0  0
   -2.4621   -0.8000    0.0000 C   0  0  0  0  0  0  0  0  0  0  0  0
   -1.5217   -2.0944    0.0000 N   0  0  0  0  0  0  0  0  0  0  0  0
   -2.0161   -3.6161    0.0000 H   0  0  0  0  0  0  0  0  0  0  0  0
    0.0000   -1.6000    0.0000 C   0  0  0  0  0  0  0  0  0  0  0  0
    0.0000   -0.0000    0.0000 C   0  0  0  0  0  0  0  0  0  0  0  0
    1.3856    0.8000    0.0000 C   0  0  0  0  0  0  0  0  0  0  0  0
    1.3856    2.4000    0.0000 H   0  0  0  0  0  0  0  0  0  0  0  0
    2.7713   -0.0000    0.0000 C   0  0  0  0  0  0  0  0  0  0  0  0
    4.1569    0.8000    0.0000 H   0  0  0  0  0  0  0  0  0  0  0  0
    2.7713   -1.6000    0.0000 C   0  0  0  0  0  0  0  0  0  0  0  0
    4.1569   -2.4000    0.0000 H   0  0  0  0  0  0  0  0  0  0  0  0
    1.3856   -2.4000    0.0000 C   0  0  0  0  0  0  0  0  0  0  0  0
    1.3856   -4.0000    0.0000 H   0  0  0  0  0  0  0  0  0  0  0  0
   -1.5217    0.4944    0.0000 N   0  0  0  0  0  0  0  0  0  0  0  0
   -2.0161    2.0161    0.0000 H   0  0  0  0  0  0  0  0  0  0  0  0
  1  2  2  0  0  0  0
  2  3  1  0  0  0  0
  3  4  1  0  0  0  0
  3  5  1  0  0  0  0
  5  6  1  0  0  0  0
  6  7  2  0  0  0  0
  7  8  1  0  0  0  0
  7  9  1  0  0  0  0
  9 10  1  0  0  0  0
  9 11  2  0  0  0  0
 11 12  1  0  0  0  0
 11 13  1  0  0  0  0
 13  5  2  0  0  0  0
 13 14  1  0  0  0  0
  6 15  1  0  0  0  0
 15  2  1  0  0  0  0
 15 16  1  0  0  0  0
M  END
> <ChemID>
100370

> <source_casrn>
583-39-1

> <CAS>
583-39-1

> <SMILES>
N(c(c(N1)ccc2)c2)=C1S

> <NAME>
O-PHENYLENETHIOUREA

> <preferred_name>
2-Mercaptobenzimidazole

> <iupac>
1,3-dihydro-2H-benzimidazole-2-thione

> <MPID>
98300

> <dsstox_substance_id>
DTXSID9025536

> <Canonical_QSARr>
S=C1Nc2ccccc2N1

> <InChI_Code_QSARr>
InChI=1S/C7H6N2S/c10-7-8-5-3-1-2-4-6(5)9-7/h1-4H,(H2,8,9,10)

> <InChI Key_QSARr>
YHMYGUUIMTVXNW-UHFFFAOYSA-N

> <Salt_Solvent>
?

> <LogBCF>
0.41

$$$$
100371
  -INDIGO-08031719362D

 13 13  0  0  0  0  0  0  0  0999 V2000
    0.8000    1.3856    0.0000 O   0  0  0  0  0  0  0  0  0  0  0  0
    2.4000    1.3856    0.0000 H   0  0  0  0  0  0  0  0  0  0  0  0
   -0.0000   -0.0000    0.0000 C   0  0  0  0  0  0  0  0  0  0  0  0
    0.8000   -1.3857    0.0000 C   0  0  0  0  0  0  0  0  0  0  0  0
    2.4000   -1.3857    0.0000 H   0  0  0  0  0  0  0  0  0  0  0  0
   -0.0000   -2.7713    0.0000 C   0  0  0  0  0  0  0  0  0  0  0  0
    0.8000   -4.1569    0.0000 Cl  0  0  0  0  0  0  0  0  0  0  0  0
   -1.6000   -2.7713    0.0000 C   0  0  0  0  0  0  0  0  0  0  0  0
   -2.4000   -4.1569    0.0000 H   0  0  0  0  0  0  0  0  0  0  0  0
   -2.4000   -1.3856    0.0000 C   0  0  0  0  0  0  0  0  0  0  0  0
   -4.0000   -1.3856    0.0000 H   0  0  0  0  0  0  0  0  0  0  0  0
   -1.6000   -0.0000    0.0000 C   0  0  0  0  0  0  0  0  0  0  0  0
   -2.4000    1.3856    0.0000 Cl  0  0  0  0  0  0  0  0  0  0  0  0
  1  2  1  0  0  0  0
  1  3  1  0  0  0  0
  3  4  1  0  0  0  0
  4  5  1  0  0  0  0
  4  6  2  0  0  0  0
  6  7  1  0  0  0  0
  6  8  1  0  0  0  0
  8  9  1  0  0  0  0
  8 10  2  0  0  0  0
 10 11  1  0  0  0  0
 10 12  1  0  0  0  0
 12  3  2  0  0  0  0
 12 13  1  0  0  0  0
M  END
> <ChemID>
100371

> <source_casrn>
583-78-8

> <CAS>
583-78-8

> <SMILES>
Oc1cc(Cl)ccc1Cl

> <NAME>
2,5-DICHLOROPHENOL

> <preferred_name>
2,5-Dichlorophenol

> <iupac>
2,5-dichlorophenol

> <MPID>
98301

> <dsstox_substance_id>
DTXSID7025003

> <Canonical_QSARr>
Oc1cc(Cl)ccc1Cl

> <InChI_Code_QSARr>
InChI=1S/C6H4Cl2O/c7-4-1-2-5(8)6(9)3-4/h1-3,9H

> <InChI Key_QSARr>
RANCECPPZPIPNO-UHFFFAOYSA-N

> <Salt_Solvent>
?

> <LogBCF>
1.01

$$$$
100373
  -INDIGO-08031719362D

 15 15  0  0  0  0  0  0  0  0999 V2000
    3.2000    2.7713    0.0000 O   0  0  0  0  0  0  0  0  0  0  0  0
    4.8000    2.7713    0.0000 H   0  0  0  0  0  0  0  0  0  0  0  0
    2.4000    1.3856    0.0000 C   0  0  0  0  0  0  0  0  0  0  0  0
    3.2000   -0.0000    0.0000 C   0  0  0  0  0  0  0  0  0  0  0  0
    4.8000   -0.0000    0.0000 H   0  0  0  0  0  0  0  0  0  0  0  0
    2.4000   -1.3856    0.0000 C   0  0  0  0  0  0  0  0  0  0  0  0
    3.2000   -2.7713    0.0000 H   0  0  0  0  0  0  0  0  0  0  0  0
    0.8000   -1.3856    0.0000 C   0  0  0  0  0  0  0  0  0  0  0  0
    0.0000   -2.7713    0.0000 H   0  0  0  0  0  0  0  0  0  0  0  0
    0.0000   -0.0000    0.0000 C   0  0  0  0  0  0  0  0  0  0  0  0
   -1.6000   -0.0000    0.0000 N   0  0  0  0  0  0  0  0  0  0  0  0
   -2.4000   -1.3856    0.0000 H   0  0  0  0  0  0  0  0  0  0  0  0
   -2.4000    1.3856    0.0000 H   0  0  0  0  0  0  0  0  0  0  0  0
    0.8000    1.3856    0.0000 C   0  0  0  0  0  0  0  0  0  0  0  0
    0.0000    2.7713    0.0000 H   0  0  0  0  0  0  0  0  0  0  0  0
  1  2  1  0  0  0  0
  1  3  1  0  0  0  0
  3  4  1  0  0  0  0
  4  5  1  0  0  0  0
  4  6  2  0  0  0  0
  6  7  1  0  0  0  0
  6  8  1  0  0  0  0
  8  9  1  0  0  0  0
  8 10  2  0  0  0  0
 10 11  1  0  0  0  0
 11 12  1  0  0  0  0
 11 13  1  0  0  0  0
 10 14  1  0  0  0  0
 14  3  2  0  0  0  0
 14 15  1  0  0  0  0
M  END
> <ChemID>
100373

> <source_casrn>
591-27-5

> <CAS>
591-27-5

> <SMILES>
Nc1cc(O)ccc1

> <NAME>
PHENOL, 3-AMINO-

> <preferred_name>
3-Aminophenol

> <iupac>
3-aminophenol

> <MPID>
98303

> <dsstox_substance_id>
DTXSID3024497

> <Canonical_QSARr>
Nc1cc(O)ccc1

> <InChI_Code_QSARr>
InChI=1S/C6H7NO/c7-5-2-1-3-6(8)4-5/h1-4,8H,7H2

> <InChI Key_QSARr>
CWLKGDAVCFYWJK-UHFFFAOYSA-N

> <Salt_Solvent>
?

> <LogBCF>
1.34

$$$$
100374
  -INDIGO-08031719362D

 13 13  0  0  0  0  0  0  0  0999 V2000
   -0.0000   -0.0000    0.0000 C   0  0  0  0  0  0  0  0  0  0  0  0
    0.8000   -1.3857    0.0000 C   0  0  0  0  0  0  0  0  0  0  0  0
    2.4000   -1.3857    0.0000 H   0  0  0  0  0  0  0  0  0  0  0  0
   -0.0000   -2.7713    0.0000 C   0  0  0  0  0  0  0  0  0  0  0  0
    0.8000   -4.1569    0.0000 Cl  0  0  0  0  0  0  0  0  0  0  0  0
   -1.6000   -2.7713    0.0000 C   0  0  0  0  0  0  0  0  0  0  0  0
   -2.4000   -4.1569    0.0000 H   0  0  0  0  0  0  0  0  0  0  0  0
   -2.4000   -1.3856    0.0000 C   0  0  0  0  0  0  0  0  0  0  0  0
   -4.0000   -1.3856    0.0000 Cl  0  0  0  0  0  0  0  0  0  0  0  0
   -1.6000   -0.0000    0.0000 C   0  0  0  0  0  0  0  0  0  0  0  0
   -2.4000    1.3856    0.0000 H   0  0  0  0  0  0  0  0  0  0  0  0
    0.8000    1.3856    0.0000 O   0  0  0  0  0  0  0  0  0  0  0  0
    2.4000    1.3856    0.0000 H   0  0  0  0  0  0  0  0  0  0  0  0
  1  2  1  0  0  0  0
  2  3  1  0  0  0  0
  2  4  2  0  0  0  0
  4  5  1  0  0  0  0
  4  6  1  0  0  0  0
  6  7  1  0  0  0  0
  6  8  2  0  0  0  0
  8  9  1  0  0  0  0
  8 10  1  0  0  0  0
 10  1  2  0  0  0  0
 10 11  1  0  0  0  0
  1 12  1  0  0  0  0
 12 13  1  0  0  0  0
M  END
> <ChemID>
100374

> <source_casrn>
591-35-5

> <CAS>
591-35-5

> <SMILES>
Oc1cc(Cl)cc(Cl)c1

> <NAME>
3,5-DICHLOROPHENOL

> <preferred_name>
3,5-Dichlorophenol

> <iupac>
3,5-dichlorophenol

> <MPID>
98304

> <dsstox_substance_id>
DTXSID2025006

> <Canonical_QSARr>
Oc1cc(Cl)cc(Cl)c1

> <InChI_Code_QSARr>
InChI=1S/C6H4Cl2O/c7-4-1-5(8)3-6(9)2-4/h1-3,9H

> <InChI Key_QSARr>
VPOMSPZBQMDLTM-UHFFFAOYSA-N

> <Salt_Solvent>
?

> <LogBCF>
1.91

$$$$
100375
  -INDIGO-08031719362D

 20 20  0  0  0  0  0  0  0  0999 V2000
    2.7713   -1.6000    0.0000 O   0  0  0  0  0  0  0  0  0  0  0  0
    1.3856   -2.4001    0.0000 C   0  0  0  0  0  0  0  0  0  0  0  0
    1.3856   -3.9999    0.0000 O   0  0  0  0  0  0  0  0  0  0  0  0
    2.7713   -4.8000    0.0000 H   0  0  0  0  0  0  0  0  0  0  0  0
    0.0000   -1.6000    0.0000 C   0  0  0  0  0  0  0  0  0  0  0  0
    0.0000    0.0000    0.0000 C   0  0  0  0  0  0  0  0  0  0  0  0
    1.3856    0.8001    0.0000 C   0  0  0  0  0  0  0  0  0  0  0  0
    2.7713    0.0000    0.0000 O   0  0  0  0  0  0  0  0  0  0  0  0
    1.3856    2.4001    0.0000 O   0  0  0  0  0  0  0  0  0  0  0  0
    2.7713    3.2000    0.0000 H   0  0  0  0  0  0  0  0  0  0  0  0
   -1.3856    0.8001    0.0000 C   0  0  0  0  0  0  0  0  0  0  0  0
   -1.3856    2.4001    0.0000 N   0  0  0  0  0  0  0  0  0  0  0  0
   -2.7713    3.2000    0.0000 O   0  0  0  0  0  0  0  0  0  0  0  0
    0.0000    3.2000    0.0000 O   0  0  0  0  0  0  0  0  0  0  0  0
   -2.7713    0.0000    0.0000 C   0  0  0  0  0  0  0  0  0  0  0  0
   -4.1569    0.8001    0.0000 H   0  0  0  0  0  0  0  0  0  0  0  0
   -2.7713   -1.6000    0.0000 C   0  0  0  0  0  0  0  0  0  0  0  0
   -4.1569   -2.3999    0.0000 H   0  0  0  0  0  0  0  0  0  0  0  0
   -1.3856   -2.3999    0.0000 C   0  0  0  0  0  0  0  0  0  0  0  0
   -1.3856   -3.9999    0.0000 H   0  0  0  0  0  0  0  0  0  0  0  0
  1  2  2  0  0  0  0
  2  3  1  0  0  0  0
  3  4  1  0  0  0  0
  2  5  1  0  0  0  0
  5  6  1  0  0  0  0
  6  7  1  0  0  0  0
  7  8  2  0  0  0  0
  7  9  1  0  0  0  0
  9 10  1  0  0  0  0
  6 11  2  0  0  0  0
 11 12  1  0  0  0  0
 12 13  1  0  0  0  0
 12 14  2  0  0  0  0
 11 15  1  0  0  0  0
 15 16  1  0  0  0  0
 15 17  2  0  0  0  0
 17 18  1  0  0  0  0
 17 19  1  0  0  0  0
 19  5  2  0  0  0  0
 19 20  1  0  0  0  0
M  CHG  2  12   1  13  -1
M  END
> <ChemID>
100375

> <source_casrn>
603-11-2

> <CAS>
603-11-2

> <SMILES>
[O-][N+](=O)c1cccc(c1C(O)=O)C(O)=O

> <NAME>
3-NITROPHTHALIC ACID

> <preferred_name>
3-Nitrophthalic acid

> <iupac>
3-Nitrophthalic acid

> <MPID>
98305

> <dsstox_substance_id>
DTXSID9060528

> <Canonical_QSARr>
[O-][N+](=O)c1cccc(c1C(O)=O)C(O)=O

> <InChI_Code_QSARr>
InChI=1S/C8H5NO6/c10-7(11)4-2-1-3-5(9(14)15)6(4)8(12)13/h1-3H,(H,10,11)(H,12,13)

> <InChI Key_QSARr>
KFIRODWJCYBBHY-UHFFFAOYSA-N

> <Salt_Solvent>
?

> <LogBCF>
0.72

$$$$
100377
  -INDIGO-08031719362D

 30 31  0  0  0  0  0  0  0  0999 V2000
   -0.0000   -0.0000    0.0000 C   0  0  0  0  0  0  0  0  0  0  0  0
    1.5999   -0.0000    0.0000 C   0  0  0  0  0  0  0  0  0  0  0  0
    2.4000    1.3856    0.0000 C   0  0  0  0  0  0  0  0  0  0  0  0
    4.0000    1.3856    0.0000 O   0  0  0  0  0  0  0  0  0  0  0  0
    4.8000    2.7712    0.0000 C   0  0  0  0  0  0  0  0  0  0  0  0
    5.5999    4.1570    0.0000 H   0  0  0  0  0  0  0  0  0  0  0  0
    6.4000    2.7712    0.0000 H   0  0  0  0  0  0  0  0  0  0  0  0
    4.0000    4.1570    0.0000 H   0  0  0  0  0  0  0  0  0  0  0  0
    1.5999    2.7712    0.0000 O   0  0  0  0  0  0  0  0  0  0  0  0
    2.4000   -1.3857    0.0000 C   0  0  0  0  0  0  0  0  0  0  0  0
    4.0000   -1.3857    0.0000 H   0  0  0  0  0  0  0  0  0  0  0  0
    1.5999   -2.7713    0.0000 C   0  0  0  0  0  0  0  0  0  0  0  0
    2.4000   -4.1569    0.0000 H   0  0  0  0  0  0  0  0  0  0  0  0
   -0.0000   -2.7713    0.0000 C   0  0  0  0  0  0  0  0  0  0  0  0
   -0.7999   -4.1569    0.0000 H   0  0  0  0  0  0  0  0  0  0  0  0
   -0.7999   -1.3857    0.0000 C   0  0  0  0  0  0  0  0  0  0  0  0
   -2.4001   -1.3857    0.0000 H   0  0  0  0  0  0  0  0  0  0  0  0
   -0.7999    1.3856    0.0000 C   0  0  0  0  0  0  0  0  0  0  0  0
   -2.3035    1.9328    0.0000 C   0  0  0  0  0  0  0  0  0  0  0  0
   -3.5292    0.9043    0.0000 C   0  0  0  0  0  0  0  0  0  0  0  0
   -3.2514   -0.6713    0.0000 H   0  0  0  0  0  0  0  0  0  0  0  0
   -5.0326    1.4516    0.0000 C   0  0  0  0  0  0  0  0  0  0  0  0
   -6.2583    0.4233    0.0000 H   0  0  0  0  0  0  0  0  0  0  0  0
   -5.3105    3.0274    0.0000 C   0  0  0  0  0  0  0  0  0  0  0  0
   -6.8140    3.5746    0.0000 H   0  0  0  0  0  0  0  0  0  0  0  0
   -4.0849    4.0557    0.0000 C   0  0  0  0  0  0  0  0  0  0  0  0
   -4.3628    5.6315    0.0000 H   0  0  0  0  0  0  0  0  0  0  0  0
   -2.5813    3.5086    0.0000 C   0  0  0  0  0  0  0  0  0  0  0  0
   -1.3556    4.5370    0.0000 H   0  0  0  0  0  0  0  0  0  0  0  0
   -0.0000    2.7712    0.0000 O   0  0  0  0  0  0  0  0  0  0  0  0
  1  2  1  0  0  0  0
  2  3  1  0  0  0  0
  3  4  1  0  0  0  0
  4  5  1  0  0  0  0
  5  6  1  0  0  0  0
  5  7  1  0  0  0  0
  5  8  1  0  0  0  0
  3  9  2  0  0  0  0
  2 10  2  0  0  0  0
 10 11  1  0  0  0  0
 10 12  1  0  0  0  0
 12 13  1  0  0  0  0
 12 14  2  0  0  0  0
 14 15  1  0  0  0  0
 14 16  1  0  0  0  0
 16  1  2  0  0  0  0
 16 17  1  0  0  0  0
  1 18  1  0  0  0  0
 18 19  1  0  0  0  0
 19 20  1  0  0  0  0
 20 21  1  0  0  0  0
 20 22  2  0  0  0  0
 22 23  1  0  0  0  0
 22 24  1  0  0  0  0
 24 25  1  0  0  0  0
 24 26  2  0  0  0  0
 26 27  1  0  0  0  0
 26 28  1  0  0  0  0
 28 19  2  0  0  0  0
 28 29  1  0  0  0  0
 18 30  2  0  0  0  0
M  END
> <ChemID>
100377

> <source_casrn>
606-28-0

> <CAS>
606-28-0

> <SMILES>
COC(=O)c1ccccc1C(=O)c1ccccc1

> <NAME>
BENZOIC ACID, 2-BENZOYL-, METHYL ESTER

> <preferred_name>
Methyl o-benzoylbenzoate

> <iupac>
methyl 2-(benzoyl)benzoate

> <MPID>
98307

> <dsstox_substance_id>
DTXSID2060549

> <Canonical_QSARr>
COC(=O)c1ccccc1C(=O)c1ccccc1

> <InChI_Code_QSARr>
InChI=1S/C15H12O3/c1-18-15(17)13-10-6-5-9-12(13)14(16)11-7-3-2-4-8-11/h2-10H,1H3

> <InChI Key_QSARr>
NQSMEZJWJJVYOI-UHFFFAOYSA-N

> <Salt_Solvent>
?

> <LogBCF>
1.15

$$$$
100379
  -INDIGO-08031719362D

 12 12  0  0  0  0  0  0  0  0999 V2000
   -0.0000   -0.0000    0.0000 C   0  0  0  0  0  0  0  0  0  0  0  0
    0.8000   -1.3857    0.0000 C   0  0  0  0  0  0  0  0  0  0  0  0
    2.4000   -1.3857    0.0000 Cl  0  0  0  0  0  0  0  0  0  0  0  0
   -0.0000   -2.7713    0.0000 C   0  0  0  0  0  0  0  0  0  0  0  0
    0.8000   -4.1569    0.0000 Cl  0  0  0  0  0  0  0  0  0  0  0  0
   -1.6000   -2.7713    0.0000 C   0  0  0  0  0  0  0  0  0  0  0  0
   -2.4000   -4.1569    0.0000 Cl  0  0  0  0  0  0  0  0  0  0  0  0
   -2.4000   -1.3856    0.0000 C   0  0  0  0  0  0  0  0  0  0  0  0
   -4.0000   -1.3856    0.0000 Cl  0  0  0  0  0  0  0  0  0  0  0  0
   -1.6000   -0.0000    0.0000 C   0  0  0  0  0  0  0  0  0  0  0  0
   -2.4000    1.3856    0.0000 H   0  0  0  0  0  0  0  0  0  0  0  0
    0.8000    1.3856    0.0000 Cl  0  0  0  0  0  0  0  0  0  0  0  0
  1  2  1  0  0  0  0
  2  3  1  0  0  0  0
  2  4  2  0  0  0  0
  4  5  1  0  0  0  0
  4  6  1  0  0  0  0
  6  7  1  0  0  0  0
  6  8  2  0  0  0  0
  8  9  1  0  0  0  0
  8 10  1  0  0  0  0
 10  1  2  0  0  0  0
 10 11  1  0  0  0  0
  1 12  1  0  0  0  0
M  END
> <ChemID>
100379

> <source_casrn>
608-93-5

> <CAS>
608-93-5

> <SMILES>
Clc1c(Cl)c(Cl)cc(Cl)c1Cl

> <NAME>
PENTACHLOROBENZENE

> <preferred_name>
Pentachlorobenzene

> <iupac>
1,2,3,4,5-pentachlorobenzene

> <MPID>
98309

> <dsstox_substance_id>
DTXSID7024247

> <Canonical_QSARr>
Clc1c(Cl)c(Cl)cc(Cl)c1Cl

> <InChI_Code_QSARr>
InChI=1S/C6HCl5/c7-2-1-3(8)5(10)6(11)4(2)9/h1H

> <InChI Key_QSARr>
CEOCDNVZRAIOQZ-UHFFFAOYSA-N

> <Salt_Solvent>
?

> <LogBCF>
3.75

$$$$
100380
  -INDIGO-08031719362D

 15 15  0  0  0  0  0  0  0  0999 V2000
   -1.3856    4.0000    0.0000 Cl  0  0  0  0  0  0  0  0  0  0  0  0
   -1.3856    2.4000    0.0000 C   0  0  0  0  0  0  0  0  0  0  0  0
    0.0000    1.6000    0.0000 C   0  0  0  0  0  0  0  0  0  0  0  0
    1.3856    2.4000    0.0000 O   0  0  0  0  0  0  0  0  0  0  0  0
    1.3856    4.0000    0.0000 H   0  0  0  0  0  0  0  0  0  0  0  0
    0.0000    0.0000    0.0000 C   0  0  0  0  0  0  0  0  0  0  0  0
    1.3856   -0.8000    0.0000 N   0  0  0  0  0  0  0  0  0  0  0  0
    1.3856   -2.4000    0.0000 O   0  0  0  0  0  0  0  0  0  0  0  0
    2.7713    0.0000    0.0000 O   0  0  0  0  0  0  0  0  0  0  0  0
   -1.3856   -0.8000    0.0000 C   0  0  0  0  0  0  0  0  0  0  0  0
   -1.3856   -2.4000    0.0000 H   0  0  0  0  0  0  0  0  0  0  0  0
   -2.7713    0.0000    0.0000 C   0  0  0  0  0  0  0  0  0  0  0  0
   -4.1569   -0.8000    0.0000 Cl  0  0  0  0  0  0  0  0  0  0  0  0
   -2.7713    1.6000    0.0000 C   0  0  0  0  0  0  0  0  0  0  0  0
   -4.1569    2.4000    0.0000 H   0  0  0  0  0  0  0  0  0  0  0  0
  1  2  1  0  0  0  0
  2  3  1  0  0  0  0
  3  4  1  0  0  0  0
  4  5  1  0  0  0  0
  3  6  2  0  0  0  0
  6  7  1  0  0  0  0
  7  8  1  0  0  0  0
  7  9  2  0  0  0  0
  6 10  1  0  0  0  0
 10 11  1  0  0  0  0
 10 12  2  0  0  0  0
 12 13  1  0  0  0  0
 12 14  1  0  0  0  0
 14  2  2  0  0  0  0
 14 15  1  0  0  0  0
M  CHG  2   7   1   8  -1
M  END
> <ChemID>
100380

> <source_casrn>
609-89-2

> <CAS>
609-89-2

> <SMILES>
[O-][N+](=O)c1cc(Cl)cc(Cl)c1O

> <NAME>
2,4-DICHLORO-6-NITROPHENOL

> <preferred_name>
Phenol, 2,4-dichloro-6-nitro-

> <iupac>
2,4-Dichloro-6-nitrophenol

> <MPID>
98310

> <dsstox_substance_id>
DTXSID00209738

> <Canonical_QSARr>
[O-][N+](=O)c1cc(Cl)cc(Cl)c1O

> <InChI_Code_QSARr>
InChI=1S/C6H3Cl2NO3/c7-3-1-4(8)6(10)5(2-3)9(11)12/h1-2,10H

> <InChI Key_QSARr>
LYPMXMBQPXPNIQ-UHFFFAOYSA-N

> <Salt_Solvent>
?

> <LogBCF>
1.32

$$$$
100382
  -INDIGO-08031719362D

 14 14  0  0  0  0  0  0  0  0999 V2000
    1.6000   -0.0000    0.0000 N   0  0  0  0  0  0  0  0  0  0  0  0
    2.4000    1.3856    0.0000 O   0  0  0  0  0  0  0  0  0  0  0  0
    2.4000   -1.3856    0.0000 O   0  0  0  0  0  0  0  0  0  0  0  0
    0.0000   -0.0000    0.0000 C   0  0  0  0  0  0  0  0  0  0  0  0
   -0.8000    1.3856    0.0000 C   0  0  0  0  0  0  0  0  0  0  0  0
    0.0000    2.7713    0.0000 H   0  0  0  0  0  0  0  0  0  0  0  0
   -2.4000    1.3856    0.0000 C   0  0  0  0  0  0  0  0  0  0  0  0
   -3.2000    2.7713    0.0000 H   0  0  0  0  0  0  0  0  0  0  0  0
   -3.2000   -0.0000    0.0000 C   0  0  0  0  0  0  0  0  0  0  0  0
   -4.8000   -0.0000    0.0000 Cl  0  0  0  0  0  0  0  0  0  0  0  0
   -2.4000   -1.3856    0.0000 C   0  0  0  0  0  0  0  0  0  0  0  0
   -3.2000   -2.7713    0.0000 H   0  0  0  0  0  0  0  0  0  0  0  0
   -0.8000   -1.3856    0.0000 C   0  0  0  0  0  0  0  0  0  0  0  0
    0.0000   -2.7713    0.0000 Cl  0  0  0  0  0  0  0  0  0  0  0  0
  1  2  2  0  0  0  0
  1  3  1  0  0  0  0
  1  4  1  0  0  0  0
  4  5  1  0  0  0  0
  5  6  1  0  0  0  0
  5  7  2  0  0  0  0
  7  8  1  0  0  0  0
  7  9  1  0  0  0  0
  9 10  1  0  0  0  0
  9 11  2  0  0  0  0
 11 12  1  0  0  0  0
 11 13  1  0  0  0  0
 13  4  2  0  0  0  0
 13 14  1  0  0  0  0
M  CHG  2   1   1   3  -1
M  END
> <ChemID>
100382

> <source_casrn>
611-06-3

> <CAS>
611-06-3

> <SMILES>
[O-][N+](=O)c1ccc(Cl)cc1Cl

> <NAME>
2,4-DICHLORONITROBENZENE

> <preferred_name>
2,4-Dichloronitrobenzene

> <iupac>
2,4-dichloro-1-nitrobenzene

> <MPID>
98312

> <dsstox_substance_id>
DTXSID3024998

> <Canonical_QSARr>
[O-][N+](=O)c1ccc(Cl)cc1Cl

> <InChI_Code_QSARr>
InChI=1S/C6H3Cl2NO2/c7-4-1-2-6(9(10)11)5(8)3-4/h1-3H

> <InChI Key_QSARr>
QUIMTLZDMCNYGY-UHFFFAOYSA-N

> <Salt_Solvent>
?

> <LogBCF>
2.07

$$$$
100383
  -INDIGO-08031719362D

 20 20  0  0  0  0  0  0  0  0999 V2000
    1.6000    0.0000    0.0000 N   0  0  0  0  0  0  0  0  0  0  0  0
    2.4001    1.3856    0.0000 H   0  0  0  0  0  0  0  0  0  0  0  0
   -0.0000    0.0000    0.0000 C   0  0  0  0  0  0  0  0  0  0  0  0
   -0.8000    1.3856    0.0000 C   0  0  0  0  0  0  0  0  0  0  0  0
   -0.0000    2.7713    0.0000 C   0  0  0  0  0  0  0  0  0  0  0  0
    0.8000    4.1569    0.0000 H   0  0  0  0  0  0  0  0  0  0  0  0
   -0.8000    4.1569    0.0000 H   0  0  0  0  0  0  0  0  0  0  0  0
    1.6000    2.7713    0.0000 H   0  0  0  0  0  0  0  0  0  0  0  0
   -2.4000    1.3856    0.0000 C   0  0  0  0  0  0  0  0  0  0  0  0
   -3.2001    2.7713    0.0000 H   0  0  0  0  0  0  0  0  0  0  0  0
   -3.2001    0.0000    0.0000 C   0  0  0  0  0  0  0  0  0  0  0  0
   -4.8000    0.0000    0.0000 H   0  0  0  0  0  0  0  0  0  0  0  0
   -2.4000   -1.3856    0.0000 C   0  0  0  0  0  0  0  0  0  0  0  0
   -3.2001   -2.7713    0.0000 H   0  0  0  0  0  0  0  0  0  0  0  0
   -0.8000   -1.3856    0.0000 C   0  0  0  0  0  0  0  0  0  0  0  0
   -0.0000   -2.7713    0.0000 H   0  0  0  0  0  0  0  0  0  0  0  0
    2.4001   -1.3856    0.0000 C   0  0  0  0  0  0  0  0  0  0  0  0
    3.2000   -2.7713    0.0000 H   0  0  0  0  0  0  0  0  0  0  0  0
    4.0000   -1.3856    0.0000 H   0  0  0  0  0  0  0  0  0  0  0  0
    1.6000   -2.7713    0.0000 H   0  0  0  0  0  0  0  0  0  0  0  0
  1  2  1  0  0  0  0
  1  3  1  0  0  0  0
  3  4  1  0  0  0  0
  4  5  1  0  0  0  0
  5  6  1  0  0  0  0
  5  7  1  0  0  0  0
  5  8  1  0  0  0  0
  4  9  2  0  0  0  0
  9 10  1  0  0  0  0
  9 11  1  0  0  0  0
 11 12  1  0  0  0  0
 11 13  2  0  0  0  0
 13 14  1  0  0  0  0
 13 15  1  0  0  0  0
 15  3  2  0  0  0  0
 15 16  1  0  0  0  0
  1 17  1  0  0  0  0
 17 18  1  0  0  0  0
 17 19  1  0  0  0  0
 17 20  1  0  0  0  0
M  END
> <ChemID>
100383

> <source_casrn>
611-21-2

> <CAS>
611-21-2

> <SMILES>
Cc1ccccc1NC

> <NAME>
N-METHYL-O-TOLUIDINE

> <preferred_name>
Benzenamine, N,2-dimethyl-

> <iupac>
N,2-Dimethylaniline

> <MPID>
98313

> <dsstox_substance_id>
DTXSID4060600

> <Canonical_QSARr>
Cc1ccccc1NC

> <InChI_Code_QSARr>
InChI=1S/C8H11N/c1-7-5-3-4-6-8(7)9-2/h3-6,9H,1-2H3

> <InChI Key_QSARr>
GUAWMXYQZKVRCW-UHFFFAOYSA-N

> <Salt_Solvent>
?

> <LogBCF>
0.95

$$$$
100384
  -INDIGO-08031719362D

 20 20  0  0  0  0  0  0  0  0999 V2000
    2.4001   -1.3856    0.0000 C   0  0  0  0  0  0  0  0  0  0  0  0
    4.0000   -1.3856    0.0000 H   0  0  0  0  0  0  0  0  0  0  0  0
    3.2000   -2.7713    0.0000 H   0  0  0  0  0  0  0  0  0  0  0  0
    3.2000    0.0000    0.0000 H   0  0  0  0  0  0  0  0  0  0  0  0
    1.6000    0.0000    0.0000 C   0  0  0  0  0  0  0  0  0  0  0  0
    2.8694    0.9740    0.0000 H   0  0  0  0  0  0  0  0  0  0  0  0
    1.8088    1.5863    0.0000 H   0  0  0  0  0  0  0  0  0  0  0  0
   -0.0000    0.0000    0.0000 C   0  0  0  0  0  0  0  0  0  0  0  0
   -0.8000   -1.3856    0.0000 C   0  0  0  0  0  0  0  0  0  0  0  0
   -0.0000   -2.7713    0.0000 H   0  0  0  0  0  0  0  0  0  0  0  0
   -2.4000   -1.3856    0.0000 C   0  0  0  0  0  0  0  0  0  0  0  0
   -3.2001   -2.7713    0.0000 H   0  0  0  0  0  0  0  0  0  0  0  0
   -3.2001    0.0000    0.0000 C   0  0  0  0  0  0  0  0  0  0  0  0
   -4.8000    0.0000    0.0000 H   0  0  0  0  0  0  0  0  0  0  0  0
   -2.4000    1.3856    0.0000 C   0  0  0  0  0  0  0  0  0  0  0  0
   -3.2001    2.7713    0.0000 H   0  0  0  0  0  0  0  0  0  0  0  0
   -0.8000    1.3856    0.0000 C   0  0  0  0  0  0  0  0  0  0  0  0
   -0.0000    2.7713    0.0000 N   0  0  0  0  0  0  0  0  0  0  0  0
   -0.8000    4.1569    0.0000 O   0  0  0  0  0  0  0  0  0  0  0  0
    1.6000    2.7713    0.0000 O   0  0  0  0  0  0  0  0  0  0  0  0
  1  2  1  0  0  0  0
  1  3  1  0  0  0  0
  1  4  1  0  0  0  0
  1  5  1  0  0  0  0
  5  6  1  0  0  0  0
  5  7  1  0  0  0  0
  5  8  1  0  0  0  0
  8  9  1  0  0  0  0
  9 10  1  0  0  0  0
  9 11  2  0  0  0  0
 11 12  1  0  0  0  0
 11 13  1  0  0  0  0
 13 14  1  0  0  0  0
 13 15  2  0  0  0  0
 15 16  1  0  0  0  0
 15 17  1  0  0  0  0
 17  8  2  0  0  0  0
 17 18  1  0  0  0  0
 18 19  1  0  0  0  0
 18 20  2  0  0  0  0
M  CHG  2  18   1  19  -1
M  END
> <ChemID>
100384

> <source_casrn>
612-22-6

> <CAS>
612-22-6

> <SMILES>
CCc1ccccc1[N+]([O-])=O

> <NAME>
2-ETHYLNITROBENZENE

> <preferred_name>
Benzene, 1-ethyl-2-nitro-

> <iupac>
1-Ethyl-2-nitrobenzene

> <MPID>
98314

> <dsstox_substance_id>
DTXSID4073209

> <Canonical_QSARr>
CCc1ccccc1[N+]([O-])=O

> <InChI_Code_QSARr>
InChI=1S/C8H9NO2/c1-2-7-5-3-4-6-8(7)9(10)11/h3-6H,2H2,1H3

> <InChI Key_QSARr>
PXWYZLWEKCMTEZ-UHFFFAOYSA-N

> <Salt_Solvent>
?

> <LogBCF>
1.11

$$$$
100386
  -INDIGO-08031719362D

 16 16  0  0  0  0  0  0  0  0999 V2000
    1.3857    0.8000    0.0000 C   0  0  0  0  0  0  0  0  0  0  0  0
    2.7713    1.6000    0.0000 H   0  0  0  0  0  0  0  0  0  0  0  0
    2.7713   -0.0000    0.0000 H   0  0  0  0  0  0  0  0  0  0  0  0
    1.3857    2.4000    0.0000 H   0  0  0  0  0  0  0  0  0  0  0  0
    0.0000   -0.0000    0.0000 C   0  0  0  0  0  0  0  0  0  0  0  0
    0.0000   -1.6000    0.0000 C   0  0  0  0  0  0  0  0  0  0  0  0
    1.3857   -2.4000    0.0000 H   0  0  0  0  0  0  0  0  0  0  0  0
   -1.3856   -2.4000    0.0000 C   0  0  0  0  0  0  0  0  0  0  0  0
   -1.3856   -4.0000    0.0000 H   0  0  0  0  0  0  0  0  0  0  0  0
   -2.7713   -1.6000    0.0000 C   0  0  0  0  0  0  0  0  0  0  0  0
   -4.1570   -2.4000    0.0000 Cl  0  0  0  0  0  0  0  0  0  0  0  0
   -2.7713   -0.0000    0.0000 C   0  0  0  0  0  0  0  0  0  0  0  0
   -4.1569    0.8000    0.0000 O   0  0  0  0  0  0  0  0  0  0  0  0
   -5.5426   -0.0000    0.0000 H   0  0  0  0  0  0  0  0  0  0  0  0
   -1.3856    0.8000    0.0000 C   0  0  0  0  0  0  0  0  0  0  0  0
   -1.3856    2.4000    0.0000 H   0  0  0  0  0  0  0  0  0  0  0  0
  1  2  1  0  0  0  0
  1  3  1  0  0  0  0
  1  4  1  0  0  0  0
  1  5  1  0  0  0  0
  5  6  1  0  0  0  0
  6  7  1  0  0  0  0
  6  8  2  0  0  0  0
  8  9  1  0  0  0  0
  8 10  1  0  0  0  0
 10 11  1  0  0  0  0
 10 12  2  0  0  0  0
 12 13  1  0  0  0  0
 13 14  1  0  0  0  0
 12 15  1  0  0  0  0
 15  5  2  0  0  0  0
 15 16  1  0  0  0  0
M  END
> <ChemID>
100386

> <source_casrn>
615-74-7

> <CAS>
615-74-7

> <SMILES>
Cc1ccc(Cl)c(O)c1

> <NAME>
PHENOL, 2-CHLORO-5-METHYL-

> <preferred_name>
2-Chloro-5-methylphenol

> <iupac>
2-chloro-5-methylphenol

> <MPID>
98316

> <dsstox_substance_id>
DTXSID1046558

> <Canonical_QSARr>
Cc1ccc(Cl)c(O)c1

> <InChI_Code_QSARr>
InChI=1S/C7H7ClO/c1-5-2-3-6(8)7(9)4-5/h2-4,9H,1H3

> <InChI Key_QSARr>
SMFHPCZZAAMJJO-UHFFFAOYSA-N

> <Salt_Solvent>
?

> <LogBCF>
0.67

$$$$
100387
  -INDIGO-08031719362D

 12 12  0  0  0  0  0  0  0  0999 V2000
    0.0000    0.0000    0.0000 C   0  0  0  0  0  0  0  0  0  0  0  0
    1.5217    0.4944    0.0000 C   0  0  0  0  0  0  0  0  0  0  0  0
    2.0161    2.0161    0.0000 H   0  0  0  0  0  0  0  0  0  0  0  0
    2.4621   -0.8000    0.0000 C   0  0  0  0  0  0  0  0  0  0  0  0
    4.0621   -0.8000    0.0000 H   0  0  0  0  0  0  0  0  0  0  0  0
    1.5217   -2.0944    0.0000 S   0  0  0  0  0  0  0  0  0  0  0  0
    0.0000   -1.6000    0.0000 C   0  0  0  0  0  0  0  0  0  0  0  0
   -1.2944   -2.5405    0.0000 H   0  0  0  0  0  0  0  0  0  0  0  0
   -1.2944    0.9404    0.0000 C   0  0  0  0  0  0  0  0  0  0  0  0
   -2.5888    1.8809    0.0000 H   0  0  0  0  0  0  0  0  0  0  0  0
   -2.7561    0.2897    0.0000 H   0  0  0  0  0  0  0  0  0  0  0  0
   -1.1271    2.5317    0.0000 H   0  0  0  0  0  0  0  0  0  0  0  0
  1  2  1  0  0  0  0
  2  3  1  0  0  0  0
  2  4  2  0  0  0  0
  4  5  1  0  0  0  0
  4  6  1  0  0  0  0
  6  7  1  0  0  0  0
  7  1  2  0  0  0  0
  7  8  1  0  0  0  0
  1  9  1  0  0  0  0
  9 10  1  0  0  0  0
  9 11  1  0  0  0  0
  9 12  1  0  0  0  0
M  END
> <ChemID>
100387

> <source_casrn>
616-44-4

> <CAS>
616-44-4

> <SMILES>
Cc1c[s]cc1

> <NAME>
3-METHYLTHIOPHENE

> <preferred_name>
Thiophene, 3-methyl-

> <iupac>
3-Methylthiophene

> <MPID>
98317

> <dsstox_substance_id>
DTXSID8060666

> <Canonical_QSARr>
Cc1c[s]cc1

> <InChI_Code_QSARr>
InChI=1S/C5H6S/c1-5-2-3-6-4-5/h2-4H,1H3

> <InChI Key_QSARr>
QENGPZGAWFQWCZ-UHFFFAOYSA-N

> <Salt_Solvent>
?

> <LogBCF>
0.72

$$$$
100388
  -INDIGO-08031719362D

 14 14  0  0  0  0  0  0  0  0999 V2000
    0.0000   -0.0000    0.0000 C   0  0  0  0  0  0  0  0  0  0  0  0
   -0.8000    1.3856    0.0000 C   0  0  0  0  0  0  0  0  0  0  0  0
    0.0000    2.7713    0.0000 H   0  0  0  0  0  0  0  0  0  0  0  0
   -2.4000    1.3856    0.0000 C   0  0  0  0  0  0  0  0  0  0  0  0
   -3.2000    2.7713    0.0000 Cl  0  0  0  0  0  0  0  0  0  0  0  0
   -3.2000   -0.0000    0.0000 C   0  0  0  0  0  0  0  0  0  0  0  0
   -4.8000   -0.0000    0.0000 H   0  0  0  0  0  0  0  0  0  0  0  0
   -2.4000   -1.3856    0.0000 C   0  0  0  0  0  0  0  0  0  0  0  0
   -3.2000   -2.7713    0.0000 Cl  0  0  0  0  0  0  0  0  0  0  0  0
   -0.8000   -1.3856    0.0000 C   0  0  0  0  0  0  0  0  0  0  0  0
    0.0000   -2.7713    0.0000 H   0  0  0  0  0  0  0  0  0  0  0  0
    1.6000   -0.0000    0.0000 N   0  0  0  0  0  0  0  0  0  0  0  0
    2.4000    1.3856    0.0000 O   0  0  0  0  0  0  0  0  0  0  0  0
    2.4000   -1.3856    0.0000 O   0  0  0  0  0  0  0  0  0  0  0  0
  1  2  1  0  0  0  0
  2  3  1  0  0  0  0
  2  4  2  0  0  0  0
  4  5  1  0  0  0  0
  4  6  1  0  0  0  0
  6  7  1  0  0  0  0
  6  8  2  0  0  0  0
  8  9  1  0  0  0  0
  8 10  1  0  0  0  0
 10  1  2  0  0  0  0
 10 11  1  0  0  0  0
  1 12  1  0  0  0  0
 12 13  2  0  0  0  0
 12 14  1  0  0  0  0
M  CHG  2  12   1  14  -1
M  END
> <ChemID>
100388

> <source_casrn>
618-62-2

> <CAS>
618-62-2

> <SMILES>
[O-][N+](=O)c1cc(Cl)cc(Cl)c1

> <NAME>
BENZENE, 1,3-DICHLORO-5-NITRO-

> <preferred_name>
Benzene, 1,3-dichloro-5-nitro-

> <iupac>
1,3-Dichloro-5-nitrobenzene

> <MPID>
98318

> <dsstox_substance_id>
DTXSID1060683

> <Canonical_QSARr>
[O-][N+](=O)c1cc(Cl)cc(Cl)c1

> <InChI_Code_QSARr>
InChI=1S/C6H3Cl2NO2/c7-4-1-5(8)3-6(2-4)9(10)11/h1-3H

> <InChI Key_QSARr>
RNABGKOKSBUFHW-UHFFFAOYSA-N

> <Salt_Solvent>
?

> <LogBCF>
2.23

$$$$
100390
  -INDIGO-08031719362D

 19 19  0  0  0  0  0  0  0  0999 V2000
    5.6000    1.3856    0.0000 C   0  0  0  0  0  0  0  0  0  0  0  0
    7.2000    1.3856    0.0000 H   0  0  0  0  0  0  0  0  0  0  0  0
    4.8001    2.7713    0.0000 H   0  0  0  0  0  0  0  0  0  0  0  0
    4.8001   -0.0000    0.0000 C   0  0  0  0  0  0  0  0  0  0  0  0
    5.6000   -1.3856    0.0000 H   0  0  0  0  0  0  0  0  0  0  0  0
    3.2000   -0.0000    0.0000 C   0  0  0  0  0  0  0  0  0  0  0  0
    2.4000    1.3856    0.0000 C   0  0  0  0  0  0  0  0  0  0  0  0
    3.2000    2.7713    0.0000 H   0  0  0  0  0  0  0  0  0  0  0  0
    0.8000    1.3856    0.0000 C   0  0  0  0  0  0  0  0  0  0  0  0
    0.0001    2.7713    0.0000 H   0  0  0  0  0  0  0  0  0  0  0  0
    0.0001   -0.0000    0.0000 C   0  0  0  0  0  0  0  0  0  0  0  0
   -1.6000   -0.0000    0.0000 C   0  0  0  0  0  0  0  0  0  0  0  0
   -3.2000   -0.0000    0.0000 H   0  0  0  0  0  0  0  0  0  0  0  0
   -2.4000   -1.3856    0.0000 H   0  0  0  0  0  0  0  0  0  0  0  0
   -2.4000    1.3856    0.0000 H   0  0  0  0  0  0  0  0  0  0  0  0
    0.8000   -1.3856    0.0000 C   0  0  0  0  0  0  0  0  0  0  0  0
    0.0001   -2.7713    0.0000 H   0  0  0  0  0  0  0  0  0  0  0  0
    2.4000   -1.3856    0.0000 C   0  0  0  0  0  0  0  0  0  0  0  0
    3.2000   -2.7713    0.0000 H   0  0  0  0  0  0  0  0  0  0  0  0
  1  2  1  0  0  0  0
  1  3  1  0  0  0  0
  1  4  2  0  0  0  0
  4  5  1  0  0  0  0
  4  6  1  0  0  0  0
  6  7  1  0  0  0  0
  7  8  1  0  0  0  0
  7  9  2  0  0  0  0
  9 10  1  0  0  0  0
  9 11  1  0  0  0  0
 11 12  1  0  0  0  0
 12 13  1  0  0  0  0
 12 14  1  0  0  0  0
 12 15  1  0  0  0  0
 11 16  2  0  0  0  0
 16 17  1  0  0  0  0
 16 18  1  0  0  0  0
 18  6  2  0  0  0  0
 18 19  1  0  0  0  0
M  END
> <ChemID>
100390

> <source_casrn>
622-97-9

> <CAS>
622-97-9

> <SMILES>
Cc1ccc(C=C)cc1

> <NAME>
P-METHYLSTYRENE

> <preferred_name>
4-Methylstyrene

> <iupac>
1-ethenyl-4-methylbenzene

> <MPID>
98320

> <dsstox_substance_id>
DTXSID3020889

> <Canonical_QSARr>
Cc1ccc(C=C)cc1

> <InChI_Code_QSARr>
InChI=1S/C9H10/c1-3-9-6-4-8(2)5-7-9/h3-7H,1H2,2H3

> <InChI Key_QSARr>
JLBJTVDPSNHSKJ-UHFFFAOYSA-N

> <Salt_Solvent>
?

> <LogBCF>
1.5

$$$$
100391
  -INDIGO-08031719362D

 14 14  0  0  0  0  0  0  0  0999 V2000
    0.0000   -0.0000    0.0000 C   0  0  0  0  0  0  0  0  0  0  0  0
   -0.8000    1.3856    0.0000 C   0  0  0  0  0  0  0  0  0  0  0  0
    0.0000    2.7713    0.0000 H   0  0  0  0  0  0  0  0  0  0  0  0
   -2.4000    1.3856    0.0000 C   0  0  0  0  0  0  0  0  0  0  0  0
   -3.2000    2.7713    0.0000 H   0  0  0  0  0  0  0  0  0  0  0  0
   -3.2000   -0.0000    0.0000 C   0  0  0  0  0  0  0  0  0  0  0  0
   -4.7999   -0.0000    0.0000 C   0  0  0  0  0  0  0  0  0  0  0  0
   -6.4000   -0.0000    0.0000 N   0  0  0  0  0  0  0  0  0  0  0  0
   -2.4000   -1.3856    0.0000 C   0  0  0  0  0  0  0  0  0  0  0  0
   -3.2000   -2.7713    0.0000 H   0  0  0  0  0  0  0  0  0  0  0  0
   -0.8000   -1.3856    0.0000 C   0  0  0  0  0  0  0  0  0  0  0  0
    0.0000   -2.7713    0.0000 H   0  0  0  0  0  0  0  0  0  0  0  0
    1.6001   -0.0000    0.0000 C   0  0  0  0  0  0  0  0  0  0  0  0
    3.2000   -0.0000    0.0000 N   0  0  0  0  0  0  0  0  0  0  0  0
  1  2  1  0  0  0  0
  2  3  1  0  0  0  0
  2  4  2  0  0  0  0
  4  5  1  0  0  0  0
  4  6  1  0  0  0  0
  6  7  1  0  0  0  0
  7  8  3  0  0  0  0
  6  9  2  0  0  0  0
  9 10  1  0  0  0  0
  9 11  1  0  0  0  0
 11  1  2  0  0  0  0
 11 12  1  0  0  0  0
  1 13  1  0  0  0  0
 13 14  3  0  0  0  0
M  END
> <ChemID>
100391

> <source_casrn>
623-26-7

> <CAS>
623-26-7

> <SMILES>
N#Cc1ccc(cc1)C#N

> <NAME>
1,4-BENZENEDICARBONITRILE

> <preferred_name>
1,4-Benzenedicarbonitrile

> <iupac>
Terephthalonitrile

> <MPID>
98321

> <dsstox_substance_id>
DTXSID1060768

> <Canonical_QSARr>
N#Cc1ccc(cc1)C#N

> <InChI_Code_QSARr>
InChI=1S/C8H4N2/c9-5-7-1-2-8(6-10)4-3-7/h1-4H

> <InChI Key_QSARr>
BHXFKXOIODIUJO-UHFFFAOYSA-N

> <Salt_Solvent>
?

> <LogBCF>
0.3

$$$$
100392
  -INDIGO-08031719362D

 14 14  0  0  0  0  0  0  0  0999 V2000
    0.0000   -0.0000    0.0000 C   0  0  0  0  0  0  0  0  0  0  0  0
    0.0000   -1.6000    0.0000 C   0  0  0  0  0  0  0  0  0  0  0  0
    1.3857   -2.4000    0.0000 H   0  0  0  0  0  0  0  0  0  0  0  0
   -1.3857   -2.4000    0.0000 C   0  0  0  0  0  0  0  0  0  0  0  0
   -1.3857   -4.0000    0.0000 H   0  0  0  0  0  0  0  0  0  0  0  0
   -2.7713   -1.6000    0.0000 C   0  0  0  0  0  0  0  0  0  0  0  0
   -4.1570   -2.4000    0.0000 H   0  0  0  0  0  0  0  0  0  0  0  0
   -2.7713   -0.0000    0.0000 C   0  0  0  0  0  0  0  0  0  0  0  0
   -4.1570    0.8000    0.0000 C   0  0  0  0  0  0  0  0  0  0  0  0
   -5.5426    1.6000    0.0000 N   0  0  0  0  0  0  0  0  0  0  0  0
   -1.3857    0.8000    0.0000 C   0  0  0  0  0  0  0  0  0  0  0  0
   -1.3856    2.4000    0.0000 H   0  0  0  0  0  0  0  0  0  0  0  0
    1.3856    0.8000    0.0000 C   0  0  0  0  0  0  0  0  0  0  0  0
    2.7713    1.6000    0.0000 N   0  0  0  0  0  0  0  0  0  0  0  0
  1  2  1  0  0  0  0
  2  3  1  0  0  0  0
  2  4  2  0  0  0  0
  4  5  1  0  0  0  0
  4  6  1  0  0  0  0
  6  7  1  0  0  0  0
  6  8  2  0  0  0  0
  8  9  1  0  0  0  0
  9 10  3  0  0  0  0
  8 11  1  0  0  0  0
 11  1  2  0  0  0  0
 11 12  1  0  0  0  0
  1 13  1  0  0  0  0
 13 14  3  0  0  0  0
M  END
> <ChemID>
100392

> <source_casrn>
626-17-5

> <CAS>
626-17-5

> <SMILES>
N#Cc1cc(ccc1)C#N

> <NAME>
1,3-DICYANOBENZENE

> <preferred_name>
1,3-Benzenedicarbonitrile

> <iupac>
benzene-1,3-dicarbonitrile

> <MPID>
98322

> <dsstox_substance_id>
DTXSID7027259

> <Canonical_QSARr>
N#Cc1cc(ccc1)C#N

> <InChI_Code_QSARr>
InChI=1S/C8H4N2/c9-5-7-2-1-3-8(4-7)6-10/h1-4H

> <InChI Key_QSARr>
LAQPNDIUHRHNCV-UHFFFAOYSA-N

> <Salt_Solvent>
?

> <LogBCF>
0.75

$$$$
100394
  -INDIGO-08031719362D

 20 20  0  0  0  0  0  0  0  0999 V2000
    3.2000   -0.0000    0.0000 N   0  0  0  0  0  0  0  0  0  0  0  0
    2.4000    1.3857    0.0000 C   0  0  0  0  0  0  0  0  0  0  0  0
    3.9035    1.9329    0.0000 H   0  0  0  0  0  0  0  0  0  0  0  0
    2.1221    2.9613    0.0000 H   0  0  0  0  0  0  0  0  0  0  0  0
    0.8000    1.3857    0.0000 C   0  0  0  0  0  0  0  0  0  0  0  0
    1.0778    2.9613    0.0000 H   0  0  0  0  0  0  0  0  0  0  0  0
   -0.7036    1.9329    0.0000 H   0  0  0  0  0  0  0  0  0  0  0  0
   -0.0000   -0.0000    0.0000 C   0  0  0  0  0  0  0  0  0  0  0  0
   -1.2257    1.0285    0.0000 H   0  0  0  0  0  0  0  0  0  0  0  0
   -1.2257   -1.0285    0.0000 H   0  0  0  0  0  0  0  0  0  0  0  0
    0.8000   -1.3857    0.0000 C   0  0  0  0  0  0  0  0  0  0  0  0
   -0.7036   -1.9329    0.0000 H   0  0  0  0  0  0  0  0  0  0  0  0
    1.0778   -2.9613    0.0000 H   0  0  0  0  0  0  0  0  0  0  0  0
    2.4000   -1.3857    0.0000 C   0  0  0  0  0  0  0  0  0  0  0  0
    2.1221   -2.9613    0.0000 H   0  0  0  0  0  0  0  0  0  0  0  0
    3.9035   -1.9329    0.0000 H   0  0  0  0  0  0  0  0  0  0  0  0
    4.8000   -0.0000    0.0000 C   0  0  0  0  0  0  0  0  0  0  0  0
    6.4000   -0.0000    0.0000 H   0  0  0  0  0  0  0  0  0  0  0  0
    5.6000   -1.3857    0.0000 H   0  0  0  0  0  0  0  0  0  0  0  0
    5.6000    1.3857    0.0000 H   0  0  0  0  0  0  0  0  0  0  0  0
  1  2  1  0  0  0  0
  2  3  1  0  0  0  0
  2  4  1  0  0  0  0
  2  5  1  0  0  0  0
  5  6  1  0  0  0  0
  5  7  1  0  0  0  0
  5  8  1  0  0  0  0
  8  9  1  0  0  0  0
  8 10  1  0  0  0  0
  8 11  1  0  0  0  0
 11 12  1  0  0  0  0
 11 13  1  0  0  0  0
 11 14  1  0  0  0  0
 14  1  1  0  0  0  0
 14 15  1  0  0  0  0
 14 16  1  0  0  0  0
  1 17  1  0  0  0  0
 17 18  1  0  0  0  0
 17 19  1  0  0  0  0
 17 20  1  0  0  0  0
M  END
> <ChemID>
100394

> <source_casrn>
626-67-5

> <CAS>
626-67-5

> <SMILES>
CN1CCCCC1

> <NAME>
N-METHYLPIPERIDINE

> <preferred_name>
Piperidine, 1-methyl-

> <iupac>
1-Methylpiperidine

> <MPID>
98324

> <dsstox_substance_id>
DTXSID8060822

> <Canonical_QSARr>
CN1CCCCC1

> <InChI_Code_QSARr>
InChI=1S/C6H13N/c1-7-5-3-2-4-6-7/h2-6H2,1H3

> <InChI Key_QSARr>
PAMIQIKDUOTOBW-UHFFFAOYSA-N

> <Salt_Solvent>
?

> <LogBCF>
0.65

$$$$
100395
  -INDIGO-08031719362D

 38 37  0  0  0  0  0  0  0  0999 V2000
    9.6995    0.8000    0.0000 O   0  0  0  0  0  0  0  0  0  0  0  0
   11.0851    0.0000    0.0000 H   0  0  0  0  0  0  0  0  0  0  0  0
    8.3139    0.0000    0.0000 C   0  0  0  0  0  0  0  0  0  0  0  0
    6.9283    0.8000    0.0000 C   0  0  0  0  0  0  0  0  0  0  0  0
    6.3158    2.2782    0.0000 H   0  0  0  0  0  0  0  0  0  0  0  0
    7.5404    2.2782    0.0000 H   0  0  0  0  0  0  0  0  0  0  0  0
    5.5426    0.0000    0.0000 C   0  0  0  0  0  0  0  0  0  0  0  0
    6.1548   -1.4782    0.0000 H   0  0  0  0  0  0  0  0  0  0  0  0
    4.9302   -1.4782    0.0000 H   0  0  0  0  0  0  0  0  0  0  0  0
    4.1570    0.8000    0.0000 C   0  0  0  0  0  0  0  0  0  0  0  0
    3.5446    2.2782    0.0000 H   0  0  0  0  0  0  0  0  0  0  0  0
    4.7692    2.2782    0.0000 H   0  0  0  0  0  0  0  0  0  0  0  0
    2.7714    0.0000    0.0000 C   0  0  0  0  0  0  0  0  0  0  0  0
    3.3836   -1.4782    0.0000 H   0  0  0  0  0  0  0  0  0  0  0  0
    2.1590   -1.4782    0.0000 H   0  0  0  0  0  0  0  0  0  0  0  0
    1.3858    0.8000    0.0000 C   0  0  0  0  0  0  0  0  0  0  0  0
    0.7733    2.2782    0.0000 H   0  0  0  0  0  0  0  0  0  0  0  0
    1.9979    2.2782    0.0000 H   0  0  0  0  0  0  0  0  0  0  0  0
   -0.0001    0.0000    0.0000 C   0  0  0  0  0  0  0  0  0  0  0  0
    0.6123   -1.4782    0.0000 H   0  0  0  0  0  0  0  0  0  0  0  0
   -0.6123   -1.4782    0.0000 H   0  0  0  0  0  0  0  0  0  0  0  0
   -1.3857    0.8000    0.0000 C   0  0  0  0  0  0  0  0  0  0  0  0
   -1.9979    2.2782    0.0000 H   0  0  0  0  0  0  0  0  0  0  0  0
   -0.7733    2.2782    0.0000 H   0  0  0  0  0  0  0  0  0  0  0  0
   -2.7714    0.0000    0.0000 C   0  0  0  0  0  0  0  0  0  0  0  0
   -2.1589   -1.4782    0.0000 H   0  0  0  0  0  0  0  0  0  0  0  0
   -3.3835   -1.4782    0.0000 H   0  0  0  0  0  0  0  0  0  0  0  0
   -4.1570    0.8000    0.0000 C   0  0  0  0  0  0  0  0  0  0  0  0
   -4.7691    2.2782    0.0000 H   0  0  0  0  0  0  0  0  0  0  0  0
   -3.5445    2.2782    0.0000 H   0  0  0  0  0  0  0  0  0  0  0  0
   -5.5426    0.0000    0.0000 C   0  0  0  0  0  0  0  0  0  0  0  0
   -4.9302   -1.4782    0.0000 H   0  0  0  0  0  0  0  0  0  0  0  0
   -6.1548   -1.4782    0.0000 H   0  0  0  0  0  0  0  0  0  0  0  0
   -6.9282    0.8000    0.0000 C   0  0  0  0  0  0  0  0  0  0  0  0
   -8.3138    1.6000    0.0000 H   0  0  0  0  0  0  0  0  0  0  0  0
   -8.3138    0.0000    0.0000 H   0  0  0  0  0  0  0  0  0  0  0  0
   -6.9282    2.4000    0.0000 H   0  0  0  0  0  0  0  0  0  0  0  0
    8.3139   -1.6000    0.0000 O   0  0  0  0  0  0  0  0  0  0  0  0
  1  2  1  0  0  0  0
  1  3  1  0  0  0  0
  3  4  1  0  0  0  0
  4  5  1  0  0  0  0
  4  6  1  0  0  0  0
  4  7  1  0  0  0  0
  7  8  1  0  0  0  0
  7  9  1  0  0  0  0
  7 10  1  0  0  0  0
 10 11  1  0  0  0  0
 10 12  1  0  0  0  0
 10 13  1  0  0  0  0
 13 14  1  0  0  0  0
 13 15  1  0  0  0  0
 13 16  1  0  0  0  0
 16 17  1  0  0  0  0
 16 18  1  0  0  0  0
 16 19  1  0  0  0  0
 19 20  1  0  0  0  0
 19 21  1  0  0  0  0
 19 22  1  0  0  0  0
 22 23  1  0  0  0  0
 22 24  1  0  0  0  0
 22 25  1  0  0  0  0
 25 26  1  0  0  0  0
 25 27  1  0  0  0  0
 25 28  1  0  0  0  0
 28 29  1  0  0  0  0
 28 30  1  0  0  0  0
 28 31  1  0  0  0  0
 31 32  1  0  0  0  0
 31 33  1  0  0  0  0
 31 34  1  0  0  0  0
 34 35  1  0  0  0  0
 34 36  1  0  0  0  0
 34 37  1  0  0  0  0
  3 38  2  0  0  0  0
M  END
> <ChemID>
100395

> <source_casrn>
629-25-4

> <CAS>
629-25-4

> <SMILES>
[Na+].CCCCCCCCCCCC([O-])=O

> <NAME>
Dodecanoic acid, sodium salt

> <preferred_name>
Sodium dodecanoate

> <iupac>
sodium dodecanoate

> <MPID>
98325

> <dsstox_substance_id>
DTXSID9044453

> <Canonical_QSARr>
CCCCCCCCCCCC(O)=O

> <InChI_Code_QSARr>
InChI=1S/C12H24O2/c1-2-3-4-5-6-7-8-9-10-11-12(13)14/h2-11H2,1H3,(H,13,14)

> <InChI Key_QSARr>
POULHZVOKOAJMA-UHFFFAOYSA-N

> <Salt_Solvent>
[Na+]

> <LogBCF>
2.4

$$$$
100396
  -INDIGO-08031719362D

 12 12  0  0  0  0  0  0  0  0999 V2000
    0.8000    1.3856    0.0000 Cl  0  0  0  0  0  0  0  0  0  0  0  0
   -0.0000   -0.0000    0.0000 C   0  0  0  0  0  0  0  0  0  0  0  0
    0.8000   -1.3857    0.0000 C   0  0  0  0  0  0  0  0  0  0  0  0
    2.4000   -1.3857    0.0000 Cl  0  0  0  0  0  0  0  0  0  0  0  0
   -0.0000   -2.7713    0.0000 C   0  0  0  0  0  0  0  0  0  0  0  0
    0.8000   -4.1569    0.0000 H   0  0  0  0  0  0  0  0  0  0  0  0
   -1.6000   -2.7713    0.0000 C   0  0  0  0  0  0  0  0  0  0  0  0
   -2.4000   -4.1569    0.0000 H   0  0  0  0  0  0  0  0  0  0  0  0
   -2.4000   -1.3856    0.0000 C   0  0  0  0  0  0  0  0  0  0  0  0
   -4.0000   -1.3856    0.0000 Cl  0  0  0  0  0  0  0  0  0  0  0  0
   -1.6000   -0.0000    0.0000 C   0  0  0  0  0  0  0  0  0  0  0  0
   -2.4000    1.3856    0.0000 Cl  0  0  0  0  0  0  0  0  0  0  0  0
  1  2  1  0  0  0  0
  2  3  1  0  0  0  0
  3  4  1  0  0  0  0
  3  5  2  0  0  0  0
  5  6  1  0  0  0  0
  5  7  1  0  0  0  0
  7  8  1  0  0  0  0
  7  9  2  0  0  0  0
  9 10  1  0  0  0  0
  9 11  1  0  0  0  0
 11  2  2  0  0  0  0
 11 12  1  0  0  0  0
M  END
> <ChemID>
100396

> <source_casrn>
634-66-2

> <CAS>
634-66-2

> <SMILES>
Clc1ccc(Cl)c(Cl)c1Cl

> <NAME>
1,2,3,4-TETRACHLOROBENZENE

> <preferred_name>
1,2,3,4-Tetrachlorobenzene

> <iupac>
1,2,3,4-tetrachlorobenzene

> <MPID>
98326

> <dsstox_substance_id>
DTXSID6026088

> <Canonical_QSARr>
Clc1ccc(Cl)c(Cl)c1Cl

> <InChI_Code_QSARr>
InChI=1S/C6H2Cl4/c7-3-1-2-4(8)6(10)5(3)9/h1-2H

> <InChI Key_QSARr>
GBDZXPJXOMHESU-UHFFFAOYSA-N

> <Salt_Solvent>
?

> <LogBCF>
3.38

$$$$
100397
  -INDIGO-08031719362D

 14 14  0  0  0  0  0  0  0  0999 V2000
    1.6000   -0.0000    0.0000 N   0  0  0  0  0  0  0  0  0  0  0  0
    2.4000    1.3856    0.0000 H   0  0  0  0  0  0  0  0  0  0  0  0
    2.4000   -1.3856    0.0000 H   0  0  0  0  0  0  0  0  0  0  0  0
    0.0000   -0.0000    0.0000 C   0  0  0  0  0  0  0  0  0  0  0  0
   -0.8000    1.3856    0.0000 C   0  0  0  0  0  0  0  0  0  0  0  0
    0.0000    2.7713    0.0000 Cl  0  0  0  0  0  0  0  0  0  0  0  0
   -2.4000    1.3856    0.0000 C   0  0  0  0  0  0  0  0  0  0  0  0
   -3.2000    2.7713    0.0000 Cl  0  0  0  0  0  0  0  0  0  0  0  0
   -3.2000   -0.0000    0.0000 C   0  0  0  0  0  0  0  0  0  0  0  0
   -4.8000   -0.0000    0.0000 Cl  0  0  0  0  0  0  0  0  0  0  0  0
   -2.4000   -1.3856    0.0000 C   0  0  0  0  0  0  0  0  0  0  0  0
   -3.2000   -2.7713    0.0000 H   0  0  0  0  0  0  0  0  0  0  0  0
   -0.8000   -1.3856    0.0000 C   0  0  0  0  0  0  0  0  0  0  0  0
    0.0000   -2.7713    0.0000 H   0  0  0  0  0  0  0  0  0  0  0  0
  1  2  1  0  0  0  0
  1  3  1  0  0  0  0
  1  4  1  0  0  0  0
  4  5  1  0  0  0  0
  5  6  1  0  0  0  0
  5  7  2  0  0  0  0
  7  8  1  0  0  0  0
  7  9  1  0  0  0  0
  9 10  1  0  0  0  0
  9 11  2  0  0  0  0
 11 12  1  0  0  0  0
 11 13  1  0  0  0  0
 13  4  2  0  0  0  0
 13 14  1  0  0  0  0
M  END
> <ChemID>
100397

> <source_casrn>
634-67-3

> <CAS>
634-67-3

> <SMILES>
Nc1ccc(Cl)c(Cl)c1Cl

> <NAME>
2,3,4-TRICHLOROANILINE

> <preferred_name>
2,3,4-Trichloroaniline

> <iupac>
2,3,4-trichloroaniline

> <MPID>
98327

> <dsstox_substance_id>
DTXSID2022098

> <Canonical_QSARr>
Nc1ccc(Cl)c(Cl)c1Cl

> <InChI_Code_QSARr>
InChI=1S/C6H4Cl3N/c7-3-1-2-4(10)6(9)5(3)8/h1-2H,10H2

> <InChI Key_QSARr>
RRJUYQOFOMFVQS-UHFFFAOYSA-N

> <Salt_Solvent>
?

> <LogBCF>
2.0

$$$$
100399
  -INDIGO-08031719362D

 12 12  0  0  0  0  0  0  0  0999 V2000
    0.8000    1.3856    0.0000 Cl  0  0  0  0  0  0  0  0  0  0  0  0
   -0.0000   -0.0000    0.0000 C   0  0  0  0  0  0  0  0  0  0  0  0
    0.8000   -1.3857    0.0000 C   0  0  0  0  0  0  0  0  0  0  0  0
    2.4000   -1.3857    0.0000 Cl  0  0  0  0  0  0  0  0  0  0  0  0
   -0.0000   -2.7713    0.0000 C   0  0  0  0  0  0  0  0  0  0  0  0
    0.8000   -4.1569    0.0000 H   0  0  0  0  0  0  0  0  0  0  0  0
   -1.6000   -2.7713    0.0000 C   0  0  0  0  0  0  0  0  0  0  0  0
   -2.4000   -4.1569    0.0000 Cl  0  0  0  0  0  0  0  0  0  0  0  0
   -2.4000   -1.3856    0.0000 C   0  0  0  0  0  0  0  0  0  0  0  0
   -4.0000   -1.3856    0.0000 H   0  0  0  0  0  0  0  0  0  0  0  0
   -1.6000   -0.0000    0.0000 C   0  0  0  0  0  0  0  0  0  0  0  0
   -2.4000    1.3856    0.0000 Cl  0  0  0  0  0  0  0  0  0  0  0  0
  1  2  1  0  0  0  0
  2  3  1  0  0  0  0
  3  4  1  0  0  0  0
  3  5  2  0  0  0  0
  5  6  1  0  0  0  0
  5  7  1  0  0  0  0
  7  8  1  0  0  0  0
  7  9  2  0  0  0  0
  9 10  1  0  0  0  0
  9 11  1  0  0  0  0
 11  2  2  0  0  0  0
 11 12  1  0  0  0  0
M  END
> <ChemID>
100399

> <source_casrn>
634-90-2

> <CAS>
634-90-2

> <SMILES>
Clc1cc(Cl)c(Cl)c(Cl)c1

> <NAME>
1,2,3,5-TETRACHLOROBENZENE

> <preferred_name>
1,2,3,5-Tetrachlorobenzene

> <iupac>
1,2,3,5-tetrachlorobenzene

> <MPID>
98329

> <dsstox_substance_id>
DTXSID1026089

> <Canonical_QSARr>
Clc1cc(Cl)c(Cl)c(Cl)c1

> <InChI_Code_QSARr>
InChI=1S/C6H2Cl4/c7-3-1-4(8)6(10)5(9)2-3/h1-2H

> <InChI Key_QSARr>
QZYNWJQFTJXIRN-UHFFFAOYSA-N

> <Salt_Solvent>
?

> <LogBCF>
3.59

$$$$
100400
  -INDIGO-08031719362D

 14 14  0  0  0  0  0  0  0  0999 V2000
   -3.2000    2.7713    0.0000 Cl  0  0  0  0  0  0  0  0  0  0  0  0
   -2.4000    1.3856    0.0000 C   0  0  0  0  0  0  0  0  0  0  0  0
   -0.8000    1.3856    0.0000 C   0  0  0  0  0  0  0  0  0  0  0  0
    0.0000    2.7713    0.0000 H   0  0  0  0  0  0  0  0  0  0  0  0
    0.0000    0.0000    0.0000 C   0  0  0  0  0  0  0  0  0  0  0  0
    1.6000    0.0000    0.0000 N   0  0  0  0  0  0  0  0  0  0  0  0
    2.4000   -1.3856    0.0000 H   0  0  0  0  0  0  0  0  0  0  0  0
    2.4000    1.3856    0.0000 H   0  0  0  0  0  0  0  0  0  0  0  0
   -0.8000   -1.3856    0.0000 C   0  0  0  0  0  0  0  0  0  0  0  0
    0.0000   -2.7713    0.0000 H   0  0  0  0  0  0  0  0  0  0  0  0
   -2.4000   -1.3856    0.0000 C   0  0  0  0  0  0  0  0  0  0  0  0
   -3.2000   -2.7713    0.0000 Cl  0  0  0  0  0  0  0  0  0  0  0  0
   -3.2000   -0.0000    0.0000 C   0  0  0  0  0  0  0  0  0  0  0  0
   -4.8000    0.0000    0.0000 Cl  0  0  0  0  0  0  0  0  0  0  0  0
  1  2  1  0  0  0  0
  2  3  1  0  0  0  0
  3  4  1  0  0  0  0
  3  5  2  0  0  0  0
  5  6  1  0  0  0  0
  6  7  1  0  0  0  0
  6  8  1  0  0  0  0
  5  9  1  0  0  0  0
  9 10  1  0  0  0  0
  9 11  2  0  0  0  0
 11 12  1  0  0  0  0
 11 13  1  0  0  0  0
 13  2  2  0  0  0  0
 13 14  1  0  0  0  0
M  END
> <ChemID>
100400

> <source_casrn>
634-91-3

> <CAS>
634-91-3

> <SMILES>
Nc1cc(Cl)c(Cl)c(Cl)c1

> <NAME>
3,4,5-TRICHLOROANILINE

> <preferred_name>
3,4,5-Trichloroaniline

> <iupac>
3,4,5-TRICHLOROANILINE

> <MPID>
98330

> <dsstox_substance_id>
DTXSID30212811

> <Canonical_QSARr>
Nc1cc(Cl)c(Cl)c(Cl)c1

> <InChI_Code_QSARr>
InChI=1S/C6H4Cl3N/c7-4-1-3(10)2-5(8)6(4)9/h1-2H,10H2

> <InChI Key_QSARr>
XOGYQVITULCUGU-UHFFFAOYSA-N

> <Salt_Solvent>
?

> <LogBCF>
2.36

$$$$
100401
  -INDIGO-08031719362D

 14 14  0  0  0  0  0  0  0  0999 V2000
    1.6000   -0.0000    0.0000 N   0  0  0  0  0  0  0  0  0  0  0  0
    2.4000    1.3856    0.0000 H   0  0  0  0  0  0  0  0  0  0  0  0
    2.4000   -1.3856    0.0000 H   0  0  0  0  0  0  0  0  0  0  0  0
    0.0000   -0.0000    0.0000 C   0  0  0  0  0  0  0  0  0  0  0  0
   -0.8000    1.3856    0.0000 C   0  0  0  0  0  0  0  0  0  0  0  0
    0.0000    2.7713    0.0000 Cl  0  0  0  0  0  0  0  0  0  0  0  0
   -2.4000    1.3856    0.0000 C   0  0  0  0  0  0  0  0  0  0  0  0
   -3.2000    2.7713    0.0000 H   0  0  0  0  0  0  0  0  0  0  0  0
   -3.2000   -0.0000    0.0000 C   0  0  0  0  0  0  0  0  0  0  0  0
   -4.8000   -0.0000    0.0000 Cl  0  0  0  0  0  0  0  0  0  0  0  0
   -2.4000   -1.3856    0.0000 C   0  0  0  0  0  0  0  0  0  0  0  0
   -3.2000   -2.7713    0.0000 H   0  0  0  0  0  0  0  0  0  0  0  0
   -0.8000   -1.3856    0.0000 C   0  0  0  0  0  0  0  0  0  0  0  0
    0.0000   -2.7713    0.0000 Cl  0  0  0  0  0  0  0  0  0  0  0  0
  1  2  1  0  0  0  0
  1  3  1  0  0  0  0
  1  4  1  0  0  0  0
  4  5  1  0  0  0  0
  5  6  1  0  0  0  0
  5  7  2  0  0  0  0
  7  8  1  0  0  0  0
  7  9  1  0  0  0  0
  9 10  1  0  0  0  0
  9 11  2  0  0  0  0
 11 12  1  0  0  0  0
 11 13  1  0  0  0  0
 13  4  2  0  0  0  0
 13 14  1  0  0  0  0
M  END
> <ChemID>
100401

> <source_casrn>
634-93-5

> <CAS>
634-93-5

> <SMILES>
Nc1c(Cl)cc(Cl)cc1Cl

> <NAME>
2,4,6-TRICHLOROANILINE

> <preferred_name>
2,4,6-Trichloroaniline

> <iupac>
2,4,6-trichloroaniline

> <MPID>
98331

> <dsstox_substance_id>
DTXSID6021379

> <Canonical_QSARr>
Nc1c(Cl)cc(Cl)cc1Cl

> <InChI_Code_QSARr>
InChI=1S/C6H4Cl3N/c7-3-1-4(8)6(10)5(9)2-3/h1-2H,10H2

> <InChI Key_QSARr>
NATVSFWWYVJTAZ-UHFFFAOYSA-N

> <Salt_Solvent>
?

> <LogBCF>
2.0

$$$$
100403
  -INDIGO-08031719362D

 14 14  0  0  0  0  0  0  0  0999 V2000
    0.0000   -0.0000    0.0000 C   0  0  0  0  0  0  0  0  0  0  0  0
   -0.8000    1.3856    0.0000 C   0  0  0  0  0  0  0  0  0  0  0  0
    0.0000    2.7713    0.0000 H   0  0  0  0  0  0  0  0  0  0  0  0
   -2.4000    1.3856    0.0000 C   0  0  0  0  0  0  0  0  0  0  0  0
   -3.2000    2.7713    0.0000 Cl  0  0  0  0  0  0  0  0  0  0  0  0
   -3.2000   -0.0000    0.0000 C   0  0  0  0  0  0  0  0  0  0  0  0
   -4.8000   -0.0000    0.0000 Cl  0  0  0  0  0  0  0  0  0  0  0  0
   -2.4000   -1.3856    0.0000 C   0  0  0  0  0  0  0  0  0  0  0  0
   -3.2000   -2.7713    0.0000 H   0  0  0  0  0  0  0  0  0  0  0  0
   -0.8000   -1.3856    0.0000 C   0  0  0  0  0  0  0  0  0  0  0  0
    0.0000   -2.7713    0.0000 Cl  0  0  0  0  0  0  0  0  0  0  0  0
    1.6000   -0.0000    0.0000 N   0  0  0  0  0  0  0  0  0  0  0  0
    2.4000    1.3856    0.0000 H   0  0  0  0  0  0  0  0  0  0  0  0
    2.4000   -1.3856    0.0000 H   0  0  0  0  0  0  0  0  0  0  0  0
  1  2  1  0  0  0  0
  2  3  1  0  0  0  0
  2  4  2  0  0  0  0
  4  5  1  0  0  0  0
  4  6  1  0  0  0  0
  6  7  1  0  0  0  0
  6  8  2  0  0  0  0
  8  9  1  0  0  0  0
  8 10  1  0  0  0  0
 10  1  2  0  0  0  0
 10 11  1  0  0  0  0
  1 12  1  0  0  0  0
 12 13  1  0  0  0  0
 12 14  1  0  0  0  0
M  END
> <ChemID>
100403

> <source_casrn>
636-30-6

> <CAS>
636-30-6

> <SMILES>
Nc1cc(Cl)c(Cl)cc1Cl

> <NAME>
2,4,5-TRICHLOROANILINE

> <preferred_name>
2,4,5-Trichloroaniline

> <iupac>
2,4,5-trichloroaniline

> <MPID>
98333

> <dsstox_substance_id>
DTXSID5044152

> <Canonical_QSARr>
Nc1cc(Cl)c(Cl)cc1Cl

> <InChI_Code_QSARr>
InChI=1S/C6H4Cl3N/c7-3-1-5(9)6(10)2-4(3)8/h1-2H,10H2

> <InChI Key_QSARr>
GUMCAKKKNKYFEB-UHFFFAOYSA-N

> <Salt_Solvent>
?

> <LogBCF>
2.33

$$$$
100404
  -INDIGO-08031719362D

 29 28  0  0  0  0  0  0  0  0999 V2000
    0.0001    0.0000    0.0000 P   0  0  0  0  0  0  0  0  0  0  0  0
    1.5757   -0.2779    0.0000 N   0  0  0  0  0  0  0  0  0  0  0  0
    2.1229   -1.7813    0.0000 C   0  0  0  0  0  0  0  0  0  0  0  0
    2.6702   -3.2849    0.0000 H   0  0  0  0  0  0  0  0  0  0  0  0
    3.6986   -2.0592    0.0000 H   0  0  0  0  0  0  0  0  0  0  0  0
    1.0944   -3.0071    0.0000 H   0  0  0  0  0  0  0  0  0  0  0  0
    2.6042    0.9479    0.0000 C   0  0  0  0  0  0  0  0  0  0  0  0
    4.1798    0.6700    0.0000 H   0  0  0  0  0  0  0  0  0  0  0  0
    3.6326    2.1735    0.0000 H   0  0  0  0  0  0  0  0  0  0  0  0
    3.1513   -0.5557    0.0000 H   0  0  0  0  0  0  0  0  0  0  0  0
    0.0001    1.6000    0.0000 N   0  0  0  0  0  0  0  0  0  0  0  0
    1.3856    2.4000    0.0000 C   0  0  0  0  0  0  0  0  0  0  0  0
    1.3856    4.0000    0.0000 H   0  0  0  0  0  0  0  0  0  0  0  0
    0.0001    3.2000    0.0000 H   0  0  0  0  0  0  0  0  0  0  0  0
    2.7713    3.2000    0.0000 H   0  0  0  0  0  0  0  0  0  0  0  0
   -1.3856    2.4000    0.0000 C   0  0  0  0  0  0  0  0  0  0  0  0
   -1.3856    4.0000    0.0000 H   0  0  0  0  0  0  0  0  0  0  0  0
   -2.7713    3.2000    0.0000 H   0  0  0  0  0  0  0  0  0  0  0  0
   -1.3856    0.8000    0.0000 H   0  0  0  0  0  0  0  0  0  0  0  0
   -1.5757   -0.2779    0.0000 N   0  0  0  0  0  0  0  0  0  0  0  0
   -2.1229   -1.7813    0.0000 C   0  0  0  0  0  0  0  0  0  0  0  0
   -2.6702   -3.2849    0.0000 H   0  0  0  0  0  0  0  0  0  0  0  0
   -3.6986   -2.0592    0.0000 H   0  0  0  0  0  0  0  0  0  0  0  0
   -1.0944   -3.0071    0.0000 H   0  0  0  0  0  0  0  0  0  0  0  0
   -2.6042    0.9479    0.0000 C   0  0  0  0  0  0  0  0  0  0  0  0
   -4.1798    0.6700    0.0000 H   0  0  0  0  0  0  0  0  0  0  0  0
   -3.6326    2.1735    0.0000 H   0  0  0  0  0  0  0  0  0  0  0  0
   -3.1513   -0.5557    0.0000 H   0  0  0  0  0  0  0  0  0  0  0  0
    0.0001   -1.6000    0.0000 O   0  0  0  0  0  0  0  0  0  0  0  0
  1  2  1  0  0  0  0
  2  3  1  0  0  0  0
  3  4  1  0  0  0  0
  3  5  1  0  0  0  0
  3  6  1  0  0  0  0
  2  7  1  0  0  0  0
  7  8  1  0  0  0  0
  7  9  1  0  0  0  0
  7 10  1  0  0  0  0
  1 11  1  0  0  0  0
 11 12  1  0  0  0  0
 12 13  1  0  0  0  0
 12 14  1  0  0  0  0
 12 15  1  0  0  0  0
 11 16  1  0  0  0  0
 16 17  1  0  0  0  0
 16 18  1  0  0  0  0
 16 19  1  0  0  0  0
  1 20  1  0  0  0  0
 20 21  1  0  0  0  0
 21 22  1  0  0  0  0
 21 23  1  0  0  0  0
 21 24  1  0  0  0  0
 20 25  1  0  0  0  0
 25 26  1  0  0  0  0
 25 27  1  0  0  0  0
 25 28  1  0  0  0  0
  1 29  2  0  0  0  0
M  END
> <ChemID>
100404

> <source_casrn>
680-31-9

> <CAS>
680-31-9

> <SMILES>
CN(C)P(=O)(N(C)C)N(C)C

> <NAME>
HEXAMETHYLPHOSPHORAMIDE

> <preferred_name>
Hexamethylphosphoramide

> <iupac>
N,N,N',N',N'',N''-hexamethylphosphoric triamide

> <MPID>
98334

> <dsstox_substance_id>
DTXSID6020694

> <Canonical_QSARr>
CN(C)P(=O)(N(C)C)N(C)C

> <InChI_Code_QSARr>
InChI=1S/C6H18N3OP/c1-7(2)11(10,8(3)4)9(5)6/h1-6H3

> <InChI Key_QSARr>
GNOIPBMMFNIUFM-UHFFFAOYSA-N

> <Salt_Solvent>
?

> <LogBCF>
-0.3

$$$$
100405
  -INDIGO-08031719362D

 20 20  0  0  0  0  0  0  0  0999 V2000
   -1.3857    0.8000    0.0000 N   0  0  0  0  0  0  0  0  0  0  0  0
   -1.3857    2.4000    0.0000 H   0  0  0  0  0  0  0  0  0  0  0  0
   -0.0001   -0.0000    0.0000 C   0  0  0  0  0  0  0  0  0  0  0  0
   -0.0001   -1.6000    0.0000 C   0  0  0  0  0  0  0  0  0  0  0  0
   -1.3857   -2.4000    0.0000 H   0  0  0  0  0  0  0  0  0  0  0  0
    1.3857   -2.4000    0.0000 C   0  0  0  0  0  0  0  0  0  0  0  0
    1.3857   -4.0000    0.0000 H   0  0  0  0  0  0  0  0  0  0  0  0
    2.7713   -1.6000    0.0000 C   0  0  0  0  0  0  0  0  0  0  0  0
    4.1569   -2.4000    0.0000 H   0  0  0  0  0  0  0  0  0  0  0  0
    2.7713   -0.0000    0.0000 C   0  0  0  0  0  0  0  0  0  0  0  0
    4.1569    0.8000    0.0000 C   0  0  0  0  0  0  0  0  0  0  0  0
    5.5426    1.6000    0.0000 H   0  0  0  0  0  0  0  0  0  0  0  0
    5.5426   -0.0000    0.0000 H   0  0  0  0  0  0  0  0  0  0  0  0
    4.1569    2.4000    0.0000 H   0  0  0  0  0  0  0  0  0  0  0  0
    1.3857    0.8000    0.0000 C   0  0  0  0  0  0  0  0  0  0  0  0
    1.3857    2.4000    0.0000 H   0  0  0  0  0  0  0  0  0  0  0  0
   -2.7713   -0.0000    0.0000 C   0  0  0  0  0  0  0  0  0  0  0  0
   -4.1569   -0.8000    0.0000 H   0  0  0  0  0  0  0  0  0  0  0  0
   -4.1569    0.8000    0.0000 H   0  0  0  0  0  0  0  0  0  0  0  0
   -2.7713   -1.6000    0.0000 H   0  0  0  0  0  0  0  0  0  0  0  0
  1  2  1  0  0  0  0
  1  3  1  0  0  0  0
  3  4  1  0  0  0  0
  4  5  1  0  0  0  0
  4  6  2  0  0  0  0
  6  7  1  0  0  0  0
  6  8  1  0  0  0  0
  8  9  1  0  0  0  0
  8 10  2  0  0  0  0
 10 11  1  0  0  0  0
 11 12  1  0  0  0  0
 11 13  1  0  0  0  0
 11 14  1  0  0  0  0
 10 15  1  0  0  0  0
 15  3  2  0  0  0  0
 15 16  1  0  0  0  0
  1 17  1  0  0  0  0
 17 18  1  0  0  0  0
 17 19  1  0  0  0  0
 17 20  1  0  0  0  0
M  END
> <ChemID>
100405

> <source_casrn>
696-44-6

> <CAS>
696-44-6

> <SMILES>
Cc1cccc(c1)NC

> <NAME>
BENZENAMINE, N,3-DIMETHYL-

> <preferred_name>
Benzenamine, N,3-dimethyl-

> <iupac>
N,3-Dimethylaniline

> <MPID>
98335

> <dsstox_substance_id>
DTXSID2061014

> <Canonical_QSARr>
Cc1cccc(c1)NC

> <InChI_Code_QSARr>
InChI=1S/C8H11N/c1-7-4-3-5-8(6-7)9-2/h3-6,9H,1-2H3

> <InChI Key_QSARr>
FBGJJTQNZVNEQU-UHFFFAOYSA-N

> <Salt_Solvent>
?

> <LogBCF>
0.86

$$$$
100407
  -INDIGO-08031719362D

 31 32  0  0  0  0  0  0  0  0999 V2000
    0.0001   -0.0001    0.0000 N   0  0  0  0  0  0  0  0  0  0  0  0
    0.9405   -1.2945    0.0000 C   0  0  0  0  0  0  0  0  0  0  0  0
    0.4460   -2.8161    0.0000 O   0  0  0  0  0  0  0  0  0  0  0  0
    2.4621   -0.7999    0.0000 C   0  0  0  0  0  0  0  0  0  0  0  0
    2.4621    0.8000    0.0000 C   0  0  0  0  0  0  0  0  0  0  0  0
    3.8478    1.6000    0.0000 C   0  0  0  0  0  0  0  0  0  0  0  0
    3.8478    3.2000    0.0000 H   0  0  0  0  0  0  0  0  0  0  0  0
    5.2333    0.8000    0.0000 C   0  0  0  0  0  0  0  0  0  0  0  0
    6.6191    1.6000    0.0000 H   0  0  0  0  0  0  0  0  0  0  0  0
    5.2333   -0.7999    0.0000 C   0  0  0  0  0  0  0  0  0  0  0  0
    6.6191   -1.6000    0.0000 H   0  0  0  0  0  0  0  0  0  0  0  0
    3.8478   -1.6000    0.0000 C   0  0  0  0  0  0  0  0  0  0  0  0
    3.8478   -3.2000    0.0000 H   0  0  0  0  0  0  0  0  0  0  0  0
    0.9405    1.2945    0.0000 C   0  0  0  0  0  0  0  0  0  0  0  0
    0.4460    2.8161    0.0000 O   0  0  0  0  0  0  0  0  0  0  0  0
   -1.6000   -0.0001    0.0000 C   0  0  0  0  0  0  0  0  0  0  0  0
   -1.8088   -1.5864    0.0000 H   0  0  0  0  0  0  0  0  0  0  0  0
   -2.8693   -0.9740    0.0000 H   0  0  0  0  0  0  0  0  0  0  0  0
   -2.4000    1.3856    0.0000 S   0  0  0  0  0  0  0  0  0  0  0  0
   -4.0001    1.3856    0.0000 P   0  0  0  0  0  0  0  0  0  0  0  0
   -4.8000   -0.0001    0.0000 S   0  0  0  0  0  0  0  0  0  0  0  0
   -5.6000    1.3856    0.0000 O   0  0  0  0  0  0  0  0  0  0  0  0
   -6.3999   -0.0001    0.0000 C   0  0  0  0  0  0  0  0  0  0  0  0
   -8.0000   -0.0001    0.0000 H   0  0  0  0  0  0  0  0  0  0  0  0
   -7.2001   -1.3856    0.0000 H   0  0  0  0  0  0  0  0  0  0  0  0
   -5.6000   -1.3856    0.0000 H   0  0  0  0  0  0  0  0  0  0  0  0
   -4.8000    2.7713    0.0000 O   0  0  0  0  0  0  0  0  0  0  0  0
   -4.0001    4.1569    0.0000 C   0  0  0  0  0  0  0  0  0  0  0  0
   -4.8000    5.5426    0.0000 H   0  0  0  0  0  0  0  0  0  0  0  0
   -3.1999    5.5426    0.0000 H   0  0  0  0  0  0  0  0  0  0  0  0
   -2.4000    4.1569    0.0000 H   0  0  0  0  0  0  0  0  0  0  0  0
  1  2  1  0  0  0  0
  2  3  2  0  0  0  0
  2  4  1  0  0  0  0
  4  5  1  0  0  0  0
  5  6  2  0  0  0  0
  6  7  1  0  0  0  0
  6  8  1  0  0  0  0
  8  9  1  0  0  0  0
  8 10  2  0  0  0  0
 10 11  1  0  0  0  0
 10 12  1  0  0  0  0
 12  4  2  0  0  0  0
 12 13  1  0  0  0  0
  5 14  1  0  0  0  0
 14  1  1  0  0  0  0
 14 15  2  0  0  0  0
  1 16  1  0  0  0  0
 16 17  1  0  0  0  0
 16 18  1  0  0  0  0
 16 19  1  0  0  0  0
 19 20  1  0  0  0  0
 20 21  2  0  0  0  0
 20 22  1  0  0  0  0
 22 23  1  0  0  0  0
 23 24  1  0  0  0  0
 23 25  1  0  0  0  0
 23 26  1  0  0  0  0
 20 27  1  0  0  0  0
 27 28  1  0  0  0  0
 28 29  1  0  0  0  0
 28 30  1  0  0  0  0
 28 31  1  0  0  0  0
M  END
> <ChemID>
100407

> <source_casrn>
732-11-6

> <CAS>
732-11-6

> <SMILES>
COP(=S)(OC)SCN1C(=O)c2ccccc2C1=O

> <NAME>
PHOSMET

> <preferred_name>
Phosmet

> <iupac>
S-[(1,3-dioxo-1,3-dihydro-2H-isoindol-2-yl)methyl] O,O-dimethyl phosphorodithioate

> <MPID>
98337

> <dsstox_substance_id>
DTXSID5024261

> <Canonical_QSARr>
COP(=S)(OC)SCN1C(=O)c2ccccc2C1=O

> <InChI_Code_QSARr>
InChI=1S/C11H12NO4PS2/c1-15-17(18,16-2)19-7-12-10(13)8-5-3-4-6-9(8)11(12)14/h3-6H,7H2,1-2H3

> <InChI Key_QSARr>
LMNZTLDVJIUSHT-UHFFFAOYSA-N

> <Salt_Solvent>
?

> <LogBCF>
0.26

$$$$
100408
  -INDIGO-08031719362D

 49 49  0  0  0  0  0  0  0  0999 V2000
   -0.0000    3.2000    0.0000 O   0  0  0  0  0  0  0  0  0  0  0  0
   -0.0000    4.8000    0.0000 H   0  0  0  0  0  0  0  0  0  0  0  0
   -1.3857    2.4000    0.0000 C   0  0  0  0  0  0  0  0  0  0  0  0
   -2.7714    3.2000    0.0000 C   0  0  0  0  0  0  0  0  0  0  0  0
   -2.7714    4.8000    0.0000 C   0  0  0  0  0  0  0  0  0  0  0  0
   -2.7714    6.4001    0.0000 C   0  0  0  0  0  0  0  0  0  0  0  0
   -2.7714    8.0000    0.0000 H   0  0  0  0  0  0  0  0  0  0  0  0
   -4.1569    7.2000    0.0000 H   0  0  0  0  0  0  0  0  0  0  0  0
   -1.3857    7.2000    0.0000 H   0  0  0  0  0  0  0  0  0  0  0  0
   -4.3713    4.8000    0.0000 C   0  0  0  0  0  0  0  0  0  0  0  0
   -5.9470    4.5222    0.0000 H   0  0  0  0  0  0  0  0  0  0  0  0
   -5.3998    6.0257    0.0000 H   0  0  0  0  0  0  0  0  0  0  0  0
   -3.8240    6.3035    0.0000 H   0  0  0  0  0  0  0  0  0  0  0  0
   -1.1712    4.8000    0.0000 C   0  0  0  0  0  0  0  0  0  0  0  0
   -0.3713    6.1857    0.0000 H   0  0  0  0  0  0  0  0  0  0  0  0
   -1.7186    6.3035    0.0000 H   0  0  0  0  0  0  0  0  0  0  0  0
   -1.7186    3.2966    0.0000 H   0  0  0  0  0  0  0  0  0  0  0  0
   -4.1569    2.4000    0.0000 C   0  0  0  0  0  0  0  0  0  0  0  0
   -5.5425    3.2000    0.0000 H   0  0  0  0  0  0  0  0  0  0  0  0
   -4.1569    0.8001    0.0000 C   0  0  0  0  0  0  0  0  0  0  0  0
   -5.5425    0.0000    0.0000 C   0  0  0  0  0  0  0  0  0  0  0  0
   -6.9282   -0.8000    0.0000 C   0  0  0  0  0  0  0  0  0  0  0  0
   -8.3138   -1.5999    0.0000 H   0  0  0  0  0  0  0  0  0  0  0  0
   -6.9282   -2.4000    0.0000 H   0  0  0  0  0  0  0  0  0  0  0  0
   -8.3138    0.0000    0.0000 H   0  0  0  0  0  0  0  0  0  0  0  0
   -6.3426    1.3856    0.0000 C   0  0  0  0  0  0  0  0  0  0  0  0
   -7.9182    1.6634    0.0000 H   0  0  0  0  0  0  0  0  0  0  0  0
   -6.8898    2.8892    0.0000 H   0  0  0  0  0  0  0  0  0  0  0  0
   -7.3710    0.1600    0.0000 H   0  0  0  0  0  0  0  0  0  0  0  0
   -4.7426   -1.3856    0.0000 C   0  0  0  0  0  0  0  0  0  0  0  0
   -3.7140   -2.6113    0.0000 H   0  0  0  0  0  0  0  0  0  0  0  0
   -5.2898   -2.8891    0.0000 H   0  0  0  0  0  0  0  0  0  0  0  0
   -6.3182   -1.6634    0.0000 H   0  0  0  0  0  0  0  0  0  0  0  0
   -2.7714    0.0000    0.0000 C   0  0  0  0  0  0  0  0  0  0  0  0
   -2.7714   -1.5999    0.0000 H   0  0  0  0  0  0  0  0  0  0  0  0
   -1.3857    0.8001    0.0000 C   0  0  0  0  0  0  0  0  0  0  0  0
   -0.0000    0.0000    0.0000 C   0  0  0  0  0  0  0  0  0  0  0  0
    1.3856   -0.8000    0.0000 C   0  0  0  0  0  0  0  0  0  0  0  0
    2.7713   -1.5999    0.0000 H   0  0  0  0  0  0  0  0  0  0  0  0
    1.3856   -2.4000    0.0000 H   0  0  0  0  0  0  0  0  0  0  0  0
    2.7713    0.0000    0.0000 H   0  0  0  0  0  0  0  0  0  0  0  0
   -0.7999   -1.3856    0.0000 C   0  0  0  0  0  0  0  0  0  0  0  0
   -1.8285   -2.6113    0.0000 H   0  0  0  0  0  0  0  0  0  0  0  0
   -0.2527   -2.8891    0.0000 H   0  0  0  0  0  0  0  0  0  0  0  0
    0.7757   -1.6634    0.0000 H   0  0  0  0  0  0  0  0  0  0  0  0
    0.8000    1.3856    0.0000 C   0  0  0  0  0  0  0  0  0  0  0  0
    1.3472    2.8892    0.0000 H   0  0  0  0  0  0  0  0  0  0  0  0
    2.3756    1.6634    0.0000 H   0  0  0  0  0  0  0  0  0  0  0  0
    1.8285    0.1600    0.0000 H   0  0  0  0  0  0  0  0  0  0  0  0
  1  2  1  0  0  0  0
  1  3  1  0  0  0  0
  3  4  1  0  0  0  0
  4  5  1  0  0  0  0
  5  6  1  0  0  0  0
  6  7  1  0  0  0  0
  6  8  1  0  0  0  0
  6  9  1  0  0  0  0
  5 10  1  0  0  0  0
 10 11  1  0  0  0  0
 10 12  1  0  0  0  0
 10 13  1  0  0  0  0
  5 14  1  0  0  0  0
 14 15  1  0  0  0  0
 14 16  1  0  0  0  0
 14 17  1  0  0  0  0
  4 18  2  0  0  0  0
 18 19  1  0  0  0  0
 18 20  1  0  0  0  0
 20 21  1  0  0  0  0
 21 22  1  0  0  0  0
 22 23  1  0  0  0  0
 22 24  1  0  0  0  0
 22 25  1  0  0  0  0
 21 26  1  0  0  0  0
 26 27  1  0  0  0  0
 26 28  1  0  0  0  0
 26 29  1  0  0  0  0
 21 30  1  0  0  0  0
 30 31  1  0  0  0  0
 30 32  1  0  0  0  0
 30 33  1  0  0  0  0
 20 34  2  0  0  0  0
 34 35  1  0  0  0  0
 34 36  1  0  0  0  0
 36  3  2  0  0  0  0
 36 37  1  0  0  0  0
 37 38  1  0  0  0  0
 38 39  1  0  0  0  0
 38 40  1  0  0  0  0
 38 41  1  0  0  0  0
 37 42  1  0  0  0  0
 42 43  1  0  0  0  0
 42 44  1  0  0  0  0
 42 45  1  0  0  0  0
 37 46  1  0  0  0  0
 46 47  1  0  0  0  0
 46 48  1  0  0  0  0
 46 49  1  0  0  0  0
M  END
> <ChemID>
100408

> <source_casrn>
732-26-3

> <CAS>
732-26-3

> <SMILES>
CC(C)(C)c1cc(c(O)c(c1)C(C)(C)C)C(C)(C)C

> <NAME>
2,4,6-TRI(TERT-BUTYL)PHENOL

> <preferred_name>
2,4,6-Tris(tert-butyl)phenol

> <iupac>
2,4,6-tri-tert-butylphenol

> <MPID>
98338

> <dsstox_substance_id>
DTXSID2021311

> <Canonical_QSARr>
CC(C)(C)c1cc(c(O)c(c1)C(C)(C)C)C(C)(C)C

> <InChI_Code_QSARr>
InChI=1S/C18H30O/c1-16(2,3)12-10-13(17(4,5)6)15(19)14(11-12)18(7,8)9/h10-11,19H,1-9H3

> <InChI Key_QSARr>
PFEFOYRSMXVNEL-UHFFFAOYSA-N

> <Salt_Solvent>
?

> <LogBCF>
4.14

$$$$
100409
  -INDIGO-08031719362D

 12 11  0  0  0  0  0  0  0  0999 V2000
    2.7713    0.0000    0.0000 C   0  0  0  0  0  0  0  0  0  0  0  0
    4.1569    0.8000    0.0000 H   0  0  0  0  0  0  0  0  0  0  0  0
    2.7713   -1.6000    0.0000 H   0  0  0  0  0  0  0  0  0  0  0  0
    1.3856    0.8000    0.0000 C   0  0  0  0  0  0  0  0  0  0  0  0
    1.3856    2.4000    0.0000 H   0  0  0  0  0  0  0  0  0  0  0  0
    0.0000    0.0000    0.0000 C   0  0  0  0  0  0  0  0  0  0  0  0
   -0.6123   -1.4782    0.0000 H   0  0  0  0  0  0  0  0  0  0  0  0
    0.6123   -1.4782    0.0000 Cl  0  0  0  0  0  0  0  0  0  0  0  0
   -1.3856    0.8000    0.0000 C   0  0  0  0  0  0  0  0  0  0  0  0
   -2.7713    1.6000    0.0000 H   0  0  0  0  0  0  0  0  0  0  0  0
   -2.7713    0.0000    0.0000 H   0  0  0  0  0  0  0  0  0  0  0  0
   -1.3856    2.4000    0.0000 Cl  0  0  0  0  0  0  0  0  0  0  0  0
  1  2  1  0  0  0  0
  1  3  1  0  0  0  0
  1  4  2  0  0  0  0
  4  5  1  0  0  0  0
  4  6  1  0  0  0  0
  6  7  1  0  0  0  0
  6  8  1  0  0  0  0
  6  9  1  0  0  0  0
  9 10  1  0  0  0  0
  9 11  1  0  0  0  0
  9 12  1  0  0  0  0
M  END
> <ChemID>
100409

> <source_casrn>
760-23-6

> <CAS>
760-23-6

> <SMILES>
C=CC(Cl)CCl

> <NAME>
3,4-DICHLORO-1-BUTENE

> <preferred_name>
3,4-Dichloro-1-butene

> <iupac>
3,4-dichlorobut-1-ene

> <MPID>
98339

> <dsstox_substance_id>
DTXSID8022113

> <Canonical_QSARr>
C=CC(Cl)CCl

> <InChI_Code_QSARr>
InChI=1S/C4H6Cl2/c1-2-4(6)3-5/h2,4H,1,3H2

> <InChI Key_QSARr>
XVEASTGLHPVZNA-UHFFFAOYSA-N

> <Salt_Solvent>
?

> <LogBCF>
1.11

$$$$
100411
  -INDIGO-08031719362D

 14 14  0  0  0  0  0  0  0  0999 V2000
   -0.0000   -0.0000    0.0000 C   0  0  0  0  0  0  0  0  0  0  0  0
   -0.8000    1.3856    0.0000 C   0  0  0  0  0  0  0  0  0  0  0  0
   -0.0000    2.7713    0.0000 H   0  0  0  0  0  0  0  0  0  0  0  0
   -2.4000    1.3856    0.0000 C   0  0  0  0  0  0  0  0  0  0  0  0
   -3.2000    2.7713    0.0000 H   0  0  0  0  0  0  0  0  0  0  0  0
   -3.2000   -0.0000    0.0000 C   0  0  0  0  0  0  0  0  0  0  0  0
   -4.8000   -0.0000    0.0000 O   0  0  0  0  0  0  0  0  0  0  0  0
   -5.6000    1.3856    0.0000 H   0  0  0  0  0  0  0  0  0  0  0  0
   -2.4000   -1.3856    0.0000 C   0  0  0  0  0  0  0  0  0  0  0  0
   -3.2000   -2.7713    0.0000 H   0  0  0  0  0  0  0  0  0  0  0  0
   -0.8000   -1.3856    0.0000 C   0  0  0  0  0  0  0  0  0  0  0  0
   -0.0000   -2.7713    0.0000 H   0  0  0  0  0  0  0  0  0  0  0  0
    1.6001   -0.0000    0.0000 C   0  0  0  0  0  0  0  0  0  0  0  0
    3.2000   -0.0000    0.0000 N   0  0  0  0  0  0  0  0  0  0  0  0
  1  2  1  0  0  0  0
  2  3  1  0  0  0  0
  2  4  2  0  0  0  0
  4  5  1  0  0  0  0
  4  6  1  0  0  0  0
  6  7  1  0  0  0  0
  7  8  1  0  0  0  0
  6  9  2  0  0  0  0
  9 10  1  0  0  0  0
  9 11  1  0  0  0  0
 11  1  2  0  0  0  0
 11 12  1  0  0  0  0
  1 13  1  0  0  0  0
 13 14  3  0  0  0  0
M  END
> <ChemID>
100411

> <source_casrn>
767-00-0

> <CAS>
767-00-0

> <SMILES>
N#Cc1ccc(O)cc1

> <NAME>
P-CYANOPHENOL

> <preferred_name>
4-Hydroxybenzonitrile

> <iupac>
4-hydroxybenzonitrile

> <MPID>
98341

> <dsstox_substance_id>
DTXSID9052509

> <Canonical_QSARr>
N#Cc1ccc(O)cc1

> <InChI_Code_QSARr>
InChI=1S/C7H5NO/c8-5-6-1-3-7(9)4-2-6/h1-4,9H

> <InChI Key_QSARr>
CVNOWLNNPYYEOH-UHFFFAOYSA-N

> <Salt_Solvent>
?

> <LogBCF>
0.91

$$$$
100412
  -INDIGO-08031719362D

 26 27  0  0  0  0  0  0  0  0999 V2000
    0.0000    0.0000    0.0000 C   0  0  0  0  0  0  0  0  0  0  0  0
    1.3857    0.8000    0.0000 N   0  0  0  0  0  0  0  0  0  0  0  0
    1.3857    2.4000    0.0000 H   0  0  0  0  0  0  0  0  0  0  0  0
    2.7712    0.0000    0.0000 N   0  0  0  0  0  0  0  0  0  0  0  0
    2.7712   -1.6000    0.0000 H   0  0  0  0  0  0  0  0  0  0  0  0
    4.1569    0.8000    0.0000 C   0  0  0  0  0  0  0  0  0  0  0  0
    4.1569    2.4000    0.0000 C   0  0  0  0  0  0  0  0  0  0  0  0
    2.7712    3.2001    0.0000 Cl  0  0  0  0  0  0  0  0  0  0  0  0
    5.5426    3.2001    0.0000 C   0  0  0  0  0  0  0  0  0  0  0  0
    5.5426    4.8000    0.0000 H   0  0  0  0  0  0  0  0  0  0  0  0
    6.9281    2.4000    0.0000 C   0  0  0  0  0  0  0  0  0  0  0  0
    8.3138    3.2001    0.0000 H   0  0  0  0  0  0  0  0  0  0  0  0
    6.9281    0.8000    0.0000 C   0  0  0  0  0  0  0  0  0  0  0  0
    8.3138    0.0000    0.0000 H   0  0  0  0  0  0  0  0  0  0  0  0
    5.5426    0.0000    0.0000 C   0  0  0  0  0  0  0  0  0  0  0  0
    5.5426   -1.6000    0.0000 H   0  0  0  0  0  0  0  0  0  0  0  0
    0.0000   -1.6000    0.0000 C   0  0  0  0  0  0  0  0  0  0  0  0
    1.3857   -2.4001    0.0000 Cl  0  0  0  0  0  0  0  0  0  0  0  0
   -1.3857   -2.4001    0.0000 C   0  0  0  0  0  0  0  0  0  0  0  0
   -1.3857   -4.0000    0.0000 H   0  0  0  0  0  0  0  0  0  0  0  0
   -2.7712   -1.6000    0.0000 C   0  0  0  0  0  0  0  0  0  0  0  0
   -4.1569   -2.4001    0.0000 H   0  0  0  0  0  0  0  0  0  0  0  0
   -2.7712    0.0000    0.0000 C   0  0  0  0  0  0  0  0  0  0  0  0
   -4.1569    0.8000    0.0000 H   0  0  0  0  0  0  0  0  0  0  0  0
   -1.3857    0.8000    0.0000 C   0  0  0  0  0  0  0  0  0  0  0  0
   -1.3857    2.4000    0.0000 H   0  0  0  0  0  0  0  0  0  0  0  0
  1  2  1  0  0  0  0
  2  3  1  0  0  0  0
  2  4  1  0  0  0  0
  4  5  1  0  0  0  0
  4  6  1  0  0  0  0
  6  7  1  0  0  0  0
  7  8  1  0  0  0  0
  7  9  2  0  0  0  0
  9 10  1  0  0  0  0
  9 11  1  0  0  0  0
 11 12  1  0  0  0  0
 11 13  2  0  0  0  0
 13 14  1  0  0  0  0
 13 15  1  0  0  0  0
 15  6  2  0  0  0  0
 15 16  1  0  0  0  0
  1 17  1  0  0  0  0
 17 18  1  0  0  0  0
 17 19  2  0  0  0  0
 19 20  1  0  0  0  0
 19 21  1  0  0  0  0
 21 22  1  0  0  0  0
 21 23  2  0  0  0  0
 23 24  1  0  0  0  0
 23 25  1  0  0  0  0
 25  1  2  0  0  0  0
 25 26  1  0  0  0  0
M  END
> <ChemID>
100412

> <source_casrn>
782-74-1

> <CAS>
782-74-1

> <SMILES>
Clc1ccccc1NNc1ccccc1Cl

> <NAME>
Hydrazine, 1,2-bis(2-chlorophenyl)-

> <preferred_name>
1,2-Bis(2-chlorophenyl)hydrazine

> <iupac>
1,2-Bis(2-chlorophenyl)hydrazine

> <MPID>
98342

> <dsstox_substance_id>
DTXSID3061138

> <Canonical_QSARr>
Clc1ccccc1NNc1ccccc1Cl

> <InChI_Code_QSARr>
InChI=1S/C12H10Cl2N2/c13-9-5-1-3-7-11(9)15-16-12-8-4-2-6-10(12)14/h1-8,15-16H

> <InChI Key_QSARr>
IWKMQNKKYZERHI-UHFFFAOYSA-N

> <Salt_Solvent>
?

> <LogBCF>
3.66

$$$$
100413
  -INDIGO-08031719362D

 33 33  0  0  0  0  0  0  0  0999 V2000
    3.2000    2.7713    0.0000 O   0  0  0  0  0  0  0  0  0  0  0  0
    4.8000    2.7713    0.0000 H   0  0  0  0  0  0  0  0  0  0  0  0
    2.4000    1.3857    0.0000 C   0  0  0  0  0  0  0  0  0  0  0  0
    2.6089   -0.2007    0.0000 H   0  0  0  0  0  0  0  0  0  0  0  0
    3.6693    0.4117    0.0000 H   0  0  0  0  0  0  0  0  0  0  0  0
    0.8000    1.3857    0.0000 C   0  0  0  0  0  0  0  0  0  0  0  0
    0.5911    2.9720    0.0000 H   0  0  0  0  0  0  0  0  0  0  0  0
   -0.4693    2.3597    0.0000 H   0  0  0  0  0  0  0  0  0  0  0  0
    0.0000   -0.0001    0.0000 N   0  0  0  0  0  0  0  0  0  0  0  0
    0.8000   -1.3857    0.0000 C   0  0  0  0  0  0  0  0  0  0  0  0
    2.4000   -1.3857    0.0000 O   0  0  0  0  0  0  0  0  0  0  0  0
    0.0000   -2.7713    0.0000 N   0  0  0  0  0  0  0  0  0  0  0  0
    0.8000   -4.1569    0.0000 C   0  0  0  0  0  0  0  0  0  0  0  0
    2.2782   -4.7692    0.0000 H   0  0  0  0  0  0  0  0  0  0  0  0
    2.2782   -3.5447    0.0000 H   0  0  0  0  0  0  0  0  0  0  0  0
    0.0000   -5.5426    0.0000 C   0  0  0  0  0  0  0  0  0  0  0  0
   -1.4782   -4.9303    0.0000 H   0  0  0  0  0  0  0  0  0  0  0  0
   -1.4782   -6.1548    0.0000 H   0  0  0  0  0  0  0  0  0  0  0  0
    0.8000   -6.9282    0.0000 O   0  0  0  0  0  0  0  0  0  0  0  0
    0.0000   -8.3138    0.0000 H   0  0  0  0  0  0  0  0  0  0  0  0
   -1.6000   -2.7713    0.0000 C   0  0  0  0  0  0  0  0  0  0  0  0
   -2.4000   -4.1569    0.0000 O   0  0  0  0  0  0  0  0  0  0  0  0
   -2.4000   -1.3857    0.0000 N   0  0  0  0  0  0  0  0  0  0  0  0
   -4.0000   -1.3857    0.0000 C   0  0  0  0  0  0  0  0  0  0  0  0
   -5.2693   -2.3597    0.0000 H   0  0  0  0  0  0  0  0  0  0  0  0
   -4.2089   -2.9719    0.0000 H   0  0  0  0  0  0  0  0  0  0  0  0
   -4.8000   -0.0001    0.0000 C   0  0  0  0  0  0  0  0  0  0  0  0
   -3.5307    0.9740    0.0000 H   0  0  0  0  0  0  0  0  0  0  0  0
   -4.5911    1.5863    0.0000 H   0  0  0  0  0  0  0  0  0  0  0  0
   -6.4000   -0.0001    0.0000 O   0  0  0  0  0  0  0  0  0  0  0  0
   -7.2000    1.3857    0.0000 H   0  0  0  0  0  0  0  0  0  0  0  0
   -1.6000   -0.0001    0.0000 C   0  0  0  0  0  0  0  0  0  0  0  0
   -2.4000    1.3857    0.0000 O   0  0  0  0  0  0  0  0  0  0  0  0
  1  2  1  0  0  0  0
  1  3  1  0  0  0  0
  3  4  1  0  0  0  0
  3  5  1  0  0  0  0
  3  6  1  0  0  0  0
  6  7  1  0  0  0  0
  6  8  1  0  0  0  0
  6  9  1  0  0  0  0
  9 10  1  0  0  0  0
 10 11  2  0  0  0  0
 10 12  1  0  0  0  0
 12 13  1  0  0  0  0
 13 14  1  0  0  0  0
 13 15  1  0  0  0  0
 13 16  1  0  0  0  0
 16 17  1  0  0  0  0
 16 18  1  0  0  0  0
 16 19  1  0  0  0  0
 19 20  1  0  0  0  0
 12 21  1  0  0  0  0
 21 22  2  0  0  0  0
 21 23  1  0  0  0  0
 23 24  1  0  0  0  0
 24 25  1  0  0  0  0
 24 26  1  0  0  0  0
 24 27  1  0  0  0  0
 27 28  1  0  0  0  0
 27 29  1  0  0  0  0
 27 30  1  0  0  0  0
 30 31  1  0  0  0  0
 23 32  1  0  0  0  0
 32  9  1  0  0  0  0
 32 33  2  0  0  0  0
M  END
> <ChemID>
100413

> <source_casrn>
839-90-7

> <CAS>
839-90-7

> <SMILES>
O=C(N(C(=O)N(C1(=O))CCO)CCO)N1CCO

> <NAME>
1,3,5-Triazine-2,4,6(1H,3H,5H)-trione, 1,3,5-tri

> <preferred_name>
Tris(2-hydroxyethyl) isocyanurate

> <iupac>
1,3,5-tris(2-hydroxyethyl)-1,3,5-triazinane-2,4,6-trione

> <MPID>
98343

> <dsstox_substance_id>
DTXSID4026266

> <Canonical_QSARr>
OCCN1C(=O)N(CCO)C(=O)N(CCO)C1=O

> <InChI_Code_QSARr>
InChI=1S/C9H15N3O6/c13-4-1-10-7(16)11(2-5-14)9(18)12(3-6-15)8(10)17/h13-15H,1-6H2

> <InChI Key_QSARr>
BPXVHIRIPLPOPT-UHFFFAOYSA-N

> <Salt_Solvent>
?

> <LogBCF>
0.2

$$$$
100416
  -INDIGO-08031719362D

 18 18  0  0  0  0  0  0  0  0999 V2000
    3.2000    2.7713    0.0000 Cl  0  0  0  0  0  0  0  0  0  0  0  0
    2.4000    1.3856    0.0000 C   0  0  0  0  0  0  0  0  0  0  0  0
    3.2000   -0.0000    0.0000 C   0  0  0  0  0  0  0  0  0  0  0  0
    4.8001   -0.0000    0.0000 C   0  0  0  0  0  0  0  0  0  0  0  0
    6.4000   -0.0000    0.0000 H   0  0  0  0  0  0  0  0  0  0  0  0
    5.6000    1.3856    0.0000 H   0  0  0  0  0  0  0  0  0  0  0  0
    5.6000   -1.3856    0.0000 H   0  0  0  0  0  0  0  0  0  0  0  0
    2.4000   -1.3856    0.0000 C   0  0  0  0  0  0  0  0  0  0  0  0
    3.2000   -2.7713    0.0000 Cl  0  0  0  0  0  0  0  0  0  0  0  0
    0.8000   -1.3856    0.0000 C   0  0  0  0  0  0  0  0  0  0  0  0
    0.0000   -2.7713    0.0000 Cl  0  0  0  0  0  0  0  0  0  0  0  0
    0.0000    0.0000    0.0000 C   0  0  0  0  0  0  0  0  0  0  0  0
   -1.6001    0.0000    0.0000 C   0  0  0  0  0  0  0  0  0  0  0  0
   -3.2000    0.0000    0.0000 H   0  0  0  0  0  0  0  0  0  0  0  0
   -2.4000   -1.3856    0.0000 H   0  0  0  0  0  0  0  0  0  0  0  0
   -2.4000    1.3856    0.0000 H   0  0  0  0  0  0  0  0  0  0  0  0
    0.8000    1.3856    0.0000 C   0  0  0  0  0  0  0  0  0  0  0  0
    0.0000    2.7713    0.0000 Cl  0  0  0  0  0  0  0  0  0  0  0  0
  1  2  1  0  0  0  0
  2  3  1  0  0  0  0
  3  4  1  0  0  0  0
  4  5  1  0  0  0  0
  4  6  1  0  0  0  0
  4  7  1  0  0  0  0
  3  8  2  0  0  0  0
  8  9  1  0  0  0  0
  8 10  1  0  0  0  0
 10 11  1  0  0  0  0
 10 12  2  0  0  0  0
 12 13  1  0  0  0  0
 13 14  1  0  0  0  0
 13 15  1  0  0  0  0
 13 16  1  0  0  0  0
 12 17  1  0  0  0  0
 17  2  2  0  0  0  0
 17 18  1  0  0  0  0
M  END
> <ChemID>
100416

> <source_casrn>
877-10-1

> <CAS>
877-10-1

> <SMILES>
Cc1c(Cl)c(Cl)c(C)c(Cl)c1Cl

> <NAME>
1,2,4,5-TETRACHLORO-3,6-DIMETHYLBENZENE

> <preferred_name>
2,3,5,6-Tetrachloro-p-xylene

> <iupac>
1,2,4,5-Tetrachloro-3,6-dimethylbenzene

> <MPID>
98345

> <dsstox_substance_id>
DTXSID60236565

> <Canonical_QSARr>
Cc1c(Cl)c(Cl)c(C)c(Cl)c1Cl

> <InChI_Code_QSARr>
InChI=1S/C8H6Cl4/c1-3-5(9)7(11)4(2)8(12)6(3)10/h1-2H3

> <InChI Key_QSARr>
CTSQZGJZQUVGBQ-UHFFFAOYSA-N

> <Salt_Solvent>
?

> <LogBCF>
3.62

$$$$
100417
  -INDIGO-08031719362D

 15 15  0  0  0  0  0  0  0  0999 V2000
   -2.4001    1.3856    0.0000 C   0  0  0  0  0  0  0  0  0  0  0  0
   -0.7999    1.3856    0.0000 C   0  0  0  0  0  0  0  0  0  0  0  0
    0.0000    2.7713    0.0000 Cl  0  0  0  0  0  0  0  0  0  0  0  0
    0.0000    0.0000    0.0000 C   0  0  0  0  0  0  0  0  0  0  0  0
    1.6000    0.0000    0.0000 C   0  0  0  0  0  0  0  0  0  0  0  0
    3.2000    0.0000    0.0000 H   0  0  0  0  0  0  0  0  0  0  0  0
    2.4001   -1.3856    0.0000 H   0  0  0  0  0  0  0  0  0  0  0  0
    2.4001    1.3856    0.0000 H   0  0  0  0  0  0  0  0  0  0  0  0
   -0.7999   -1.3856    0.0000 C   0  0  0  0  0  0  0  0  0  0  0  0
    0.0000   -2.7713    0.0000 Cl  0  0  0  0  0  0  0  0  0  0  0  0
   -2.4001   -1.3856    0.0000 C   0  0  0  0  0  0  0  0  0  0  0  0
   -3.2000   -2.7713    0.0000 Cl  0  0  0  0  0  0  0  0  0  0  0  0
   -3.2000   -0.0000    0.0000 C   0  0  0  0  0  0  0  0  0  0  0  0
   -4.8000    0.0000    0.0000 Cl  0  0  0  0  0  0  0  0  0  0  0  0
   -3.2000    2.7713    0.0000 Cl  0  0  0  0  0  0  0  0  0  0  0  0
  1  2  1  0  0  0  0
  2  3  1  0  0  0  0
  2  4  2  0  0  0  0
  4  5  1  0  0  0  0
  5  6  1  0  0  0  0
  5  7  1  0  0  0  0
  5  8  1  0  0  0  0
  4  9  1  0  0  0  0
  9 10  1  0  0  0  0
  9 11  2  0  0  0  0
 11 12  1  0  0  0  0
 11 13  1  0  0  0  0
 13  1  2  0  0  0  0
 13 14  1  0  0  0  0
  1 15  1  0  0  0  0
M  END
> <ChemID>
100417

> <source_casrn>
877-11-2

> <CAS>
877-11-2

> <SMILES>
Cc1c(Cl)c(Cl)c(Cl)c(Cl)c1Cl

> <NAME>
2,3,4,5,6-PENTACHLOROTOLUENE

> <preferred_name>


> <iupac>


> <MPID>
98346

> <dsstox_substance_id>
DTXSID10870791

> <Canonical_QSARr>
Cc1c(Cl)c(Cl)c(Cl)c(Cl)c1Cl

> <InChI_Code_QSARr>
InChI=1S/C7H3Cl5/c1-2-3(8)5(10)7(12)6(11)4(2)9/h1H3

> <InChI Key_QSARr>
AVSIMRGRHWKCAY-UHFFFAOYSA-N

> <Salt_Solvent>
?

> <LogBCF>
3.83

$$$$
100418
  -INDIGO-08031719362D

 14 14  0  0  0  0  0  0  0  0999 V2000
    1.6000   -0.0000    0.0000 N   0  0  0  0  0  0  0  0  0  0  0  0
    2.4000    1.3856    0.0000 O   0  0  0  0  0  0  0  0  0  0  0  0
    2.4000   -1.3856    0.0000 O   0  0  0  0  0  0  0  0  0  0  0  0
    0.0000   -0.0000    0.0000 C   0  0  0  0  0  0  0  0  0  0  0  0
   -0.8000    1.3856    0.0000 C   0  0  0  0  0  0  0  0  0  0  0  0
    0.0000    2.7713    0.0000 H   0  0  0  0  0  0  0  0  0  0  0  0
   -2.4000    1.3856    0.0000 C   0  0  0  0  0  0  0  0  0  0  0  0
   -3.2000    2.7713    0.0000 Cl  0  0  0  0  0  0  0  0  0  0  0  0
   -3.2000   -0.0000    0.0000 C   0  0  0  0  0  0  0  0  0  0  0  0
   -4.8000   -0.0000    0.0000 Cl  0  0  0  0  0  0  0  0  0  0  0  0
   -2.4000   -1.3856    0.0000 C   0  0  0  0  0  0  0  0  0  0  0  0
   -3.2000   -2.7713    0.0000 Cl  0  0  0  0  0  0  0  0  0  0  0  0
   -0.8000   -1.3856    0.0000 C   0  0  0  0  0  0  0  0  0  0  0  0
    0.0000   -2.7713    0.0000 Cl  0  0  0  0  0  0  0  0  0  0  0  0
  1  2  2  0  0  0  0
  1  3  1  0  0  0  0
  1  4  1  0  0  0  0
  4  5  1  0  0  0  0
  5  6  1  0  0  0  0
  5  7  2  0  0  0  0
  7  8  1  0  0  0  0
  7  9  1  0  0  0  0
  9 10  1  0  0  0  0
  9 11  2  0  0  0  0
 11 12  1  0  0  0  0
 11 13  1  0  0  0  0
 13  4  2  0  0  0  0
 13 14  1  0  0  0  0
M  CHG  2   1   1   3  -1
M  END
> <ChemID>
100418

> <source_casrn>
879-39-0

> <CAS>
879-39-0

> <SMILES>
[O-][N+](=O)c1cc(Cl)c(Cl)c(Cl)c1Cl

> <NAME>
2,3,4,5-TETRACHLORONITROBENZENE

> <preferred_name>
2,3,4,5-Tetrachloronitrobenzene

> <iupac>
1,2,3,4-tetrachloro-5-nitrobenzene

> <MPID>
98347

> <dsstox_substance_id>
DTXSID5026097

> <Canonical_QSARr>
[O-][N+](=O)c1cc(Cl)c(Cl)c(Cl)c1Cl

> <InChI_Code_QSARr>
InChI=1S/C6HCl4NO2/c7-2-1-3(11(12)13)5(9)6(10)4(2)8/h1H

> <InChI Key_QSARr>
MTBYTWZDRVOMBR-UHFFFAOYSA-N

> <Salt_Solvent>
?

> <LogBCF>
1.9

$$$$
100420
  -INDIGO-08031719362D

 13 13  0  0  0  0  0  0  0  0999 V2000
    2.4000    1.3856    0.0000 Cl  0  0  0  0  0  0  0  0  0  0  0  0
    1.6000   -0.0000    0.0000 C   0  0  0  0  0  0  0  0  0  0  0  0
    2.4000   -1.3857    0.0000 C   0  0  0  0  0  0  0  0  0  0  0  0
    4.0000   -1.3857    0.0000 Cl  0  0  0  0  0  0  0  0  0  0  0  0
    1.6000   -2.7713    0.0000 C   0  0  0  0  0  0  0  0  0  0  0  0
    2.4000   -4.1569    0.0000 H   0  0  0  0  0  0  0  0  0  0  0  0
    0.0000   -2.7713    0.0000 C   0  0  0  0  0  0  0  0  0  0  0  0
   -0.8000   -4.1569    0.0000 Cl  0  0  0  0  0  0  0  0  0  0  0  0
   -0.8000   -1.3856    0.0000 C   0  0  0  0  0  0  0  0  0  0  0  0
   -2.4000   -1.3856    0.0000 Cl  0  0  0  0  0  0  0  0  0  0  0  0
    0.0000   -0.0000    0.0000 C   0  0  0  0  0  0  0  0  0  0  0  0
   -0.8000    1.3856    0.0000 O   0  0  0  0  0  0  0  0  0  0  0  0
   -2.4000    1.3856    0.0000 H   0  0  0  0  0  0  0  0  0  0  0  0
  1  2  1  0  0  0  0
  2  3  1  0  0  0  0
  3  4  1  0  0  0  0
  3  5  2  0  0  0  0
  5  6  1  0  0  0  0
  5  7  1  0  0  0  0
  7  8  1  0  0  0  0
  7  9  2  0  0  0  0
  9 10  1  0  0  0  0
  9 11  1  0  0  0  0
 11  2  2  0  0  0  0
 11 12  1  0  0  0  0
 12 13  1  0  0  0  0
M  END
> <ChemID>
100420

> <source_casrn>
935-95-5

> <CAS>
935-95-5

> <SMILES>
Oc1c(Cl)c(Cl)cc(Cl)c1Cl

> <NAME>
2,3,5,6-TETRACHLOROPHENOL

> <preferred_name>
2,3,5,6-Tetrachlorophenol

> <iupac>
2,3,5,6-tetrachlorophenol

> <MPID>
98349

> <dsstox_substance_id>
DTXSID2026101

> <Canonical_QSARr>
Oc1c(Cl)c(Cl)cc(Cl)c1Cl

> <InChI_Code_QSARr>
InChI=1S/C6H2Cl4O/c7-2-1-3(8)5(10)6(11)4(2)9/h1,11H

> <InChI Key_QSARr>
KEWNKZNZRIAIAK-UHFFFAOYSA-N

> <Salt_Solvent>
?

> <LogBCF>
2.15

$$$$
100421
  -INDIGO-08031719362D

 16 16  0  0  0  0  0  0  0  0999 V2000
   -0.0000    2.7713    0.0000 Cl  0  0  0  0  0  0  0  0  0  0  0  0
   -0.8000    1.3856    0.0000 C   0  0  0  0  0  0  0  0  0  0  0  0
   -0.0000   -0.0000    0.0000 C   0  0  0  0  0  0  0  0  0  0  0  0
    1.6000   -0.0000    0.0000 O   0  0  0  0  0  0  0  0  0  0  0  0
    2.4001    1.3856    0.0000 C   0  0  0  0  0  0  0  0  0  0  0  0
    4.0000    1.3856    0.0000 H   0  0  0  0  0  0  0  0  0  0  0  0
    3.2000    2.7713    0.0000 H   0  0  0  0  0  0  0  0  0  0  0  0
    3.2000   -0.0000    0.0000 H   0  0  0  0  0  0  0  0  0  0  0  0
   -0.8000   -1.3856    0.0000 C   0  0  0  0  0  0  0  0  0  0  0  0
   -0.0000   -2.7713    0.0000 Cl  0  0  0  0  0  0  0  0  0  0  0  0
   -2.4000   -1.3856    0.0000 C   0  0  0  0  0  0  0  0  0  0  0  0
   -3.2001   -2.7713    0.0000 H   0  0  0  0  0  0  0  0  0  0  0  0
   -3.2001   -0.0000    0.0000 C   0  0  0  0  0  0  0  0  0  0  0  0
   -4.8000   -0.0000    0.0000 Cl  0  0  0  0  0  0  0  0  0  0  0  0
   -2.4000    1.3856    0.0000 C   0  0  0  0  0  0  0  0  0  0  0  0
   -3.2001    2.7713    0.0000 Cl  0  0  0  0  0  0  0  0  0  0  0  0
  1  2  1  0  0  0  0
  2  3  1  0  0  0  0
  3  4  1  0  0  0  0
  4  5  1  0  0  0  0
  5  6  1  0  0  0  0
  5  7  1  0  0  0  0
  5  8  1  0  0  0  0
  3  9  2  0  0  0  0
  9 10  1  0  0  0  0
  9 11  1  0  0  0  0
 11 12  1  0  0  0  0
 11 13  2  0  0  0  0
 13 14  1  0  0  0  0
 13 15  1  0  0  0  0
 15  2  2  0  0  0  0
 15 16  1  0  0  0  0
M  END
> <ChemID>
100421

> <source_casrn>
938-22-7

> <CAS>
938-22-7

> <SMILES>
COc1c(Cl)cc(Cl)c(Cl)c1Cl

> <NAME>
2,3,4,6-TETRACHLOROANISOLE

> <preferred_name>
2,3,4,6-Tetrachloroanisole

> <iupac>
1,2,3,5-tetrachloro-4-methoxybenzene

> <MPID>
98350

> <dsstox_substance_id>
DTXSID80239654

> <Canonical_QSARr>
COc1c(Cl)cc(Cl)c(Cl)c1Cl

> <InChI_Code_QSARr>
InChI=1S/C7H4Cl4O/c1-12-7-4(9)2-3(8)5(10)6(7)11/h2H,1H3

> <InChI Key_QSARr>
ITXDBGLYYSJNPK-UHFFFAOYSA-N

> <Salt_Solvent>
?

> <LogBCF>
3.34

$$$$
100422
  -INDIGO-08031719362D

 16 16  0  0  0  0  0  0  0  0999 V2000
   -0.0000    2.7713    0.0000 Cl  0  0  0  0  0  0  0  0  0  0  0  0
   -0.8000    1.3856    0.0000 C   0  0  0  0  0  0  0  0  0  0  0  0
   -0.0000   -0.0000    0.0000 C   0  0  0  0  0  0  0  0  0  0  0  0
    1.6000   -0.0000    0.0000 O   0  0  0  0  0  0  0  0  0  0  0  0
    2.4001    1.3856    0.0000 C   0  0  0  0  0  0  0  0  0  0  0  0
    4.0000    1.3856    0.0000 H   0  0  0  0  0  0  0  0  0  0  0  0
    3.2000    2.7713    0.0000 H   0  0  0  0  0  0  0  0  0  0  0  0
    3.2000   -0.0000    0.0000 H   0  0  0  0  0  0  0  0  0  0  0  0
   -0.8000   -1.3856    0.0000 C   0  0  0  0  0  0  0  0  0  0  0  0
   -0.0000   -2.7713    0.0000 H   0  0  0  0  0  0  0  0  0  0  0  0
   -2.4000   -1.3856    0.0000 C   0  0  0  0  0  0  0  0  0  0  0  0
   -3.2001   -2.7713    0.0000 Cl  0  0  0  0  0  0  0  0  0  0  0  0
   -3.2001   -0.0000    0.0000 C   0  0  0  0  0  0  0  0  0  0  0  0
   -4.8000   -0.0000    0.0000 Cl  0  0  0  0  0  0  0  0  0  0  0  0
   -2.4000    1.3856    0.0000 C   0  0  0  0  0  0  0  0  0  0  0  0
   -3.2001    2.7713    0.0000 Cl  0  0  0  0  0  0  0  0  0  0  0  0
  1  2  1  0  0  0  0
  2  3  1  0  0  0  0
  3  4  1  0  0  0  0
  4  5  1  0  0  0  0
  5  6  1  0  0  0  0
  5  7  1  0  0  0  0
  5  8  1  0  0  0  0
  3  9  2  0  0  0  0
  9 10  1  0  0  0  0
  9 11  1  0  0  0  0
 11 12  1  0  0  0  0
 11 13  2  0  0  0  0
 13 14  1  0  0  0  0
 13 15  1  0  0  0  0
 15  2  2  0  0  0  0
 15 16  1  0  0  0  0
M  END
> <ChemID>
100422

> <source_casrn>
938-86-3

> <CAS>
938-86-3

> <SMILES>
COc1cc(Cl)c(Cl)c(Cl)c1Cl

> <NAME>
2,3,4,5-TETRACHLOROANISOLE

> <preferred_name>
2,3,4,5-Tetrachloroanisole

> <iupac>
1,2,3,4-Tetrachloro-5-methoxybenzene

> <MPID>
98351

> <dsstox_substance_id>
DTXSID90239660

> <Canonical_QSARr>
COc1cc(Cl)c(Cl)c(Cl)c1Cl

> <InChI_Code_QSARr>
InChI=1S/C7H4Cl4O/c1-12-4-2-3(8)5(9)7(11)6(4)10/h2H,1H3

> <InChI Key_QSARr>
FUUHMSUPRUNWRQ-UHFFFAOYSA-N

> <Salt_Solvent>
?

> <LogBCF>
3.67

$$$$
100425
  -INDIGO-08031719362D

 24 26  0  0  0  0  0  0  0  0999 V2000
   -2.4001    4.1569    0.0000 Cl  0  0  0  0  0  0  0  0  0  0  0  0
   -1.6001    2.7713    0.0000 C   0  0  0  0  0  0  0  0  0  0  0  0
   -2.4001    1.3856    0.0000 C   0  0  0  0  0  0  0  0  0  0  0  0
   -1.6001    0.0000    0.0000 C   0  0  0  0  0  0  0  0  0  0  0  0
   -2.4001   -1.3856    0.0000 C   0  0  0  0  0  0  0  0  0  0  0  0
   -1.6001   -2.7713    0.0000 H   0  0  0  0  0  0  0  0  0  0  0  0
   -4.0000   -1.3856    0.0000 C   0  0  0  0  0  0  0  0  0  0  0  0
   -4.8000   -2.7713    0.0000 H   0  0  0  0  0  0  0  0  0  0  0  0
   -4.8000    0.0000    0.0000 C   0  0  0  0  0  0  0  0  0  0  0  0
   -6.4000    0.0000    0.0000 H   0  0  0  0  0  0  0  0  0  0  0  0
   -4.0000    1.3856    0.0000 C   0  0  0  0  0  0  0  0  0  0  0  0
   -4.8000    2.7713    0.0000 H   0  0  0  0  0  0  0  0  0  0  0  0
    0.0001    0.0000    0.0000 C   0  0  0  0  0  0  0  0  0  0  0  0
    0.8001    1.3856    0.0000 C   0  0  0  0  0  0  0  0  0  0  0  0
    2.4000    1.3856    0.0000 C   0  0  0  0  0  0  0  0  0  0  0  0
    3.2000    2.7713    0.0000 H   0  0  0  0  0  0  0  0  0  0  0  0
    3.2000    0.0000    0.0000 C   0  0  0  0  0  0  0  0  0  0  0  0
    4.8000    0.0000    0.0000 H   0  0  0  0  0  0  0  0  0  0  0  0
    2.4000   -1.3856    0.0000 C   0  0  0  0  0  0  0  0  0  0  0  0
    3.2000   -2.7713    0.0000 H   0  0  0  0  0  0  0  0  0  0  0  0
    0.8001   -1.3856    0.0000 C   0  0  0  0  0  0  0  0  0  0  0  0
    0.0001   -2.7713    0.0000 H   0  0  0  0  0  0  0  0  0  0  0  0
    0.0001    2.7713    0.0000 C   0  0  0  0  0  0  0  0  0  0  0  0
    0.8001    4.1569    0.0000 H   0  0  0  0  0  0  0  0  0  0  0  0
  1  2  1  0  0  0  0
  2  3  1  0  0  0  0
  3  4  1  0  0  0  0
  4  5  2  0  0  0  0
  5  6  1  0  0  0  0
  5  7  1  0  0  0  0
  7  8  1  0  0  0  0
  7  9  2  0  0  0  0
  9 10  1  0  0  0  0
  9 11  1  0  0  0  0
 11  3  2  0  0  0  0
 11 12  1  0  0  0  0
  4 13  1  0  0  0  0
 13 14  1  0  0  0  0
 14 15  2  0  0  0  0
 15 16  1  0  0  0  0
 15 17  1  0  0  0  0
 17 18  1  0  0  0  0
 17 19  2  0  0  0  0
 19 20  1  0  0  0  0
 19 21  1  0  0  0  0
 21 13  2  0  0  0  0
 21 22  1  0  0  0  0
 14 23  1  0  0  0  0
 23  2  2  0  0  0  0
 23 24  1  0  0  0  0
M  END
> <ChemID>
100425

> <source_casrn>
947-72-8

> <CAS>
947-72-8

> <SMILES>
Clc1cc2ccccc2c2ccccc21

> <NAME>
9-Chlorophenanthrene

> <preferred_name>
Phenanthrene, 9-chloro-

> <iupac>
9-CHLOROPHENANTHRENE

> <MPID>
98354

> <dsstox_substance_id>
DTXSID00241572

> <Canonical_QSARr>
Clc1cc2ccccc2c2ccccc21

> <InChI_Code_QSARr>
InChI=1S/C14H9Cl/c15-14-9-10-5-1-2-6-11(10)12-7-3-4-8-13(12)14/h1-9H

> <InChI Key_QSARr>
CJWHZQNUDAJJSB-UHFFFAOYSA-N

> <Salt_Solvent>
?

> <LogBCF>
3.49

$$$$
100426
  -INDIGO-08031719362D

 27 27  0  0  0  0  0  0  0  0999 V2000
   -0.6507    1.4616    0.0000 S   0  0  0  0  0  0  0  0  0  0  0  0
   -0.0000    0.0000    0.0000 P   0  0  0  0  0  0  0  0  0  0  0  0
    1.5911   -0.1672    0.0000 S   0  0  0  0  0  0  0  0  0  0  0  0
    2.5316    1.1272    0.0000 C   0  0  0  0  0  0  0  0  0  0  0  0
    2.4899    2.7266    0.0000 H   0  0  0  0  0  0  0  0  0  0  0  0
    1.3711    2.2286    0.0000 H   0  0  0  0  0  0  0  0  0  0  0  0
    4.1230    0.9599    0.0000 N   0  0  0  0  0  0  0  0  0  0  0  0
    5.1936    2.1490    0.0000 C   0  0  0  0  0  0  0  0  0  0  0  0
    4.8610    3.7140    0.0000 O   0  0  0  0  0  0  0  0  0  0  0  0
    6.6553    1.4982    0.0000 S   0  0  0  0  0  0  0  0  0  0  0  0
    6.4879   -0.0930    0.0000 C   0  0  0  0  0  0  0  0  0  0  0  0
    7.6771   -1.1637    0.0000 O   0  0  0  0  0  0  0  0  0  0  0  0
    9.1987   -0.6693    0.0000 C   0  0  0  0  0  0  0  0  0  0  0  0
   10.7204   -0.1748    0.0000 H   0  0  0  0  0  0  0  0  0  0  0  0
   10.3877   -1.7398    0.0000 H   0  0  0  0  0  0  0  0  0  0  0  0
    9.5314    0.8958    0.0000 H   0  0  0  0  0  0  0  0  0  0  0  0
    4.9229   -0.4257    0.0000 N   0  0  0  0  0  0  0  0  0  0  0  0
   -1.5912    0.1672    0.0000 O   0  0  0  0  0  0  0  0  0  0  0  0
   -2.2421    1.6289    0.0000 C   0  0  0  0  0  0  0  0  0  0  0  0
   -3.8332    1.7961    0.0000 H   0  0  0  0  0  0  0  0  0  0  0  0
   -2.8928    3.0906    0.0000 H   0  0  0  0  0  0  0  0  0  0  0  0
   -1.3016    2.9233    0.0000 H   0  0  0  0  0  0  0  0  0  0  0  0
   -0.9405   -1.2944    0.0000 O   0  0  0  0  0  0  0  0  0  0  0  0
   -0.2896   -2.7561    0.0000 C   0  0  0  0  0  0  0  0  0  0  0  0
    0.3611   -4.2178    0.0000 H   0  0  0  0  0  0  0  0  0  0  0  0
   -1.2301   -4.0505    0.0000 H   0  0  0  0  0  0  0  0  0  0  0  0
    1.3015   -2.9233    0.0000 H   0  0  0  0  0  0  0  0  0  0  0  0
  1  2  2  0  0  0  0
  2  3  1  0  0  0  0
  3  4  1  0  0  0  0
  4  5  1  0  0  0  0
  4  6  1  0  0  0  0
  4  7  1  0  0  0  0
  7  8  1  0  0  0  0
  8  9  2  0  0  0  0
  8 10  1  0  0  0  0
 10 11  1  0  0  0  0
 11 12  1  0  0  0  0
 12 13  1  0  0  0  0
 13 14  1  0  0  0  0
 13 15  1  0  0  0  0
 13 16  1  0  0  0  0
 11 17  2  0  0  0  0
 17  7  1  0  0  0  0
  2 18  1  0  0  0  0
 18 19  1  0  0  0  0
 19 20  1  0  0  0  0
 19 21  1  0  0  0  0
 19 22  1  0  0  0  0
  2 23  1  0  0  0  0
 23 24  1  0  0  0  0
 24 25  1  0  0  0  0
 24 26  1  0  0  0  0
 24 27  1  0  0  0  0
M  END
> <ChemID>
100426

> <source_casrn>
950-37-8

> <CAS>
950-37-8

> <SMILES>
COC1=NN(CSP(=S)(OC)OC)C(=O)S1

> <NAME>
METHIDATHION

> <preferred_name>
Methidathion

> <iupac>
S-[(5-methoxy-2-oxo-1,3,4-thiadiazol-3(2H)-yl)methyl] O,O-dimethyl phosphorodithioate

> <MPID>
98355

> <dsstox_substance_id>
DTXSID5020819

> <Canonical_QSARr>
COC1=NN(CSP(=S)(OC)OC)C(=O)S1

> <InChI_Code_QSARr>
InChI=1S/C6H11N2O4PS3/c1-10-5-7-8(6(9)16-5)4-15-13(14,11-2)12-3/h4H2,1-3H3

> <InChI Key_QSARr>
MEBQXILRKZHVCX-UHFFFAOYSA-N

> <Salt_Solvent>
?

> <LogBCF>
0.74

$$$$
100427
  -INDIGO-08031719362D

 28 28  0  0  0  0  0  0  0  0999 V2000
   -4.1569    2.4000    0.0000 Cl  0  0  0  0  0  0  0  0  0  0  0  0
   -2.7712    1.6000    0.0000 C   0  0  0  0  0  0  0  0  0  0  0  0
   -1.3857    2.4000    0.0000 C   0  0  0  0  0  0  0  0  0  0  0  0
   -1.3857    4.0000    0.0000 H   0  0  0  0  0  0  0  0  0  0  0  0
    0.0000    1.6000    0.0000 C   0  0  0  0  0  0  0  0  0  0  0  0
    1.3857    2.4000    0.0000 Cl  0  0  0  0  0  0  0  0  0  0  0  0
    0.0000    0.0000    0.0000 C   0  0  0  0  0  0  0  0  0  0  0  0
    1.3857   -0.8000    0.0000 C   0  0  0  0  0  0  0  0  0  0  0  0
    2.7712    0.0000    0.0000 O   0  0  0  0  0  0  0  0  0  0  0  0
    4.1569   -0.8000    0.0000 P   0  0  0  0  0  0  0  0  0  0  0  0
    4.1569   -2.4000    0.0000 O   0  0  0  0  0  0  0  0  0  0  0  0
    5.5426   -1.6000    0.0000 O   0  0  0  0  0  0  0  0  0  0  0  0
    6.9281   -0.8000    0.0000 C   0  0  0  0  0  0  0  0  0  0  0  0
    8.3138   -1.6000    0.0000 H   0  0  0  0  0  0  0  0  0  0  0  0
    8.3138    0.0000    0.0000 H   0  0  0  0  0  0  0  0  0  0  0  0
    6.9281   -2.4000    0.0000 H   0  0  0  0  0  0  0  0  0  0  0  0
    5.5426    0.0000    0.0000 O   0  0  0  0  0  0  0  0  0  0  0  0
    5.5426    1.6000    0.0000 C   0  0  0  0  0  0  0  0  0  0  0  0
    5.5426    3.2000    0.0000 H   0  0  0  0  0  0  0  0  0  0  0  0
    6.9281    2.4000    0.0000 H   0  0  0  0  0  0  0  0  0  0  0  0
    4.1569    2.4000    0.0000 H   0  0  0  0  0  0  0  0  0  0  0  0
    1.3857   -2.4000    0.0000 C   0  0  0  0  0  0  0  0  0  0  0  0
    2.7712   -3.2000    0.0000 H   0  0  0  0  0  0  0  0  0  0  0  0
    0.0000   -3.2000    0.0000 Cl  0  0  0  0  0  0  0  0  0  0  0  0
   -1.3857   -0.8000    0.0000 C   0  0  0  0  0  0  0  0  0  0  0  0
   -1.3857   -2.4000    0.0000 H   0  0  0  0  0  0  0  0  0  0  0  0
   -2.7712    0.0000    0.0000 C   0  0  0  0  0  0  0  0  0  0  0  0
   -4.1569   -0.8000    0.0000 Cl  0  0  0  0  0  0  0  0  0  0  0  0
  1  2  1  0  0  0  0
  2  3  1  0  0  0  0
  3  4  1  0  0  0  0
  3  5  2  0  0  0  0
  5  6  1  0  0  0  0
  5  7  1  0  0  0  0
  7  8  1  0  0  0  0
  8  9  1  0  0  0  0
  9 10  1  0  0  0  0
 10 11  2  0  0  0  0
 10 12  1  0  0  0  0
 12 13  1  0  0  0  0
 13 14  1  0  0  0  0
 13 15  1  0  0  0  0
 13 16  1  0  0  0  0
 10 17  1  0  0  0  0
 17 18  1  0  0  0  0
 18 19  1  0  0  0  0
 18 20  1  0  0  0  0
 18 21  1  0  0  0  0
  8 22  2  0  0  0  0
 22 23  1  0  0  0  0
 22 24  1  0  0  0  0
  7 25  2  0  0  0  0
 25 26  1  0  0  0  0
 25 27  1  0  0  0  0
 27  2  2  0  0  0  0
 27 28  1  0  0  0  0
M  END
> <ChemID>
100427

> <source_casrn>
961-11-5

> <CAS>
961-11-5

> <SMILES>
COP(=O)(OC(=CCl)c1cc(Cl)c(Cl)cc1Cl)OC

> <NAME>
STIROFOS

> <preferred_name>
Tetrachlorovinphos

> <iupac>
C10H9Cl4O4P

> <MPID>
98356

> <dsstox_substance_id>
DTXSID1021320

> <Canonical_QSARr>
COP(=O)(OC(=CCl)c1cc(Cl)c(Cl)cc1Cl)OC

> <InChI_Code_QSARr>
InChI=1S/C10H9Cl4O4P/c1-16-19(15,17-2)18-10(5-11)6-3-8(13)9(14)4-7(6)12/h3-5H,1-2H3/b10-5+

> <InChI Key_QSARr>
UBCKGWBNUIFUST-BJMVGYQFSA-N

> <Salt_Solvent>
?

> <LogBCF>
1.61

$$$$
100429
  -INDIGO-08031719362D

 76 75  0  0  0  0  0  0  0  0999 V2000
   -0.0001   -0.0001    0.0000 N   0  0  0  0  0  0  0  0  0  0  0  0
    0.7999    1.3857    0.0000 C   0  0  0  0  0  0  0  0  0  0  0  0
    0.5913    2.9720    0.0000 H   0  0  0  0  0  0  0  0  0  0  0  0
   -0.4694    2.3595    0.0000 H   0  0  0  0  0  0  0  0  0  0  0  0
    2.3756    1.6634    0.0000 C   0  0  0  0  0  0  0  0  0  0  0  0
    2.8568    0.1376    0.0000 H   0  0  0  0  0  0  0  0  0  0  0  0
    3.7948    0.9248    0.0000 H   0  0  0  0  0  0  0  0  0  0  0  0
    2.9230    3.1670    0.0000 C   0  0  0  0  0  0  0  0  0  0  0  0
    2.4417    4.6928    0.0000 H   0  0  0  0  0  0  0  0  0  0  0  0
    1.5037    3.9059    0.0000 H   0  0  0  0  0  0  0  0  0  0  0  0
    4.4987    3.4448    0.0000 C   0  0  0  0  0  0  0  0  0  0  0  0
    4.9796    1.9190    0.0000 H   0  0  0  0  0  0  0  0  0  0  0  0
    5.9179    2.7062    0.0000 H   0  0  0  0  0  0  0  0  0  0  0  0
    5.0457    4.9483    0.0000 C   0  0  0  0  0  0  0  0  0  0  0  0
    4.5648    6.4742    0.0000 H   0  0  0  0  0  0  0  0  0  0  0  0
    3.6268    5.6873    0.0000 H   0  0  0  0  0  0  0  0  0  0  0  0
    6.6214    5.2261    0.0000 C   0  0  0  0  0  0  0  0  0  0  0  0
    7.1027    3.7003    0.0000 H   0  0  0  0  0  0  0  0  0  0  0  0
    8.0406    4.4875    0.0000 H   0  0  0  0  0  0  0  0  0  0  0  0
    7.1688    6.7297    0.0000 C   0  0  0  0  0  0  0  0  0  0  0  0
    6.6875    8.2555    0.0000 H   0  0  0  0  0  0  0  0  0  0  0  0
    5.7495    7.4686    0.0000 H   0  0  0  0  0  0  0  0  0  0  0  0
    8.7445    7.0074    0.0000 C   0  0  0  0  0  0  0  0  0  0  0  0
   10.3202    7.2855    0.0000 H   0  0  0  0  0  0  0  0  0  0  0  0
    9.2919    8.5110    0.0000 H   0  0  0  0  0  0  0  0  0  0  0  0
    9.7728    5.7819    0.0000 H   0  0  0  0  0  0  0  0  0  0  0  0
    0.7999   -1.3856    0.0000 C   0  0  0  0  0  0  0  0  0  0  0  0
    2.2781   -1.9981    0.0000 H   0  0  0  0  0  0  0  0  0  0  0  0
    2.2781   -0.7735    0.0000 H   0  0  0  0  0  0  0  0  0  0  0  0
    0.2528   -2.8892    0.0000 C   0  0  0  0  0  0  0  0  0  0  0  0
   -1.3092   -2.5429    0.0000 H   0  0  0  0  0  0  0  0  0  0  0  0
   -1.0965   -3.7488    0.0000 H   0  0  0  0  0  0  0  0  0  0  0  0
    1.2812   -4.1147    0.0000 C   0  0  0  0  0  0  0  0  0  0  0  0
    2.8432   -4.4610    0.0000 H   0  0  0  0  0  0  0  0  0  0  0  0
    2.6305   -3.2551    0.0000 H   0  0  0  0  0  0  0  0  0  0  0  0
    0.7341   -5.6183    0.0000 C   0  0  0  0  0  0  0  0  0  0  0  0
   -0.8279   -5.2720    0.0000 H   0  0  0  0  0  0  0  0  0  0  0  0
   -0.6153   -6.4780    0.0000 H   0  0  0  0  0  0  0  0  0  0  0  0
    1.7624   -6.8439    0.0000 C   0  0  0  0  0  0  0  0  0  0  0  0
    3.3245   -7.1902    0.0000 H   0  0  0  0  0  0  0  0  0  0  0  0
    3.1118   -5.9843    0.0000 H   0  0  0  0  0  0  0  0  0  0  0  0
    1.2154   -8.3475    0.0000 C   0  0  0  0  0  0  0  0  0  0  0  0
   -0.3467   -8.0012    0.0000 H   0  0  0  0  0  0  0  0  0  0  0  0
   -0.1343   -9.2071    0.0000 H   0  0  0  0  0  0  0  0  0  0  0  0
    2.2437   -9.5733    0.0000 C   0  0  0  0  0  0  0  0  0  0  0  0
    3.8057   -9.9196    0.0000 H   0  0  0  0  0  0  0  0  0  0  0  0
    3.5931   -8.7134    0.0000 H   0  0  0  0  0  0  0  0  0  0  0  0
    1.6963  -11.0766    0.0000 C   0  0  0  0  0  0  0  0  0  0  0  0
    1.1493  -12.5802    0.0000 H   0  0  0  0  0  0  0  0  0  0  0  0
    2.7249  -12.3025    0.0000 H   0  0  0  0  0  0  0  0  0  0  0  0
    0.1206  -11.3547    0.0000 H   0  0  0  0  0  0  0  0  0  0  0  0
   -1.5999   -0.0001    0.0000 C   0  0  0  0  0  0  0  0  0  0  0  0
   -2.8692   -0.9740    0.0000 H   0  0  0  0  0  0  0  0  0  0  0  0
   -1.8089   -1.5864    0.0000 H   0  0  0  0  0  0  0  0  0  0  0  0
   -2.6286    1.2257    0.0000 C   0  0  0  0  0  0  0  0  0  0  0  0
   -1.5475    2.4052    0.0000 H   0  0  0  0  0  0  0  0  0  0  0  0
   -2.6981    2.8243    0.0000 H   0  0  0  0  0  0  0  0  0  0  0  0
   -4.2043    0.9480    0.0000 C   0  0  0  0  0  0  0  0  0  0  0  0
   -5.2851   -0.2318    0.0000 H   0  0  0  0  0  0  0  0  0  0  0  0
   -4.1344   -0.6506    0.0000 H   0  0  0  0  0  0  0  0  0  0  0  0
   -5.2326    2.1735    0.0000 C   0  0  0  0  0  0  0  0  0  0  0  0
   -4.1518    3.3530    0.0000 H   0  0  0  0  0  0  0  0  0  0  0  0
   -5.3025    3.7721    0.0000 H   0  0  0  0  0  0  0  0  0  0  0  0
   -6.8083    1.8958    0.0000 C   0  0  0  0  0  0  0  0  0  0  0  0
   -7.8894    0.7159    0.0000 H   0  0  0  0  0  0  0  0  0  0  0  0
   -6.7384    0.2972    0.0000 H   0  0  0  0  0  0  0  0  0  0  0  0
   -7.8369    3.1213    0.0000 C   0  0  0  0  0  0  0  0  0  0  0  0
   -6.7558    4.3008    0.0000 H   0  0  0  0  0  0  0  0  0  0  0  0
   -7.9065    4.7198    0.0000 H   0  0  0  0  0  0  0  0  0  0  0  0
   -9.4126    2.8436    0.0000 C   0  0  0  0  0  0  0  0  0  0  0  0
  -10.4934    1.6637    0.0000 H   0  0  0  0  0  0  0  0  0  0  0  0
   -9.3427    1.2450    0.0000 H   0  0  0  0  0  0  0  0  0  0  0  0
  -10.4409    4.0691    0.0000 C   0  0  0  0  0  0  0  0  0  0  0  0
  -11.4692    5.2950    0.0000 H   0  0  0  0  0  0  0  0  0  0  0  0
  -12.0166    3.7914    0.0000 H   0  0  0  0  0  0  0  0  0  0  0  0
   -9.8935    5.5727    0.0000 H   0  0  0  0  0  0  0  0  0  0  0  0
  1  2  1  0  0  0  0
  2  3  1  0  0  0  0
  2  4  1  0  0  0  0
  2  5  1  0  0  0  0
  5  6  1  0  0  0  0
  5  7  1  0  0  0  0
  5  8  1  0  0  0  0
  8  9  1  0  0  0  0
  8 10  1  0  0  0  0
  8 11  1  0  0  0  0
 11 12  1  0  0  0  0
 11 13  1  0  0  0  0
 11 14  1  0  0  0  0
 14 15  1  0  0  0  0
 14 16  1  0  0  0  0
 14 17  1  0  0  0  0
 17 18  1  0  0  0  0
 17 19  1  0  0  0  0
 17 20  1  0  0  0  0
 20 21  1  0  0  0  0
 20 22  1  0  0  0  0
 20 23  1  0  0  0  0
 23 24  1  0  0  0  0
 23 25  1  0  0  0  0
 23 26  1  0  0  0  0
  1 27  1  0  0  0  0
 27 28  1  0  0  0  0
 27 29  1  0  0  0  0
 27 30  1  0  0  0  0
 30 31  1  0  0  0  0
 30 32  1  0  0  0  0
 30 33  1  0  0  0  0
 33 34  1  0  0  0  0
 33 35  1  0  0  0  0
 33 36  1  0  0  0  0
 36 37  1  0  0  0  0
 36 38  1  0  0  0  0
 36 39  1  0  0  0  0
 39 40  1  0  0  0  0
 39 41  1  0  0  0  0
 39 42  1  0  0  0  0
 42 43  1  0  0  0  0
 42 44  1  0  0  0  0
 42 45  1  0  0  0  0
 45 46  1  0  0  0  0
 45 47  1  0  0  0  0
 45 48  1  0  0  0  0
 48 49  1  0  0  0  0
 48 50  1  0  0  0  0
 48 51  1  0  0  0  0
  1 52  1  0  0  0  0
 52 53  1  0  0  0  0
 52 54  1  0  0  0  0
 52 55  1  0  0  0  0
 55 56  1  0  0  0  0
 55 57  1  0  0  0  0
 55 58  1  0  0  0  0
 58 59  1  0  0  0  0
 58 60  1  0  0  0  0
 58 61  1  0  0  0  0
 61 62  1  0  0  0  0
 61 63  1  0  0  0  0
 61 64  1  0  0  0  0
 64 65  1  0  0  0  0
 64 66  1  0  0  0  0
 64 67  1  0  0  0  0
 67 68  1  0  0  0  0
 67 69  1  0  0  0  0
 67 70  1  0  0  0  0
 70 71  1  0  0  0  0
 70 72  1  0  0  0  0
 70 73  1  0  0  0  0
 73 74  1  0  0  0  0
 73 75  1  0  0  0  0
 73 76  1  0  0  0  0
M  END
> <ChemID>
100429

> <source_casrn>
1116-76-3

> <CAS>
1116-76-3

> <SMILES>
CCCCCCCCN(CCCCCCCC)CCCCCCCC

> <NAME>
TRI(N-OCTYL)AMINE

> <preferred_name>
Trioctylamine

> <iupac>
N,N-dioctyloctan-1-amine

> <MPID>
98358

> <dsstox_substance_id>
DTXSID3047635

> <Canonical_QSARr>
CCCCCCCCN(CCCCCCCC)CCCCCCCC

> <InChI_Code_QSARr>
InChI=1S/C24H51N/c1-4-7-10-13-16-19-22-25(23-20-17-14-11-8-5-2)24-21-18-15-12-9-6-3/h4-24H2,1-3H3

> <InChI Key_QSARr>
XTAZYLNFDRKIHJ-UHFFFAOYSA-N

> <Salt_Solvent>
?

> <LogBCF>
1.93

$$$$
100430
  -INDIGO-08031719362D

 24 25  0  0  0  0  0  0  0  0999 V2000
   -0.0001   -0.0000    0.0000 C   0  0  0  0  0  0  0  0  0  0  0  0
    1.3856    0.8000    0.0000 C   0  0  0  0  0  0  0  0  0  0  0  0
    1.3856    2.4000    0.0000 H   0  0  0  0  0  0  0  0  0  0  0  0
    2.7714   -0.0000    0.0000 C   0  0  0  0  0  0  0  0  0  0  0  0
    4.1569    0.8000    0.0000 H   0  0  0  0  0  0  0  0  0  0  0  0
    2.7714   -1.6000    0.0000 C   0  0  0  0  0  0  0  0  0  0  0  0
    4.1569   -2.4000    0.0000 C   0  0  0  0  0  0  0  0  0  0  0  0
    4.1569   -4.0000    0.0000 O   0  0  0  0  0  0  0  0  0  0  0  0
    5.5427   -1.6000    0.0000 O   0  0  0  0  0  0  0  0  0  0  0  0
    6.9282   -2.4000    0.0000 H   0  0  0  0  0  0  0  0  0  0  0  0
    1.3856   -2.4000    0.0000 C   0  0  0  0  0  0  0  0  0  0  0  0
    1.3856   -4.0000    0.0000 H   0  0  0  0  0  0  0  0  0  0  0  0
    0.0001   -1.6000    0.0000 C   0  0  0  0  0  0  0  0  0  0  0  0
   -1.3856   -2.4000    0.0000 C   0  0  0  0  0  0  0  0  0  0  0  0
   -1.3856   -4.0000    0.0000 H   0  0  0  0  0  0  0  0  0  0  0  0
   -2.7714   -1.6000    0.0000 C   0  0  0  0  0  0  0  0  0  0  0  0
   -4.1569   -2.4000    0.0000 H   0  0  0  0  0  0  0  0  0  0  0  0
   -2.7714   -0.0000    0.0000 C   0  0  0  0  0  0  0  0  0  0  0  0
   -4.1569    0.8000    0.0000 C   0  0  0  0  0  0  0  0  0  0  0  0
   -4.1569    2.4000    0.0000 O   0  0  0  0  0  0  0  0  0  0  0  0
   -5.5427   -0.0000    0.0000 O   0  0  0  0  0  0  0  0  0  0  0  0
   -6.9282    0.8000    0.0000 H   0  0  0  0  0  0  0  0  0  0  0  0
   -1.3856    0.8000    0.0000 C   0  0  0  0  0  0  0  0  0  0  0  0
   -1.3856    2.4000    0.0000 H   0  0  0  0  0  0  0  0  0  0  0  0
  1  2  1  0  0  0  0
  2  3  1  0  0  0  0
  2  4  2  0  0  0  0
  4  5  1  0  0  0  0
  4  6  1  0  0  0  0
  6  7  1  0  0  0  0
  7  8  2  0  0  0  0
  7  9  1  0  0  0  0
  9 10  1  0  0  0  0
  6 11  2  0  0  0  0
 11 12  1  0  0  0  0
 11 13  1  0  0  0  0
 13  1  1  0  0  0  0
 13 14  2  0  0  0  0
 14 15  1  0  0  0  0
 14 16  1  0  0  0  0
 16 17  1  0  0  0  0
 16 18  2  0  0  0  0
 18 19  1  0  0  0  0
 19 20  2  0  0  0  0
 19 21  1  0  0  0  0
 21 22  1  0  0  0  0
 18 23  1  0  0  0  0
 23  1  2  0  0  0  0
 23 24  1  0  0  0  0
M  END
> <ChemID>
100430

> <source_casrn>
1141-38-4

> <CAS>
1141-38-4

> <SMILES>
OC(=O)c1cc2ccc(cc2cc1)C(O)=O

> <NAME>
2,6-Naphthalenedicarboxylic acid

> <preferred_name>
2,6-Naphthalenedicarboxylic acid

> <iupac>
naphthalene-2,6-dicarboxylic acid

> <MPID>
98359

> <dsstox_substance_id>
DTXSID5029211

> <Canonical_QSARr>
OC(=O)c1cc2ccc(cc2cc1)C(O)=O

> <InChI_Code_QSARr>
InChI=1S/C12H8O4/c13-11(14)9-3-1-7-5-10(12(15)16)4-2-8(7)6-9/h1-6H,(H,13,14)(H,15,16)

> <InChI Key_QSARr>
RXOHFPCZGPKIRD-UHFFFAOYSA-N

> <Salt_Solvent>
?

> <LogBCF>
0.81

$$$$
100433
  -INDIGO-08031719362D

 52 53  0  0  0  0  0  0  0  0999 V2000
   -3.9969   -1.0285    0.0000 O   0  0  0  0  0  0  0  0  0  0  0  0
   -4.2747    0.5472    0.0000 P   0  0  0  0  0  0  0  0  0  0  0  0
   -3.0491    1.5757    0.0000 O   0  0  0  0  0  0  0  0  0  0  0  0
   -3.3269    3.1514    0.0000 C   0  0  0  0  0  0  0  0  0  0  0  0
   -2.1013    4.1799    0.0000 C   0  0  0  0  0  0  0  0  0  0  0  0
   -0.5977    3.6327    0.0000 H   0  0  0  0  0  0  0  0  0  0  0  0
   -2.3791    5.7555    0.0000 C   0  0  0  0  0  0  0  0  0  0  0  0
   -1.1535    6.7840    0.0000 H   0  0  0  0  0  0  0  0  0  0  0  0
   -3.8826    6.3027    0.0000 C   0  0  0  0  0  0  0  0  0  0  0  0
   -4.1604    7.8785    0.0000 H   0  0  0  0  0  0  0  0  0  0  0  0
   -5.1082    5.2742    0.0000 C   0  0  0  0  0  0  0  0  0  0  0  0
   -6.6118    5.8215    0.0000 H   0  0  0  0  0  0  0  0  0  0  0  0
   -4.8304    3.6987    0.0000 C   0  0  0  0  0  0  0  0  0  0  0  0
   -6.0563    2.6702    0.0000 H   0  0  0  0  0  0  0  0  0  0  0  0
   -5.5005   -0.4813    0.0000 O   0  0  0  0  0  0  0  0  0  0  0  0
   -7.1005   -0.4813    0.0000 C   0  0  0  0  0  0  0  0  0  0  0  0
   -7.9003    0.9044    0.0000 C   0  0  0  0  0  0  0  0  0  0  0  0
   -7.1005    2.2900    0.0000 H   0  0  0  0  0  0  0  0  0  0  0  0
   -9.5003    0.9044    0.0000 C   0  0  0  0  0  0  0  0  0  0  0  0
  -10.3005    2.2900    0.0000 H   0  0  0  0  0  0  0  0  0  0  0  0
  -10.3005   -0.4813    0.0000 C   0  0  0  0  0  0  0  0  0  0  0  0
  -11.9005   -0.4813    0.0000 H   0  0  0  0  0  0  0  0  0  0  0  0
   -9.5003   -1.8669    0.0000 C   0  0  0  0  0  0  0  0  0  0  0  0
  -10.3005   -3.2524    0.0000 H   0  0  0  0  0  0  0  0  0  0  0  0
   -7.9003   -1.8669    0.0000 C   0  0  0  0  0  0  0  0  0  0  0  0
   -7.1005   -3.2524    0.0000 H   0  0  0  0  0  0  0  0  0  0  0  0
   -2.7714   -0.0001    0.0000 O   0  0  0  0  0  0  0  0  0  0  0  0
   -1.3855    0.8000    0.0000 C   0  0  0  0  0  0  0  0  0  0  0  0
   -1.9980    2.2782    0.0000 H   0  0  0  0  0  0  0  0  0  0  0  0
   -0.7733    2.2782    0.0000 H   0  0  0  0  0  0  0  0  0  0  0  0
    0.0001   -0.0001    0.0000 C   0  0  0  0  0  0  0  0  0  0  0  0
    0.5472    1.5035    0.0000 H   0  0  0  0  0  0  0  0  0  0  0  0
   -0.5474   -1.5035    0.0000 C   0  0  0  0  0  0  0  0  0  0  0  0
   -1.8967   -2.3632    0.0000 H   0  0  0  0  0  0  0  0  0  0  0  0
   -2.1094   -1.1572    0.0000 H   0  0  0  0  0  0  0  0  0  0  0  0
    0.2528   -2.8891    0.0000 C   0  0  0  0  0  0  0  0  0  0  0  0
    1.0529   -4.2748    0.0000 H   0  0  0  0  0  0  0  0  0  0  0  0
   -0.5474   -4.2748    0.0000 H   0  0  0  0  0  0  0  0  0  0  0  0
    1.8528   -2.8891    0.0000 H   0  0  0  0  0  0  0  0  0  0  0  0
    1.5036   -0.5473    0.0000 C   0  0  0  0  0  0  0  0  0  0  0  0
    2.3631   -1.8966    0.0000 H   0  0  0  0  0  0  0  0  0  0  0  0
    1.1571   -2.1093    0.0000 H   0  0  0  0  0  0  0  0  0  0  0  0
    2.7292    0.4812    0.0000 C   0  0  0  0  0  0  0  0  0  0  0  0
    1.8695    1.8307    0.0000 H   0  0  0  0  0  0  0  0  0  0  0  0
    3.0754    2.0434    0.0000 H   0  0  0  0  0  0  0  0  0  0  0  0
    4.2328   -0.0661    0.0000 C   0  0  0  0  0  0  0  0  0  0  0  0
    5.0925   -1.4154    0.0000 H   0  0  0  0  0  0  0  0  0  0  0  0
    3.8865   -1.6281    0.0000 H   0  0  0  0  0  0  0  0  0  0  0  0
    5.4583    0.9624    0.0000 C   0  0  0  0  0  0  0  0  0  0  0  0
    6.6841    1.9909    0.0000 H   0  0  0  0  0  0  0  0  0  0  0  0
    6.9619    0.4152    0.0000 H   0  0  0  0  0  0  0  0  0  0  0  0
    5.1805    2.5382    0.0000 H   0  0  0  0  0  0  0  0  0  0  0  0
  1  2  2  0  0  0  0
  2  3  1  0  0  0  0
  3  4  1  0  0  0  0
  4  5  1  0  0  0  0
  5  6  1  0  0  0  0
  5  7  2  0  0  0  0
  7  8  1  0  0  0  0
  7  9  1  0  0  0  0
  9 10  1  0  0  0  0
  9 11  2  0  0  0  0
 11 12  1  0  0  0  0
 11 13  1  0  0  0  0
 13  4  2  0  0  0  0
 13 14  1  0  0  0  0
  2 15  1  0  0  0  0
 15 16  1  0  0  0  0
 16 17  1  0  0  0  0
 17 18  1  0  0  0  0
 17 19  2  0  0  0  0
 19 20  1  0  0  0  0
 19 21  1  0  0  0  0
 21 22  1  0  0  0  0
 21 23  2  0  0  0  0
 23 24  1  0  0  0  0
 23 25  1  0  0  0  0
 25 16  2  0  0  0  0
 25 26  1  0  0  0  0
  2 27  1  0  0  0  0
 27 28  1  0  0  0  0
 28 29  1  0  0  0  0
 28 30  1  0  0  0  0
 28 31  1  0  0  0  0
 31 32  1  0  0  0  0
 31 33  1  0  0  0  0
 33 34  1  0  0  0  0
 33 35  1  0  0  0  0
 33 36  1  0  0  0  0
 36 37  1  0  0  0  0
 36 38  1  0  0  0  0
 36 39  1  0  0  0  0
 31 40  1  0  0  0  0
 40 41  1  0  0  0  0
 40 42  1  0  0  0  0
 40 43  1  0  0  0  0
 43 44  1  0  0  0  0
 43 45  1  0  0  0  0
 43 46  1  0  0  0  0
 46 47  1  0  0  0  0
 46 48  1  0  0  0  0
 46 49  1  0  0  0  0
 49 50  1  0  0  0  0
 49 51  1  0  0  0  0
 49 52  1  0  0  0  0
M  END
> <ChemID>
100433

> <source_casrn>
1241-94-7

> <CAS>
1241-94-7

> <SMILES>
CCC(COP(=O)(Oc1ccccc1)Oc1ccccc1)CCCC

> <NAME>
2-ETHYLHEXYL DIPHENYL PHOSPHATE

> <preferred_name>
2-Ethylhexyl diphenyl phosphate

> <iupac>
2-ethylhexyl diphenyl phosphate

> <MPID>
98361

> <dsstox_substance_id>
DTXSID1025300

> <Canonical_QSARr>
CCC(COP(=O)(Oc1ccccc1)Oc1ccccc1)CCCC

> <InChI_Code_QSARr>
InChI=1S/C20H27O4P/c1-3-5-12-18(4-2)17-22-25(21,23-19-13-8-6-9-14-19)24-20-15-10-7-11-16-20/h6-11,13-16,18H,3-5,12,17H2,1-2H3

> <InChI Key_QSARr>
CGSLYBDCEGBZCG-UHFFFAOYSA-N

> <Salt_Solvent>
?

> <LogBCF>
2.49

$$$$
100437
  -INDIGO-08031719362D

 48 48  0  0  0  0  0  0  0  0999 V2000
    0.0000    0.0000    0.0000 C   0  0  0  0  0  0  0  0  0  0  0  0
    1.3856   -0.8001    0.0000 C   0  0  0  0  0  0  0  0  0  0  0  0
    2.7714    0.0000    0.0000 C   0  0  0  0  0  0  0  0  0  0  0  0
    2.7714    1.5999    0.0000 H   0  0  0  0  0  0  0  0  0  0  0  0
    4.1570   -0.8001    0.0000 C   0  0  0  0  0  0  0  0  0  0  0  0
    5.5425    0.0000    0.0000 C   0  0  0  0  0  0  0  0  0  0  0  0
    6.9281    0.8000    0.0000 C   0  0  0  0  0  0  0  0  0  0  0  0
    8.3139    1.5999    0.0000 H   0  0  0  0  0  0  0  0  0  0  0  0
    8.4317    0.2527    0.0000 H   0  0  0  0  0  0  0  0  0  0  0  0
    7.2061    2.3757    0.0000 H   0  0  0  0  0  0  0  0  0  0  0  0
    4.7426    1.3856    0.0000 C   0  0  0  0  0  0  0  0  0  0  0  0
    3.7140    2.6113    0.0000 H   0  0  0  0  0  0  0  0  0  0  0  0
    5.2898    2.8891    0.0000 H   0  0  0  0  0  0  0  0  0  0  0  0
    6.3182    1.6634    0.0000 H   0  0  0  0  0  0  0  0  0  0  0  0
    6.3425   -1.3856    0.0000 C   0  0  0  0  0  0  0  0  0  0  0  0
    6.8898   -2.8892    0.0000 H   0  0  0  0  0  0  0  0  0  0  0  0
    7.9183   -1.6634    0.0000 H   0  0  0  0  0  0  0  0  0  0  0  0
    7.3711   -0.1600    0.0000 H   0  0  0  0  0  0  0  0  0  0  0  0
    4.1570   -2.4000    0.0000 C   0  0  0  0  0  0  0  0  0  0  0  0
    5.5425   -3.2000    0.0000 H   0  0  0  0  0  0  0  0  0  0  0  0
    2.7714   -3.2000    0.0000 C   0  0  0  0  0  0  0  0  0  0  0  0
    2.7714   -4.8000    0.0000 C   0  0  0  0  0  0  0  0  0  0  0  0
    2.7714   -6.4001    0.0000 C   0  0  0  0  0  0  0  0  0  0  0  0
    2.7714   -8.0000    0.0000 H   0  0  0  0  0  0  0  0  0  0  0  0
    1.5456   -7.4284    0.0000 H   0  0  0  0  0  0  0  0  0  0  0  0
    3.9970   -7.4284    0.0000 H   0  0  0  0  0  0  0  0  0  0  0  0
    1.1712   -4.8000    0.0000 C   0  0  0  0  0  0  0  0  0  0  0  0
   -0.4044   -4.5222    0.0000 H   0  0  0  0  0  0  0  0  0  0  0  0
    0.1429   -6.0257    0.0000 H   0  0  0  0  0  0  0  0  0  0  0  0
    1.7185   -6.3035    0.0000 H   0  0  0  0  0  0  0  0  0  0  0  0
    4.3713   -4.8000    0.0000 C   0  0  0  0  0  0  0  0  0  0  0  0
    5.9469   -4.5222    0.0000 H   0  0  0  0  0  0  0  0  0  0  0  0
    5.3997   -6.0257    0.0000 H   0  0  0  0  0  0  0  0  0  0  0  0
    3.8241   -6.3035    0.0000 H   0  0  0  0  0  0  0  0  0  0  0  0
    1.3856   -2.4000    0.0000 C   0  0  0  0  0  0  0  0  0  0  0  0
    0.0000   -3.2000    0.0000 H   0  0  0  0  0  0  0  0  0  0  0  0
   -1.3856    0.8000    0.0000 C   0  0  0  0  0  0  0  0  0  0  0  0
   -2.7713    1.5999    0.0000 H   0  0  0  0  0  0  0  0  0  0  0  0
   -2.8891    0.2527    0.0000 H   0  0  0  0  0  0  0  0  0  0  0  0
   -1.6635    2.3757    0.0000 H   0  0  0  0  0  0  0  0  0  0  0  0
    0.8000    1.3856    0.0000 C   0  0  0  0  0  0  0  0  0  0  0  0
    0.2527    2.8891    0.0000 H   0  0  0  0  0  0  0  0  0  0  0  0
    1.8285    2.6113    0.0000 H   0  0  0  0  0  0  0  0  0  0  0  0
   -0.7756    1.6634    0.0000 H   0  0  0  0  0  0  0  0  0  0  0  0
   -0.8000   -1.3856    0.0000 C   0  0  0  0  0  0  0  0  0  0  0  0
   -1.3472   -2.8892    0.0000 H   0  0  0  0  0  0  0  0  0  0  0  0
   -2.3757   -1.6634    0.0000 H   0  0  0  0  0  0  0  0  0  0  0  0
   -1.8285   -0.1600    0.0000 H   0  0  0  0  0  0  0  0  0  0  0  0
  1  2  1  0  0  0  0
  2  3  1  0  0  0  0
  3  4  1  0  0  0  0
  3  5  2  0  0  0  0
  5  6  1  0  0  0  0
  6  7  1  0  0  0  0
  7  8  1  0  0  0  0
  7  9  1  0  0  0  0
  7 10  1  0  0  0  0
  6 11  1  0  0  0  0
 11 12  1  0  0  0  0
 11 13  1  0  0  0  0
 11 14  1  0  0  0  0
  6 15  1  0  0  0  0
 15 16  1  0  0  0  0
 15 17  1  0  0  0  0
 15 18  1  0  0  0  0
  5 19  1  0  0  0  0
 19 20  1  0  0  0  0
 19 21  2  0  0  0  0
 21 22  1  0  0  0  0
 22 23  1  0  0  0  0
 23 24  1  0  0  0  0
 23 25  1  0  0  0  0
 23 26  1  0  0  0  0
 22 27  1  0  0  0  0
 27 28  1  0  0  0  0
 27 29  1  0  0  0  0
 27 30  1  0  0  0  0
 22 31  1  0  0  0  0
 31 32  1  0  0  0  0
 31 33  1  0  0  0  0
 31 34  1  0  0  0  0
 21 35  1  0  0  0  0
 35  2  2  0  0  0  0
 35 36  1  0  0  0  0
  1 37  1  0  0  0  0
 37 38  1  0  0  0  0
 37 39  1  0  0  0  0
 37 40  1  0  0  0  0
  1 41  1  0  0  0  0
 41 42  1  0  0  0  0
 41 43  1  0  0  0  0
 41 44  1  0  0  0  0
  1 45  1  0  0  0  0
 45 46  1  0  0  0  0
 45 47  1  0  0  0  0
 45 48  1  0  0  0  0
M  END
> <ChemID>
100437

> <source_casrn>
1460-02-2

> <CAS>
1460-02-2

> <SMILES>
CC(C)(C)c1cc(cc(c1)C(C)(C)C)C(C)(C)C

> <NAME>
BENZENE, 1,3,5-TRIS(1,1-DIMETHYLETHYL)-

> <preferred_name>
1,3,5-Tri-tert-butylbenzene

> <iupac>
1,3,5-tritert-butylbenzene

> <MPID>
98362

> <dsstox_substance_id>
DTXSID50163255

> <Canonical_QSARr>
CC(C)(C)c1cc(cc(c1)C(C)(C)C)C(C)(C)C

> <InChI_Code_QSARr>
InChI=1S/C18H30/c1-16(2,3)13-10-14(17(4,5)6)12-15(11-13)18(7,8)9/h10-12H,1-9H3

> <InChI Key_QSARr>
GUFMBISUSZUUCB-UHFFFAOYSA-N

> <Salt_Solvent>
?

> <LogBCF>
4.36

$$$$
100438
  -INDIGO-08031719362D

 22 22  0  0  0  0  0  0  0  0999 V2000
   -0.0001   -0.0000    0.0000 C   0  0  0  0  0  0  0  0  0  0  0  0
   -0.0001   -1.6000    0.0000 C   0  0  0  0  0  0  0  0  0  0  0  0
    1.3856   -2.4000    0.0000 H   0  0  0  0  0  0  0  0  0  0  0  0
   -1.3856   -2.4000    0.0000 C   0  0  0  0  0  0  0  0  0  0  0  0
   -1.3856   -4.0000    0.0000 H   0  0  0  0  0  0  0  0  0  0  0  0
   -2.7712   -1.6000    0.0000 C   0  0  0  0  0  0  0  0  0  0  0  0
   -4.1569   -2.4000    0.0000 H   0  0  0  0  0  0  0  0  0  0  0  0
   -2.7712   -0.0000    0.0000 C   0  0  0  0  0  0  0  0  0  0  0  0
   -4.1569    0.8000    0.0000 C   0  0  0  0  0  0  0  0  0  0  0  0
   -3.5446    2.2782    0.0000 H   0  0  0  0  0  0  0  0  0  0  0  0
   -4.7692    2.2782    0.0000 H   0  0  0  0  0  0  0  0  0  0  0  0
   -5.5425   -0.0000    0.0000 N   0  0  0  0  0  0  0  0  0  0  0  0
   -6.9282    0.8000    0.0000 H   0  0  0  0  0  0  0  0  0  0  0  0
   -5.5425   -1.6000    0.0000 H   0  0  0  0  0  0  0  0  0  0  0  0
   -1.3856    0.8000    0.0000 C   0  0  0  0  0  0  0  0  0  0  0  0
   -1.3856    2.4000    0.0000 H   0  0  0  0  0  0  0  0  0  0  0  0
    1.3856    0.8000    0.0000 C   0  0  0  0  0  0  0  0  0  0  0  0
    1.9979    2.2782    0.0000 H   0  0  0  0  0  0  0  0  0  0  0  0
    0.7733    2.2782    0.0000 H   0  0  0  0  0  0  0  0  0  0  0  0
    2.7713   -0.0000    0.0000 N   0  0  0  0  0  0  0  0  0  0  0  0
    4.1569    0.8000    0.0000 H   0  0  0  0  0  0  0  0  0  0  0  0
    2.7713   -1.6000    0.0000 H   0  0  0  0  0  0  0  0  0  0  0  0
  1  2  1  0  0  0  0
  2  3  1  0  0  0  0
  2  4  2  0  0  0  0
  4  5  1  0  0  0  0
  4  6  1  0  0  0  0
  6  7  1  0  0  0  0
  6  8  2  0  0  0  0
  8  9  1  0  0  0  0
  9 10  1  0  0  0  0
  9 11  1  0  0  0  0
  9 12  1  0  0  0  0
 12 13  1  0  0  0  0
 12 14  1  0  0  0  0
  8 15  1  0  0  0  0
 15  1  2  0  0  0  0
 15 16  1  0  0  0  0
  1 17  1  0  0  0  0
 17 18  1  0  0  0  0
 17 19  1  0  0  0  0
 17 20  1  0  0  0  0
 20 21  1  0  0  0  0
 20 22  1  0  0  0  0
M  END
> <ChemID>
100438

> <source_casrn>
1477-55-0

> <CAS>
1477-55-0

> <SMILES>
NCc1cc(CN)ccc1

> <NAME>
1,3-Benzenedimethanamine

> <preferred_name>
1,3-Benzenedimethanamine

> <iupac>
benzene-1,3-diyldimethanamine

> <MPID>
98363

> <dsstox_substance_id>
DTXSID9029649

> <Canonical_QSARr>
NCc1cc(CN)ccc1

> <InChI_Code_QSARr>
InChI=1S/C8H12N2/c9-5-7-2-1-3-8(4-7)6-10/h1-4H,5-6,9-10H2

> <InChI Key_QSARr>
FDLQZKYLHJJBHD-UHFFFAOYSA-N

> <Salt_Solvent>
?

> <LogBCF>
0.43

$$$$
100440
  -INDIGO-08031719362D

 31 32  0  0  0  0  0  0  0  0999 V2000
   -0.8000    1.3856    0.0000 C   0  0  0  0  0  0  0  0  0  0  0  0
    0.0000   -0.0000    0.0000 C   0  0  0  0  0  0  0  0  0  0  0  0
    1.2257   -1.0285    0.0000 H   0  0  0  0  0  0  0  0  0  0  0  0
    1.5758    0.2778    0.0000 C   0  0  0  0  0  0  0  0  0  0  0  0
    2.6041   -0.9478    0.0000 C   0  0  0  0  0  0  0  0  0  0  0  0
    2.0569   -2.4513    0.0000 H   0  0  0  0  0  0  0  0  0  0  0  0
    4.1798   -0.6700    0.0000 C   0  0  0  0  0  0  0  0  0  0  0  0
    4.1798   -2.2700    0.0000 H   0  0  0  0  0  0  0  0  0  0  0  0
    5.7556   -0.9478    0.0000 H   0  0  0  0  0  0  0  0  0  0  0  0
    4.7271    0.8335    0.0000 C   0  0  0  0  0  0  0  0  0  0  0  0
    6.1127    0.0335    0.0000 H   0  0  0  0  0  0  0  0  0  0  0  0
    5.7556    2.0592    0.0000 H   0  0  0  0  0  0  0  0  0  0  0  0
    3.6985    2.0592    0.0000 C   0  0  0  0  0  0  0  0  0  0  0  0
    5.0842    2.8592    0.0000 H   0  0  0  0  0  0  0  0  0  0  0  0
    3.1513    3.5627    0.0000 H   0  0  0  0  0  0  0  0  0  0  0  0
    2.1230    1.7813    0.0000 C   0  0  0  0  0  0  0  0  0  0  0  0
    2.1230    3.3813    0.0000 H   0  0  0  0  0  0  0  0  0  0  0  0
    0.5472    2.0592    0.0000 H   0  0  0  0  0  0  0  0  0  0  0  0
   -0.8000   -1.3857    0.0000 C   0  0  0  0  0  0  0  0  0  0  0  0
    0.7035   -1.9329    0.0000 H   0  0  0  0  0  0  0  0  0  0  0  0
   -1.0779   -2.9613    0.0000 H   0  0  0  0  0  0  0  0  0  0  0  0
   -2.4000   -1.3857    0.0000 C   0  0  0  0  0  0  0  0  0  0  0  0
   -2.1221   -2.9613    0.0000 H   0  0  0  0  0  0  0  0  0  0  0  0
   -3.9035   -1.9329    0.0000 H   0  0  0  0  0  0  0  0  0  0  0  0
   -3.2000   -0.0000    0.0000 C   0  0  0  0  0  0  0  0  0  0  0  0
   -4.4257   -1.0285    0.0000 H   0  0  0  0  0  0  0  0  0  0  0  0
   -4.4257    1.0284    0.0000 H   0  0  0  0  0  0  0  0  0  0  0  0
   -2.4000    1.3856    0.0000 C   0  0  0  0  0  0  0  0  0  0  0  0
   -3.9035    1.9329    0.0000 H   0  0  0  0  0  0  0  0  0  0  0  0
   -2.1221    2.9613    0.0000 H   0  0  0  0  0  0  0  0  0  0  0  0
   -0.2528    2.8891    0.0000 O   0  0  0  0  0  0  0  0  0  0  0  0
  1  2  1  0  0  0  0
  2  3  1  0  0  0  0
  2  4  1  0  0  0  0
  4  5  2  0  0  0  0
  5  6  1  0  0  0  0
  5  7  1  0  0  0  0
  7  8  1  0  0  0  0
  7  9  1  0  0  0  0
  7 10  1  0  0  0  0
 10 11  1  0  0  0  0
 10 12  1  0  0  0  0
 10 13  1  0  0  0  0
 13 14  1  0  0  0  0
 13 15  1  0  0  0  0
 13 16  1  0  0  0  0
 16  4  1  0  0  0  0
 16 17  1  0  0  0  0
 16 18  1  0  0  0  0
  2 19  1  0  0  0  0
 19 20  1  0  0  0  0
 19 21  1  0  0  0  0
 19 22  1  0  0  0  0
 22 23  1  0  0  0  0
 22 24  1  0  0  0  0
 22 25  1  0  0  0  0
 25 26  1  0  0  0  0
 25 27  1  0  0  0  0
 25 28  1  0  0  0  0
 28  1  1  0  0  0  0
 28 29  1  0  0  0  0
 28 30  1  0  0  0  0
  1 31  2  0  0  0  0
M  END
> <ChemID>
100440

> <source_casrn>
1502-22-3

> <CAS>
NOCAS_870879

> <SMILES>
O=C(C(C(=CCCC1)C1)CCC2)C2

> <NAME>
CYCLOHEXANONE, 2-(1-CYCLOHEXEN-1-YL)-

> <preferred_name>


> <iupac>


> <MPID>
98365

> <dsstox_substance_id>
DTXSID30870879

> <Canonical_QSARr>
O=C1CCCCC1C1CCCCC=1

> <InChI_Code_QSARr>
InChI=1S/C12H18O/c13-12-9-5-4-8-11(12)10-6-2-1-3-7-10/h6,11H,1-5,7-9H2

> <InChI Key_QSARr>
GVNVAWHJIKLAGL-UHFFFAOYSA-N

> <Salt_Solvent>
?

> <LogBCF>
0.7

$$$$
100441
  -INDIGO-08031719362D

 45 46  0  0  0  0  0  0  0  0999 V2000
    6.2503    1.2940    0.0000 F   0  0  0  0  0  0  0  0  0  0  0  0
    7.3312    0.1143    0.0000 C   0  0  0  0  0  0  0  0  0  0  0  0
    7.4010    1.7128    0.0000 F   0  0  0  0  0  0  0  0  0  0  0  0
    6.3029   -1.1114    0.0000 O   0  0  0  0  0  0  0  0  0  0  0  0
    4.7272   -0.8335    0.0000 C   0  0  0  0  0  0  0  0  0  0  0  0
    3.6986   -2.0592    0.0000 C   0  0  0  0  0  0  0  0  0  0  0  0
    4.2457   -3.5627    0.0000 H   0  0  0  0  0  0  0  0  0  0  0  0
    2.1229   -1.7814    0.0000 C   0  0  0  0  0  0  0  0  0  0  0  0
    1.8450   -3.3571    0.0000 H   0  0  0  0  0  0  0  0  0  0  0  0
    1.5758   -0.2778    0.0000 C   0  0  0  0  0  0  0  0  0  0  0  0
    0.0000    0.0000    0.0000 C   0  0  0  0  0  0  0  0  0  0  0  0
   -1.5999    0.0000    0.0000 C   0  0  0  0  0  0  0  0  0  0  0  0
   -2.4000    1.3857    0.0000 C   0  0  0  0  0  0  0  0  0  0  0  0
   -1.5999    2.7713    0.0000 H   0  0  0  0  0  0  0  0  0  0  0  0
   -3.9999    1.3857    0.0000 C   0  0  0  0  0  0  0  0  0  0  0  0
   -4.8001    2.7713    0.0000 H   0  0  0  0  0  0  0  0  0  0  0  0
   -4.8001    0.0000    0.0000 C   0  0  0  0  0  0  0  0  0  0  0  0
   -6.4000    0.0000    0.0000 O   0  0  0  0  0  0  0  0  0  0  0  0
   -7.2001    1.3857    0.0000 C   0  0  0  0  0  0  0  0  0  0  0  0
   -6.9911    2.9720    0.0000 F   0  0  0  0  0  0  0  0  0  0  0  0
   -5.9306    2.3596    0.0000 F   0  0  0  0  0  0  0  0  0  0  0  0
   -8.8001    1.3857    0.0000 C   0  0  0  0  0  0  0  0  0  0  0  0
  -10.4000    1.3857    0.0000 H   0  0  0  0  0  0  0  0  0  0  0  0
   -9.5999    2.7713    0.0000 F   0  0  0  0  0  0  0  0  0  0  0  0
   -9.5999    0.0000    0.0000 F   0  0  0  0  0  0  0  0  0  0  0  0
   -3.9999   -1.3856    0.0000 C   0  0  0  0  0  0  0  0  0  0  0  0
   -4.8001   -2.7713    0.0000 H   0  0  0  0  0  0  0  0  0  0  0  0
   -2.4000   -1.3856    0.0000 C   0  0  0  0  0  0  0  0  0  0  0  0
   -1.5999   -2.7713    0.0000 H   0  0  0  0  0  0  0  0  0  0  0  0
   -0.2778    1.5757    0.0000 C   0  0  0  0  0  0  0  0  0  0  0  0
   -0.5557    3.1514    0.0000 H   0  0  0  0  0  0  0  0  0  0  0  0
    0.9477    2.6042    0.0000 H   0  0  0  0  0  0  0  0  0  0  0  0
    1.2256    1.0284    0.0000 H   0  0  0  0  0  0  0  0  0  0  0  0
    0.0000   -1.6000    0.0000 C   0  0  0  0  0  0  0  0  0  0  0  0
    0.0000   -3.2000    0.0000 H   0  0  0  0  0  0  0  0  0  0  0  0
    1.3855   -2.4000    0.0000 H   0  0  0  0  0  0  0  0  0  0  0  0
   -1.5037   -1.0528    0.0000 H   0  0  0  0  0  0  0  0  0  0  0  0
    2.6040    0.9479    0.0000 C   0  0  0  0  0  0  0  0  0  0  0  0
    2.0569    2.4513    0.0000 H   0  0  0  0  0  0  0  0  0  0  0  0
    4.1798    0.6700    0.0000 C   0  0  0  0  0  0  0  0  0  0  0  0
    5.2083    1.8957    0.0000 H   0  0  0  0  0  0  0  0  0  0  0  0
    8.9069   -0.1635    0.0000 C   0  0  0  0  0  0  0  0  0  0  0  0
   10.4826   -0.4413    0.0000 H   0  0  0  0  0  0  0  0  0  0  0  0
    9.9355    1.0621    0.0000 F   0  0  0  0  0  0  0  0  0  0  0  0
    9.4540   -1.6671    0.0000 F   0  0  0  0  0  0  0  0  0  0  0  0
  1  2  1  0  0  0  0
  2  3  1  0  0  0  0
  2  4  1  0  0  0  0
  4  5  1  0  0  0  0
  5  6  1  0  0  0  0
  6  7  1  0  0  0  0
  6  8  2  0  0  0  0
  8  9  1  0  0  0  0
  8 10  1  0  0  0  0
 10 11  1  0  0  0  0
 11 12  1  0  0  0  0
 12 13  1  0  0  0  0
 13 14  1  0  0  0  0
 13 15  2  0  0  0  0
 15 16  1  0  0  0  0
 15 17  1  0  0  0  0
 17 18  1  0  0  0  0
 18 19  1  0  0  0  0
 19 20  1  0  0  0  0
 19 21  1  0  0  0  0
 19 22  1  0  0  0  0
 22 23  1  0  0  0  0
 22 24  1  0  0  0  0
 22 25  1  0  0  0  0
 17 26  2  0  0  0  0
 26 27  1  0  0  0  0
 26 28  1  0  0  0  0
 28 12  2  0  0  0  0
 28 29  1  0  0  0  0
 11 30  1  0  0  0  0
 30 31  1  0  0  0  0
 30 32  1  0  0  0  0
 30 33  1  0  0  0  0
 11 34  1  0  0  0  0
 34 35  1  0  0  0  0
 34 36  1  0  0  0  0
 34 37  1  0  0  0  0
 10 38  2  0  0  0  0
 38 39  1  0  0  0  0
 38 40  1  0  0  0  0
 40  5  2  0  0  0  0
 40 41  1  0  0  0  0
  2 42  1  0  0  0  0
 42 43  1  0  0  0  0
 42 44  1  0  0  0  0
 42 45  1  0  0  0  0
M  END
> <ChemID>
100441

> <source_casrn>
1544-19-0

> <CAS>
1544-19-0

> <SMILES>
FC(F)C(F)(F)Oc1ccc(C(C)(C)c2ccc(OC(F)(F)C(F)F)cc2)cc1

> <NAME>
1,1'-Isopropylidenebis(4-(1,1,2,2-tetrafluoroeth

> <preferred_name>
1,1'-Isopropylidenebis(4-(1,1,2,2-tetrafluoroethoxy)benzene)

> <iupac>
1-(1,1,2,2-tetrafluoroethoxy)-4-[2-[4-(1,1,2,2-tetrafluoroethoxy)phenyl]propan-2-yl]benzene

> <MPID>
98366

> <dsstox_substance_id>
DTXSID20165620

> <Canonical_QSARr>
CC(C)(c1ccc(cc1)OC(F)(F)C(F)F)c1ccc(cc1)OC(F)(F)C(F)F

> <InChI_Code_QSARr>
InChI=1S/C19H16F8O2/c1-17(2,11-3-7-13(8-4-11)28-18(24,25)15(20)21)12-5-9-14(10-6-12)29-19(26,27)16(22)23/h3-10,15-16H,1-2H3

> <InChI Key_QSARr>
NILNWNGNABYYHH-UHFFFAOYSA-N

> <Salt_Solvent>
?

> <LogBCF>
4.35

$$$$
100442
  -INDIGO-08031719362D

 16 16  0  0  0  0  0  0  0  0999 V2000
    0.0000   -0.0000    0.0000 C   0  0  0  0  0  0  0  0  0  0  0  0
    0.0000   -1.6000    0.0000 C   0  0  0  0  0  0  0  0  0  0  0  0
    1.3856   -2.4000    0.0000 O   0  0  0  0  0  0  0  0  0  0  0  0
    1.3856   -4.0000    0.0000 H   0  0  0  0  0  0  0  0  0  0  0  0
   -1.3856   -2.4000    0.0000 C   0  0  0  0  0  0  0  0  0  0  0  0
   -1.3856   -4.0000    0.0000 H   0  0  0  0  0  0  0  0  0  0  0  0
   -2.7713   -1.6000    0.0000 C   0  0  0  0  0  0  0  0  0  0  0  0
   -4.1569   -2.4000    0.0000 H   0  0  0  0  0  0  0  0  0  0  0  0
   -2.7713   -0.0000    0.0000 C   0  0  0  0  0  0  0  0  0  0  0  0
   -4.1569    0.8000    0.0000 Cl  0  0  0  0  0  0  0  0  0  0  0  0
   -1.3856    0.8000    0.0000 C   0  0  0  0  0  0  0  0  0  0  0  0
   -1.3856    2.4000    0.0000 H   0  0  0  0  0  0  0  0  0  0  0  0
    1.3856    0.8000    0.0000 C   0  0  0  0  0  0  0  0  0  0  0  0
    2.7713    1.6000    0.0000 H   0  0  0  0  0  0  0  0  0  0  0  0
    1.3856    2.4000    0.0000 H   0  0  0  0  0  0  0  0  0  0  0  0
    2.7713   -0.0000    0.0000 H   0  0  0  0  0  0  0  0  0  0  0  0
  1  2  1  0  0  0  0
  2  3  1  0  0  0  0
  3  4  1  0  0  0  0
  2  5  2  0  0  0  0
  5  6  1  0  0  0  0
  5  7  1  0  0  0  0
  7  8  1  0  0  0  0
  7  9  2  0  0  0  0
  9 10  1  0  0  0  0
  9 11  1  0  0  0  0
 11  1  2  0  0  0  0
 11 12  1  0  0  0  0
  1 13  1  0  0  0  0
 13 14  1  0  0  0  0
 13 15  1  0  0  0  0
 13 16  1  0  0  0  0
M  END
> <ChemID>
100442

> <source_casrn>
1570-64-5

> <CAS>
1570-64-5

> <SMILES>
Cc1cc(Cl)ccc1O

> <NAME>
2-METHYL-4-CHLOROPHENOL

> <preferred_name>
4-Chloro-2-methylphenol

> <iupac>
4-chloro-2-methylphenol

> <MPID>
98367

> <dsstox_substance_id>
DTXSID5022510

> <Canonical_QSARr>
Cc1cc(Cl)ccc1O

> <InChI_Code_QSARr>
InChI=1S/C7H7ClO/c1-5-4-6(8)2-3-7(5)9/h2-4,9H,1H3

> <InChI Key_QSARr>
RHPUJHQBPORFGV-UHFFFAOYSA-N

> <Salt_Solvent>
?

> <LogBCF>
1.33

$$$$
100444
  -INDIGO-08031719362D

 29 28  0  0  0  0  0  0  0  0999 V2000
    0.0001    0.0001    0.0000 P   0  0  0  0  0  0  0  0  0  0  0  0
    0.7999   -1.3856    0.0000 O   0  0  0  0  0  0  0  0  0  0  0  0
    1.5999    0.0001    0.0000 O   0  0  0  0  0  0  0  0  0  0  0  0
    2.3999   -1.3856    0.0000 C   0  0  0  0  0  0  0  0  0  0  0  0
    1.1306   -2.3597    0.0000 H   0  0  0  0  0  0  0  0  0  0  0  0
    2.1911   -2.9719    0.0000 H   0  0  0  0  0  0  0  0  0  0  0  0
    4.0000   -1.3856    0.0000 C   0  0  0  0  0  0  0  0  0  0  0  0
    4.8000    0.0001    0.0000 H   0  0  0  0  0  0  0  0  0  0  0  0
    4.8000   -2.7713    0.0000 C   0  0  0  0  0  0  0  0  0  0  0  0
    6.4000   -2.7713    0.0000 H   0  0  0  0  0  0  0  0  0  0  0  0
    4.0000   -4.1569    0.0000 H   0  0  0  0  0  0  0  0  0  0  0  0
    0.7999    1.3857    0.0000 O   0  0  0  0  0  0  0  0  0  0  0  0
    0.0001    2.7712    0.0000 C   0  0  0  0  0  0  0  0  0  0  0  0
   -1.4782    3.3835    0.0000 H   0  0  0  0  0  0  0  0  0  0  0  0
   -1.4782    2.1591    0.0000 H   0  0  0  0  0  0  0  0  0  0  0  0
    0.7999    4.1569    0.0000 C   0  0  0  0  0  0  0  0  0  0  0  0
    2.3999    4.1569    0.0000 H   0  0  0  0  0  0  0  0  0  0  0  0
    0.0001    5.5425    0.0000 C   0  0  0  0  0  0  0  0  0  0  0  0
    0.7999    6.9282    0.0000 H   0  0  0  0  0  0  0  0  0  0  0  0
   -1.5999    5.5425    0.0000 H   0  0  0  0  0  0  0  0  0  0  0  0
   -1.5999    0.0001    0.0000 O   0  0  0  0  0  0  0  0  0  0  0  0
   -2.3999   -1.3856    0.0000 C   0  0  0  0  0  0  0  0  0  0  0  0
   -2.1911   -2.9719    0.0000 H   0  0  0  0  0  0  0  0  0  0  0  0
   -1.1306   -2.3597    0.0000 H   0  0  0  0  0  0  0  0  0  0  0  0
   -4.0000   -1.3856    0.0000 C   0  0  0  0  0  0  0  0  0  0  0  0
   -4.8000    0.0001    0.0000 H   0  0  0  0  0  0  0  0  0  0  0  0
   -4.8000   -2.7713    0.0000 C   0  0  0  0  0  0  0  0  0  0  0  0
   -6.4000   -2.7713    0.0000 H   0  0  0  0  0  0  0  0  0  0  0  0
   -4.0000   -4.1569    0.0000 H   0  0  0  0  0  0  0  0  0  0  0  0
  1  2  2  0  0  0  0
  1  3  1  0  0  0  0
  3  4  1  0  0  0  0
  4  5  1  0  0  0  0
  4  6  1  0  0  0  0
  4  7  1  0  0  0  0
  7  8  1  0  0  0  0
  7  9  2  0  0  0  0
  9 10  1  0  0  0  0
  9 11  1  0  0  0  0
  1 12  1  0  0  0  0
 12 13  1  0  0  0  0
 13 14  1  0  0  0  0
 13 15  1  0  0  0  0
 13 16  1  0  0  0  0
 16 17  1  0  0  0  0
 16 18  2  0  0  0  0
 18 19  1  0  0  0  0
 18 20  1  0  0  0  0
  1 21  1  0  0  0  0
 21 22  1  0  0  0  0
 22 23  1  0  0  0  0
 22 24  1  0  0  0  0
 22 25  1  0  0  0  0
 25 26  1  0  0  0  0
 25 27  2  0  0  0  0
 27 28  1  0  0  0  0
 27 29  1  0  0  0  0
M  END
> <ChemID>
100444

> <source_casrn>
1623-19-4

> <CAS>
1623-19-4

> <SMILES>
O=P(OCC=C)(OCC=C)OCC=C

> <NAME>
TRIALLYLPHOSPHATE

> <preferred_name>
Triallyl phosphate

> <iupac>
triprop-2-enyl phosphate

> <MPID>
98369

> <dsstox_substance_id>
DTXSID5061827

> <Canonical_QSARr>
C=CCOP(=O)(OCC=C)OCC=C

> <InChI_Code_QSARr>
InChI=1S/C9H15O4P/c1-4-7-11-14(10,12-8-5-2)13-9-6-3/h4-6H,1-3,7-9H2

> <InChI Key_QSARr>
XHGIFBQQEGRTPB-UHFFFAOYSA-N

> <Salt_Solvent>
?

> <LogBCF>
0.08

$$$$
100445
  -INDIGO-08031719362D

 19 19  0  0  0  0  0  0  0  0999 V2000
    0.0000   -0.0000    0.0000 C   0  0  0  0  0  0  0  0  0  0  0  0
    1.0706    1.1891    0.0000 H   0  0  0  0  0  0  0  0  0  0  0  0
    1.5380   -0.4411    0.0000 N   0  0  0  0  0  0  0  0  0  0  0  0
    2.6890    0.6704    0.0000 C   0  0  0  0  0  0  0  0  0  0  0  0
    3.8399    1.7818    0.0000 H   0  0  0  0  0  0  0  0  0  0  0  0
    4.2270    0.2294    0.0000 H   0  0  0  0  0  0  0  0  0  0  0  0
    2.3019    2.2229    0.0000 H   0  0  0  0  0  0  0  0  0  0  0  0
    1.9251   -1.9935    0.0000 C   0  0  0  0  0  0  0  0  0  0  0  0
    2.3122   -3.5460    0.0000 H   0  0  0  0  0  0  0  0  0  0  0  0
    3.4631   -2.4345    0.0000 H   0  0  0  0  0  0  0  0  0  0  0  0
    3.0760   -0.8821    0.0000 H   0  0  0  0  0  0  0  0  0  0  0  0
   -1.0706    1.1891    0.0000 C   0  0  0  0  0  0  0  0  0  0  0  0
    0.2238    2.1295    0.0000 H   0  0  0  0  0  0  0  0  0  0  0  0
   -1.8706    2.5747    0.0000 H   0  0  0  0  0  0  0  0  0  0  0  0
   -2.5323    0.5383    0.0000 S   0  0  0  0  0  0  0  0  0  0  0  0
   -2.3650   -1.0530    0.0000 S   0  0  0  0  0  0  0  0  0  0  0  0
   -0.8001   -1.3856    0.0000 C   0  0  0  0  0  0  0  0  0  0  0  0
   -1.2944   -2.9073    0.0000 H   0  0  0  0  0  0  0  0  0  0  0  0
    0.6616   -2.0364    0.0000 H   0  0  0  0  0  0  0  0  0  0  0  0
  1  2  1  0  0  0  0
  1  3  1  0  0  0  0
  3  4  1  0  0  0  0
  4  5  1  0  0  0  0
  4  6  1  0  0  0  0
  4  7  1  0  0  0  0
  3  8  1  0  0  0  0
  8  9  1  0  0  0  0
  8 10  1  0  0  0  0
  8 11  1  0  0  0  0
  1 12  1  0  0  0  0
 12 13  1  0  0  0  0
 12 14  1  0  0  0  0
 12 15  1  0  0  0  0
 15 16  1  0  0  0  0
 16 17  1  0  0  0  0
 17  1  1  0  0  0  0
 17 18  1  0  0  0  0
 17 19  1  0  0  0  0
M  END
> <ChemID>
100445

> <source_casrn>
1631-58-9

> <CAS>
1631-58-9

> <SMILES>
CN(C)C1CSSC1

> <NAME>
Nereistoxin

> <preferred_name>
N,N-Dimethyl-1,2-dithiolan-4-amine

> <iupac>
N,N-dimethyldithiolan-4-amine

> <MPID>
98370

> <dsstox_substance_id>
DTXSID0075104

> <Canonical_QSARr>
CN(C)C1CSSC1

> <InChI_Code_QSARr>
InChI=1S/C5H11NS2/c1-6(2)5-3-7-8-4-5/h5H,3-4H2,1-2H3

> <InChI Key_QSARr>
DSOOGBGKEWZRIH-UHFFFAOYSA-N

> <Salt_Solvent>
?

> <LogBCF>
1.72

$$$$
100446
  -INDIGO-08031719362D

 18 17  0  0  0  0  0  0  0  0999 V2000
    1.3856   -0.8000    0.0000 C   0  0  0  0  0  0  0  0  0  0  0  0
    2.7713   -1.6000    0.0000 H   0  0  0  0  0  0  0  0  0  0  0  0
    2.7713    0.0000    0.0000 H   0  0  0  0  0  0  0  0  0  0  0  0
    1.3856   -2.4000    0.0000 H   0  0  0  0  0  0  0  0  0  0  0  0
    0.0001    0.0000    0.0000 C   0  0  0  0  0  0  0  0  0  0  0  0
    0.8000    1.3856    0.0000 O   0  0  0  0  0  0  0  0  0  0  0  0
    2.4000    1.3856    0.0000 C   0  0  0  0  0  0  0  0  0  0  0  0
    3.2000    2.7713    0.0000 H   0  0  0  0  0  0  0  0  0  0  0  0
    4.0000    1.3856    0.0000 H   0  0  0  0  0  0  0  0  0  0  0  0
    1.6000    2.7713    0.0000 H   0  0  0  0  0  0  0  0  0  0  0  0
   -1.3856    0.8000    0.0000 C   0  0  0  0  0  0  0  0  0  0  0  0
   -2.7713    1.6000    0.0000 H   0  0  0  0  0  0  0  0  0  0  0  0
   -1.3856    2.4000    0.0000 H   0  0  0  0  0  0  0  0  0  0  0  0
   -2.7713    0.0000    0.0000 H   0  0  0  0  0  0  0  0  0  0  0  0
   -0.8000   -1.3856    0.0000 C   0  0  0  0  0  0  0  0  0  0  0  0
   -1.6000   -2.7713    0.0000 H   0  0  0  0  0  0  0  0  0  0  0  0
   -0.0001   -2.7713    0.0000 H   0  0  0  0  0  0  0  0  0  0  0  0
   -2.4000   -1.3856    0.0000 H   0  0  0  0  0  0  0  0  0  0  0  0
  1  2  1  0  0  0  0
  1  3  1  0  0  0  0
  1  4  1  0  0  0  0
  1  5  1  0  0  0  0
  5  6  1  0  0  0  0
  6  7  1  0  0  0  0
  7  8  1  0  0  0  0
  7  9  1  0  0  0  0
  7 10  1  0  0  0  0
  5 11  1  0  0  0  0
 11 12  1  0  0  0  0
 11 13  1  0  0  0  0
 11 14  1  0  0  0  0
  5 15  1  0  0  0  0
 15 16  1  0  0  0  0
 15 17  1  0  0  0  0
 15 18  1  0  0  0  0
M  END
> <ChemID>
100446

> <source_casrn>
1634-04-4

> <CAS>
1634-04-4

> <SMILES>
COC(C)(C)C

> <NAME>
METHYL T-BUTYL ETHER

> <preferred_name>
Methyl tert-butyl ether

> <iupac>
tert-butyl methyl ether

> <MPID>
98371

> <dsstox_substance_id>
DTXSID3020833

> <Canonical_QSARr>
COC(C)(C)C

> <InChI_Code_QSARr>
InChI=1S/C5H12O/c1-5(2,3)6-4/h1-4H3

> <InChI Key_QSARr>
BZLVMXJERCGZMT-UHFFFAOYSA-N

> <Salt_Solvent>
?

> <LogBCF>
0.18

$$$$
100448
  -INDIGO-08031719362D

 24 24  0  0  0  0  0  0  0  0999 V2000
    0.0000    0.0000    0.0000 C   0  0  0  0  0  0  0  0  0  0  0  0
    0.2778    1.5757    0.0000 H   0  0  0  0  0  0  0  0  0  0  0  0
    1.6000    0.0000    0.0000 C   0  0  0  0  0  0  0  0  0  0  0  0
    1.3222    1.5757    0.0000 H   0  0  0  0  0  0  0  0  0  0  0  0
    2.8256    1.0285    0.0000 C   0  0  0  0  0  0  0  0  0  0  0  0
    4.3292    0.4812    0.0000 O   0  0  0  0  0  0  0  0  0  0  0  0
    2.5479    2.6041    0.0000 O   0  0  0  0  0  0  0  0  0  0  0  0
    3.7735    3.6326    0.0000 H   0  0  0  0  0  0  0  0  0  0  0  0
    2.4000   -1.3856    0.0000 C   0  0  0  0  0  0  0  0  0  0  0  0
    3.6257   -0.3572    0.0000 H   0  0  0  0  0  0  0  0  0  0  0  0
    3.6257   -2.4141    0.0000 H   0  0  0  0  0  0  0  0  0  0  0  0
    1.6000   -2.7713    0.0000 C   0  0  0  0  0  0  0  0  0  0  0  0
    3.1035   -3.3185    0.0000 H   0  0  0  0  0  0  0  0  0  0  0  0
    1.3222   -4.3470    0.0000 H   0  0  0  0  0  0  0  0  0  0  0  0
    0.0000   -2.7713    0.0000 C   0  0  0  0  0  0  0  0  0  0  0  0
    0.2778   -4.3470    0.0000 H   0  0  0  0  0  0  0  0  0  0  0  0
   -1.5035   -3.3185    0.0000 H   0  0  0  0  0  0  0  0  0  0  0  0
   -0.8000   -1.3856    0.0000 C   0  0  0  0  0  0  0  0  0  0  0  0
   -2.0257   -2.4141    0.0000 H   0  0  0  0  0  0  0  0  0  0  0  0
   -2.0257   -0.3572    0.0000 H   0  0  0  0  0  0  0  0  0  0  0  0
   -1.2256    1.0285    0.0000 C   0  0  0  0  0  0  0  0  0  0  0  0
   -2.7292    0.4812    0.0000 O   0  0  0  0  0  0  0  0  0  0  0  0
   -0.9479    2.6041    0.0000 O   0  0  0  0  0  0  0  0  0  0  0  0
   -2.1735    3.6326    0.0000 H   0  0  0  0  0  0  0  0  0  0  0  0
  1  2  1  0  0  0  0
  1  3  1  0  0  0  0
  3  4  1  0  0  0  0
  3  5  1  0  0  0  0
  5  6  2  0  0  0  0
  5  7  1  0  0  0  0
  7  8  1  0  0  0  0
  3  9  1  0  0  0  0
  9 10  1  0  0  0  0
  9 11  1  0  0  0  0
  9 12  1  0  0  0  0
 12 13  1  0  0  0  0
 12 14  1  0  0  0  0
 12 15  1  0  0  0  0
 15 16  1  0  0  0  0
 15 17  1  0  0  0  0
 15 18  1  0  0  0  0
 18  1  1  0  0  0  0
 18 19  1  0  0  0  0
 18 20  1  0  0  0  0
  1 21  1  0  0  0  0
 21 22  2  0  0  0  0
 21 23  1  0  0  0  0
 23 24  1  0  0  0  0
M  END
> <ChemID>
100448

> <source_casrn>
1687-30-5

> <CAS>
1687-30-5

> <SMILES>
O=C(O)C(C(C(=O)O)CCC1)C1

> <NAME>
1,2-Cyclohexanedicarboxylic acid

> <preferred_name>


> <iupac>


> <MPID>
98373

> <dsstox_substance_id>
DTXSID60875751

> <Canonical_QSARr>
OC(=O)C1CCCCC1C(O)=O

> <InChI_Code_QSARr>
InChI=1S/C8H12O4/c9-7(10)5-3-1-2-4-6(5)8(11)12/h5-6H,1-4H2,(H,9,10)(H,11,12)

> <InChI Key_QSARr>
QSAWQNUELGIYBC-UHFFFAOYSA-N

> <Salt_Solvent>
?

> <LogBCF>
0.3

$$$$
100449
  -INDIGO-08031719362D

 19 19  0  0  0  0  0  0  0  0999 V2000
   -4.8000   -0.0000    0.0000 Cl  0  0  0  0  0  0  0  0  0  0  0  0
   -3.2001   -0.0000    0.0000 C   0  0  0  0  0  0  0  0  0  0  0  0
   -2.4000    1.3856    0.0000 C   0  0  0  0  0  0  0  0  0  0  0  0
   -3.2001    2.7713    0.0000 H   0  0  0  0  0  0  0  0  0  0  0  0
   -0.8000    1.3856    0.0000 C   0  0  0  0  0  0  0  0  0  0  0  0
   -0.0000    2.7713    0.0000 H   0  0  0  0  0  0  0  0  0  0  0  0
   -0.0000    0.0000    0.0000 C   0  0  0  0  0  0  0  0  0  0  0  0
    1.6000   -0.0000    0.0000 C   0  0  0  0  0  0  0  0  0  0  0  0
    2.4001    1.3856    0.0000 C   0  0  0  0  0  0  0  0  0  0  0  0
    3.2000    2.7713    0.0000 H   0  0  0  0  0  0  0  0  0  0  0  0
    4.0000    1.3856    0.0000 H   0  0  0  0  0  0  0  0  0  0  0  0
    1.6000    2.7713    0.0000 H   0  0  0  0  0  0  0  0  0  0  0  0
    2.4001   -1.3856    0.0000 C   0  0  0  0  0  0  0  0  0  0  0  0
    4.0000   -1.3856    0.0000 H   0  0  0  0  0  0  0  0  0  0  0  0
    1.6000   -2.7713    0.0000 H   0  0  0  0  0  0  0  0  0  0  0  0
   -0.8000   -1.3856    0.0000 C   0  0  0  0  0  0  0  0  0  0  0  0
   -0.0000   -2.7713    0.0000 H   0  0  0  0  0  0  0  0  0  0  0  0
   -2.4000   -1.3856    0.0000 C   0  0  0  0  0  0  0  0  0  0  0  0
   -3.2001   -2.7713    0.0000 H   0  0  0  0  0  0  0  0  0  0  0  0
  1  2  1  0  0  0  0
  2  3  1  0  0  0  0
  3  4  1  0  0  0  0
  3  5  2  0  0  0  0
  5  6  1  0  0  0  0
  5  7  1  0  0  0  0
  7  8  1  0  0  0  0
  8  9  1  0  0  0  0
  9 10  1  0  0  0  0
  9 11  1  0  0  0  0
  9 12  1  0  0  0  0
  8 13  2  0  0  0  0
 13 14  1  0  0  0  0
 13 15  1  0  0  0  0
  7 16  2  0  0  0  0
 16 17  1  0  0  0  0
 16 18  1  0  0  0  0
 18  2  2  0  0  0  0
 18 19  1  0  0  0  0
M  END
> <ChemID>
100449

> <source_casrn>
1712-70-5

> <CAS>
1712-70-5

> <SMILES>
CC(=C)c1ccc(Cl)cc1

> <NAME>
4-Isopropenyl-chlorobenzene

> <preferred_name>
4-Chloro-alpha-methylstyrene

> <iupac>
1-chloro-4-prop-1-en-2-ylbenzene

> <MPID>
98374

> <dsstox_substance_id>
DTXSID40169024

> <Canonical_QSARr>
CC(=C)c1ccc(Cl)cc1

> <InChI_Code_QSARr>
InChI=1S/C9H9Cl/c1-7(2)8-3-5-9(10)6-4-8/h3-6H,1H2,2H3

> <InChI Key_QSARr>
WQDGTJOEMPEHHL-UHFFFAOYSA-N

> <Salt_Solvent>
?

> <LogBCF>
2.84

$$$$
100450
  -INDIGO-08031719362D

 50 52  0  0  0  0  0  0  0  0999 V2000
   -0.0000    0.0000    0.0000 C   0  0  0  0  0  0  0  0  0  0  0  0
    1.5999    0.0000    0.0000 C   0  0  0  0  0  0  0  0  0  0  0  0
    2.4000    1.3856    0.0000 C   0  0  0  0  0  0  0  0  0  0  0  0
    4.0000    1.3856    0.0000 C   0  0  0  0  0  0  0  0  0  0  0  0
    4.8001    2.7713    0.0000 H   0  0  0  0  0  0  0  0  0  0  0  0
    4.8001    0.0000    0.0000 C   0  0  0  0  0  0  0  0  0  0  0  0
    4.0000   -1.3856    0.0000 C   0  0  0  0  0  0  0  0  0  0  0  0
    4.8001   -2.7713    0.0000 H   0  0  0  0  0  0  0  0  0  0  0  0
    2.4000   -1.3856    0.0000 C   0  0  0  0  0  0  0  0  0  0  0  0
    1.5999   -2.7713    0.0000 H   0  0  0  0  0  0  0  0  0  0  0  0
    6.4001    0.0000    0.0000 C   0  0  0  0  0  0  0  0  0  0  0  0
    6.4001    1.6000    0.0000 H   0  0  0  0  0  0  0  0  0  0  0  0
    8.0000    0.0000    0.0000 C   0  0  0  0  0  0  0  0  0  0  0  0
    9.6000    0.0000    0.0000 H   0  0  0  0  0  0  0  0  0  0  0  0
    8.7999   -1.3856    0.0000 H   0  0  0  0  0  0  0  0  0  0  0  0
    8.7999    1.3856    0.0000 H   0  0  0  0  0  0  0  0  0  0  0  0
    6.4001   -1.6001    0.0000 C   0  0  0  0  0  0  0  0  0  0  0  0
    6.4001   -3.2000    0.0000 H   0  0  0  0  0  0  0  0  0  0  0  0
    7.7857   -2.4000    0.0000 H   0  0  0  0  0  0  0  0  0  0  0  0
    7.7857   -0.7999    0.0000 H   0  0  0  0  0  0  0  0  0  0  0  0
    1.5999    2.7713    0.0000 C   0  0  0  0  0  0  0  0  0  0  0  0
    3.1035    3.3186    0.0000 H   0  0  0  0  0  0  0  0  0  0  0  0
    1.3222    4.3470    0.0000 H   0  0  0  0  0  0  0  0  0  0  0  0
   -0.0000    2.7713    0.0000 C   0  0  0  0  0  0  0  0  0  0  0  0
    0.2779    4.3470    0.0000 H   0  0  0  0  0  0  0  0  0  0  0  0
   -0.4592    3.3186    0.0000 H   0  0  0  0  0  0  0  0  0  0  0  0
   -0.7999    1.3856    0.0000 C   0  0  0  0  0  0  0  0  0  0  0  0
   -1.6000    2.7713    0.0000 H   0  0  0  0  0  0  0  0  0  0  0  0
   -2.3999    1.3856    0.0000 C   0  0  0  0  0  0  0  0  0  0  0  0
   -2.1221    2.9613    0.0000 C   0  0  0  0  0  0  0  0  0  0  0  0
   -1.5036    3.3186    0.0000 O   0  0  0  0  0  0  0  0  0  0  0  0
   -3.3479    3.9897    0.0000 O   0  0  0  0  0  0  0  0  0  0  0  0
   -3.0699    5.5655    0.0000 H   0  0  0  0  0  0  0  0  0  0  0  0
   -3.9035    1.9329    0.0000 C   0  0  0  0  0  0  0  0  0  0  0  0
   -5.4070    2.4801    0.0000 H   0  0  0  0  0  0  0  0  0  0  0  0
   -4.1814    3.5085    0.0000 H   0  0  0  0  0  0  0  0  0  0  0  0
   -5.1292    0.9045    0.0000 H   0  0  0  0  0  0  0  0  0  0  0  0
   -3.2000    0.0000    0.0000 C   0  0  0  0  0  0  0  0  0  0  0  0
   -4.4258    1.0285    0.0000 H   0  0  0  0  0  0  0  0  0  0  0  0
   -4.4256   -1.0285    0.0000 H   0  0  0  0  0  0  0  0  0  0  0  0
   -2.3999   -1.3856    0.0000 C   0  0  0  0  0  0  0  0  0  0  0  0
   -3.9035   -1.9328    0.0000 H   0  0  0  0  0  0  0  0  0  0  0  0
   -2.1221   -2.9614    0.0000 H   0  0  0  0  0  0  0  0  0  0  0  0
   -0.7999   -1.3856    0.0000 C   0  0  0  0  0  0  0  0  0  0  0  0
   -1.0779   -2.9614    0.0000 H   0  0  0  0  0  0  0  0  0  0  0  0
   -0.1358   -1.9938    0.0000 H   0  0  0  0  0  0  0  0  0  0  0  0
    0.4115   -0.4903    0.0000 C   0  0  0  0  0  0  0  0  0  0  0  0
    0.5901   -1.3728    0.0000 H   0  0  0  0  0  0  0  0  0  0  0  0
   -1.1642   -0.7681    0.0000 H   0  0  0  0  0  0  0  0  0  0  0  0
    1.4399   -1.7159    0.0000 H   0  0  0  0  0  0  0  0  0  0  0  0
  1  2  1  0  0  0  0
  2  3  1  0  0  0  0
  3  4  2  0  0  0  0
  4  5  1  0  0  0  0
  4  6  1  0  0  0  0
  6  7  2  0  0  0  0
  7  8  1  0  0  0  0
  7  9  1  0  0  0  0
  9  2  2  0  0  0  0
  9 10  1  0  0  0  0
  6 11  1  0  0  0  0
 11 12  1  0  0  0  0
 11 13  1  0  0  0  0
 13 14  1  0  0  0  0
 13 15  1  0  0  0  0
 13 16  1  0  0  0  0
 11 17  1  0  0  0  0
 17 18  1  0  0  0  0
 17 19  1  0  0  0  0
 17 20  1  0  0  0  0
  3 21  1  0  0  0  0
 21 22  1  0  0  0  0
 21 23  1  0  0  0  0
 21 24  1  0  0  0  0
 24 25  1  0  0  0  0
 24 26  1  0  0  0  0
 24 27  1  0  0  0  0
 27  1  1  0  0  0  0
 27 28  1  0  0  0  0
 27 29  1  0  0  0  0
 29 30  1  0  0  0  0
 30 31  2  0  0  0  0
 30 32  1  0  0  0  0
 32 33  1  0  0  0  0
 29 34  1  0  0  0  0
 34 35  1  0  0  0  0
 34 36  1  0  0  0  0
 34 37  1  0  0  0  0
 29 38  1  0  0  0  0
 38 39  1  0  0  0  0
 38 40  1  0  0  0  0
 38 41  1  0  0  0  0
 41 42  1  0  0  0  0
 41 43  1  0  0  0  0
 41 44  1  0  0  0  0
 44  1  1  0  0  0  0
 44 45  1  0  0  0  0
 44 46  1  0  0  0  0
  1 47  1  0  0  0  0
 47 48  1  0  0  0  0
 47 49  1  0  0  0  0
 47 50  1  0  0  0  0
M  END
> <ChemID>
100450

> <source_casrn>
1740-19-8

> <CAS>
1740-19-8

> <SMILES>
CC(C)c1ccc2c(CC[C@H]3[C@@](C)(CCC[C@]23C)C(O)=O)c1

> <NAME>
Dehydroabietic acid

> <preferred_name>
Dehydroabietic acid

> <iupac>
C20H28O2

> <MPID>
98375

> <dsstox_substance_id>
DTXSID8022163

> <Canonical_QSARr>
CC(C)c1ccc2c(CCC3C(C)(CCCC23C)C(O)=O)c1

> <InChI_Code_QSARr>
InChI=1S/C20H28O2/c1-13(2)14-6-8-16-15(12-14)7-9-17-19(16,3)10-5-11-20(17,4)18(21)22/h6,8,12-13,17H,5,7,9-11H2,1-4H3,(H,21,22)

> <InChI Key_QSARr>
NFWKVWVWBFBAOV-UHFFFAOYSA-N

> <Salt_Solvent>
?

> <LogBCF>
2.12

$$$$
100452
  -INDIGO-08031719362D

 25 25  0  0  0  0  0  0  0  0999 V2000
   -2.3999   -1.3856    0.0000 C   0  0  0  0  0  0  0  0  0  0  0  0
   -1.5999   -2.7713    0.0000 O   0  0  0  0  0  0  0  0  0  0  0  0
   -3.9999   -1.3856    0.0000 N   0  0  0  0  0  0  0  0  0  0  0  0
   -4.8000    0.0000    0.0000 O   0  0  0  0  0  0  0  0  0  0  0  0
   -6.4000    0.0000    0.0000 C   0  0  0  0  0  0  0  0  0  0  0  0
   -8.0000    0.0000    0.0000 H   0  0  0  0  0  0  0  0  0  0  0  0
   -7.2000    1.3856    0.0000 H   0  0  0  0  0  0  0  0  0  0  0  0
   -5.6000    1.3856    0.0000 H   0  0  0  0  0  0  0  0  0  0  0  0
   -4.8000   -2.7713    0.0000 C   0  0  0  0  0  0  0  0  0  0  0  0
   -5.6000   -4.1569    0.0000 H   0  0  0  0  0  0  0  0  0  0  0  0
   -6.4000   -2.7713    0.0000 H   0  0  0  0  0  0  0  0  0  0  0  0
   -3.9999   -4.1569    0.0000 H   0  0  0  0  0  0  0  0  0  0  0  0
   -1.5999    0.0000    0.0000 N   0  0  0  0  0  0  0  0  0  0  0  0
   -2.3999    1.3856    0.0000 H   0  0  0  0  0  0  0  0  0  0  0  0
   -0.0001    0.0000    0.0000 C   0  0  0  0  0  0  0  0  0  0  0  0
    0.7999    1.3856    0.0000 C   0  0  0  0  0  0  0  0  0  0  0  0
   -0.0001    2.7713    0.0000 H   0  0  0  0  0  0  0  0  0  0  0  0
    2.4000    1.3856    0.0000 C   0  0  0  0  0  0  0  0  0  0  0  0
    3.2000    2.7713    0.0000 H   0  0  0  0  0  0  0  0  0  0  0  0
    3.2000    0.0000    0.0000 C   0  0  0  0  0  0  0  0  0  0  0  0
    4.8000    0.0000    0.0000 Cl  0  0  0  0  0  0  0  0  0  0  0  0
    2.4000   -1.3856    0.0000 C   0  0  0  0  0  0  0  0  0  0  0  0
    3.2000   -2.7713    0.0000 H   0  0  0  0  0  0  0  0  0  0  0  0
    0.7999   -1.3856    0.0000 C   0  0  0  0  0  0  0  0  0  0  0  0
   -0.0001   -2.7713    0.0000 H   0  0  0  0  0  0  0  0  0  0  0  0
  1  2  2  0  0  0  0
  1  3  1  0  0  0  0
  3  4  1  0  0  0  0
  4  5  1  0  0  0  0
  5  6  1  0  0  0  0
  5  7  1  0  0  0  0
  5  8  1  0  0  0  0
  3  9  1  0  0  0  0
  9 10  1  0  0  0  0
  9 11  1  0  0  0  0
  9 12  1  0  0  0  0
  1 13  1  0  0  0  0
 13 14  1  0  0  0  0
 13 15  1  0  0  0  0
 15 16  1  0  0  0  0
 16 17  1  0  0  0  0
 16 18  2  0  0  0  0
 18 19  1  0  0  0  0
 18 20  1  0  0  0  0
 20 21  1  0  0  0  0
 20 22  2  0  0  0  0
 22 23  1  0  0  0  0
 22 24  1  0  0  0  0
 24 15  2  0  0  0  0
 24 25  1  0  0  0  0
M  END
> <ChemID>
100452

> <source_casrn>
1746-81-2

> <CAS>
1746-81-2

> <SMILES>
CN(OC)C(=O)Nc1ccc(Cl)cc1

> <NAME>
MONOLINURON

> <preferred_name>
Monolinuron

> <iupac>
3-(4-chlorophenyl)-1-methoxy-1-methylurea

> <MPID>
98377

> <dsstox_substance_id>
DTXSID0037576

> <Canonical_QSARr>
CN(OC)C(=O)Nc1ccc(Cl)cc1

> <InChI_Code_QSARr>
InChI=1S/C9H11ClN2O2/c1-12(14-2)9(13)11-8-5-3-7(10)4-6-8/h3-6H,1-2H3,(H,11,13)

> <InChI Key_QSARr>
LKJPSUCKSLORMF-UHFFFAOYSA-N

> <Salt_Solvent>
?

> <LogBCF>
1.15

$$$$
100453
  -INDIGO-08031719362D

 16 16  0  0  0  0  0  0  0  0999 V2000
   -0.8000    1.3856    0.0000 C   0  0  0  0  0  0  0  0  0  0  0  0
   -0.0000    2.7713    0.0000 H   0  0  0  0  0  0  0  0  0  0  0  0
   -2.4000    1.3856    0.0000 C   0  0  0  0  0  0  0  0  0  0  0  0
   -3.2001    2.7713    0.0000 H   0  0  0  0  0  0  0  0  0  0  0  0
   -3.2001    0.0000    0.0000 C   0  0  0  0  0  0  0  0  0  0  0  0
   -4.8000    0.0000    0.0000 H   0  0  0  0  0  0  0  0  0  0  0  0
   -2.4000   -1.3856    0.0000 C   0  0  0  0  0  0  0  0  0  0  0  0
   -3.2001   -2.7713    0.0000 H   0  0  0  0  0  0  0  0  0  0  0  0
   -0.8000   -1.3856    0.0000 C   0  0  0  0  0  0  0  0  0  0  0  0
   -0.0000   -2.7713    0.0000 H   0  0  0  0  0  0  0  0  0  0  0  0
   -0.0000   -0.0000    0.0000 C   0  0  0  0  0  0  0  0  0  0  0  0
    1.6000    0.0000    0.0000 P   0  0  0  0  0  0  0  0  0  0  0  0
    1.8088    1.5863    0.0000 H   0  0  0  0  0  0  0  0  0  0  0  0
    2.8694    0.9740    0.0000 O   0  0  0  0  0  0  0  0  0  0  0  0
    2.4001   -1.3856    0.0000 O   0  0  0  0  0  0  0  0  0  0  0  0
    4.0000   -1.3856    0.0000 H   0  0  0  0  0  0  0  0  0  0  0  0
  1  2  1  0  0  0  0
  1  3  1  0  0  0  0
  3  4  1  0  0  0  0
  3  5  2  0  0  0  0
  5  6  1  0  0  0  0
  5  7  1  0  0  0  0
  7  8  1  0  0  0  0
  7  9  2  0  0  0  0
  9 10  1  0  0  0  0
  9 11  1  0  0  0  0
 11  1  2  0  0  0  0
 11 12  1  0  0  0  0
 12 13  1  0  0  0  0
 12 14  2  0  0  0  0
 12 15  1  0  0  0  0
 15 16  1  0  0  0  0
M  END
> <ChemID>
100453

> <source_casrn>
1779-48-2

> <CAS>
1779-48-2

> <SMILES>
OP(=O)c1ccccc1

> <NAME>
Phenylphosphinic acid

> <preferred_name>
Phenylphosphinic acid

> <iupac>
phenylphosphinic acid

> <MPID>
98378

> <dsstox_substance_id>
DTXSID0027436

> <Canonical_QSARr>
OP(=O)c1ccccc1

> <InChI_Code_QSARr>
InChI=1S/C6H7O2P/c7-9(8)6-4-2-1-3-5-6/h1-5,9H,(H,7,8)

> <InChI Key_QSARr>
MLCHBQKMVKNBOV-UHFFFAOYSA-N

> <Salt_Solvent>
?

> <LogBCF>
0.78

$$$$
100454
  -INDIGO-08031719362D

 16 16  0  0  0  0  0  0  0  0999 V2000
   -3.2001    2.7713    0.0000 Cl  0  0  0  0  0  0  0  0  0  0  0  0
   -2.4000    1.3856    0.0000 C   0  0  0  0  0  0  0  0  0  0  0  0
   -0.8000    1.3856    0.0000 C   0  0  0  0  0  0  0  0  0  0  0  0
   -0.0000    2.7713    0.0000 H   0  0  0  0  0  0  0  0  0  0  0  0
   -0.0000    0.0000    0.0000 C   0  0  0  0  0  0  0  0  0  0  0  0
    1.6000    0.0000    0.0000 C   0  0  0  0  0  0  0  0  0  0  0  0
    2.8694    0.9740    0.0000 H   0  0  0  0  0  0  0  0  0  0  0  0
    1.8088    1.5863    0.0000 H   0  0  0  0  0  0  0  0  0  0  0  0
    2.4001   -1.3856    0.0000 O   0  0  0  0  0  0  0  0  0  0  0  0
    4.0000   -1.3856    0.0000 H   0  0  0  0  0  0  0  0  0  0  0  0
   -0.8000   -1.3856    0.0000 C   0  0  0  0  0  0  0  0  0  0  0  0
   -0.0000   -2.7713    0.0000 H   0  0  0  0  0  0  0  0  0  0  0  0
   -2.4000   -1.3856    0.0000 C   0  0  0  0  0  0  0  0  0  0  0  0
   -3.2001   -2.7713    0.0000 H   0  0  0  0  0  0  0  0  0  0  0  0
   -3.2001   -0.0000    0.0000 C   0  0  0  0  0  0  0  0  0  0  0  0
   -4.8000    0.0000    0.0000 Cl  0  0  0  0  0  0  0  0  0  0  0  0
  1  2  1  0  0  0  0
  2  3  1  0  0  0  0
  3  4  1  0  0  0  0
  3  5  2  0  0  0  0
  5  6  1  0  0  0  0
  6  7  1  0  0  0  0
  6  8  1  0  0  0  0
  6  9  1  0  0  0  0
  9 10  1  0  0  0  0
  5 11  1  0  0  0  0
 11 12  1  0  0  0  0
 11 13  2  0  0  0  0
 13 14  1  0  0  0  0
 13 15  1  0  0  0  0
 15  2  2  0  0  0  0
 15 16  1  0  0  0  0
M  END
> <ChemID>
100454

> <source_casrn>
1805-32-9

> <CAS>
1805-32-9

> <SMILES>
OCc1cc(Cl)c(Cl)cc1

> <NAME>
3,4-DICHLOROBENZYL ALCOHOL

> <preferred_name>
3,4-Dichlorobenzyl alcohol

> <iupac>
(3,4-dichlorophenyl)methanol

> <MPID>
98379

> <dsstox_substance_id>
DTXSID70170966

> <Canonical_QSARr>
OCc1cc(Cl)c(Cl)cc1

> <InChI_Code_QSARr>
InChI=1S/C7H6Cl2O/c8-6-2-1-5(4-10)3-7(6)9/h1-3,10H,4H2

> <InChI Key_QSARr>
FVJIUQSKXOYFKG-UHFFFAOYSA-N

> <Salt_Solvent>
?

> <LogBCF>
0.54

$$$$
100456
  -INDIGO-08031719362D

 18 19  0  0  0  0  0  0  0  0999 V2000
    0.0001   -0.0000    0.0000 C   0  0  0  0  0  0  0  0  0  0  0  0
    1.3856    0.8000    0.0000 C   0  0  0  0  0  0  0  0  0  0  0  0
    1.3856    2.4000    0.0000 Cl  0  0  0  0  0  0  0  0  0  0  0  0
    2.7713   -0.0000    0.0000 C   0  0  0  0  0  0  0  0  0  0  0  0
    4.1569    0.8000    0.0000 H   0  0  0  0  0  0  0  0  0  0  0  0
    2.7713   -1.6000    0.0000 C   0  0  0  0  0  0  0  0  0  0  0  0
    4.1569   -2.4000    0.0000 H   0  0  0  0  0  0  0  0  0  0  0  0
    1.3856   -2.4000    0.0000 C   0  0  0  0  0  0  0  0  0  0  0  0
    1.3856   -4.0000    0.0000 Cl  0  0  0  0  0  0  0  0  0  0  0  0
    0.0001   -1.6000    0.0000 C   0  0  0  0  0  0  0  0  0  0  0  0
   -1.3856   -2.4000    0.0000 C   0  0  0  0  0  0  0  0  0  0  0  0
   -1.3856   -4.0000    0.0000 H   0  0  0  0  0  0  0  0  0  0  0  0
   -2.7712   -1.6000    0.0000 C   0  0  0  0  0  0  0  0  0  0  0  0
   -4.1569   -2.4000    0.0000 H   0  0  0  0  0  0  0  0  0  0  0  0
   -2.7712   -0.0000    0.0000 C   0  0  0  0  0  0  0  0  0  0  0  0
   -4.1569    0.8000    0.0000 H   0  0  0  0  0  0  0  0  0  0  0  0
   -1.3856    0.8000    0.0000 C   0  0  0  0  0  0  0  0  0  0  0  0
   -1.3856    2.4000    0.0000 H   0  0  0  0  0  0  0  0  0  0  0  0
  1  2  1  0  0  0  0
  2  3  1  0  0  0  0
  2  4  2  0  0  0  0
  4  5  1  0  0  0  0
  4  6  1  0  0  0  0
  6  7  1  0  0  0  0
  6  8  2  0  0  0  0
  8  9  1  0  0  0  0
  8 10  1  0  0  0  0
 10  1  1  0  0  0  0
 10 11  2  0  0  0  0
 11 12  1  0  0  0  0
 11 13  1  0  0  0  0
 13 14  1  0  0  0  0
 13 15  2  0  0  0  0
 15 16  1  0  0  0  0
 15 17  1  0  0  0  0
 17  1  2  0  0  0  0
 17 18  1  0  0  0  0
M  END
> <ChemID>
100456

> <source_casrn>
1825-31-6

> <CAS>
1825-31-6

> <SMILES>
Clc1ccc(Cl)c2ccccc12

> <NAME>
1,4-DICHLORONAPHTHALENE

> <preferred_name>
Naphthalene, 1,4-dichloro-

> <iupac>
1,4-DICHLORONAPHTHALENE

> <MPID>
98381

> <dsstox_substance_id>
DTXSID6061999

> <Canonical_QSARr>
Clc1ccc(Cl)c2ccccc12

> <InChI_Code_QSARr>
InChI=1S/C10H6Cl2/c11-9-5-6-10(12)8-4-2-1-3-7(8)9/h1-6H

> <InChI Key_QSARr>
JDPKCYMVSKDOGS-UHFFFAOYSA-N

> <Salt_Solvent>
?

> <LogBCF>
3.75

$$$$
100457
  -INDIGO-08031719362D

 25 26  0  0  0  0  0  0  0  0999 V2000
    3.5086    0.9813    0.0000 C   0  0  0  0  0  0  0  0  0  0  0  0
    5.0842    1.2591    0.0000 C   0  0  0  0  0  0  0  0  0  0  0  0
    5.6315    2.7627    0.0000 H   0  0  0  0  0  0  0  0  0  0  0  0
    6.1126    0.0335    0.0000 C   0  0  0  0  0  0  0  0  0  0  0  0
    7.6884    0.3113    0.0000 Cl  0  0  0  0  0  0  0  0  0  0  0  0
    5.5655   -1.4700    0.0000 C   0  0  0  0  0  0  0  0  0  0  0  0
    6.5940   -2.6957    0.0000 H   0  0  0  0  0  0  0  0  0  0  0  0
    3.9898   -1.7479    0.0000 C   0  0  0  0  0  0  0  0  0  0  0  0
    3.4426   -3.2513    0.0000 Cl  0  0  0  0  0  0  0  0  0  0  0  0
    2.9613   -0.5222    0.0000 C   0  0  0  0  0  0  0  0  0  0  0  0
    1.3856   -0.8000    0.0000 O   0  0  0  0  0  0  0  0  0  0  0  0
   -0.0000   -0.0001    0.0000 C   0  0  0  0  0  0  0  0  0  0  0  0
   -0.0000    1.6000    0.0000 C   0  0  0  0  0  0  0  0  0  0  0  0
    1.3856    2.4000    0.0000 H   0  0  0  0  0  0  0  0  0  0  0  0
   -1.3856    2.4000    0.0000 C   0  0  0  0  0  0  0  0  0  0  0  0
   -1.3856    4.0000    0.0000 H   0  0  0  0  0  0  0  0  0  0  0  0
   -2.7712    1.6000    0.0000 C   0  0  0  0  0  0  0  0  0  0  0  0
   -4.1570    2.4000    0.0000 N   0  0  0  0  0  0  0  0  0  0  0  0
   -5.5426    1.6000    0.0000 O   0  0  0  0  0  0  0  0  0  0  0  0
   -4.1570    4.0000    0.0000 O   0  0  0  0  0  0  0  0  0  0  0  0
   -2.7712   -0.0001    0.0000 C   0  0  0  0  0  0  0  0  0  0  0  0
   -4.1570   -0.8000    0.0000 H   0  0  0  0  0  0  0  0  0  0  0  0
   -1.3856   -0.8000    0.0000 C   0  0  0  0  0  0  0  0  0  0  0  0
   -1.3856   -2.4000    0.0000 H   0  0  0  0  0  0  0  0  0  0  0  0
    2.4800    2.2071    0.0000 Cl  0  0  0  0  0  0  0  0  0  0  0  0
  1  2  1  0  0  0  0
  2  3  1  0  0  0  0
  2  4  2  0  0  0  0
  4  5  1  0  0  0  0
  4  6  1  0  0  0  0
  6  7  1  0  0  0  0
  6  8  2  0  0  0  0
  8  9  1  0  0  0  0
  8 10  1  0  0  0  0
 10  1  2  0  0  0  0
 10 11  1  0  0  0  0
 11 12  1  0  0  0  0
 12 13  1  0  0  0  0
 13 14  1  0  0  0  0
 13 15  2  0  0  0  0
 15 16  1  0  0  0  0
 15 17  1  0  0  0  0
 17 18  1  0  0  0  0
 18 19  1  0  0  0  0
 18 20  2  0  0  0  0
 17 21  2  0  0  0  0
 21 22  1  0  0  0  0
 21 23  1  0  0  0  0
 23 12  2  0  0  0  0
 23 24  1  0  0  0  0
  1 25  1  0  0  0  0
M  CHG  2  18   1  19  -1
M  END
> <ChemID>
100457

> <source_casrn>
1836-77-7

> <CAS>
1836-77-7

> <SMILES>
[O-][N+](=O)c1ccc(cc1)Oc1c(Cl)cc(Cl)cc1Cl

> <NAME>
CHLORNITROFEN

> <preferred_name>
Chlornitrofen

> <iupac>
4-nitrophenyl 2,4,6-trichlorophenyl ether

> <MPID>
98382

> <dsstox_substance_id>
DTXSID0041775

> <Canonical_QSARr>
[O-][N+](=O)c1ccc(cc1)Oc1c(Cl)cc(Cl)cc1Cl

> <InChI_Code_QSARr>
InChI=1S/C12H6Cl3NO3/c13-7-5-10(14)12(11(15)6-7)19-9-3-1-8(2-4-9)16(17)18/h1-6H

> <InChI Key_QSARr>
XQNAUQUKWRBODG-UHFFFAOYSA-N

> <Salt_Solvent>
?

> <LogBCF>
3.31

$$$$
100458
  -INDIGO-08031719362D

 50 51  0  0  0  0  0  0  0  0999 V2000
   11.0850   -3.2000    0.0000 C   0  0  0  0  0  0  0  0  0  0  0  0
   12.3108   -2.1715    0.0000 O   0  0  0  0  0  0  0  0  0  0  0  0
    9.6995   -2.4000    0.0000 C   0  0  0  0  0  0  0  0  0  0  0  0
    9.6995   -0.7999    0.0000 C   0  0  0  0  0  0  0  0  0  0  0  0
   11.0850    0.0000    0.0000 O   0  0  0  0  0  0  0  0  0  0  0  0
   11.0850    1.6000    0.0000 H   0  0  0  0  0  0  0  0  0  0  0  0
    8.3137    0.0000    0.0000 C   0  0  0  0  0  0  0  0  0  0  0  0
    8.3137    1.6000    0.0000 H   0  0  0  0  0  0  0  0  0  0  0  0
    6.9283   -0.7999    0.0000 C   0  0  0  0  0  0  0  0  0  0  0  0
    5.5425    0.0000    0.0000 O   0  0  0  0  0  0  0  0  0  0  0  0
    4.1571   -0.7999    0.0000 C   0  0  0  0  0  0  0  0  0  0  0  0
    4.7691   -2.2783    0.0000 H   0  0  0  0  0  0  0  0  0  0  0  0
    3.5447   -2.2783    0.0000 H   0  0  0  0  0  0  0  0  0  0  0  0
    2.7713    0.0000    0.0000 C   0  0  0  0  0  0  0  0  0  0  0  0
    2.1589    1.4782    0.0000 H   0  0  0  0  0  0  0  0  0  0  0  0
    3.3837    1.4782    0.0000 H   0  0  0  0  0  0  0  0  0  0  0  0
    1.3855   -0.7999    0.0000 C   0  0  0  0  0  0  0  0  0  0  0  0
    1.9979   -2.2783    0.0000 H   0  0  0  0  0  0  0  0  0  0  0  0
    0.7734   -2.2783    0.0000 H   0  0  0  0  0  0  0  0  0  0  0  0
    0.0000    0.0000    0.0000 C   0  0  0  0  0  0  0  0  0  0  0  0
   -0.6124    1.4782    0.0000 H   0  0  0  0  0  0  0  0  0  0  0  0
    0.6124    1.4782    0.0000 H   0  0  0  0  0  0  0  0  0  0  0  0
   -1.3857   -0.7999    0.0000 C   0  0  0  0  0  0  0  0  0  0  0  0
   -0.7733   -2.2783    0.0000 H   0  0  0  0  0  0  0  0  0  0  0  0
   -1.9978   -2.2783    0.0000 H   0  0  0  0  0  0  0  0  0  0  0  0
   -2.7712    0.0000    0.0000 C   0  0  0  0  0  0  0  0  0  0  0  0
   -3.3836    1.4782    0.0000 H   0  0  0  0  0  0  0  0  0  0  0  0
   -2.1591    1.4782    0.0000 H   0  0  0  0  0  0  0  0  0  0  0  0
   -4.1570   -0.7999    0.0000 C   0  0  0  0  0  0  0  0  0  0  0  0
   -3.5446   -2.2783    0.0000 H   0  0  0  0  0  0  0  0  0  0  0  0
   -4.7694   -2.2783    0.0000 H   0  0  0  0  0  0  0  0  0  0  0  0
   -5.5424    0.0000    0.0000 C   0  0  0  0  0  0  0  0  0  0  0  0
   -6.9282    0.8000    0.0000 H   0  0  0  0  0  0  0  0  0  0  0  0
   -6.9282   -0.7999    0.0000 H   0  0  0  0  0  0  0  0  0  0  0  0
   -5.5424    1.6000    0.0000 H   0  0  0  0  0  0  0  0  0  0  0  0
    6.9283   -2.4000    0.0000 C   0  0  0  0  0  0  0  0  0  0  0  0
    5.5425   -3.2000    0.0000 H   0  0  0  0  0  0  0  0  0  0  0  0
    8.3137   -3.2000    0.0000 C   0  0  0  0  0  0  0  0  0  0  0  0
    8.3137   -4.8000    0.0000 H   0  0  0  0  0  0  0  0  0  0  0  0
   11.6325   -4.7034    0.0000 C   0  0  0  0  0  0  0  0  0  0  0  0
   10.6040   -5.9291    0.0000 C   0  0  0  0  0  0  0  0  0  0  0  0
    9.0284   -5.6513    0.0000 H   0  0  0  0  0  0  0  0  0  0  0  0
   11.1512   -7.4327    0.0000 C   0  0  0  0  0  0  0  0  0  0  0  0
   10.1227   -8.6584    0.0000 H   0  0  0  0  0  0  0  0  0  0  0  0
   12.7269   -7.7104    0.0000 C   0  0  0  0  0  0  0  0  0  0  0  0
   13.2740   -9.2140    0.0000 H   0  0  0  0  0  0  0  0  0  0  0  0
   13.7553   -6.4849    0.0000 C   0  0  0  0  0  0  0  0  0  0  0  0
   15.3310   -6.7626    0.0000 H   0  0  0  0  0  0  0  0  0  0  0  0
   13.2081   -4.9813    0.0000 C   0  0  0  0  0  0  0  0  0  0  0  0
   14.2366   -3.7556    0.0000 H   0  0  0  0  0  0  0  0  0  0  0  0
  1  2  2  0  0  0  0
  1  3  1  0  0  0  0
  3  4  1  0  0  0  0
  4  5  1  0  0  0  0
  5  6  1  0  0  0  0
  4  7  2  0  0  0  0
  7  8  1  0  0  0  0
  7  9  1  0  0  0  0
  9 10  1  0  0  0  0
 10 11  1  0  0  0  0
 11 12  1  0  0  0  0
 11 13  1  0  0  0  0
 11 14  1  0  0  0  0
 14 15  1  0  0  0  0
 14 16  1  0  0  0  0
 14 17  1  0  0  0  0
 17 18  1  0  0  0  0
 17 19  1  0  0  0  0
 17 20  1  0  0  0  0
 20 21  1  0  0  0  0
 20 22  1  0  0  0  0
 20 23  1  0  0  0  0
 23 24  1  0  0  0  0
 23 25  1  0  0  0  0
 23 26  1  0  0  0  0
 26 27  1  0  0  0  0
 26 28  1  0  0  0  0
 26 29  1  0  0  0  0
 29 30  1  0  0  0  0
 29 31  1  0  0  0  0
 29 32  1  0  0  0  0
 32 33  1  0  0  0  0
 32 34  1  0  0  0  0
 32 35  1  0  0  0  0
  9 36  2  0  0  0  0
 36 37  1  0  0  0  0
 36 38  1  0  0  0  0
 38  3  2  0  0  0  0
 38 39  1  0  0  0  0
  1 40  1  0  0  0  0
 40 41  1  0  0  0  0
 41 42  1  0  0  0  0
 41 43  2  0  0  0  0
 43 44  1  0  0  0  0
 43 45  1  0  0  0  0
 45 46  1  0  0  0  0
 45 47  2  0  0  0  0
 47 48  1  0  0  0  0
 47 49  1  0  0  0  0
 49 40  2  0  0  0  0
 49 50  1  0  0  0  0
M  END
> <ChemID>
100458

> <source_casrn>
1843-05-6

> <CAS>
1843-05-6

> <SMILES>
O=C(c(cccc1)c1)c(c(O)cc(OCCCCCCCC)c2)c2

> <NAME>
Methanone,  2-hydroxy-4-(octyloxy)phenyl phenyl-

> <preferred_name>
Octabenzone

> <iupac>
[2-hydroxy-4-(octyloxy)phenyl](phenyl)methanone

> <MPID>
98383

> <dsstox_substance_id>
DTXSID9027441

> <Canonical_QSARr>
CCCCCCCCOc1cc(O)c(cc1)C(=O)c1ccccc1

> <InChI_Code_QSARr>
InChI=1S/C21H26O3/c1-2-3-4-5-6-10-15-24-18-13-14-19(20(22)16-18)21(23)17-11-8-7-9-12-17/h7-9,11-14,16,22H,2-6,10,15H2,1H3

> <InChI Key_QSARr>
QUAMTGJKVDWJEQ-UHFFFAOYSA-N

> <Salt_Solvent>
?

> <LogBCF>
1.9

$$$$
100460
  -INDIGO-08031719362D

 14 15  0  0  0  0  0  0  0  0999 V2000
   -4.8000   -0.0000    0.0000 C   0  0  0  0  0  0  0  0  0  0  0  0
   -3.2000   -0.0000    0.0000 N   0  0  0  0  0  0  0  0  0  0  0  0
   -2.4000    1.3856    0.0000 C   0  0  0  0  0  0  0  0  0  0  0  0
   -0.8001    1.3856    0.0000 C   0  0  0  0  0  0  0  0  0  0  0  0
   -0.0001   -0.0000    0.0000 C   0  0  0  0  0  0  0  0  0  0  0  0
    1.6001    0.0000    0.0000 C   0  0  0  0  0  0  0  0  0  0  0  0
    2.4001    1.3856    0.0000 C   0  0  0  0  0  0  0  0  0  0  0  0
    4.0000    1.3856    0.0000 C   0  0  0  0  0  0  0  0  0  0  0  0
    4.8000    0.0000    0.0000 N   0  0  0  0  0  0  0  0  0  0  0  0
    6.4000    0.0000    0.0000 C   0  0  0  0  0  0  0  0  0  0  0  0
    4.0000   -1.3856    0.0000 C   0  0  0  0  0  0  0  0  0  0  0  0
    2.4001   -1.3856    0.0000 C   0  0  0  0  0  0  0  0  0  0  0  0
   -0.8001   -1.3856    0.0000 C   0  0  0  0  0  0  0  0  0  0  0  0
   -2.4000   -1.3856    0.0000 C   0  0  0  0  0  0  0  0  0  0  0  0
  1  2  1  0  0  0  0
  2  3  1  0  0  0  0
  3  4  2  0  0  0  0
  4  5  1  0  0  0  0
  5  6  1  0  0  0  0
  6  7  1  0  0  0  0
  7  8  2  0  0  0  0
  8  9  1  0  0  0  0
  9 10  1  0  0  0  0
  9 11  2  0  0  0  0
 11 12  1  0  0  0  0
 12  6  2  0  0  0  0
  5 13  2  0  0  0  0
 13 14  1  0  0  0  0
 14  2  2  0  0  0  0
M  CHG  2   2   1   9   1
M  END
> <ChemID>
100460

> <source_casrn>
1910-42-5

> <CAS>
1910-42-5

> <SMILES>
[Cl-].[Cl-].C[n+]1ccc(cc1)-c1cc[n+](C)cc1

> <NAME>
Paraquat dichloride

> <preferred_name>
Paraquat dichloride

> <iupac>
1,1'-dimethyl-4,4'-bipyridinium dichloride

> <MPID>
98385

> <dsstox_substance_id>
DTXSID7024243

> <Canonical_QSARr>
C[n+]1ccc(cc1)-c1cc[n+](C)cc1

> <InChI_Code_QSARr>
InChI=1S/C12H14N2/c1-13-7-3-11(4-8-13)12-5-9-14(2)10-6-12/h3-10H,1-2H3/q+2

> <InChI Key_QSARr>
INFDPOAKFNIJBF-UHFFFAOYSA-N

> <Salt_Solvent>
[Cl-].[Cl-]

> <LogBCF>
0.28

$$$$
100461
  -INDIGO-08031719362D

 28 28  0  0  0  0  0  0  0  0999 V2000
    4.1568    4.0000    0.0000 Cl  0  0  0  0  0  0  0  0  0  0  0  0
    4.1570    2.4000    0.0000 C   0  0  0  0  0  0  0  0  0  0  0  0
    5.5426    1.6000    0.0000 N   0  0  0  0  0  0  0  0  0  0  0  0
    5.5426   -0.0001    0.0000 C   0  0  0  0  0  0  0  0  0  0  0  0
    6.9283   -0.8000    0.0000 N   0  0  0  0  0  0  0  0  0  0  0  0
    6.9283   -2.4000    0.0000 H   0  0  0  0  0  0  0  0  0  0  0  0
    8.3138    0.0001    0.0000 C   0  0  0  0  0  0  0  0  0  0  0  0
    8.9262    1.4782    0.0000 H   0  0  0  0  0  0  0  0  0  0  0  0
    7.7015    1.4782    0.0000 H   0  0  0  0  0  0  0  0  0  0  0  0
    9.6996   -0.8000    0.0000 C   0  0  0  0  0  0  0  0  0  0  0  0
   11.0851   -1.6000    0.0000 H   0  0  0  0  0  0  0  0  0  0  0  0
   11.0851    0.0001    0.0000 H   0  0  0  0  0  0  0  0  0  0  0  0
    9.6996   -2.4000    0.0000 H   0  0  0  0  0  0  0  0  0  0  0  0
    4.1570   -0.8000    0.0000 N   0  0  0  0  0  0  0  0  0  0  0  0
    2.7713   -0.0001    0.0000 C   0  0  0  0  0  0  0  0  0  0  0  0
    1.3857   -0.8000    0.0000 N   0  0  0  0  0  0  0  0  0  0  0  0
    1.3857   -2.4000    0.0000 H   0  0  0  0  0  0  0  0  0  0  0  0
    0.0000   -0.0001    0.0000 C   0  0  0  0  0  0  0  0  0  0  0  0
    0.8001    1.3856    0.0000 H   0  0  0  0  0  0  0  0  0  0  0  0
   -1.3855    0.8000    0.0000 C   0  0  0  0  0  0  0  0  0  0  0  0
   -2.7713    1.6000    0.0000 H   0  0  0  0  0  0  0  0  0  0  0  0
   -2.7713   -0.0001    0.0000 H   0  0  0  0  0  0  0  0  0  0  0  0
   -1.3855    2.4000    0.0000 H   0  0  0  0  0  0  0  0  0  0  0  0
   -0.8001   -1.3856    0.0000 C   0  0  0  0  0  0  0  0  0  0  0  0
   -1.5999   -2.7713    0.0000 H   0  0  0  0  0  0  0  0  0  0  0  0
   -2.4000   -1.3856    0.0000 H   0  0  0  0  0  0  0  0  0  0  0  0
    0.0000   -2.7713    0.0000 H   0  0  0  0  0  0  0  0  0  0  0  0
    2.7713    1.6000    0.0000 N   0  0  0  0  0  0  0  0  0  0  0  0
  1  2  1  0  0  0  0
  2  3  1  0  0  0  0
  3  4  2  0  0  0  0
  4  5  1  0  0  0  0
  5  6  1  0  0  0  0
  5  7  1  0  0  0  0
  7  8  1  0  0  0  0
  7  9  1  0  0  0  0
  7 10  1  0  0  0  0
 10 11  1  0  0  0  0
 10 12  1  0  0  0  0
 10 13  1  0  0  0  0
  4 14  1  0  0  0  0
 14 15  2  0  0  0  0
 15 16  1  0  0  0  0
 16 17  1  0  0  0  0
 16 18  1  0  0  0  0
 18 19  1  0  0  0  0
 18 20  1  0  0  0  0
 20 21  1  0  0  0  0
 20 22  1  0  0  0  0
 20 23  1  0  0  0  0
 18 24  1  0  0  0  0
 24 25  1  0  0  0  0
 24 26  1  0  0  0  0
 24 27  1  0  0  0  0
 15 28  1  0  0  0  0
 28  2  2  0  0  0  0
M  END
> <ChemID>
100461

> <source_casrn>
1912-24-9

> <CAS>
1912-24-9

> <SMILES>
CCNc1[n]c(Cl)[n]c(NC(C)C)[n]1

> <NAME>
ATRAZINE

> <preferred_name>
Atrazine

> <iupac>
6-chloro-N-ethyl-N'-(propan-2-yl)-1,3,5-triazine-2,4-diamine

> <MPID>
98386

> <dsstox_substance_id>
DTXSID9020112

> <Canonical_QSARr>
CCNc1[n]c(Cl)[n]c(NC(C)C)[n]1

> <InChI_Code_QSARr>
InChI=1S/C8H14ClN5/c1-4-10-7-12-6(9)13-8(14-7)11-5(2)3/h5H,4H2,1-3H3,(H2,10,11,12,13,14)

> <InChI Key_QSARr>
MXWJVTOOROXGIU-UHFFFAOYSA-N

> <Salt_Solvent>
?

> <LogBCF>
0.9

$$$$
100463
  -INDIGO-08031719362D

 52 54  0  0  0  0  0  0  0  0999 V2000
   -3.3479    3.9898    0.0000 O   0  0  0  0  0  0  0  0  0  0  0  0
   -3.0699    5.5655    0.0000 H   0  0  0  0  0  0  0  0  0  0  0  0
   -2.1221    2.9613    0.0000 C   0  0  0  0  0  0  0  0  0  0  0  0
   -2.3999    1.3857    0.0000 C   0  0  0  0  0  0  0  0  0  0  0  0
   -0.7999    1.3857    0.0000 C   0  0  0  0  0  0  0  0  0  0  0  0
   -1.6000    2.7712    0.0000 H   0  0  0  0  0  0  0  0  0  0  0  0
   -0.0000    0.0000    0.0000 C   0  0  0  0  0  0  0  0  0  0  0  0
    1.5999    0.0000    0.0000 C   0  0  0  0  0  0  0  0  0  0  0  0
    2.4000    1.3857    0.0000 C   0  0  0  0  0  0  0  0  0  0  0  0
    1.5999    2.7712    0.0000 C   0  0  0  0  0  0  0  0  0  0  0  0
    1.3222    4.3470    0.0000 H   0  0  0  0  0  0  0  0  0  0  0  0
    3.1035    3.3185    0.0000 H   0  0  0  0  0  0  0  0  0  0  0  0
   -0.0000    2.7712    0.0000 C   0  0  0  0  0  0  0  0  0  0  0  0
   -0.4592    3.3185    0.0000 H   0  0  0  0  0  0  0  0  0  0  0  0
    0.2779    4.3470    0.0000 H   0  0  0  0  0  0  0  0  0  0  0  0
    4.0000    1.3857    0.0000 C   0  0  0  0  0  0  0  0  0  0  0  0
    4.8001    2.7712    0.0000 H   0  0  0  0  0  0  0  0  0  0  0  0
    4.8001    0.0000    0.0000 C   0  0  0  0  0  0  0  0  0  0  0  0
    6.4001    0.0000    0.0000 C   0  0  0  0  0  0  0  0  0  0  0  0
    6.4001   -1.6000    0.0000 H   0  0  0  0  0  0  0  0  0  0  0  0
    8.0000    0.0000    0.0000 C   0  0  0  0  0  0  0  0  0  0  0  0
    9.6000    0.0000    0.0000 H   0  0  0  0  0  0  0  0  0  0  0  0
    8.7999    1.3857    0.0000 H   0  0  0  0  0  0  0  0  0  0  0  0
    8.7999   -1.3857    0.0000 H   0  0  0  0  0  0  0  0  0  0  0  0
    6.4001    1.6000    0.0000 C   0  0  0  0  0  0  0  0  0  0  0  0
    6.4001    3.1999    0.0000 H   0  0  0  0  0  0  0  0  0  0  0  0
    7.7857    2.4000    0.0000 H   0  0  0  0  0  0  0  0  0  0  0  0
    7.7857    0.8000    0.0000 H   0  0  0  0  0  0  0  0  0  0  0  0
    4.0000   -1.3857    0.0000 C   0  0  0  0  0  0  0  0  0  0  0  0
    5.5036   -1.9328    0.0000 H   0  0  0  0  0  0  0  0  0  0  0  0
    3.7222   -2.9613    0.0000 H   0  0  0  0  0  0  0  0  0  0  0  0
    2.4000   -1.3857    0.0000 C   0  0  0  0  0  0  0  0  0  0  0  0
    2.6778   -2.9613    0.0000 H   0  0  0  0  0  0  0  0  0  0  0  0
    1.1742   -2.4141    0.0000 H   0  0  0  0  0  0  0  0  0  0  0  0
    0.4115   -0.4903    0.0000 C   0  0  0  0  0  0  0  0  0  0  0  0
    1.4399   -1.7159    0.0000 H   0  0  0  0  0  0  0  0  0  0  0  0
    0.5901   -1.3728    0.0000 H   0  0  0  0  0  0  0  0  0  0  0  0
    0.9585    1.0133    0.0000 H   0  0  0  0  0  0  0  0  0  0  0  0
   -0.7999   -1.3857    0.0000 C   0  0  0  0  0  0  0  0  0  0  0  0
   -0.1358   -1.9938    0.0000 H   0  0  0  0  0  0  0  0  0  0  0  0
   -1.0779   -2.9613    0.0000 H   0  0  0  0  0  0  0  0  0  0  0  0
   -2.3999   -1.3857    0.0000 C   0  0  0  0  0  0  0  0  0  0  0  0
   -2.1221   -2.9613    0.0000 H   0  0  0  0  0  0  0  0  0  0  0  0
   -3.9035   -1.9329    0.0000 H   0  0  0  0  0  0  0  0  0  0  0  0
   -3.2000    0.0000    0.0000 C   0  0  0  0  0  0  0  0  0  0  0  0
   -4.4258   -1.0284    0.0000 H   0  0  0  0  0  0  0  0  0  0  0  0
   -4.4258    1.0285    0.0000 H   0  0  0  0  0  0  0  0  0  0  0  0
   -3.9035    1.9329    0.0000 C   0  0  0  0  0  0  0  0  0  0  0  0
   -5.4070    2.4802    0.0000 H   0  0  0  0  0  0  0  0  0  0  0  0
   -4.1814    3.5086    0.0000 H   0  0  0  0  0  0  0  0  0  0  0  0
   -5.1292    0.9044    0.0000 H   0  0  0  0  0  0  0  0  0  0  0  0
   -1.5036    3.3185    0.0000 O   0  0  0  0  0  0  0  0  0  0  0  0
  1  2  1  0  0  0  0
  1  3  1  0  0  0  0
  3  4  1  0  0  0  0
  4  5  1  0  0  0  0
  5  6  1  0  0  0  0
  5  7  1  0  0  0  0
  7  8  1  0  0  0  0
  8  9  2  0  0  0  0
  9 10  1  0  0  0  0
 10 11  1  0  0  0  0
 10 12  1  0  0  0  0
 10 13  1  0  0  0  0
 13  5  1  0  0  0  0
 13 14  1  0  0  0  0
 13 15  1  0  0  0  0
  9 16  1  0  0  0  0
 16 17  1  0  0  0  0
 16 18  2  0  0  0  0
 18 19  1  0  0  0  0
 19 20  1  0  0  0  0
 19 21  1  0  0  0  0
 21 22  1  0  0  0  0
 21 23  1  0  0  0  0
 21 24  1  0  0  0  0
 19 25  1  0  0  0  0
 25 26  1  0  0  0  0
 25 27  1  0  0  0  0
 25 28  1  0  0  0  0
 18 29  1  0  0  0  0
 29 30  1  0  0  0  0
 29 31  1  0  0  0  0
 29 32  1  0  0  0  0
 32  8  1  0  0  0  0
 32 33  1  0  0  0  0
 32 34  1  0  0  0  0
  7 35  1  0  0  0  0
 35 36  1  0  0  0  0
 35 37  1  0  0  0  0
 35 38  1  0  0  0  0
  7 39  1  0  0  0  0
 39 40  1  0  0  0  0
 39 41  1  0  0  0  0
 39 42  1  0  0  0  0
 42 43  1  0  0  0  0
 42 44  1  0  0  0  0
 42 45  1  0  0  0  0
 45  4  1  0  0  0  0
 45 46  1  0  0  0  0
 45 47  1  0  0  0  0
  4 48  1  0  0  0  0
 48 49  1  0  0  0  0
 48 50  1  0  0  0  0
 48 51  1  0  0  0  0
  3 52  2  0  0  0  0
M  END
> <ChemID>
100463

> <source_casrn>
1945-53-5

> <CAS>
1945-53-5

> <SMILES>
CC(C)C1CCC2=C(CC[C@@H]3[C@]2(C)CCC[C@@]3(C)C(O)=O)C=1

> <NAME>
PALUSTRIC ACID

> <preferred_name>
Palustric acid

> <iupac>
C20H30O2

> <MPID>
98387

> <dsstox_substance_id>
DTXSID90858759

> <Canonical_QSARr>
CC(C)C1CCC2=C(CCC3C2(C)CCCC3(C)C(O)=O)C=1

> <InChI_Code_QSARr>
InChI=1S/C20H30O2/c1-13(2)14-6-8-16-15(12-14)7-9-17-19(16,3)10-5-11-20(17,4)18(21)22/h12-13,17H,5-11H2,1-4H3,(H,21,22)

> <InChI Key_QSARr>
MLBYBBUZURKHAW-UHFFFAOYSA-N

> <Salt_Solvent>
?

> <LogBCF>
1.4

$$$$
100464
  -INDIGO-08031719362D

 18 18  0  0  0  0  0  0  0  0999 V2000
   -2.7713    1.6000    0.0000 C   0  0  0  0  0  0  0  0  0  0  0  0
   -1.3856    2.4000    0.0000 C   0  0  0  0  0  0  0  0  0  0  0  0
   -1.3856    4.0000    0.0000 H   0  0  0  0  0  0  0  0  0  0  0  0
    0.0000    1.6000    0.0000 C   0  0  0  0  0  0  0  0  0  0  0  0
    1.3857    2.4000    0.0000 N   0  0  0  0  0  0  0  0  0  0  0  0
    1.3856    4.0000    0.0000 O   0  0  0  0  0  0  0  0  0  0  0  0
    2.7713    1.6000    0.0000 O   0  0  0  0  0  0  0  0  0  0  0  0
    0.0000    0.0000    0.0000 C   0  0  0  0  0  0  0  0  0  0  0  0
    1.3857   -0.8000    0.0000 C   0  0  0  0  0  0  0  0  0  0  0  0
    2.7713   -1.6000    0.0000 H   0  0  0  0  0  0  0  0  0  0  0  0
    1.3857   -2.4000    0.0000 H   0  0  0  0  0  0  0  0  0  0  0  0
    2.7713    0.0000    0.0000 H   0  0  0  0  0  0  0  0  0  0  0  0
   -1.3856   -0.8000    0.0000 C   0  0  0  0  0  0  0  0  0  0  0  0
   -1.3856   -2.4000    0.0000 H   0  0  0  0  0  0  0  0  0  0  0  0
   -2.7713    0.0000    0.0000 C   0  0  0  0  0  0  0  0  0  0  0  0
   -4.1570   -0.8000    0.0000 H   0  0  0  0  0  0  0  0  0  0  0  0
   -4.1570    2.4000    0.0000 O   0  0  0  0  0  0  0  0  0  0  0  0
   -5.5426    1.6000    0.0000 H   0  0  0  0  0  0  0  0  0  0  0  0
  1  2  1  0  0  0  0
  2  3  1  0  0  0  0
  2  4  2  0  0  0  0
  4  5  1  0  0  0  0
  5  6  1  0  0  0  0
  5  7  2  0  0  0  0
  4  8  1  0  0  0  0
  8  9  1  0  0  0  0
  9 10  1  0  0  0  0
  9 11  1  0  0  0  0
  9 12  1  0  0  0  0
  8 13  2  0  0  0  0
 13 14  1  0  0  0  0
 13 15  1  0  0  0  0
 15  1  2  0  0  0  0
 15 16  1  0  0  0  0
  1 17  1  0  0  0  0
 17 18  1  0  0  0  0
M  CHG  2   5   1   6  -1
M  END
> <ChemID>
100464

> <source_casrn>
2042-14-0

> <CAS>
2042-14-0

> <SMILES>
c1c(O)ccc(C)c1N(=O)=O

> <NAME>
3-NITRO-P-CRESOL

> <preferred_name>


> <iupac>


> <MPID>
98388

> <dsstox_substance_id>
DTXSID90879085

> <Canonical_QSARr>
Cc1ccc(O)cc1[N+]([O-])=O

> <InChI_Code_QSARr>
InChI=1S/C7H7NO3/c1-5-2-3-6(9)4-7(5)8(10)11/h2-4,9H,1H3

> <InChI Key_QSARr>
BQEXDUKMTVYBRK-UHFFFAOYSA-N

> <Salt_Solvent>
?

> <LogBCF>
1.0

$$$$
100466
  -INDIGO-08031719362D

 19 20  0  0  0  0  0  0  0  0999 V2000
   -0.0000    0.0000    0.0000 C   0  0  0  0  0  0  0  0  0  0  0  0
    1.6000    0.0000    0.0000 C   0  0  0  0  0  0  0  0  0  0  0  0
    2.4001    1.3856    0.0000 O   0  0  0  0  0  0  0  0  0  0  0  0
    4.0000    1.3856    0.0000 H   0  0  0  0  0  0  0  0  0  0  0  0
    2.4001   -1.3856    0.0000 C   0  0  0  0  0  0  0  0  0  0  0  0
    4.0000   -1.3856    0.0000 Cl  0  0  0  0  0  0  0  0  0  0  0  0
    1.6000   -2.7713    0.0000 C   0  0  0  0  0  0  0  0  0  0  0  0
    2.4001   -4.1569    0.0000 H   0  0  0  0  0  0  0  0  0  0  0  0
   -0.0000   -2.7713    0.0000 C   0  0  0  0  0  0  0  0  0  0  0  0
   -0.8000   -4.1569    0.0000 Cl  0  0  0  0  0  0  0  0  0  0  0  0
   -0.8000   -1.3856    0.0000 C   0  0  0  0  0  0  0  0  0  0  0  0
   -2.4000   -1.3856    0.0000 C   0  0  0  0  0  0  0  0  0  0  0  0
   -3.2001   -2.7713    0.0000 H   0  0  0  0  0  0  0  0  0  0  0  0
   -3.2001    0.0000    0.0000 C   0  0  0  0  0  0  0  0  0  0  0  0
   -4.8000    0.0000    0.0000 H   0  0  0  0  0  0  0  0  0  0  0  0
   -2.4000    1.3856    0.0000 C   0  0  0  0  0  0  0  0  0  0  0  0
   -3.2001    2.7713    0.0000 H   0  0  0  0  0  0  0  0  0  0  0  0
   -0.8000    1.3856    0.0000 C   0  0  0  0  0  0  0  0  0  0  0  0
   -0.0000    2.7713    0.0000 H   0  0  0  0  0  0  0  0  0  0  0  0
  1  2  1  0  0  0  0
  2  3  1  0  0  0  0
  3  4  1  0  0  0  0
  2  5  2  0  0  0  0
  5  6  1  0  0  0  0
  5  7  1  0  0  0  0
  7  8  1  0  0  0  0
  7  9  2  0  0  0  0
  9 10  1  0  0  0  0
  9 11  1  0  0  0  0
 11  1  1  0  0  0  0
 11 12  2  0  0  0  0
 12 13  1  0  0  0  0
 12 14  1  0  0  0  0
 14 15  1  0  0  0  0
 14 16  2  0  0  0  0
 16 17  1  0  0  0  0
 16 18  1  0  0  0  0
 18  1  2  0  0  0  0
 18 19  1  0  0  0  0
M  END
> <ChemID>
100466

> <source_casrn>
2050-76-2

> <CAS>
2050-76-2

> <SMILES>
Oc1c2ccccc2c(Cl)cc1Cl

> <NAME>
2,4-DICHLORO-1-NAPHTHOL

> <preferred_name>
1-Naphthalenol, 2,4-dichloro-

> <iupac>
2,4-dichloronaphthalen-1-ol

> <MPID>
98390

> <dsstox_substance_id>
DTXSID4062141

> <Canonical_QSARr>
Oc1c2ccccc2c(Cl)cc1Cl

> <InChI_Code_QSARr>
InChI=1S/C10H6Cl2O/c11-8-5-9(12)10(13)7-4-2-1-3-6(7)8/h1-5,13H

> <InChI Key_QSARr>
HVLJEMXDXOTWLV-UHFFFAOYSA-N

> <Salt_Solvent>
?

> <LogBCF>
1.35

$$$$
100467
  -INDIGO-08031719362D

 22 23  0  0  0  0  0  0  0  0999 V2000
   -0.0001    0.0000    0.0000 C   0  0  0  0  0  0  0  0  0  0  0  0
    1.6001   -0.0000    0.0000 C   0  0  0  0  0  0  0  0  0  0  0  0
    2.4001   -1.3856    0.0000 C   0  0  0  0  0  0  0  0  0  0  0  0
    1.6001   -2.7713    0.0000 Cl  0  0  0  0  0  0  0  0  0  0  0  0
    4.0000   -1.3856    0.0000 C   0  0  0  0  0  0  0  0  0  0  0  0
    4.8000   -2.7713    0.0000 Cl  0  0  0  0  0  0  0  0  0  0  0  0
    4.8000    0.0000    0.0000 C   0  0  0  0  0  0  0  0  0  0  0  0
    6.4000    0.0000    0.0000 Cl  0  0  0  0  0  0  0  0  0  0  0  0
    4.0000    1.3856    0.0000 C   0  0  0  0  0  0  0  0  0  0  0  0
    4.8000    2.7713    0.0000 Cl  0  0  0  0  0  0  0  0  0  0  0  0
    2.4001    1.3856    0.0000 C   0  0  0  0  0  0  0  0  0  0  0  0
    1.6001    2.7713    0.0000 Cl  0  0  0  0  0  0  0  0  0  0  0  0
   -0.8001    1.3856    0.0000 C   0  0  0  0  0  0  0  0  0  0  0  0
   -0.0001    2.7713    0.0000 Cl  0  0  0  0  0  0  0  0  0  0  0  0
   -2.4000    1.3856    0.0000 C   0  0  0  0  0  0  0  0  0  0  0  0
   -3.2000    2.7713    0.0000 Cl  0  0  0  0  0  0  0  0  0  0  0  0
   -3.2000    0.0000    0.0000 C   0  0  0  0  0  0  0  0  0  0  0  0
   -4.8000   -0.0000    0.0000 Cl  0  0  0  0  0  0  0  0  0  0  0  0
   -2.4000   -1.3856    0.0000 C   0  0  0  0  0  0  0  0  0  0  0  0
   -3.2000   -2.7713    0.0000 Cl  0  0  0  0  0  0  0  0  0  0  0  0
   -0.8001   -1.3856    0.0000 C   0  0  0  0  0  0  0  0  0  0  0  0
   -0.0001   -2.7713    0.0000 Cl  0  0  0  0  0  0  0  0  0  0  0  0
  1  2  1  0  0  0  0
  2  3  1  0  0  0  0
  3  4  1  0  0  0  0
  3  5  2  0  0  0  0
  5  6  1  0  0  0  0
  5  7  1  0  0  0  0
  7  8  1  0  0  0  0
  7  9  2  0  0  0  0
  9 10  1  0  0  0  0
  9 11  1  0  0  0  0
 11  2  2  0  0  0  0
 11 12  1  0  0  0  0
  1 13  1  0  0  0  0
 13 14  1  0  0  0  0
 13 15  2  0  0  0  0
 15 16  1  0  0  0  0
 15 17  1  0  0  0  0
 17 18  1  0  0  0  0
 17 19  2  0  0  0  0
 19 20  1  0  0  0  0
 19 21  1  0  0  0  0
 21  1  2  0  0  0  0
 21 22  1  0  0  0  0
M  END
> <ChemID>
100467

> <source_casrn>
2051-24-3

> <CAS>
2051-24-3

> <SMILES>
Clc1c(-c2c(Cl)c(Cl)c(Cl)c(Cl)c2Cl)c(Cl)c(Cl)c(Cl)c1Cl

> <NAME>
DECACHLOROBIPHENYL

> <preferred_name>
Decachlorobiphenyl

> <iupac>
decachlorobiphenyl

> <MPID>
98391

> <dsstox_substance_id>
DTXSID4047541

> <Canonical_QSARr>
Clc1c(-c2c(Cl)c(Cl)c(Cl)c(Cl)c2Cl)c(Cl)c(Cl)c(Cl)c1Cl

> <InChI_Code_QSARr>
InChI=1S/C12Cl10/c13-3-1(4(14)8(18)11(21)7(3)17)2-5(15)9(19)12(22)10(20)6(2)16

> <InChI Key_QSARr>
ONXPZLFXDMAPRO-UHFFFAOYSA-N

> <Salt_Solvent>
?

> <LogBCF>
4.24

$$$$
100468
  -INDIGO-08031719362D

 35 36  0  0  0  0  0  0  0  0999 V2000
    4.0001    1.3857    0.0000 C   0  0  0  0  0  0  0  0  0  0  0  0
    4.8000    2.7713    0.0000 H   0  0  0  0  0  0  0  0  0  0  0  0
    5.6001    1.3857    0.0000 H   0  0  0  0  0  0  0  0  0  0  0  0
    3.2000    2.7713    0.0000 H   0  0  0  0  0  0  0  0  0  0  0  0
    2.4001    1.3857    0.0000 C   0  0  0  0  0  0  0  0  0  0  0  0
    2.1912    2.9720    0.0000 H   0  0  0  0  0  0  0  0  0  0  0  0
    1.1306    2.3597    0.0000 H   0  0  0  0  0  0  0  0  0  0  0  0
    1.6000    0.0000    0.0000 O   0  0  0  0  0  0  0  0  0  0  0  0
   -0.0000    0.0000    0.0000 P   0  0  0  0  0  0  0  0  0  0  0  0
    0.8001    1.3857    0.0000 S   0  0  0  0  0  0  0  0  0  0  0  0
    0.5472   -1.5035    0.0000 O   0  0  0  0  0  0  0  0  0  0  0  0
    2.0507   -2.0507    0.0000 C   0  0  0  0  0  0  0  0  0  0  0  0
    3.2764   -1.0223    0.0000 C   0  0  0  0  0  0  0  0  0  0  0  0
    2.9986    0.5534    0.0000 H   0  0  0  0  0  0  0  0  0  0  0  0
    4.7798   -1.5695    0.0000 C   0  0  0  0  0  0  0  0  0  0  0  0
    6.0055   -0.5411    0.0000 H   0  0  0  0  0  0  0  0  0  0  0  0
    5.0578   -3.1451    0.0000 C   0  0  0  0  0  0  0  0  0  0  0  0
    6.5612   -3.6925    0.0000 N   0  0  0  0  0  0  0  0  0  0  0  0
    7.7869   -2.6639    0.0000 O   0  0  0  0  0  0  0  0  0  0  0  0
    6.8392   -5.2681    0.0000 O   0  0  0  0  0  0  0  0  0  0  0  0
    3.8321   -4.1737    0.0000 C   0  0  0  0  0  0  0  0  0  0  0  0
    4.1098   -5.7494    0.0000 H   0  0  0  0  0  0  0  0  0  0  0  0
    2.3286   -3.6265    0.0000 C   0  0  0  0  0  0  0  0  0  0  0  0
    1.1029   -4.6549    0.0000 H   0  0  0  0  0  0  0  0  0  0  0  0
   -1.6000    0.0000    0.0000 C   0  0  0  0  0  0  0  0  0  0  0  0
   -2.3999    1.3857    0.0000 C   0  0  0  0  0  0  0  0  0  0  0  0
   -1.6000    2.7713    0.0000 H   0  0  0  0  0  0  0  0  0  0  0  0
   -3.9999    1.3857    0.0000 C   0  0  0  0  0  0  0  0  0  0  0  0
   -4.8000    2.7713    0.0000 H   0  0  0  0  0  0  0  0  0  0  0  0
   -4.8000    0.0000    0.0000 C   0  0  0  0  0  0  0  0  0  0  0  0
   -6.4000    0.0000    0.0000 H   0  0  0  0  0  0  0  0  0  0  0  0
   -3.9999   -1.3856    0.0000 C   0  0  0  0  0  0  0  0  0  0  0  0
   -4.8000   -2.7713    0.0000 H   0  0  0  0  0  0  0  0  0  0  0  0
   -2.3999   -1.3856    0.0000 C   0  0  0  0  0  0  0  0  0  0  0  0
   -1.6000   -2.7713    0.0000 H   0  0  0  0  0  0  0  0  0  0  0  0
  1  2  1  0  0  0  0
  1  3  1  0  0  0  0
  1  4  1  0  0  0  0
  1  5  1  0  0  0  0
  5  6  1  0  0  0  0
  5  7  1  0  0  0  0
  5  8  1  0  0  0  0
  8  9  1  0  0  0  0
  9 10  2  0  0  0  0
  9 11  1  0  0  0  0
 11 12  1  0  0  0  0
 12 13  1  0  0  0  0
 13 14  1  0  0  0  0
 13 15  2  0  0  0  0
 15 16  1  0  0  0  0
 15 17  1  0  0  0  0
 17 18  1  0  0  0  0
 18 19  2  0  0  0  0
 18 20  1  0  0  0  0
 17 21  2  0  0  0  0
 21 22  1  0  0  0  0
 21 23  1  0  0  0  0
 23 12  2  0  0  0  0
 23 24  1  0  0  0  0
  9 25  1  0  0  0  0
 25 26  1  0  0  0  0
 26 27  1  0  0  0  0
 26 28  2  0  0  0  0
 28 29  1  0  0  0  0
 28 30  1  0  0  0  0
 30 31  1  0  0  0  0
 30 32  2  0  0  0  0
 32 33  1  0  0  0  0
 32 34  1  0  0  0  0
 34 25  2  0  0  0  0
 34 35  1  0  0  0  0
M  CHG  2  18   1  20  -1
M  END
> <ChemID>
100468

> <source_casrn>
2104-64-5

> <CAS>
2104-64-5

> <SMILES>
CCOP(=S)(Oc1ccc(cc1)[N+]([O-])=O)c1ccccc1

> <NAME>
EPN

> <preferred_name>
EPN

> <iupac>
O-ethyl O-(4-nitrophenyl) phenylphosphonothioate

> <MPID>
98392

> <dsstox_substance_id>
DTXSID7022174

> <Canonical_QSARr>
CCOP(=S)(Oc1ccc(cc1)[N+]([O-])=O)c1ccccc1

> <InChI_Code_QSARr>
InChI=1S/C14H14NO4PS/c1-2-18-20(21,14-6-4-3-5-7-14)19-13-10-8-12(9-11-13)15(16)17/h3-11H,2H2,1H3

> <InChI Key_QSARr>
AIGRXSNSLVJMEA-UHFFFAOYSA-N

> <Salt_Solvent>
?

> <LogBCF>
2.97

$$$$
100470
  -INDIGO-08031719362D

 15 15  0  0  0  0  0  0  0  0999 V2000
    2.5747    0.2706    0.0000 N   0  0  0  0  0  0  0  0  0  0  0  0
    4.0363    0.9214    0.0000 H   0  0  0  0  0  0  0  0  0  0  0  0
    2.2421   -1.2945    0.0000 C   0  0  0  0  0  0  0  0  0  0  0  0
    3.3126   -2.4834    0.0000 S   0  0  0  0  0  0  0  0  0  0  0  0
    0.6508   -1.4616    0.0000 N   0  0  0  0  0  0  0  0  0  0  0  0
   -0.1492   -2.8473    0.0000 H   0  0  0  0  0  0  0  0  0  0  0  0
   -0.0000   -0.0000    0.0000 C   0  0  0  0  0  0  0  0  0  0  0  0
   -0.9404    1.2944    0.0000 H   0  0  0  0  0  0  0  0  0  0  0  0
   -1.3857   -0.8000    0.0000 C   0  0  0  0  0  0  0  0  0  0  0  0
   -2.7713   -1.6000    0.0000 H   0  0  0  0  0  0  0  0  0  0  0  0
   -2.7713   -0.0000    0.0000 H   0  0  0  0  0  0  0  0  0  0  0  0
   -1.3857   -2.4000    0.0000 H   0  0  0  0  0  0  0  0  0  0  0  0
    1.1891    1.0706    0.0000 C   0  0  0  0  0  0  0  0  0  0  0  0
   -0.0000    2.1412    0.0000 H   0  0  0  0  0  0  0  0  0  0  0  0
    2.1295    2.3650    0.0000 H   0  0  0  0  0  0  0  0  0  0  0  0
  1  2  1  0  0  0  0
  1  3  1  0  0  0  0
  3  4  2  0  0  0  0
  3  5  1  0  0  0  0
  5  6  1  0  0  0  0
  5  7  1  0  0  0  0
  7  8  1  0  0  0  0
  7  9  1  0  0  0  0
  9 10  1  0  0  0  0
  9 11  1  0  0  0  0
  9 12  1  0  0  0  0
  7 13  1  0  0  0  0
 13  1  1  0  0  0  0
 13 14  1  0  0  0  0
 13 15  1  0  0  0  0
M  END
> <ChemID>
100470

> <source_casrn>
2122-19-2

> <CAS>
2122-19-2

> <SMILES>
CC1CNC(=S)N1

> <NAME>
2-Imidazolidinethione, 4-methyl-

> <preferred_name>
4-Methyl-2-imidazolidinethione

> <iupac>
4-methylimidazolidine-2-thione

> <MPID>
98394

> <dsstox_substance_id>
DTXSID3052694

> <Canonical_QSARr>
CC1CNC(=S)N1

> <InChI_Code_QSARr>
InChI=1S/C4H8N2S/c1-3-2-5-4(7)6-3/h3H,2H2,1H3,(H2,5,6,7)

> <InChI Key_QSARr>
NGZJXCFNBVJLQN-UHFFFAOYSA-N

> <Salt_Solvent>
?

> <LogBCF>
1.0

$$$$
100471
  -INDIGO-08031719362D

 22 23  0  0  0  0  0  0  0  0999 V2000
   -0.0001    0.0000    0.0000 C   0  0  0  0  0  0  0  0  0  0  0  0
    1.6001   -0.0000    0.0000 C   0  0  0  0  0  0  0  0  0  0  0  0
    2.4001   -1.3856    0.0000 C   0  0  0  0  0  0  0  0  0  0  0  0
    1.6001   -2.7713    0.0000 Cl  0  0  0  0  0  0  0  0  0  0  0  0
    4.0000   -1.3856    0.0000 C   0  0  0  0  0  0  0  0  0  0  0  0
    4.8000   -2.7713    0.0000 Cl  0  0  0  0  0  0  0  0  0  0  0  0
    4.8000    0.0000    0.0000 C   0  0  0  0  0  0  0  0  0  0  0  0
    6.4000    0.0000    0.0000 H   0  0  0  0  0  0  0  0  0  0  0  0
    4.0000    1.3856    0.0000 C   0  0  0  0  0  0  0  0  0  0  0  0
    4.8000    2.7713    0.0000 Cl  0  0  0  0  0  0  0  0  0  0  0  0
    2.4001    1.3856    0.0000 C   0  0  0  0  0  0  0  0  0  0  0  0
    1.6001    2.7713    0.0000 Cl  0  0  0  0  0  0  0  0  0  0  0  0
   -0.8001    1.3856    0.0000 C   0  0  0  0  0  0  0  0  0  0  0  0
   -0.0001    2.7713    0.0000 Cl  0  0  0  0  0  0  0  0  0  0  0  0
   -2.4000    1.3856    0.0000 C   0  0  0  0  0  0  0  0  0  0  0  0
   -3.2000    2.7713    0.0000 Cl  0  0  0  0  0  0  0  0  0  0  0  0
   -3.2000    0.0000    0.0000 C   0  0  0  0  0  0  0  0  0  0  0  0
   -4.8000   -0.0000    0.0000 H   0  0  0  0  0  0  0  0  0  0  0  0
   -2.4000   -1.3856    0.0000 C   0  0  0  0  0  0  0  0  0  0  0  0
   -3.2000   -2.7713    0.0000 Cl  0  0  0  0  0  0  0  0  0  0  0  0
   -0.8001   -1.3856    0.0000 C   0  0  0  0  0  0  0  0  0  0  0  0
   -0.0001   -2.7713    0.0000 Cl  0  0  0  0  0  0  0  0  0  0  0  0
  1  2  1  0  0  0  0
  2  3  1  0  0  0  0
  3  4  1  0  0  0  0
  3  5  2  0  0  0  0
  5  6  1  0  0  0  0
  5  7  1  0  0  0  0
  7  8  1  0  0  0  0
  7  9  2  0  0  0  0
  9 10  1  0  0  0  0
  9 11  1  0  0  0  0
 11  2  2  0  0  0  0
 11 12  1  0  0  0  0
  1 13  1  0  0  0  0
 13 14  1  0  0  0  0
 13 15  2  0  0  0  0
 15 16  1  0  0  0  0
 15 17  1  0  0  0  0
 17 18  1  0  0  0  0
 17 19  2  0  0  0  0
 19 20  1  0  0  0  0
 19 21  1  0  0  0  0
 21  1  2  0  0  0  0
 21 22  1  0  0  0  0
M  END
> <ChemID>
100471

> <source_casrn>
2136-99-4

> <CAS>
2136-99-4

> <SMILES>
Clc1cc(Cl)c(Cl)c(-c2c(Cl)c(Cl)cc(Cl)c2Cl)c1Cl

> <NAME>
2,2',3,3',5,5',6,6'-OCTACHLOROBIPHENYL

> <preferred_name>
2,2',3,3',5,5',6,6'-Octachlorobiphenyl

> <iupac>
1,2,4,5-tetrachloro-3-(2,3,5,6-tetrachlorophenyl)benzene

> <MPID>
98395

> <dsstox_substance_id>
DTXSID0074132

> <Canonical_QSARr>
Clc1cc(Cl)c(Cl)c(-c2c(Cl)c(Cl)cc(Cl)c2Cl)c1Cl

> <InChI_Code_QSARr>
InChI=1S/C12H2Cl8/c13-3-1-4(14)10(18)7(9(3)17)8-11(19)5(15)2-6(16)12(8)20/h1-2H

> <InChI Key_QSARr>
JPOPEORRMSDUIP-UHFFFAOYSA-N

> <Salt_Solvent>
?

> <LogBCF>
5.82

$$$$
100472
  -INDIGO-08031719362D

 31 32  0  0  0  0  0  0  0  0999 V2000
   -6.4000    2.7713    0.0000 C   0  0  0  0  0  0  0  0  0  0  0  0
   -7.2000    4.1569    0.0000 C   0  0  0  0  0  0  0  0  0  0  0  0
   -6.4000    5.5426    0.0000 H   0  0  0  0  0  0  0  0  0  0  0  0
   -8.8001    4.1569    0.0000 C   0  0  0  0  0  0  0  0  0  0  0  0
   -9.5999    5.5426    0.0000 H   0  0  0  0  0  0  0  0  0  0  0  0
   -9.5999    2.7713    0.0000 C   0  0  0  0  0  0  0  0  0  0  0  0
  -11.2000    2.7713    0.0000 H   0  0  0  0  0  0  0  0  0  0  0  0
   -8.8001    1.3856    0.0000 C   0  0  0  0  0  0  0  0  0  0  0  0
   -9.5999   -0.0000    0.0000 H   0  0  0  0  0  0  0  0  0  0  0  0
   -7.2000    1.3856    0.0000 C   0  0  0  0  0  0  0  0  0  0  0  0
   -6.4000   -0.0000    0.0000 C   0  0  0  0  0  0  0  0  0  0  0  0
   -7.2000   -1.3856    0.0000 H   0  0  0  0  0  0  0  0  0  0  0  0
   -4.7999   -0.0000    0.0000 C   0  0  0  0  0  0  0  0  0  0  0  0
   -3.9999   -1.3856    0.0000 H   0  0  0  0  0  0  0  0  0  0  0  0
   -3.9999    1.3856    0.0000 C   0  0  0  0  0  0  0  0  0  0  0  0
   -2.4000    1.3856    0.0000 O   0  0  0  0  0  0  0  0  0  0  0  0
   -1.6000   -0.0000    0.0000 C   0  0  0  0  0  0  0  0  0  0  0  0
   -1.8087   -1.5863    0.0000 H   0  0  0  0  0  0  0  0  0  0  0  0
   -2.8694   -0.9740    0.0000 H   0  0  0  0  0  0  0  0  0  0  0  0
    0.0001   -0.0000    0.0000 C   0  0  0  0  0  0  0  0  0  0  0  0
    0.0001   -1.6000    0.0000 H   0  0  0  0  0  0  0  0  0  0  0  0
    1.5999   -0.0000    0.0000 C   0  0  0  0  0  0  0  0  0  0  0  0
    3.2000   -0.0000    0.0000 H   0  0  0  0  0  0  0  0  0  0  0  0
    2.4000    1.3856    0.0000 H   0  0  0  0  0  0  0  0  0  0  0  0
    2.4000   -1.3856    0.0000 H   0  0  0  0  0  0  0  0  0  0  0  0
    0.0001    1.6000    0.0000 C   0  0  0  0  0  0  0  0  0  0  0  0
    0.0001    3.2000    0.0000 H   0  0  0  0  0  0  0  0  0  0  0  0
   -1.3855    2.4000    0.0000 H   0  0  0  0  0  0  0  0  0  0  0  0
    1.3857    2.4000    0.0000 H   0  0  0  0  0  0  0  0  0  0  0  0
   -4.7999    2.7713    0.0000 C   0  0  0  0  0  0  0  0  0  0  0  0
   -4.0001    4.1569    0.0000 H   0  0  0  0  0  0  0  0  0  0  0  0
  1  2  1  0  0  0  0
  2  3  1  0  0  0  0
  2  4  2  0  0  0  0
  4  5  1  0  0  0  0
  4  6  1  0  0  0  0
  6  7  1  0  0  0  0
  6  8  2  0  0  0  0
  8  9  1  0  0  0  0
  8 10  1  0  0  0  0
 10  1  1  0  0  0  0
 10 11  2  0  0  0  0
 11 12  1  0  0  0  0
 11 13  1  0  0  0  0
 13 14  1  0  0  0  0
 13 15  2  0  0  0  0
 15 16  1  0  0  0  0
 16 17  1  0  0  0  0
 17 18  1  0  0  0  0
 17 19  1  0  0  0  0
 17 20  1  0  0  0  0
 20 21  1  0  0  0  0
 20 22  1  0  0  0  0
 22 23  1  0  0  0  0
 22 24  1  0  0  0  0
 22 25  1  0  0  0  0
 20 26  1  0  0  0  0
 26 27  1  0  0  0  0
 26 28  1  0  0  0  0
 26 29  1  0  0  0  0
 15 30  1  0  0  0  0
 30  1  2  0  0  0  0
 30 31  1  0  0  0  0
M  END
> <ChemID>
100472

> <source_casrn>
2173-57-1

> <CAS>
2173-57-1

> <SMILES>
CC(C)COc1cc2ccccc2cc1

> <NAME>
Naphthalene, 2-(2-methylpropoxy)-

> <preferred_name>
Isobutyl 2-naphthyl ether

> <iupac>
2-isobutoxynaphthalene

> <MPID>
98396

> <dsstox_substance_id>
DTXSID1051484

> <Canonical_QSARr>
CC(C)COc1cc2ccccc2cc1

> <InChI_Code_QSARr>
InChI=1S/C14H16O/c1-11(2)10-15-14-8-7-12-5-3-4-6-13(12)9-14/h3-9,11H,10H2,1-2H3

> <InChI Key_QSARr>
XOHIHZHSDMWWMS-UHFFFAOYSA-N

> <Salt_Solvent>
?

> <LogBCF>
2.8

$$$$
100475
  -INDIGO-08031719362D

 22 23  0  0  0  0  0  0  0  0999 V2000
    0.0000    0.0000    0.0000 C   0  0  0  0  0  0  0  0  0  0  0  0
    1.6000    0.0000    0.0000 C   0  0  0  0  0  0  0  0  0  0  0  0
    2.3999    1.3856    0.0000 O   0  0  0  0  0  0  0  0  0  0  0  0
    4.0001    1.3856    0.0000 C   0  0  0  0  0  0  0  0  0  0  0  0
    4.8000    2.7713    0.0000 H   0  0  0  0  0  0  0  0  0  0  0  0
    5.6000    1.3856    0.0000 H   0  0  0  0  0  0  0  0  0  0  0  0
    3.2001    2.7713    0.0000 H   0  0  0  0  0  0  0  0  0  0  0  0
    2.3999   -1.3856    0.0000 C   0  0  0  0  0  0  0  0  0  0  0  0
    4.0001   -1.3856    0.0000 H   0  0  0  0  0  0  0  0  0  0  0  0
    1.6000   -2.7713    0.0000 C   0  0  0  0  0  0  0  0  0  0  0  0
    2.3999   -4.1569    0.0000 H   0  0  0  0  0  0  0  0  0  0  0  0
    0.0000   -2.7713    0.0000 C   0  0  0  0  0  0  0  0  0  0  0  0
   -0.8000   -4.1569    0.0000 H   0  0  0  0  0  0  0  0  0  0  0  0
   -0.8000   -1.3856    0.0000 C   0  0  0  0  0  0  0  0  0  0  0  0
   -2.4001   -1.3856    0.0000 C   0  0  0  0  0  0  0  0  0  0  0  0
   -3.2000   -2.7713    0.0000 H   0  0  0  0  0  0  0  0  0  0  0  0
   -3.2000    0.0000    0.0000 C   0  0  0  0  0  0  0  0  0  0  0  0
   -4.8000    0.0000    0.0000 H   0  0  0  0  0  0  0  0  0  0  0  0
   -2.4001    1.3856    0.0000 C   0  0  0  0  0  0  0  0  0  0  0  0
   -3.2000    2.7713    0.0000 H   0  0  0  0  0  0  0  0  0  0  0  0
   -0.8000    1.3856    0.0000 C   0  0  0  0  0  0  0  0  0  0  0  0
    0.0000    2.7713    0.0000 H   0  0  0  0  0  0  0  0  0  0  0  0
  1  2  1  0  0  0  0
  2  3  1  0  0  0  0
  3  4  1  0  0  0  0
  4  5  1  0  0  0  0
  4  6  1  0  0  0  0
  4  7  1  0  0  0  0
  2  8  2  0  0  0  0
  8  9  1  0  0  0  0
  8 10  1  0  0  0  0
 10 11  1  0  0  0  0
 10 12  2  0  0  0  0
 12 13  1  0  0  0  0
 12 14  1  0  0  0  0
 14  1  1  0  0  0  0
 14 15  2  0  0  0  0
 15 16  1  0  0  0  0
 15 17  1  0  0  0  0
 17 18  1  0  0  0  0
 17 19  2  0  0  0  0
 19 20  1  0  0  0  0
 19 21  1  0  0  0  0
 21  1  2  0  0  0  0
 21 22  1  0  0  0  0
M  END
> <ChemID>
100475

> <source_casrn>
2216-69-5

> <CAS>
2216-69-5

> <SMILES>
COc1cccc2ccccc21

> <NAME>
NAPHTHALENE, 1-METHOXY-

> <preferred_name>
Naphthalene, 1-methoxy-

> <iupac>
1-Methoxynaphthalene

> <MPID>
98399

> <dsstox_substance_id>
DTXSID5062263

> <Canonical_QSARr>
COc1cccc2ccccc21

> <InChI_Code_QSARr>
InChI=1S/C11H10O/c1-12-11-8-4-6-9-5-2-3-7-10(9)11/h2-8H,1H3

> <InChI Key_QSARr>
NQMUGNMMFTYOHK-UHFFFAOYSA-N

> <Salt_Solvent>
?

> <LogBCF>
2.21

$$$$
100476
  -INDIGO-08031719362D

 18 19  0  0  0  0  0  0  0  0999 V2000
    0.0001   -0.0000    0.0000 C   0  0  0  0  0  0  0  0  0  0  0  0
    1.3856    0.8000    0.0000 C   0  0  0  0  0  0  0  0  0  0  0  0
    1.3856    2.4000    0.0000 Cl  0  0  0  0  0  0  0  0  0  0  0  0
    2.7713   -0.0000    0.0000 C   0  0  0  0  0  0  0  0  0  0  0  0
    4.1569    0.8000    0.0000 Cl  0  0  0  0  0  0  0  0  0  0  0  0
    2.7713   -1.6000    0.0000 C   0  0  0  0  0  0  0  0  0  0  0  0
    4.1569   -2.4000    0.0000 Cl  0  0  0  0  0  0  0  0  0  0  0  0
    1.3856   -2.4000    0.0000 C   0  0  0  0  0  0  0  0  0  0  0  0
    1.3856   -4.0000    0.0000 Cl  0  0  0  0  0  0  0  0  0  0  0  0
    0.0001   -1.6000    0.0000 C   0  0  0  0  0  0  0  0  0  0  0  0
   -1.3856   -2.4000    0.0000 C   0  0  0  0  0  0  0  0  0  0  0  0
   -1.3856   -4.0000    0.0000 Cl  0  0  0  0  0  0  0  0  0  0  0  0
   -2.7712   -1.6000    0.0000 C   0  0  0  0  0  0  0  0  0  0  0  0
   -4.1569   -2.4000    0.0000 Cl  0  0  0  0  0  0  0  0  0  0  0  0
   -2.7712   -0.0000    0.0000 C   0  0  0  0  0  0  0  0  0  0  0  0
   -4.1569    0.8000    0.0000 Cl  0  0  0  0  0  0  0  0  0  0  0  0
   -1.3856    0.8000    0.0000 C   0  0  0  0  0  0  0  0  0  0  0  0
   -1.3856    2.4000    0.0000 Cl  0  0  0  0  0  0  0  0  0  0  0  0
  1  2  1  0  0  0  0
  2  3  1  0  0  0  0
  2  4  2  0  0  0  0
  4  5  1  0  0  0  0
  4  6  1  0  0  0  0
  6  7  1  0  0  0  0
  6  8  2  0  0  0  0
  8  9  1  0  0  0  0
  8 10  1  0  0  0  0
 10  1  1  0  0  0  0
 10 11  2  0  0  0  0
 11 12  1  0  0  0  0
 11 13  1  0  0  0  0
 13 14  1  0  0  0  0
 13 15  2  0  0  0  0
 15 16  1  0  0  0  0
 15 17  1  0  0  0  0
 17  1  2  0  0  0  0
 17 18  1  0  0  0  0
M  END
> <ChemID>
100476

> <source_casrn>
2234-13-1

> <CAS>
2234-13-1

> <SMILES>
Clc1c2c(c(Cl)c(Cl)c1Cl)c(Cl)c(Cl)c(Cl)c2Cl

> <NAME>
OCTACHLORONAPHTHALENE

> <preferred_name>
Octachloronaphthalene

> <iupac>
octachloronaphthalene

> <MPID>
98400

> <dsstox_substance_id>
DTXSID6025800

> <Canonical_QSARr>
Clc1c2c(c(Cl)c(Cl)c1Cl)c(Cl)c(Cl)c(Cl)c2Cl

> <InChI_Code_QSARr>
InChI=1S/C10Cl8/c11-3-1-2(5(13)9(17)7(3)15)6(14)10(18)8(16)4(1)12

> <InChI Key_QSARr>
RTNLUFLDZOAXIC-UHFFFAOYSA-N

> <Salt_Solvent>
?

> <LogBCF>
2.58

$$$$
100477
  -INDIGO-08031719362D

 22 23  0  0  0  0  0  0  0  0999 V2000
    3.2001    2.7713    0.0000 N   0  0  0  0  0  0  0  0  0  0  0  0
    4.8000    2.7713    0.0000 H   0  0  0  0  0  0  0  0  0  0  0  0
    2.4000    4.1569    0.0000 H   0  0  0  0  0  0  0  0  0  0  0  0
    2.4000    1.3856    0.0000 C   0  0  0  0  0  0  0  0  0  0  0  0
    0.8000    1.3856    0.0000 C   0  0  0  0  0  0  0  0  0  0  0  0
    0.0000    0.0000    0.0000 C   0  0  0  0  0  0  0  0  0  0  0  0
   -1.6000    0.0000    0.0000 C   0  0  0  0  0  0  0  0  0  0  0  0
   -2.4001    1.3856    0.0000 C   0  0  0  0  0  0  0  0  0  0  0  0
   -4.0000    1.3856    0.0000 H   0  0  0  0  0  0  0  0  0  0  0  0
   -1.6000    2.7713    0.0000 C   0  0  0  0  0  0  0  0  0  0  0  0
   -2.4001    4.1569    0.0000 H   0  0  0  0  0  0  0  0  0  0  0  0
    0.0000    2.7713    0.0000 C   0  0  0  0  0  0  0  0  0  0  0  0
    0.8000    4.1569    0.0000 H   0  0  0  0  0  0  0  0  0  0  0  0
   -2.4001   -1.3856    0.0000 N   0  0  0  0  0  0  0  0  0  0  0  0
   -4.0000   -1.3856    0.0000 H   0  0  0  0  0  0  0  0  0  0  0  0
   -1.6000   -2.7713    0.0000 H   0  0  0  0  0  0  0  0  0  0  0  0
    0.8000   -1.3856    0.0000 C   0  0  0  0  0  0  0  0  0  0  0  0
    0.0000   -2.7713    0.0000 H   0  0  0  0  0  0  0  0  0  0  0  0
    2.4000   -1.3856    0.0000 C   0  0  0  0  0  0  0  0  0  0  0  0
    3.2001   -2.7713    0.0000 H   0  0  0  0  0  0  0  0  0  0  0  0
    3.2001    0.0000    0.0000 C   0  0  0  0  0  0  0  0  0  0  0  0
    4.8000    0.0000    0.0000 H   0  0  0  0  0  0  0  0  0  0  0  0
  1  2  1  0  0  0  0
  1  3  1  0  0  0  0
  1  4  1  0  0  0  0
  4  5  1  0  0  0  0
  5  6  1  0  0  0  0
  6  7  2  0  0  0  0
  7  8  1  0  0  0  0
  8  9  1  0  0  0  0
  8 10  2  0  0  0  0
 10 11  1  0  0  0  0
 10 12  1  0  0  0  0
 12  5  2  0  0  0  0
 12 13  1  0  0  0  0
  7 14  1  0  0  0  0
 14 15  1  0  0  0  0
 14 16  1  0  0  0  0
  6 17  1  0  0  0  0
 17 18  1  0  0  0  0
 17 19  2  0  0  0  0
 19 20  1  0  0  0  0
 19 21  1  0  0  0  0
 21  4  2  0  0  0  0
 21 22  1  0  0  0  0
M  END
> <ChemID>
100477

> <source_casrn>
2243-62-1

> <CAS>
2243-62-1

> <SMILES>
Nc1cccc2c1cccc2N

> <NAME>
1,5-DIAMINONAPHTHALENE

> <preferred_name>
1,5-Naphthalenediamine

> <iupac>
naphthalene-1,5-diamine

> <MPID>
98401

> <dsstox_substance_id>
DTXSID3020916

> <Canonical_QSARr>
Nc1cccc2c1cccc2N

> <InChI_Code_QSARr>
InChI=1S/C10H10N2/c11-9-5-1-3-7-8(9)4-2-6-10(7)12/h1-6H,11-12H2

> <InChI Key_QSARr>
KQSABULTKYLFEV-UHFFFAOYSA-N

> <Salt_Solvent>
?

> <LogBCF>
0.65

$$$$
100479
  -INDIGO-08031719362D

 22 26  0  0  0  0  0  0  0  0999 V2000
   -0.0000    0.0000    0.0000 C   0  0  0  0  0  0  0  0  0  0  0  0
   -1.5913    0.1672    0.0000 C   0  0  0  0  0  0  0  0  0  0  0  0
   -2.9769   -0.6328    0.0000 C   0  0  0  0  0  0  0  0  0  0  0  0
   -2.6442   -2.1978    0.0000 C   0  0  0  0  0  0  0  0  0  0  0  0
   -3.7148   -3.3868    0.0000 Cl  0  0  0  0  0  0  0  0  0  0  0  0
    1.9239   -1.7322    0.0000 C   0  0  0  0  0  0  0  0  0  0  0  0
    0.3327   -1.5650    0.0000 C   0  0  0  0  0  0  0  0  0  0  0  0
   -0.3516   -0.9270    0.0000 Cl  0  0  0  0  0  0  0  0  0  0  0  0
   -1.0530   -2.3650    0.0000 C   0  0  0  0  0  0  0  0  0  0  0  0
   -1.1832   -1.4386    0.0000 Cl  0  0  0  0  0  0  0  0  0  0  0  0
   -2.2420   -1.2944    0.0000 C   0  0  0  0  0  0  0  0  0  0  0  0
   -3.8177   -1.0166    0.0000 Cl  0  0  0  0  0  0  0  0  0  0  0  0
   -3.5685   -2.1891    0.0000 Cl  0  0  0  0  0  0  0  0  0  0  0  0
    2.8623   -3.0282    0.0000 Cl  0  0  0  0  0  0  0  0  0  0  0  0
    2.5747   -0.2706    0.0000 C   0  0  0  0  0  0  0  0  0  0  0  0
    3.9603   -1.0706    0.0000 Cl  0  0  0  0  0  0  0  0  0  0  0  0
    3.5151    1.0238    0.0000 Cl  0  0  0  0  0  0  0  0  0  0  0  0
    1.3856    0.8000    0.0000 C   0  0  0  0  0  0  0  0  0  0  0  0
    1.7159    2.3656    0.0000 Cl  0  0  0  0  0  0  0  0  0  0  0  0
   -4.4385    0.0180    0.0000 Cl  0  0  0  0  0  0  0  0  0  0  0  0
   -1.9240    1.7323    0.0000 Cl  0  0  0  0  0  0  0  0  0  0  0  0
    1.4616   -0.6508    0.0000 Cl  0  0  0  0  0  0  0  0  0  0  0  0
  1  2  1  0  0  0  0
  2  3  1  0  0  0  0
  3  4  1  0  0  0  0
  4  5  1  0  0  0  0
  4  6  1  0  0  0  0
  6  7  1  0  0  0  0
  7  1  1  0  0  0  0
  7  8  1  0  0  0  0
  7  9  1  0  0  0  0
  9  4  1  0  0  0  0
  9 10  1  0  0  0  0
  9 11  1  0  0  0  0
 11  2  1  0  0  0  0
 11 12  1  0  0  0  0
 11 13  1  0  0  0  0
  6 14  1  0  0  0  0
  6 15  1  0  0  0  0
 15 16  1  0  0  0  0
 15 17  1  0  0  0  0
 15 18  1  0  0  0  0
 18  1  1  0  0  0  0
 18  3  1  0  0  0  0
 18 19  1  0  0  0  0
  3 20  1  0  0  0  0
  2 21  1  0  0  0  0
  1 22  1  0  0  0  0
M  END
> <ChemID>
100479

> <source_casrn>
2385-85-5

> <CAS>
2385-85-5

> <SMILES>
ClC1(Cl)C2(Cl)C3(Cl)C4(Cl)C2(Cl)C2(Cl)C(Cl)(C3(Cl)C12Cl)C4(Cl)Cl

> <NAME>
MIREX

> <preferred_name>
Mirex

> <iupac>
C10Cl12

> <MPID>
98403

> <dsstox_substance_id>
DTXSID7020895

> <Canonical_QSARr>
ClC1(Cl)C2(Cl)C3(Cl)C4(Cl)C2(Cl)C2(Cl)C(Cl)(C3(Cl)C12Cl)C4(Cl)Cl

> <InChI_Code_QSARr>
InChI=1S/C10Cl12/c11-1-2(12)7(17)4(14)3(13,5(1,15)9(7,19)20)6(1,16)10(21,22)8(2,4)18

> <InChI Key_QSARr>
GVYLCNUFSHDAAW-UHFFFAOYSA-N

> <Salt_Solvent>
?

> <LogBCF>
4.31

$$$$
100480
  -INDIGO-08031719362D

 17 17  0  0  0  0  0  0  0  0999 V2000
    0.0000    2.7713    0.0000 O   0  0  0  0  0  0  0  0  0  0  0  0
    0.8000    4.1569    0.0000 H   0  0  0  0  0  0  0  0  0  0  0  0
    0.8000    1.3856    0.0000 C   0  0  0  0  0  0  0  0  0  0  0  0
    0.0000    0.0000    0.0000 C   0  0  0  0  0  0  0  0  0  0  0  0
   -1.6000    0.0000    0.0000 O   0  0  0  0  0  0  0  0  0  0  0  0
   -2.4001   -1.3856    0.0000 C   0  0  0  0  0  0  0  0  0  0  0  0
   -4.0000   -1.3856    0.0000 H   0  0  0  0  0  0  0  0  0  0  0  0
   -3.2000   -2.7713    0.0000 H   0  0  0  0  0  0  0  0  0  0  0  0
   -3.2000    0.0000    0.0000 H   0  0  0  0  0  0  0  0  0  0  0  0
    0.8000   -1.3856    0.0000 C   0  0  0  0  0  0  0  0  0  0  0  0
    0.0000   -2.7713    0.0000 H   0  0  0  0  0  0  0  0  0  0  0  0
    2.4000   -1.3856    0.0000 C   0  0  0  0  0  0  0  0  0  0  0  0
    3.2001   -2.7713    0.0000 Cl  0  0  0  0  0  0  0  0  0  0  0  0
    3.2001    0.0000    0.0000 C   0  0  0  0  0  0  0  0  0  0  0  0
    4.8000    0.0000    0.0000 Cl  0  0  0  0  0  0  0  0  0  0  0  0
    2.4000    1.3856    0.0000 C   0  0  0  0  0  0  0  0  0  0  0  0
    3.2001    2.7713    0.0000 H   0  0  0  0  0  0  0  0  0  0  0  0
  1  2  1  0  0  0  0
  1  3  1  0  0  0  0
  3  4  1  0  0  0  0
  4  5  1  0  0  0  0
  5  6  1  0  0  0  0
  6  7  1  0  0  0  0
  6  8  1  0  0  0  0
  6  9  1  0  0  0  0
  4 10  2  0  0  0  0
 10 11  1  0  0  0  0
 10 12  1  0  0  0  0
 12 13  1  0  0  0  0
 12 14  2  0  0  0  0
 14 15  1  0  0  0  0
 14 16  1  0  0  0  0
 16  3  2  0  0  0  0
 16 17  1  0  0  0  0
M  END
> <ChemID>
100480

> <source_casrn>
2460-49-3

> <CAS>
2460-49-3

> <SMILES>
COc1cc(Cl)c(Cl)cc1O

> <NAME>
4,5-DICHLORO-2-METHOXYPHENOL

> <preferred_name>
4,5-Dichloroguaiacol

> <iupac>
4,5-dichloro-2-methoxyphenol

> <MPID>
98404

> <dsstox_substance_id>
DTXSID5022192

> <Canonical_QSARr>
COc1cc(Cl)c(Cl)cc1O

> <InChI_Code_QSARr>
InChI=1S/C7H6Cl2O2/c1-11-7-3-5(9)4(8)2-6(7)10/h2-3,10H,1H3

> <InChI Key_QSARr>
HAAFFTHBNFBVKY-UHFFFAOYSA-N

> <Salt_Solvent>
?

> <LogBCF>
2.03

$$$$
100481
  -INDIGO-08031719362D

 26 26  0  0  0  0  0  0  0  0999 V2000
   -6.9281    2.4000    0.0000 N   0  0  0  0  0  0  0  0  0  0  0  0
   -5.5426    1.6000    0.0000 C   0  0  0  0  0  0  0  0  0  0  0  0
   -4.1569    2.4000    0.0000 C   0  0  0  0  0  0  0  0  0  0  0  0
   -4.1569    4.0000    0.0000 H   0  0  0  0  0  0  0  0  0  0  0  0
   -2.7712    1.6000    0.0000 C   0  0  0  0  0  0  0  0  0  0  0  0
   -1.3857    2.4000    0.0000 Cl  0  0  0  0  0  0  0  0  0  0  0  0
   -2.7712    0.0000    0.0000 C   0  0  0  0  0  0  0  0  0  0  0  0
   -1.3857   -0.8000    0.0000 O   0  0  0  0  0  0  0  0  0  0  0  0
    0.0000    0.0000    0.0000 P   0  0  0  0  0  0  0  0  0  0  0  0
    0.0000   -1.6000    0.0000 S   0  0  0  0  0  0  0  0  0  0  0  0
    1.3857   -0.8000    0.0000 O   0  0  0  0  0  0  0  0  0  0  0  0
    2.7712    0.0000    0.0000 C   0  0  0  0  0  0  0  0  0  0  0  0
    4.1569   -0.8000    0.0000 H   0  0  0  0  0  0  0  0  0  0  0  0
    4.1569    0.8000    0.0000 H   0  0  0  0  0  0  0  0  0  0  0  0
    2.7712   -1.6000    0.0000 H   0  0  0  0  0  0  0  0  0  0  0  0
    1.3857    0.8000    0.0000 O   0  0  0  0  0  0  0  0  0  0  0  0
    1.3857    2.4000    0.0000 C   0  0  0  0  0  0  0  0  0  0  0  0
    1.3857    4.0000    0.0000 H   0  0  0  0  0  0  0  0  0  0  0  0
    2.7712    3.2000    0.0000 H   0  0  0  0  0  0  0  0  0  0  0  0
    0.0000    3.2000    0.0000 H   0  0  0  0  0  0  0  0  0  0  0  0
   -4.1569   -0.8000    0.0000 C   0  0  0  0  0  0  0  0  0  0  0  0
   -4.1569   -2.4000    0.0000 H   0  0  0  0  0  0  0  0  0  0  0  0
   -5.5426    0.0000    0.0000 C   0  0  0  0  0  0  0  0  0  0  0  0
   -6.9281   -0.8000    0.0000 H   0  0  0  0  0  0  0  0  0  0  0  0
   -8.3138    1.6000    0.0000 O   0  0  0  0  0  0  0  0  0  0  0  0
   -6.9281    4.0000    0.0000 O   0  0  0  0  0  0  0  0  0  0  0  0
  1  2  1  0  0  0  0
  2  3  1  0  0  0  0
  3  4  1  0  0  0  0
  3  5  2  0  0  0  0
  5  6  1  0  0  0  0
  5  7  1  0  0  0  0
  7  8  1  0  0  0  0
  8  9  1  0  0  0  0
  9 10  2  0  0  0  0
  9 11  1  0  0  0  0
 11 12  1  0  0  0  0
 12 13  1  0  0  0  0
 12 14  1  0  0  0  0
 12 15  1  0  0  0  0
  9 16  1  0  0  0  0
 16 17  1  0  0  0  0
 17 18  1  0  0  0  0
 17 19  1  0  0  0  0
 17 20  1  0  0  0  0
  7 21  2  0  0  0  0
 21 22  1  0  0  0  0
 21 23  1  0  0  0  0
 23  2  2  0  0  0  0
 23 24  1  0  0  0  0
  1 25  1  0  0  0  0
  1 26  2  0  0  0  0
M  CHG  2   1   1  25  -1
M  END
> <ChemID>
100481

> <source_casrn>
2463-84-5

> <CAS>
2463-84-5

> <SMILES>
COP(=S)(Oc1ccc(cc1Cl)[N+]([O-])=O)OC

> <NAME>
DICAPTHON

> <preferred_name>
Dicapthon

> <iupac>
O-(2-chloro-4-nitrophenyl) O,O-dimethyl phosphorothioate

> <MPID>
98405

> <dsstox_substance_id>
DTXSID0041850

> <Canonical_QSARr>
COP(=S)(Oc1ccc(cc1Cl)[N+]([O-])=O)OC

> <InChI_Code_QSARr>
InChI=1S/C8H9ClNO5PS/c1-13-16(17,14-2)15-8-4-3-6(10(11)12)5-7(8)9/h3-5H,1-2H3

> <InChI Key_QSARr>
OTKXWJHPGBRXCR-UHFFFAOYSA-N

> <Salt_Solvent>
?

> <LogBCF>
1.89

$$$$
100484
  -INDIGO-08031719362D

 34 33  0  0  0  0  0  0  0  0999 V2000
    4.1570    0.8001    0.0000 P   0  0  0  0  0  0  0  0  0  0  0  0
    4.1570    2.4000    0.0000 S   0  0  0  0  0  0  0  0  0  0  0  0
    5.5426    1.6000    0.0000 O   0  0  0  0  0  0  0  0  0  0  0  0
    5.5426    3.2000    0.0000 C   0  0  0  0  0  0  0  0  0  0  0  0
    3.9562    3.4089    0.0000 H   0  0  0  0  0  0  0  0  0  0  0  0
    4.5685    4.4694    0.0000 H   0  0  0  0  0  0  0  0  0  0  0  0
    6.9283    4.0001    0.0000 C   0  0  0  0  0  0  0  0  0  0  0  0
    8.3138    4.8000    0.0000 H   0  0  0  0  0  0  0  0  0  0  0  0
    6.9283    5.6000    0.0000 H   0  0  0  0  0  0  0  0  0  0  0  0
    8.3138    3.2000    0.0000 H   0  0  0  0  0  0  0  0  0  0  0  0
    5.5426   -0.0000    0.0000 O   0  0  0  0  0  0  0  0  0  0  0  0
    5.5426   -1.6000    0.0000 C   0  0  0  0  0  0  0  0  0  0  0  0
    4.5685   -2.8694    0.0000 H   0  0  0  0  0  0  0  0  0  0  0  0
    3.9562   -1.8089    0.0000 H   0  0  0  0  0  0  0  0  0  0  0  0
    6.9283   -2.4001    0.0000 C   0  0  0  0  0  0  0  0  0  0  0  0
    8.3138   -3.2000    0.0000 H   0  0  0  0  0  0  0  0  0  0  0  0
    6.9283   -4.0000    0.0000 H   0  0  0  0  0  0  0  0  0  0  0  0
    8.3138   -1.6000    0.0000 H   0  0  0  0  0  0  0  0  0  0  0  0
    2.7713   -0.0000    0.0000 S   0  0  0  0  0  0  0  0  0  0  0  0
    1.3857    0.7999    0.0000 C   0  0  0  0  0  0  0  0  0  0  0  0
    0.7734    2.2783    0.0000 H   0  0  0  0  0  0  0  0  0  0  0  0
    1.9979    2.2783    0.0000 H   0  0  0  0  0  0  0  0  0  0  0  0
    0.0000   -0.0000    0.0000 C   0  0  0  0  0  0  0  0  0  0  0  0
    0.6123   -1.4782    0.0000 H   0  0  0  0  0  0  0  0  0  0  0  0
   -0.6123   -1.4782    0.0000 H   0  0  0  0  0  0  0  0  0  0  0  0
   -1.3857    0.7999    0.0000 S   0  0  0  0  0  0  0  0  0  0  0  0
   -1.3857    2.4000    0.0000 O   0  0  0  0  0  0  0  0  0  0  0  0
   -2.7713   -0.0000    0.0000 C   0  0  0  0  0  0  0  0  0  0  0  0
   -2.1590   -1.4782    0.0000 H   0  0  0  0  0  0  0  0  0  0  0  0
   -3.3836   -1.4782    0.0000 H   0  0  0  0  0  0  0  0  0  0  0  0
   -4.1568    0.7999    0.0000 C   0  0  0  0  0  0  0  0  0  0  0  0
   -5.5426    1.6000    0.0000 H   0  0  0  0  0  0  0  0  0  0  0  0
   -5.5426   -0.0000    0.0000 H   0  0  0  0  0  0  0  0  0  0  0  0
   -4.1568    2.4000    0.0000 H   0  0  0  0  0  0  0  0  0  0  0  0
  1  2  2  0  0  0  0
  1  3  1  0  0  0  0
  3  4  1  0  0  0  0
  4  5  1  0  0  0  0
  4  6  1  0  0  0  0
  4  7  1  0  0  0  0
  7  8  1  0  0  0  0
  7  9  1  0  0  0  0
  7 10  1  0  0  0  0
  1 11  1  0  0  0  0
 11 12  1  0  0  0  0
 12 13  1  0  0  0  0
 12 14  1  0  0  0  0
 12 15  1  0  0  0  0
 15 16  1  0  0  0  0
 15 17  1  0  0  0  0
 15 18  1  0  0  0  0
  1 19  1  0  0  0  0
 19 20  1  0  0  0  0
 20 21  1  0  0  0  0
 20 22  1  0  0  0  0
 20 23  1  0  0  0  0
 23 24  1  0  0  0  0
 23 25  1  0  0  0  0
 23 26  1  0  0  0  0
 26 27  2  0  0  0  0
 26 28  1  0  0  0  0
 28 29  1  0  0  0  0
 28 30  1  0  0  0  0
 28 31  1  0  0  0  0
 31 32  1  0  0  0  0
 31 33  1  0  0  0  0
 31 34  1  0  0  0  0
M  END
> <ChemID>
100484

> <source_casrn>
2497-07-6

> <CAS>
2497-07-6

> <SMILES>
CCS(=O)CCSP(=S)(OCC)OCC

> <NAME>
DISULFOTON SULFOXIDE

> <preferred_name>
Oxydisulfoton

> <iupac>
O,O-diethyl S-[2-(ethylsulfinyl)ethyl] phosphorodithioate

> <MPID>
98407

> <dsstox_substance_id>
DTXSID4037536

> <Canonical_QSARr>
CCS(=O)CCSP(=S)(OCC)OCC

> <InChI_Code_QSARr>
InChI=1S/C8H19O3PS3/c1-4-10-12(13,11-5-2)14-7-8-15(9)6-3/h4-8H2,1-3H3

> <InChI Key_QSARr>
UPUGLJYNCXXUQV-UHFFFAOYSA-N

> <Salt_Solvent>
?

> <LogBCF>
0.0

$$$$
100485
  -INDIGO-08031719362D

 30 33  0  0  0  0  0  0  0  0999 V2000
   -2.4000    1.3856    0.0000 C   0  0  0  0  0  0  0  0  0  0  0  0
   -3.2000    2.7713    0.0000 C   0  0  0  0  0  0  0  0  0  0  0  0
   -2.4000    4.1569    0.0000 H   0  0  0  0  0  0  0  0  0  0  0  0
   -4.8000    2.7712    0.0000 C   0  0  0  0  0  0  0  0  0  0  0  0
   -5.6000    4.1569    0.0000 H   0  0  0  0  0  0  0  0  0  0  0  0
   -5.6000    1.3856    0.0000 C   0  0  0  0  0  0  0  0  0  0  0  0
   -7.2000    1.3856    0.0000 H   0  0  0  0  0  0  0  0  0  0  0  0
   -4.8000    0.0001    0.0000 C   0  0  0  0  0  0  0  0  0  0  0  0
   -5.6000   -1.3856    0.0000 H   0  0  0  0  0  0  0  0  0  0  0  0
   -3.2000   -0.0001    0.0000 C   0  0  0  0  0  0  0  0  0  0  0  0
   -2.4000   -1.3856    0.0000 C   0  0  0  0  0  0  0  0  0  0  0  0
   -3.2000   -2.7713    0.0000 O   0  0  0  0  0  0  0  0  0  0  0  0
   -0.8000   -1.3856    0.0000 C   0  0  0  0  0  0  0  0  0  0  0  0
    0.0000    0.0001    0.0000 C   0  0  0  0  0  0  0  0  0  0  0  0
    1.6000   -0.0001    0.0000 C   0  0  0  0  0  0  0  0  0  0  0  0
    2.4000   -1.3856    0.0000 C   0  0  0  0  0  0  0  0  0  0  0  0
    1.6000   -2.7712    0.0000 C   0  0  0  0  0  0  0  0  0  0  0  0
    2.4000   -4.1569    0.0000 H   0  0  0  0  0  0  0  0  0  0  0  0
    0.0000   -2.7712    0.0000 C   0  0  0  0  0  0  0  0  0  0  0  0
   -0.8000   -4.1569    0.0000 H   0  0  0  0  0  0  0  0  0  0  0  0
    4.0000   -1.3856    0.0000 C   0  0  0  0  0  0  0  0  0  0  0  0
    4.8000   -2.7713    0.0000 H   0  0  0  0  0  0  0  0  0  0  0  0
    4.8000   -0.0001    0.0000 C   0  0  0  0  0  0  0  0  0  0  0  0
    6.4000   -0.0001    0.0000 H   0  0  0  0  0  0  0  0  0  0  0  0
    4.0000    1.3856    0.0000 C   0  0  0  0  0  0  0  0  0  0  0  0
    4.8000    2.7712    0.0000 H   0  0  0  0  0  0  0  0  0  0  0  0
    2.4000    1.3856    0.0000 C   0  0  0  0  0  0  0  0  0  0  0  0
    1.6000    2.7712    0.0000 H   0  0  0  0  0  0  0  0  0  0  0  0
   -0.8000    1.3856    0.0000 C   0  0  0  0  0  0  0  0  0  0  0  0
    0.0000    2.7713    0.0000 O   0  0  0  0  0  0  0  0  0  0  0  0
  1  2  1  0  0  0  0
  2  3  1  0  0  0  0
  2  4  2  0  0  0  0
  4  5  1  0  0  0  0
  4  6  1  0  0  0  0
  6  7  1  0  0  0  0
  6  8  2  0  0  0  0
  8  9  1  0  0  0  0
  8 10  1  0  0  0  0
 10  1  2  0  0  0  0
 10 11  1  0  0  0  0
 11 12  2  0  0  0  0
 11 13  1  0  0  0  0
 13 14  1  0  0  0  0
 14 15  2  0  0  0  0
 15 16  1  0  0  0  0
 16 17  2  0  0  0  0
 17 18  1  0  0  0  0
 17 19  1  0  0  0  0
 19 13  2  0  0  0  0
 19 20  1  0  0  0  0
 16 21  1  0  0  0  0
 21 22  1  0  0  0  0
 21 23  2  0  0  0  0
 23 24  1  0  0  0  0
 23 25  1  0  0  0  0
 25 26  1  0  0  0  0
 25 27  2  0  0  0  0
 27 15  1  0  0  0  0
 27 28  1  0  0  0  0
 14 29  1  0  0  0  0
 29  1  1  0  0  0  0
 29 30  2  0  0  0  0
M  END
> <ChemID>
100485

> <source_casrn>
2498-66-0

> <CAS>
2498-66-0

> <SMILES>
O=C(c(c(c(c(c1)ccc2)c2)C(=O)c3cccc4)c1)c34

> <NAME>
BENZ A ANTHRACENE-7,12-DIONE

> <preferred_name>
7,12-Benz(a)anthraquinone

> <iupac>
tetraphene-7,12-dione

> <MPID>
98408

> <dsstox_substance_id>
DTXSID8051916

> <Canonical_QSARr>
O=C1c2ccc3ccccc3c2C(=O)c2ccccc12

> <InChI_Code_QSARr>
InChI=1S/C18H10O2/c19-17-13-7-3-4-8-14(13)18(20)16-12-6-2-1-5-11(12)9-10-15(16)17/h1-10H

> <InChI Key_QSARr>
LHMRXAIRPKSGDE-UHFFFAOYSA-N

> <Salt_Solvent>
?

> <LogBCF>
1.69

$$$$
100486
  -INDIGO-08031719362D

 27 29  0  0  0  0  0  0  0  0999 V2000
    4.8000    0.0000    0.0000 C   0  0  0  0  0  0  0  0  0  0  0  0
    6.4000    0.0000    0.0000 H   0  0  0  0  0  0  0  0  0  0  0  0
    5.6000    1.3856    0.0000 H   0  0  0  0  0  0  0  0  0  0  0  0
    5.6000   -1.3856    0.0000 H   0  0  0  0  0  0  0  0  0  0  0  0
    3.2000    0.0000    0.0000 C   0  0  0  0  0  0  0  0  0  0  0  0
    2.3999    1.3856    0.0000 C   0  0  0  0  0  0  0  0  0  0  0  0
    3.2000    2.7713    0.0000 H   0  0  0  0  0  0  0  0  0  0  0  0
    0.7999    1.3856    0.0000 C   0  0  0  0  0  0  0  0  0  0  0  0
    0.0001    2.7713    0.0000 H   0  0  0  0  0  0  0  0  0  0  0  0
    0.0001    0.0000    0.0000 C   0  0  0  0  0  0  0  0  0  0  0  0
    0.7999   -1.3856    0.0000 C   0  0  0  0  0  0  0  0  0  0  0  0
    0.0001   -2.7713    0.0000 C   0  0  0  0  0  0  0  0  0  0  0  0
    0.7999   -4.1569    0.0000 H   0  0  0  0  0  0  0  0  0  0  0  0
   -1.5999   -2.7713    0.0000 C   0  0  0  0  0  0  0  0  0  0  0  0
   -2.3999   -4.1569    0.0000 H   0  0  0  0  0  0  0  0  0  0  0  0
   -2.3999   -1.3856    0.0000 C   0  0  0  0  0  0  0  0  0  0  0  0
   -4.0000   -1.3856    0.0000 C   0  0  0  0  0  0  0  0  0  0  0  0
   -4.8000   -2.7713    0.0000 H   0  0  0  0  0  0  0  0  0  0  0  0
   -4.8000    0.0000    0.0000 C   0  0  0  0  0  0  0  0  0  0  0  0
   -6.4000    0.0000    0.0000 H   0  0  0  0  0  0  0  0  0  0  0  0
   -4.0000    1.3856    0.0000 C   0  0  0  0  0  0  0  0  0  0  0  0
   -4.8000    2.7713    0.0000 H   0  0  0  0  0  0  0  0  0  0  0  0
   -2.3999    1.3856    0.0000 C   0  0  0  0  0  0  0  0  0  0  0  0
   -1.5999    2.7713    0.0000 H   0  0  0  0  0  0  0  0  0  0  0  0
   -1.5999    0.0000    0.0000 C   0  0  0  0  0  0  0  0  0  0  0  0
    2.3999   -1.3856    0.0000 C   0  0  0  0  0  0  0  0  0  0  0  0
    3.2000   -2.7713    0.0000 H   0  0  0  0  0  0  0  0  0  0  0  0
  1  2  1  0  0  0  0
  1  3  1  0  0  0  0
  1  4  1  0  0  0  0
  1  5  1  0  0  0  0
  5  6  1  0  0  0  0
  6  7  1  0  0  0  0
  6  8  2  0  0  0  0
  8  9  1  0  0  0  0
  8 10  1  0  0  0  0
 10 11  1  0  0  0  0
 11 12  2  0  0  0  0
 12 13  1  0  0  0  0
 12 14  1  0  0  0  0
 14 15  1  0  0  0  0
 14 16  2  0  0  0  0
 16 17  1  0  0  0  0
 17 18  1  0  0  0  0
 17 19  2  0  0  0  0
 19 20  1  0  0  0  0
 19 21  1  0  0  0  0
 21 22  1  0  0  0  0
 21 23  2  0  0  0  0
 23 24  1  0  0  0  0
 23 25  1  0  0  0  0
 25 16  1  0  0  0  0
 25 10  2  0  0  0  0
 11 26  1  0  0  0  0
 26  5  2  0  0  0  0
 26 27  1  0  0  0  0
M  END
> <ChemID>
100486

> <source_casrn>
2531-84-2

> <CAS>
2531-84-2

> <SMILES>
Cc1cc2ccc3ccccc3c2cc1

> <NAME>
2-METHYLPHENANTHRENE

> <preferred_name>
2-Methyl phenanthrene

> <iupac>
2-methylphenanthrene

> <MPID>
98409

> <dsstox_substance_id>
DTXSID1025649

> <Canonical_QSARr>
Cc1cc2ccc3ccccc3c2cc1

> <InChI_Code_QSARr>
InChI=1S/C15H12/c1-11-6-9-15-13(10-11)8-7-12-4-2-3-5-14(12)15/h2-10H,1H3

> <InChI Key_QSARr>
KANLOADZXMMCQA-UHFFFAOYSA-N

> <Salt_Solvent>
?

> <LogBCF>
3.48

$$$$
100488
  -INDIGO-08031719362D

 18 18  0  0  0  0  0  0  0  0999 V2000
    0.0000    1.6000    0.0000 C   0  0  0  0  0  0  0  0  0  0  0  0
    0.0000    0.0000    0.0000 C   0  0  0  0  0  0  0  0  0  0  0  0
    1.3857   -0.8000    0.0000 C   0  0  0  0  0  0  0  0  0  0  0  0
    2.7713   -1.6000    0.0000 H   0  0  0  0  0  0  0  0  0  0  0  0
    1.3857   -2.4000    0.0000 H   0  0  0  0  0  0  0  0  0  0  0  0
    2.7713    0.0000    0.0000 H   0  0  0  0  0  0  0  0  0  0  0  0
   -1.3857   -0.8000    0.0000 C   0  0  0  0  0  0  0  0  0  0  0  0
   -1.3857   -2.4000    0.0000 H   0  0  0  0  0  0  0  0  0  0  0  0
   -2.7713    0.0000    0.0000 C   0  0  0  0  0  0  0  0  0  0  0  0
   -4.1570   -0.8000    0.0000 O   0  0  0  0  0  0  0  0  0  0  0  0
   -5.5426    0.0000    0.0000 H   0  0  0  0  0  0  0  0  0  0  0  0
   -2.7713    1.6000    0.0000 C   0  0  0  0  0  0  0  0  0  0  0  0
   -4.1570    2.4000    0.0000 H   0  0  0  0  0  0  0  0  0  0  0  0
   -1.3857    2.4000    0.0000 C   0  0  0  0  0  0  0  0  0  0  0  0
   -1.3856    4.0000    0.0000 H   0  0  0  0  0  0  0  0  0  0  0  0
    1.3856    2.4000    0.0000 N   0  0  0  0  0  0  0  0  0  0  0  0
    1.3856    4.0000    0.0000 O   0  0  0  0  0  0  0  0  0  0  0  0
    2.7713    1.6000    0.0000 O   0  0  0  0  0  0  0  0  0  0  0  0
  1  2  1  0  0  0  0
  2  3  1  0  0  0  0
  3  4  1  0  0  0  0
  3  5  1  0  0  0  0
  3  6  1  0  0  0  0
  2  7  2  0  0  0  0
  7  8  1  0  0  0  0
  7  9  1  0  0  0  0
  9 10  1  0  0  0  0
 10 11  1  0  0  0  0
  9 12  2  0  0  0  0
 12 13  1  0  0  0  0
 12 14  1  0  0  0  0
 14  1  2  0  0  0  0
 14 15  1  0  0  0  0
  1 16  1  0  0  0  0
 16 17  2  0  0  0  0
 16 18  1  0  0  0  0
M  CHG  2  16   1  18  -1
M  END
> <ChemID>
100488

> <source_casrn>
2581-34-2

> <CAS>
2581-34-2

> <SMILES>
Cc1cc(O)ccc1[N+]([O-])=O

> <NAME>
3-METHYL-4-NITROPHENOL

> <preferred_name>
4-Nitro-m-cresol

> <iupac>
3-Methyl-4-nitrophenol

> <MPID>
98411

> <dsstox_substance_id>
DTXSID2062535

> <Canonical_QSARr>
Cc1cc(O)ccc1[N+]([O-])=O

> <InChI_Code_QSARr>
InChI=1S/C7H7NO3/c1-5-4-6(9)2-3-7(5)8(10)11/h2-4,9H,1H3

> <InChI Key_QSARr>
PIIZYNQECPTVEO-UHFFFAOYSA-N

> <Salt_Solvent>
?

> <LogBCF>
1.06

$$$$
100489
  -INDIGO-08031719362D

 36 36  0  0  0  0  0  0  0  0999 V2000
   -1.6000    0.0000    0.0000 C   0  0  0  0  0  0  0  0  0  0  0  0
   -2.4000    1.3856    0.0000 C   0  0  0  0  0  0  0  0  0  0  0  0
   -1.6000    2.7713    0.0000 H   0  0  0  0  0  0  0  0  0  0  0  0
   -4.0001    1.3856    0.0000 C   0  0  0  0  0  0  0  0  0  0  0  0
   -4.7999    2.7713    0.0000 H   0  0  0  0  0  0  0  0  0  0  0  0
   -4.7999    0.0000    0.0000 C   0  0  0  0  0  0  0  0  0  0  0  0
   -6.4000    0.0000    0.0000 H   0  0  0  0  0  0  0  0  0  0  0  0
   -4.0001   -1.3857    0.0000 C   0  0  0  0  0  0  0  0  0  0  0  0
   -4.7999   -2.7712    0.0000 H   0  0  0  0  0  0  0  0  0  0  0  0
   -2.4000   -1.3857    0.0000 C   0  0  0  0  0  0  0  0  0  0  0  0
   -1.6000   -2.7712    0.0000 H   0  0  0  0  0  0  0  0  0  0  0  0
   -0.0001    0.0000    0.0000 C   0  0  0  0  0  0  0  0  0  0  0  0
   -0.0001   -1.6000    0.0000 H   0  0  0  0  0  0  0  0  0  0  0  0
    1.5758   -0.2778    0.0000 C   0  0  0  0  0  0  0  0  0  0  0  0
    2.6042    0.9478    0.0000 O   0  0  0  0  0  0  0  0  0  0  0  0
    2.1229   -1.7813    0.0000 O   0  0  0  0  0  0  0  0  0  0  0  0
    3.6986   -2.0591    0.0000 C   0  0  0  0  0  0  0  0  0  0  0  0
    4.1797   -0.5333    0.0000 H   0  0  0  0  0  0  0  0  0  0  0  0
    5.1179   -1.3204    0.0000 H   0  0  0  0  0  0  0  0  0  0  0  0
    4.2459   -3.5627    0.0000 C   0  0  0  0  0  0  0  0  0  0  0  0
    4.7931   -5.0662    0.0000 H   0  0  0  0  0  0  0  0  0  0  0  0
    5.8215   -3.8406    0.0000 H   0  0  0  0  0  0  0  0  0  0  0  0
    3.2174   -4.7884    0.0000 H   0  0  0  0  0  0  0  0  0  0  0  0
   -0.0001    1.6001    0.0000 S   0  0  0  0  0  0  0  0  0  0  0  0
    1.3857    2.4000    0.0000 P   0  0  0  0  0  0  0  0  0  0  0  0
    1.3857    4.0000    0.0000 O   0  0  0  0  0  0  0  0  0  0  0  0
    2.7713    4.8000    0.0000 C   0  0  0  0  0  0  0  0  0  0  0  0
    2.7713    6.4000    0.0000 H   0  0  0  0  0  0  0  0  0  0  0  0
    4.1569    5.6001    0.0000 H   0  0  0  0  0  0  0  0  0  0  0  0
    1.3857    5.6001    0.0000 H   0  0  0  0  0  0  0  0  0  0  0  0
    2.7713    3.1999    0.0000 O   0  0  0  0  0  0  0  0  0  0  0  0
    4.1569    2.4000    0.0000 C   0  0  0  0  0  0  0  0  0  0  0  0
    5.5426    3.1999    0.0000 H   0  0  0  0  0  0  0  0  0  0  0  0
    5.5426    1.6001    0.0000 H   0  0  0  0  0  0  0  0  0  0  0  0
    4.1569    0.8000    0.0000 H   0  0  0  0  0  0  0  0  0  0  0  0
   -0.0001    3.1999    0.0000 S   0  0  0  0  0  0  0  0  0  0  0  0
  1  2  1  0  0  0  0
  2  3  1  0  0  0  0
  2  4  2  0  0  0  0
  4  5  1  0  0  0  0
  4  6  1  0  0  0  0
  6  7  1  0  0  0  0
  6  8  2  0  0  0  0
  8  9  1  0  0  0  0
  8 10  1  0  0  0  0
 10  1  2  0  0  0  0
 10 11  1  0  0  0  0
  1 12  1  0  0  0  0
 12 13  1  0  0  0  0
 12 14  1  0  0  0  0
 14 15  2  0  0  0  0
 14 16  1  0  0  0  0
 16 17  1  0  0  0  0
 17 18  1  0  0  0  0
 17 19  1  0  0  0  0
 17 20  1  0  0  0  0
 20 21  1  0  0  0  0
 20 22  1  0  0  0  0
 20 23  1  0  0  0  0
 12 24  1  0  0  0  0
 24 25  1  0  0  0  0
 25 26  1  0  0  0  0
 26 27  1  0  0  0  0
 27 28  1  0  0  0  0
 27 29  1  0  0  0  0
 27 30  1  0  0  0  0
 25 31  1  0  0  0  0
 31 32  1  0  0  0  0
 32 33  1  0  0  0  0
 32 34  1  0  0  0  0
 32 35  1  0  0  0  0
 25 36  2  0  0  0  0
M  END
> <ChemID>
100489

> <source_casrn>
2597-03-7

> <CAS>
2597-03-7

> <SMILES>
CCOC(=O)C(SP(=S)(OC)OC)c1ccccc1

> <NAME>
FENTHOATE

> <preferred_name>
Phenthoate

> <iupac>
ethyl [(dimethoxyphosphorothioyl)sulfanyl](phenyl)acetate

> <MPID>
98412

> <dsstox_substance_id>
DTXSID6042280

> <Canonical_QSARr>
CCOC(=O)C(SP(=S)(OC)OC)c1ccccc1

> <InChI_Code_QSARr>
InChI=1S/C12H17O4PS2/c1-4-16-12(13)11(10-8-6-5-7-9-10)19-17(18,14-2)15-3/h5-9,11H,4H2,1-3H3

> <InChI Key_QSARr>
XAMUDJHXFNRLCY-UHFFFAOYSA-N

> <Salt_Solvent>
?

> <LogBCF>
1.69

$$$$
100490
  -INDIGO-08031719362D

 29 29  0  0  0  0  0  0  0  0999 V2000
    4.8001   -0.0000    0.0000 C   0  0  0  0  0  0  0  0  0  0  0  0
    5.6001   -1.3856    0.0000 O   0  0  0  0  0  0  0  0  0  0  0  0
    3.2000   -0.0000    0.0000 O   0  0  0  0  0  0  0  0  0  0  0  0
    2.4000   -1.3856    0.0000 C   0  0  0  0  0  0  0  0  0  0  0  0
    0.8000   -1.3856    0.0000 C   0  0  0  0  0  0  0  0  0  0  0  0
   -0.0001   -0.0000    0.0000 C   0  0  0  0  0  0  0  0  0  0  0  0
    1.3856    0.8001    0.0000 H   0  0  0  0  0  0  0  0  0  0  0  0
   -0.5473    1.5035    0.0000 C   0  0  0  0  0  0  0  0  0  0  0  0
   -1.0944    3.0070    0.0000 H   0  0  0  0  0  0  0  0  0  0  0  0
    0.4812    2.7291    0.0000 H   0  0  0  0  0  0  0  0  0  0  0  0
   -2.1229    1.7814    0.0000 H   0  0  0  0  0  0  0  0  0  0  0  0
   -1.3856   -0.8000    0.0000 C   0  0  0  0  0  0  0  0  0  0  0  0
   -2.7713   -1.6000    0.0000 H   0  0  0  0  0  0  0  0  0  0  0  0
   -2.7713   -0.0000    0.0000 H   0  0  0  0  0  0  0  0  0  0  0  0
   -1.3856    0.8001    0.0000 H   0  0  0  0  0  0  0  0  0  0  0  0
   -0.0001   -2.7712    0.0000 C   0  0  0  0  0  0  0  0  0  0  0  0
   -1.5999   -2.7712    0.0000 H   0  0  0  0  0  0  0  0  0  0  0  0
    0.8000   -4.1570    0.0000 C   0  0  0  0  0  0  0  0  0  0  0  0
   -0.0001   -5.5426    0.0000 H   0  0  0  0  0  0  0  0  0  0  0  0
    2.4000   -4.1570    0.0000 C   0  0  0  0  0  0  0  0  0  0  0  0
    3.2000   -5.5426    0.0000 H   0  0  0  0  0  0  0  0  0  0  0  0
    3.2000   -2.7712    0.0000 C   0  0  0  0  0  0  0  0  0  0  0  0
    4.8001   -2.7712    0.0000 H   0  0  0  0  0  0  0  0  0  0  0  0
    5.6001    1.3857    0.0000 N   0  0  0  0  0  0  0  0  0  0  0  0
    4.8001    2.7713    0.0000 H   0  0  0  0  0  0  0  0  0  0  0  0
    7.2000    1.3857    0.0000 C   0  0  0  0  0  0  0  0  0  0  0  0
    8.8000    1.3857    0.0000 H   0  0  0  0  0  0  0  0  0  0  0  0
    8.0000    2.7713    0.0000 H   0  0  0  0  0  0  0  0  0  0  0  0
    8.0000   -0.0000    0.0000 H   0  0  0  0  0  0  0  0  0  0  0  0
  1  2  2  0  0  0  0
  1  3  1  0  0  0  0
  3  4  1  0  0  0  0
  4  5  1  0  0  0  0
  5  6  1  0  0  0  0
  6  7  1  0  0  0  0
  6  8  1  0  0  0  0
  8  9  1  0  0  0  0
  8 10  1  0  0  0  0
  8 11  1  0  0  0  0
  6 12  1  0  0  0  0
 12 13  1  0  0  0  0
 12 14  1  0  0  0  0
 12 15  1  0  0  0  0
  5 16  2  0  0  0  0
 16 17  1  0  0  0  0
 16 18  1  0  0  0  0
 18 19  1  0  0  0  0
 18 20  2  0  0  0  0
 20 21  1  0  0  0  0
 20 22  1  0  0  0  0
 22  4  2  0  0  0  0
 22 23  1  0  0  0  0
  1 24  1  0  0  0  0
 24 25  1  0  0  0  0
 24 26  1  0  0  0  0
 26 27  1  0  0  0  0
 26 28  1  0  0  0  0
 26 29  1  0  0  0  0
M  END
> <ChemID>
100490

> <source_casrn>
2631-40-5

> <CAS>
2631-40-5

> <SMILES>
CNC(=O)Oc1ccccc1C(C)C

> <NAME>
ISOPROCARB

> <preferred_name>
Isoprocarb

> <iupac>
2-(propan-2-yl)phenyl methylcarbamate

> <MPID>
98413

> <dsstox_substance_id>
DTXSID6042072

> <Canonical_QSARr>
CNC(=O)Oc1ccccc1C(C)C

> <InChI_Code_QSARr>
InChI=1S/C11H15NO2/c1-8(2)9-6-4-5-7-10(9)14-11(13)12-3/h4-8H,1-3H3,(H,12,13)

> <InChI Key_QSARr>
QBSJMKIUCUGGNG-UHFFFAOYSA-N

> <Salt_Solvent>
?

> <LogBCF>
0.95

$$$$
100492
  -INDIGO-08031719362D

 26 26  0  0  0  0  0  0  0  0999 V2000
    1.3856    0.8000    0.0000 C   0  0  0  0  0  0  0  0  0  0  0  0
    2.7713    1.6001    0.0000 H   0  0  0  0  0  0  0  0  0  0  0  0
    1.3856    2.4000    0.0000 H   0  0  0  0  0  0  0  0  0  0  0  0
    2.7713    0.0001    0.0000 H   0  0  0  0  0  0  0  0  0  0  0  0
    0.0001    0.0001    0.0000 C   0  0  0  0  0  0  0  0  0  0  0  0
    0.0001   -1.6001    0.0000 C   0  0  0  0  0  0  0  0  0  0  0  0
    1.3856   -2.4000    0.0000 H   0  0  0  0  0  0  0  0  0  0  0  0
   -1.3856   -2.4000    0.0000 C   0  0  0  0  0  0  0  0  0  0  0  0
   -1.3856   -4.0000    0.0000 C   0  0  0  0  0  0  0  0  0  0  0  0
   -1.3856   -5.6000    0.0000 H   0  0  0  0  0  0  0  0  0  0  0  0
   -2.7713   -4.8001    0.0000 H   0  0  0  0  0  0  0  0  0  0  0  0
    0.0001   -4.8001    0.0000 H   0  0  0  0  0  0  0  0  0  0  0  0
   -2.7713   -1.5999    0.0000 C   0  0  0  0  0  0  0  0  0  0  0  0
   -4.1569   -2.4000    0.0000 H   0  0  0  0  0  0  0  0  0  0  0  0
   -2.7713    0.0001    0.0000 C   0  0  0  0  0  0  0  0  0  0  0  0
   -4.1569    0.8000    0.0000 O   0  0  0  0  0  0  0  0  0  0  0  0
   -5.5426    0.0001    0.0000 C   0  0  0  0  0  0  0  0  0  0  0  0
   -6.9283    0.8000    0.0000 N   0  0  0  0  0  0  0  0  0  0  0  0
   -6.9283    2.4000    0.0000 H   0  0  0  0  0  0  0  0  0  0  0  0
   -8.3138    0.0001    0.0000 C   0  0  0  0  0  0  0  0  0  0  0  0
   -9.6995   -0.8000    0.0000 H   0  0  0  0  0  0  0  0  0  0  0  0
   -9.6995    0.8000    0.0000 H   0  0  0  0  0  0  0  0  0  0  0  0
   -8.3138   -1.5999    0.0000 H   0  0  0  0  0  0  0  0  0  0  0  0
   -5.5426   -1.5999    0.0000 O   0  0  0  0  0  0  0  0  0  0  0  0
   -1.3856    0.8000    0.0000 C   0  0  0  0  0  0  0  0  0  0  0  0
   -1.3856    2.4000    0.0000 H   0  0  0  0  0  0  0  0  0  0  0  0
  1  2  1  0  0  0  0
  1  3  1  0  0  0  0
  1  4  1  0  0  0  0
  1  5  1  0  0  0  0
  5  6  1  0  0  0  0
  6  7  1  0  0  0  0
  6  8  2  0  0  0  0
  8  9  1  0  0  0  0
  9 10  1  0  0  0  0
  9 11  1  0  0  0  0
  9 12  1  0  0  0  0
  8 13  1  0  0  0  0
 13 14  1  0  0  0  0
 13 15  2  0  0  0  0
 15 16  1  0  0  0  0
 16 17  1  0  0  0  0
 17 18  1  0  0  0  0
 18 19  1  0  0  0  0
 18 20  1  0  0  0  0
 20 21  1  0  0  0  0
 20 22  1  0  0  0  0
 20 23  1  0  0  0  0
 17 24  2  0  0  0  0
 15 25  1  0  0  0  0
 25  5  2  0  0  0  0
 25 26  1  0  0  0  0
M  END
> <ChemID>
100492

> <source_casrn>
2655-14-3

> <CAS>
2655-14-3

> <SMILES>
CNC(=O)Oc1cc(C)cc(C)c1

> <NAME>
N-ME-3,5-DIMETHYLPHENYL CARBAMATE

> <preferred_name>
XMC

> <iupac>
3,5-dimethylphenyl methylcarbamate

> <MPID>
98415

> <dsstox_substance_id>
DTXSID7058042

> <Canonical_QSARr>
CNC(=O)Oc1cc(C)cc(C)c1

> <InChI_Code_QSARr>
InChI=1S/C10H13NO2/c1-7-4-8(2)6-9(5-7)13-10(12)11-3/h4-6H,1-3H3,(H,11,12)

> <InChI Key_QSARr>
CVQODEWAPZVVBU-UHFFFAOYSA-N

> <Salt_Solvent>
?

> <LogBCF>
0.4

$$$$
100493
  -INDIGO-08031719362D

 17 17  0  0  0  0  0  0  0  0999 V2000
    2.4000    1.3856    0.0000 C   0  0  0  0  0  0  0  0  0  0  0  0
    3.2001    2.7713    0.0000 H   0  0  0  0  0  0  0  0  0  0  0  0
    4.0000    1.3856    0.0000 H   0  0  0  0  0  0  0  0  0  0  0  0
    1.5999    2.7713    0.0000 H   0  0  0  0  0  0  0  0  0  0  0  0
    0.8000    1.3856    0.0000 O   0  0  0  0  0  0  0  0  0  0  0  0
    0.0001    0.0000    0.0000 C   0  0  0  0  0  0  0  0  0  0  0  0
    0.8000   -1.3856    0.0000 C   0  0  0  0  0  0  0  0  0  0  0  0
    2.4000   -1.3856    0.0000 H   0  0  0  0  0  0  0  0  0  0  0  0
    0.0001   -2.7713    0.0000 C   0  0  0  0  0  0  0  0  0  0  0  0
    0.8000   -4.1569    0.0000 Cl  0  0  0  0  0  0  0  0  0  0  0  0
   -1.5999   -2.7713    0.0000 C   0  0  0  0  0  0  0  0  0  0  0  0
   -2.4000   -4.1569    0.0000 Cl  0  0  0  0  0  0  0  0  0  0  0  0
   -2.4000   -1.3856    0.0000 C   0  0  0  0  0  0  0  0  0  0  0  0
   -4.0000   -1.3856    0.0000 Cl  0  0  0  0  0  0  0  0  0  0  0  0
   -1.5999    0.0000    0.0000 C   0  0  0  0  0  0  0  0  0  0  0  0
   -2.4000    1.3856    0.0000 O   0  0  0  0  0  0  0  0  0  0  0  0
   -4.0000    1.3856    0.0000 H   0  0  0  0  0  0  0  0  0  0  0  0
  1  2  1  0  0  0  0
  1  3  1  0  0  0  0
  1  4  1  0  0  0  0
  1  5  1  0  0  0  0
  5  6  1  0  0  0  0
  6  7  1  0  0  0  0
  7  8  1  0  0  0  0
  7  9  2  0  0  0  0
  9 10  1  0  0  0  0
  9 11  1  0  0  0  0
 11 12  1  0  0  0  0
 11 13  2  0  0  0  0
 13 14  1  0  0  0  0
 13 15  1  0  0  0  0
 15  6  2  0  0  0  0
 15 16  1  0  0  0  0
 16 17  1  0  0  0  0
M  END
> <ChemID>
100493

> <source_casrn>
2668-24-8

> <CAS>
2668-24-8

> <SMILES>
COc1cc(Cl)c(Cl)c(Cl)c1O

> <NAME>
4,5,6-TRICHLOROGUAIACOL

> <preferred_name>
4,5,6-Trichloroguaiacol

> <iupac>
C7H5Cl3O2

> <MPID>
98416

> <dsstox_substance_id>
DTXSID00858745

> <Canonical_QSARr>
COc1cc(Cl)c(Cl)c(Cl)c1O

> <InChI_Code_QSARr>
InChI=1S/C7H5Cl3O2/c1-12-4-2-3(8)5(9)6(10)7(4)11/h2,11H,1H3

> <InChI Key_QSARr>
NIAJPNQTKGWEOI-UHFFFAOYSA-N

> <Salt_Solvent>
?

> <LogBCF>
1.97

$$$$
100494
  -INDIGO-08031719362D

 47 48  0  0  0  0  0  0  0  0999 V2000
    3.2000    2.7713    0.0000 C   0  0  0  0  0  0  0  0  0  0  0  0
    4.8001    2.7713    0.0000 C   0  0  0  0  0  0  0  0  0  0  0  0
    5.6001    1.3856    0.0000 C   0  0  0  0  0  0  0  0  0  0  0  0
    4.8001    0.0001    0.0000 H   0  0  0  0  0  0  0  0  0  0  0  0
    7.1999    1.3856    0.0000 C   0  0  0  0  0  0  0  0  0  0  0  0
    8.0000    0.0001    0.0000 H   0  0  0  0  0  0  0  0  0  0  0  0
    8.0000    2.7713    0.0000 C   0  0  0  0  0  0  0  0  0  0  0  0
    9.6000    2.7713    0.0000 H   0  0  0  0  0  0  0  0  0  0  0  0
    7.1999    4.1568    0.0000 C   0  0  0  0  0  0  0  0  0  0  0  0
    8.0000    5.5425    0.0000 H   0  0  0  0  0  0  0  0  0  0  0  0
    5.6001    4.1568    0.0000 C   0  0  0  0  0  0  0  0  0  0  0  0
    4.8001    5.5425    0.0000 H   0  0  0  0  0  0  0  0  0  0  0  0
    2.4000    4.1570    0.0000 C   0  0  0  0  0  0  0  0  0  0  0  0
    3.2000    5.5425    0.0000 H   0  0  0  0  0  0  0  0  0  0  0  0
    0.7999    4.1570    0.0000 C   0  0  0  0  0  0  0  0  0  0  0  0
   -0.0001    5.5425    0.0000 C   0  0  0  0  0  0  0  0  0  0  0  0
   -0.5472    7.0461    0.0000 C   0  0  0  0  0  0  0  0  0  0  0  0
   -1.0945    8.5496    0.0000 H   0  0  0  0  0  0  0  0  0  0  0  0
    0.2528    8.4318    0.0000 H   0  0  0  0  0  0  0  0  0  0  0  0
   -2.0508    7.5933    0.0000 H   0  0  0  0  0  0  0  0  0  0  0  0
   -1.5035    4.9953    0.0000 C   0  0  0  0  0  0  0  0  0  0  0  0
   -2.8891    5.7953    0.0000 H   0  0  0  0  0  0  0  0  0  0  0  0
   -1.5035    6.5954    0.0000 H   0  0  0  0  0  0  0  0  0  0  0  0
   -0.2779    3.9669    0.0000 H   0  0  0  0  0  0  0  0  0  0  0  0
    1.5035    6.0897    0.0000 C   0  0  0  0  0  0  0  0  0  0  0  0
    3.0070    6.6371    0.0000 H   0  0  0  0  0  0  0  0  0  0  0  0
    1.7814    7.6655    0.0000 H   0  0  0  0  0  0  0  0  0  0  0  0
    0.4750    7.3154    0.0000 H   0  0  0  0  0  0  0  0  0  0  0  0
   -0.0001    2.7713    0.0000 C   0  0  0  0  0  0  0  0  0  0  0  0
   -1.5999    2.7713    0.0000 O   0  0  0  0  0  0  0  0  0  0  0  0
   -2.4000    4.1568    0.0000 H   0  0  0  0  0  0  0  0  0  0  0  0
    0.7999    1.3856    0.0000 C   0  0  0  0  0  0  0  0  0  0  0  0
   -0.0001    0.0001    0.0000 C   0  0  0  0  0  0  0  0  0  0  0  0
   -0.7999   -1.3856    0.0000 C   0  0  0  0  0  0  0  0  0  0  0  0
   -1.5999   -2.7713    0.0000 H   0  0  0  0  0  0  0  0  0  0  0  0
   -0.2528   -2.8891    0.0000 H   0  0  0  0  0  0  0  0  0  0  0  0
   -2.3757   -1.6635    0.0000 H   0  0  0  0  0  0  0  0  0  0  0  0
    1.3856   -0.8000    0.0000 C   0  0  0  0  0  0  0  0  0  0  0  0
    2.8892   -1.3472    0.0000 H   0  0  0  0  0  0  0  0  0  0  0  0
    1.6634   -2.3756    0.0000 H   0  0  0  0  0  0  0  0  0  0  0  0
    0.1600   -1.8284    0.0000 H   0  0  0  0  0  0  0  0  0  0  0  0
   -1.3857    0.8000    0.0000 C   0  0  0  0  0  0  0  0  0  0  0  0
   -2.6113    1.8284    0.0000 H   0  0  0  0  0  0  0  0  0  0  0  0
   -2.8891    0.2528    0.0000 H   0  0  0  0  0  0  0  0  0  0  0  0
   -1.6634   -0.7758    0.0000 H   0  0  0  0  0  0  0  0  0  0  0  0
    2.4000    1.3856    0.0000 C   0  0  0  0  0  0  0  0  0  0  0  0
    3.2000    0.0001    0.0000 H   0  0  0  0  0  0  0  0  0  0  0  0
  1  2  1  0  0  0  0
  2  3  1  0  0  0  0
  3  4  1  0  0  0  0
  3  5  2  0  0  0  0
  5  6  1  0  0  0  0
  5  7  1  0  0  0  0
  7  8  1  0  0  0  0
  7  9  2  0  0  0  0
  9 10  1  0  0  0  0
  9 11  1  0  0  0  0
 11  2  2  0  0  0  0
 11 12  1  0  0  0  0
  1 13  1  0  0  0  0
 13 14  1  0  0  0  0
 13 15  2  0  0  0  0
 15 16  1  0  0  0  0
 16 17  1  0  0  0  0
 17 18  1  0  0  0  0
 17 19  1  0  0  0  0
 17 20  1  0  0  0  0
 16 21  1  0  0  0  0
 21 22  1  0  0  0  0
 21 23  1  0  0  0  0
 21 24  1  0  0  0  0
 16 25  1  0  0  0  0
 25 26  1  0  0  0  0
 25 27  1  0  0  0  0
 25 28  1  0  0  0  0
 15 29  1  0  0  0  0
 29 30  1  0  0  0  0
 30 31  1  0  0  0  0
 29 32  2  0  0  0  0
 32 33  1  0  0  0  0
 33 34  1  0  0  0  0
 34 35  1  0  0  0  0
 34 36  1  0  0  0  0
 34 37  1  0  0  0  0
 33 38  1  0  0  0  0
 38 39  1  0  0  0  0
 38 40  1  0  0  0  0
 38 41  1  0  0  0  0
 33 42  1  0  0  0  0
 42 43  1  0  0  0  0
 42 44  1  0  0  0  0
 42 45  1  0  0  0  0
 32 46  1  0  0  0  0
 46  1  2  0  0  0  0
 46 47  1  0  0  0  0
M  END
> <ChemID>
100494

> <source_casrn>
2668-47-5

> <CAS>
2668-47-5

> <SMILES>
CC(C)(C)c1cc(cc(c1O)C(C)(C)C)-c1ccccc1

> <NAME>
1,1'-Biphenyl -4-ol, 3,5-bis(1,1-dimethylethyl)-

> <preferred_name>
[1,1'-Biphenyl]-4-ol, 3,5-bis(1,1-dimethylethyl)-

> <iupac>
2,6-ditert-butyl-4-phenylphenol

> <MPID>
98417

> <dsstox_substance_id>
DTXSID7062582

> <Canonical_QSARr>
CC(C)(C)c1cc(cc(c1O)C(C)(C)C)-c1ccccc1

> <InChI_Code_QSARr>
InChI=1S/C20H26O/c1-19(2,3)16-12-15(14-10-8-7-9-11-14)13-17(18(16)21)20(4,5)6/h7-13,21H,1-6H3

> <InChI Key_QSARr>
JIEWQZNTUPWNMX-UHFFFAOYSA-N

> <Salt_Solvent>
?

> <LogBCF>
3.78

$$$$
100496
  -INDIGO-08031719362D

 23 23  0  0  0  0  0  0  0  0999 V2000
    2.7713    0.0000    0.0000 N   0  0  0  0  0  0  0  0  0  0  0  0
    2.7713    1.6000    0.0000 H   0  0  0  0  0  0  0  0  0  0  0  0
    1.3856   -0.8000    0.0000 C   0  0  0  0  0  0  0  0  0  0  0  0
   -0.0000    0.0000    0.0000 C   0  0  0  0  0  0  0  0  0  0  0  0
    0.8001    1.3856    0.0000 H   0  0  0  0  0  0  0  0  0  0  0  0
   -1.3857    0.8000    0.0000 C   0  0  0  0  0  0  0  0  0  0  0  0
   -2.7713    1.6000    0.0000 H   0  0  0  0  0  0  0  0  0  0  0  0
   -2.7713    0.0000    0.0000 H   0  0  0  0  0  0  0  0  0  0  0  0
   -1.3857    2.4000    0.0000 H   0  0  0  0  0  0  0  0  0  0  0  0
   -0.8000   -1.3856    0.0000 C   0  0  0  0  0  0  0  0  0  0  0  0
   -1.6000   -2.7712    0.0000 H   0  0  0  0  0  0  0  0  0  0  0  0
   -2.3999   -1.3856    0.0000 H   0  0  0  0  0  0  0  0  0  0  0  0
   -0.0000   -2.7712    0.0000 H   0  0  0  0  0  0  0  0  0  0  0  0
    1.3856   -2.4000    0.0000 N   0  0  0  0  0  0  0  0  0  0  0  0
    2.7713   -3.2000    0.0000 C   0  0  0  0  0  0  0  0  0  0  0  0
    2.7713   -4.8000    0.0000 O   0  0  0  0  0  0  0  0  0  0  0  0
    4.1570   -2.4000    0.0000 C   0  0  0  0  0  0  0  0  0  0  0  0
    5.5426   -3.2000    0.0000 H   0  0  0  0  0  0  0  0  0  0  0  0
    4.1570   -0.8000    0.0000 C   0  0  0  0  0  0  0  0  0  0  0  0
    5.5426    0.0000    0.0000 C   0  0  0  0  0  0  0  0  0  0  0  0
    6.9282    0.8000    0.0000 H   0  0  0  0  0  0  0  0  0  0  0  0
    6.9282   -0.8000    0.0000 H   0  0  0  0  0  0  0  0  0  0  0  0
    5.5426    1.6000    0.0000 H   0  0  0  0  0  0  0  0  0  0  0  0
  1  2  1  0  0  0  0
  1  3  1  0  0  0  0
  3  4  1  0  0  0  0
  4  5  1  0  0  0  0
  4  6  1  0  0  0  0
  6  7  1  0  0  0  0
  6  8  1  0  0  0  0
  6  9  1  0  0  0  0
  4 10  1  0  0  0  0
 10 11  1  0  0  0  0
 10 12  1  0  0  0  0
 10 13  1  0  0  0  0
  3 14  2  0  0  0  0
 14 15  1  0  0  0  0
 15 16  2  0  0  0  0
 15 17  1  0  0  0  0
 17 18  1  0  0  0  0
 17 19  2  0  0  0  0
 19  1  1  0  0  0  0
 19 20  1  0  0  0  0
 20 21  1  0  0  0  0
 20 22  1  0  0  0  0
 20 23  1  0  0  0  0
M  END
> <ChemID>
100496

> <source_casrn>
2814-20-2

> <CAS>
2814-20-2

> <SMILES>
CC1=CC(=O)N=C(N1)C(C)C

> <NAME>
G 27550

> <preferred_name>
2-Isopropyl-6-methyl-4-pyrimidone

> <iupac>
6-methyl-2-(propan-2-yl)pyrimidin-4(1H)-one

> <MPID>
98419

> <dsstox_substance_id>
DTXSID1027502

> <Canonical_QSARr>
CC1=CC(=O)N=C(N1)C(C)C

> <InChI_Code_QSARr>
InChI=1S/C8H12N2O/c1-5(2)8-9-6(3)4-7(11)10-8/h4-5H,1-3H3,(H,9,10,11)

> <InChI Key_QSARr>
AJPIUNPJBFBUKK-UHFFFAOYSA-N

> <Salt_Solvent>
?

> <LogBCF>
0.26

$$$$
100498
  -INDIGO-08031719362D

 29 29  0  0  0  0  0  0  0  0999 V2000
    0.0001   -1.6000    0.0000 S   0  0  0  0  0  0  0  0  0  0  0  0
    0.0001    0.0000    0.0000 P   0  0  0  0  0  0  0  0  0  0  0  0
    1.3856    0.8000    0.0000 O   0  0  0  0  0  0  0  0  0  0  0  0
    2.7713    0.0000    0.0000 C   0  0  0  0  0  0  0  0  0  0  0  0
    2.7713   -1.6000    0.0000 N   0  0  0  0  0  0  0  0  0  0  0  0
    4.1570   -2.4001    0.0000 C   0  0  0  0  0  0  0  0  0  0  0  0
    4.1570   -4.0000    0.0000 Cl  0  0  0  0  0  0  0  0  0  0  0  0
    5.5425   -1.6000    0.0000 C   0  0  0  0  0  0  0  0  0  0  0  0
    6.9282   -2.4001    0.0000 Cl  0  0  0  0  0  0  0  0  0  0  0  0
    5.5425    0.0000    0.0000 C   0  0  0  0  0  0  0  0  0  0  0  0
    6.9282    0.8000    0.0000 H   0  0  0  0  0  0  0  0  0  0  0  0
    4.1570    0.8000    0.0000 C   0  0  0  0  0  0  0  0  0  0  0  0
    4.1570    2.4000    0.0000 Cl  0  0  0  0  0  0  0  0  0  0  0  0
   -1.3856   -0.8000    0.0000 O   0  0  0  0  0  0  0  0  0  0  0  0
   -2.7713    0.0000    0.0000 C   0  0  0  0  0  0  0  0  0  0  0  0
   -3.3835    1.4782    0.0000 H   0  0  0  0  0  0  0  0  0  0  0  0
   -2.1590    1.4782    0.0000 H   0  0  0  0  0  0  0  0  0  0  0  0
   -4.1569   -0.8000    0.0000 C   0  0  0  0  0  0  0  0  0  0  0  0
   -5.5426   -1.6000    0.0000 H   0  0  0  0  0  0  0  0  0  0  0  0
   -5.5426    0.0000    0.0000 H   0  0  0  0  0  0  0  0  0  0  0  0
   -4.1569   -2.4001    0.0000 H   0  0  0  0  0  0  0  0  0  0  0  0
   -1.3856    0.8000    0.0000 O   0  0  0  0  0  0  0  0  0  0  0  0
   -1.3856    2.4000    0.0000 C   0  0  0  0  0  0  0  0  0  0  0  0
   -0.4115    3.6694    0.0000 H   0  0  0  0  0  0  0  0  0  0  0  0
    0.2006    2.6088    0.0000 H   0  0  0  0  0  0  0  0  0  0  0  0
   -2.7713    3.2001    0.0000 C   0  0  0  0  0  0  0  0  0  0  0  0
   -2.7713    4.8000    0.0000 H   0  0  0  0  0  0  0  0  0  0  0  0
   -4.1569    4.0000    0.0000 H   0  0  0  0  0  0  0  0  0  0  0  0
   -4.1569    2.4000    0.0000 H   0  0  0  0  0  0  0  0  0  0  0  0
  1  2  2  0  0  0  0
  2  3  1  0  0  0  0
  3  4  1  0  0  0  0
  4  5  1  0  0  0  0
  5  6  2  0  0  0  0
  6  7  1  0  0  0  0
  6  8  1  0  0  0  0
  8  9  1  0  0  0  0
  8 10  2  0  0  0  0
 10 11  1  0  0  0  0
 10 12  1  0  0  0  0
 12  4  2  0  0  0  0
 12 13  1  0  0  0  0
  2 14  1  0  0  0  0
 14 15  1  0  0  0  0
 15 16  1  0  0  0  0
 15 17  1  0  0  0  0
 15 18  1  0  0  0  0
 18 19  1  0  0  0  0
 18 20  1  0  0  0  0
 18 21  1  0  0  0  0
  2 22  1  0  0  0  0
 22 23  1  0  0  0  0
 23 24  1  0  0  0  0
 23 25  1  0  0  0  0
 23 26  1  0  0  0  0
 26 27  1  0  0  0  0
 26 28  1  0  0  0  0
 26 29  1  0  0  0  0
M  END
> <ChemID>
100498

> <source_casrn>
2921-88-2

> <CAS>
2921-88-2

> <SMILES>
CCOP(=S)(Oc1[n]c(Cl)c(Cl)cc1Cl)OCC

> <NAME>
CHLORPYRIFOS

> <preferred_name>
Chlorpyrifos

> <iupac>
O,O-diethyl O-(3,5,6-trichloropyridin-2-yl) phosphorothioate

> <MPID>
98420

> <dsstox_substance_id>
DTXSID4020458

> <Canonical_QSARr>
CCOP(=S)(Oc1[n]c(Cl)c(Cl)cc1Cl)OCC

> <InChI_Code_QSARr>
InChI=1S/C9H11Cl3NO3PS/c1-3-14-17(18,15-4-2)16-9-7(11)5-6(10)8(12)13-9/h5H,3-4H2,1-2H3

> <InChI Key_QSARr>
SBPBAQFWLVIOKP-UHFFFAOYSA-N

> <Salt_Solvent>
?

> <LogBCF>
3.18

$$$$
100499
  -INDIGO-08031719362D

 57 57  0  0  0  0  0  0  0  0999 V2000
   -1.3856    2.4000    0.0000 N   0  0  0  0  0  0  0  0  0  0  0  0
   -2.7712    3.1999    0.0000 C   0  0  0  0  0  0  0  0  0  0  0  0
   -2.7714    4.8001    0.0000 N   0  0  0  0  0  0  0  0  0  0  0  0
   -1.3856    5.6000    0.0000 C   0  0  0  0  0  0  0  0  0  0  0  0
    0.2007    5.3913    0.0000 H   0  0  0  0  0  0  0  0  0  0  0  0
   -0.4115    4.3306    0.0000 H   0  0  0  0  0  0  0  0  0  0  0  0
   -1.3856    7.1999    0.0000 O   0  0  0  0  0  0  0  0  0  0  0  0
    0.0000    8.0001    0.0000 C   0  0  0  0  0  0  0  0  0  0  0  0
    1.3856    8.8001    0.0000 H   0  0  0  0  0  0  0  0  0  0  0  0
    0.0000    9.6000    0.0000 H   0  0  0  0  0  0  0  0  0  0  0  0
    1.3856    7.1999    0.0000 H   0  0  0  0  0  0  0  0  0  0  0  0
   -4.1570    5.6000    0.0000 C   0  0  0  0  0  0  0  0  0  0  0  0
   -5.1310    4.3306    0.0000 H   0  0  0  0  0  0  0  0  0  0  0  0
   -5.7433    5.3913    0.0000 H   0  0  0  0  0  0  0  0  0  0  0  0
   -4.1570    7.1999    0.0000 O   0  0  0  0  0  0  0  0  0  0  0  0
   -5.5426    8.0001    0.0000 C   0  0  0  0  0  0  0  0  0  0  0  0
   -6.9281    8.8001    0.0000 H   0  0  0  0  0  0  0  0  0  0  0  0
   -5.5426    9.6000    0.0000 H   0  0  0  0  0  0  0  0  0  0  0  0
   -6.9281    7.1999    0.0000 H   0  0  0  0  0  0  0  0  0  0  0  0
   -4.1570    2.4000    0.0000 N   0  0  0  0  0  0  0  0  0  0  0  0
   -4.1570    0.8001    0.0000 C   0  0  0  0  0  0  0  0  0  0  0  0
   -5.5426   -0.0001    0.0000 N   0  0  0  0  0  0  0  0  0  0  0  0
   -5.5426   -1.6000    0.0000 C   0  0  0  0  0  0  0  0  0  0  0  0
   -3.9563   -1.8088    0.0000 H   0  0  0  0  0  0  0  0  0  0  0  0
   -4.5685   -2.8694    0.0000 H   0  0  0  0  0  0  0  0  0  0  0  0
   -6.9281   -2.4000    0.0000 O   0  0  0  0  0  0  0  0  0  0  0  0
   -6.9281   -4.0001    0.0000 C   0  0  0  0  0  0  0  0  0  0  0  0
   -6.9281   -5.6000    0.0000 H   0  0  0  0  0  0  0  0  0  0  0  0
   -8.3137   -4.8000    0.0000 H   0  0  0  0  0  0  0  0  0  0  0  0
   -5.5426   -4.8000    0.0000 H   0  0  0  0  0  0  0  0  0  0  0  0
   -6.9281    0.8001    0.0000 C   0  0  0  0  0  0  0  0  0  0  0  0
   -7.5404    2.2782    0.0000 H   0  0  0  0  0  0  0  0  0  0  0  0
   -6.3159    2.2782    0.0000 H   0  0  0  0  0  0  0  0  0  0  0  0
   -8.3137   -0.0001    0.0000 O   0  0  0  0  0  0  0  0  0  0  0  0
   -9.6995    0.8001    0.0000 C   0  0  0  0  0  0  0  0  0  0  0  0
  -11.0851    1.6000    0.0000 H   0  0  0  0  0  0  0  0  0  0  0  0
  -11.0851   -0.0001    0.0000 H   0  0  0  0  0  0  0  0  0  0  0  0
   -9.6995    2.4000    0.0000 H   0  0  0  0  0  0  0  0  0  0  0  0
   -2.7712   -0.0001    0.0000 N   0  0  0  0  0  0  0  0  0  0  0  0
   -1.3856    0.8001    0.0000 C   0  0  0  0  0  0  0  0  0  0  0  0
    0.0000   -0.0001    0.0000 N   0  0  0  0  0  0  0  0  0  0  0  0
    0.0000   -1.6000    0.0000 C   0  0  0  0  0  0  0  0  0  0  0  0
   -0.9740   -2.8694    0.0000 H   0  0  0  0  0  0  0  0  0  0  0  0
   -1.5863   -1.8088    0.0000 H   0  0  0  0  0  0  0  0  0  0  0  0
    1.3856   -2.4000    0.0000 O   0  0  0  0  0  0  0  0  0  0  0  0
    1.3856   -4.0001    0.0000 C   0  0  0  0  0  0  0  0  0  0  0  0
    1.3856   -5.6000    0.0000 H   0  0  0  0  0  0  0  0  0  0  0  0
    2.7714   -4.8000    0.0000 H   0  0  0  0  0  0  0  0  0  0  0  0
    0.0000   -4.8000    0.0000 H   0  0  0  0  0  0  0  0  0  0  0  0
    1.3856    0.8001    0.0000 C   0  0  0  0  0  0  0  0  0  0  0  0
    0.7733    2.2782    0.0000 H   0  0  0  0  0  0  0  0  0  0  0  0
    1.9978    2.2782    0.0000 H   0  0  0  0  0  0  0  0  0  0  0  0
    2.7714   -0.0001    0.0000 O   0  0  0  0  0  0  0  0  0  0  0  0
    4.1570    0.8001    0.0000 C   0  0  0  0  0  0  0  0  0  0  0  0
    5.5426    1.6000    0.0000 H   0  0  0  0  0  0  0  0  0  0  0  0
    5.5426   -0.0001    0.0000 H   0  0  0  0  0  0  0  0  0  0  0  0
    4.1570    2.4000    0.0000 H   0  0  0  0  0  0  0  0  0  0  0  0
  1  2  1  0  0  0  0
  2  3  1  0  0  0  0
  3  4  1  0  0  0  0
  4  5  1  0  0  0  0
  4  6  1  0  0  0  0
  4  7  1  0  0  0  0
  7  8  1  0  0  0  0
  8  9  1  0  0  0  0
  8 10  1  0  0  0  0
  8 11  1  0  0  0  0
  3 12  1  0  0  0  0
 12 13  1  0  0  0  0
 12 14  1  0  0  0  0
 12 15  1  0  0  0  0
 15 16  1  0  0  0  0
 16 17  1  0  0  0  0
 16 18  1  0  0  0  0
 16 19  1  0  0  0  0
  2 20  2  0  0  0  0
 20 21  1  0  0  0  0
 21 22  1  0  0  0  0
 22 23  1  0  0  0  0
 23 24  1  0  0  0  0
 23 25  1  0  0  0  0
 23 26  1  0  0  0  0
 26 27  1  0  0  0  0
 27 28  1  0  0  0  0
 27 29  1  0  0  0  0
 27 30  1  0  0  0  0
 22 31  1  0  0  0  0
 31 32  1  0  0  0  0
 31 33  1  0  0  0  0
 31 34  1  0  0  0  0
 34 35  1  0  0  0  0
 35 36  1  0  0  0  0
 35 37  1  0  0  0  0
 35 38  1  0  0  0  0
 21 39  2  0  0  0  0
 39 40  1  0  0  0  0
 40  1  2  0  0  0  0
 40 41  1  0  0  0  0
 41 42  1  0  0  0  0
 42 43  1  0  0  0  0
 42 44  1  0  0  0  0
 42 45  1  0  0  0  0
 45 46  1  0  0  0  0
 46 47  1  0  0  0  0
 46 48  1  0  0  0  0
 46 49  1  0  0  0  0
 41 50  1  0  0  0  0
 50 51  1  0  0  0  0
 50 52  1  0  0  0  0
 50 53  1  0  0  0  0
 53 54  1  0  0  0  0
 54 55  1  0  0  0  0
 54 56  1  0  0  0  0
 54 57  1  0  0  0  0
M  END
> <ChemID>
100499

> <source_casrn>
3089-11-0

> <CAS>
3089-11-0

> <SMILES>
O(CN(c(nc(nc1N(COC)COC)N(COC)COC)n1)COC)C

> <NAME>
1,3,5-Triazine-2,4,6-triamine, N,N,N',N',N'',N''

> <preferred_name>
N,N,N',N',N'',N''-Hexakis(methoxymethyl)-1,3,5-triazine-2,4,6-triamine

> <iupac>
N,N,N',N',N'',N''-hexakis(methoxymethyl)-1,3,5-triazine-2,4,6-triamine

> <MPID>
98421

> <dsstox_substance_id>
DTXSID9027520

> <Canonical_QSARr>
COCN(COC)c1[n]c([n]c([n]1)N(COC)COC)N(COC)COC

> <InChI_Code_QSARr>
InChI=1S/C15H30N6O6/c1-22-7-19(8-23-2)13-16-14(20(9-24-3)10-25-4)18-15(17-13)21(11-26-5)12-27-6/h7-12H2,1-6H3

> <InChI Key_QSARr>
BNCADMBVWNPPIZ-UHFFFAOYSA-N

> <Salt_Solvent>
?

> <LogBCF>
0.54

$$$$
100501
  -INDIGO-08031719362D

 17 16  0  0  0  0  0  0  0  0999 V2000
   -2.4000   -1.3856    0.0000 Br  0  0  0  0  0  0  0  0  0  0  0  0
   -0.8000   -1.3856    0.0000 C   0  0  0  0  0  0  0  0  0  0  0  0
   -1.6000   -2.7713    0.0000 H   0  0  0  0  0  0  0  0  0  0  0  0
    0.0000   -2.7713    0.0000 H   0  0  0  0  0  0  0  0  0  0  0  0
    0.0000    0.0000    0.0000 C   0  0  0  0  0  0  0  0  0  0  0  0
    0.8000    1.3856    0.0000 C   0  0  0  0  0  0  0  0  0  0  0  0
    1.6000    2.7713    0.0000 H   0  0  0  0  0  0  0  0  0  0  0  0
    2.4000    1.3856    0.0000 H   0  0  0  0  0  0  0  0  0  0  0  0
    0.0000    2.7713    0.0000 Br  0  0  0  0  0  0  0  0  0  0  0  0
   -1.3856    0.8000    0.0000 C   0  0  0  0  0  0  0  0  0  0  0  0
   -2.7713    1.6000    0.0000 H   0  0  0  0  0  0  0  0  0  0  0  0
   -2.7713    0.0000    0.0000 H   0  0  0  0  0  0  0  0  0  0  0  0
   -1.3856    2.4000    0.0000 Br  0  0  0  0  0  0  0  0  0  0  0  0
    1.3856   -0.8000    0.0000 C   0  0  0  0  0  0  0  0  0  0  0  0
    2.7713   -1.6000    0.0000 H   0  0  0  0  0  0  0  0  0  0  0  0
    1.3856   -2.4000    0.0000 H   0  0  0  0  0  0  0  0  0  0  0  0
    2.7713    0.0000    0.0000 Br  0  0  0  0  0  0  0  0  0  0  0  0
  1  2  1  0  0  0  0
  2  3  1  0  0  0  0
  2  4  1  0  0  0  0
  2  5  1  0  0  0  0
  5  6  1  0  0  0  0
  6  7  1  0  0  0  0
  6  8  1  0  0  0  0
  6  9  1  0  0  0  0
  5 10  1  0  0  0  0
 10 11  1  0  0  0  0
 10 12  1  0  0  0  0
 10 13  1  0  0  0  0
  5 14  1  0  0  0  0
 14 15  1  0  0  0  0
 14 16  1  0  0  0  0
 14 17  1  0  0  0  0
M  END
> <ChemID>
100501

> <source_casrn>
3229-00-3

> <CAS>
3229-00-3

> <SMILES>
BrCC(CBr)(CBr)CBr

> <NAME>
PROPANE, 1,3-DIBROMO-2,2-BIS(BROMOMETHYL)-

> <preferred_name>
Propane, 1,3-dibromo-2,2-bis(bromomethyl)-

> <iupac>
1,3-Dibromo-2,2-bis(bromomethyl)propane

> <MPID>
98423

> <dsstox_substance_id>
DTXSID1062916

> <Canonical_QSARr>
BrCC(CBr)(CBr)CBr

> <InChI_Code_QSARr>
InChI=1S/C5H8Br4/c6-1-5(2-7,3-8)4-9/h1-4H2

> <InChI Key_QSARr>
OYSVBCSOQFXYHK-UHFFFAOYSA-N

> <Salt_Solvent>
?

> <LogBCF>
1.94

$$$$
100502
  -INDIGO-08031719362D

 22 24  0  0  0  0  0  0  0  0999 V2000
    1.3856    2.4000    0.0000 Cl  0  0  0  0  0  0  0  0  0  0  0  0
    1.3856    0.8000    0.0000 C   0  0  0  0  0  0  0  0  0  0  0  0
    2.7713   -0.0000    0.0000 C   0  0  0  0  0  0  0  0  0  0  0  0
    4.1569    0.8000    0.0000 Cl  0  0  0  0  0  0  0  0  0  0  0  0
    2.7713   -1.6000    0.0000 C   0  0  0  0  0  0  0  0  0  0  0  0
    4.1569   -2.4000    0.0000 Cl  0  0  0  0  0  0  0  0  0  0  0  0
    1.3856   -2.4000    0.0000 C   0  0  0  0  0  0  0  0  0  0  0  0
    1.3856   -4.0000    0.0000 Cl  0  0  0  0  0  0  0  0  0  0  0  0
   -0.0001   -1.6000    0.0000 C   0  0  0  0  0  0  0  0  0  0  0  0
   -0.0001   -0.0000    0.0000 C   0  0  0  0  0  0  0  0  0  0  0  0
   -1.3856    0.8000    0.0000 O   0  0  0  0  0  0  0  0  0  0  0  0
   -2.7712   -0.0000    0.0000 C   0  0  0  0  0  0  0  0  0  0  0  0
   -2.7712   -1.6000    0.0000 C   0  0  0  0  0  0  0  0  0  0  0  0
   -1.3856   -2.4000    0.0000 O   0  0  0  0  0  0  0  0  0  0  0  0
   -4.1569   -2.4000    0.0000 C   0  0  0  0  0  0  0  0  0  0  0  0
   -4.1569   -4.0000    0.0000 Cl  0  0  0  0  0  0  0  0  0  0  0  0
   -5.5425   -1.6000    0.0000 C   0  0  0  0  0  0  0  0  0  0  0  0
   -6.9282   -2.4000    0.0000 Cl  0  0  0  0  0  0  0  0  0  0  0  0
   -5.5425   -0.0000    0.0000 C   0  0  0  0  0  0  0  0  0  0  0  0
   -6.9282    0.8000    0.0000 Cl  0  0  0  0  0  0  0  0  0  0  0  0
   -4.1569    0.8000    0.0000 C   0  0  0  0  0  0  0  0  0  0  0  0
   -4.1569    2.4000    0.0000 Cl  0  0  0  0  0  0  0  0  0  0  0  0
  1  2  1  0  0  0  0
  2  3  1  0  0  0  0
  3  4  1  0  0  0  0
  3  5  2  0  0  0  0
  5  6  1  0  0  0  0
  5  7  1  0  0  0  0
  7  8  1  0  0  0  0
  7  9  2  0  0  0  0
  9 10  1  0  0  0  0
 10  2  2  0  0  0  0
 10 11  1  0  0  0  0
 11 12  1  0  0  0  0
 12 13  1  0  0  0  0
 13 14  1  0  0  0  0
 14  9  1  0  0  0  0
 13 15  2  0  0  0  0
 15 16  1  0  0  0  0
 15 17  1  0  0  0  0
 17 18  1  0  0  0  0
 17 19  2  0  0  0  0
 19 20  1  0  0  0  0
 19 21  1  0  0  0  0
 21 12  2  0  0  0  0
 21 22  1  0  0  0  0
M  END
> <ChemID>
100502

> <source_casrn>
3268-87-9

> <CAS>
3268-87-9

> <SMILES>
Clc1c2Oc3c(Oc2c(Cl)c(Cl)c1Cl)c(Cl)c(Cl)c(Cl)c3Cl

> <NAME>
1,2,3,4,6,7,8,9-OCTACHLORODIBENZO-P-DIOXIN

> <preferred_name>
Octachlorodibenzo-p-dioxin

> <iupac>
octachlorooxanthrene

> <MPID>
98424

> <dsstox_substance_id>
DTXSID4025799

> <Canonical_QSARr>
Clc1c2Oc3c(Oc2c(Cl)c(Cl)c1Cl)c(Cl)c(Cl)c(Cl)c3Cl

> <InChI_Code_QSARr>
InChI=1S/C12Cl8O2/c13-1-2(14)6(18)10-9(5(1)17)21-11-7(19)3(15)4(16)8(20)12(11)22-10

> <InChI Key_QSARr>
FOIBFBMSLDGNHL-UHFFFAOYSA-N

> <Salt_Solvent>
?

> <LogBCF>
3.12

$$$$
100503
  -INDIGO-08031719362D

 19 18  0  0  0  0  0  0  0  0999 V2000
    2.7713    0.0000    0.0000 O   0  0  0  0  0  0  0  0  0  0  0  0
    4.1569   -0.8000    0.0000 H   0  0  0  0  0  0  0  0  0  0  0  0
    1.3856   -0.8000    0.0000 C   0  0  0  0  0  0  0  0  0  0  0  0
    1.9979   -2.2782    0.0000 H   0  0  0  0  0  0  0  0  0  0  0  0
    0.7734   -2.2782    0.0000 H   0  0  0  0  0  0  0  0  0  0  0  0
    0.0001    0.0000    0.0000 C   0  0  0  0  0  0  0  0  0  0  0  0
   -1.3856    0.8000    0.0000 C   0  0  0  0  0  0  0  0  0  0  0  0
   -1.9979    2.2782    0.0000 H   0  0  0  0  0  0  0  0  0  0  0  0
   -0.7734    2.2782    0.0000 H   0  0  0  0  0  0  0  0  0  0  0  0
   -2.7712    0.0000    0.0000 O   0  0  0  0  0  0  0  0  0  0  0  0
   -4.1569    0.8000    0.0000 H   0  0  0  0  0  0  0  0  0  0  0  0
    0.8000    1.3857    0.0000 C   0  0  0  0  0  0  0  0  0  0  0  0
    1.6000    2.7713    0.0000 H   0  0  0  0  0  0  0  0  0  0  0  0
    0.2528    2.8891    0.0000 H   0  0  0  0  0  0  0  0  0  0  0  0
    2.4000    1.3857    0.0000 Br  0  0  0  0  0  0  0  0  0  0  0  0
   -0.8000   -1.3857    0.0000 C   0  0  0  0  0  0  0  0  0  0  0  0
   -1.6000   -2.7713    0.0000 H   0  0  0  0  0  0  0  0  0  0  0  0
   -0.2528   -2.8891    0.0000 H   0  0  0  0  0  0  0  0  0  0  0  0
   -2.4000   -1.3857    0.0000 Br  0  0  0  0  0  0  0  0  0  0  0  0
  1  2  1  0  0  0  0
  1  3  1  0  0  0  0
  3  4  1  0  0  0  0
  3  5  1  0  0  0  0
  3  6  1  0  0  0  0
  6  7  1  0  0  0  0
  7  8  1  0  0  0  0
  7  9  1  0  0  0  0
  7 10  1  0  0  0  0
 10 11  1  0  0  0  0
  6 12  1  0  0  0  0
 12 13  1  0  0  0  0
 12 14  1  0  0  0  0
 12 15  1  0  0  0  0
  6 16  1  0  0  0  0
 16 17  1  0  0  0  0
 16 18  1  0  0  0  0
 16 19  1  0  0  0  0
M  END
> <ChemID>
100503

> <source_casrn>
3296-90-0

> <CAS>
3296-90-0

> <SMILES>
OCC(CBr)(CBr)CO

> <NAME>
1,3-PROPANEDIOL, 2,2-BIS(BRME)-

> <preferred_name>
2,2-Bis(bromomethyl)-1,3-propanediol

> <iupac>
2,2-bis(bromomethyl)propane-1,3-diol

> <MPID>
98425

> <dsstox_substance_id>
DTXSID9020164

> <Canonical_QSARr>
OCC(CBr)(CBr)CO

> <InChI_Code_QSARr>
InChI=1S/C5H10Br2O2/c6-1-5(2-7,3-8)4-9/h8-9H,1-4H2

> <InChI Key_QSARr>
CHUGKEQJSLOLHL-UHFFFAOYSA-N

> <Salt_Solvent>
?

> <LogBCF>
0.68

$$$$
100505
  -INDIGO-08031719362D

 24 25  0  0  0  0  0  0  0  0999 V2000
    1.3857    0.8000    0.0000 O   0  0  0  0  0  0  0  0  0  0  0  0
    2.9613    0.5222    0.0000 C   0  0  0  0  0  0  0  0  0  0  0  0
    3.5086   -0.9814    0.0000 C   0  0  0  0  0  0  0  0  0  0  0  0
    2.4802   -2.2071    0.0000 Cl  0  0  0  0  0  0  0  0  0  0  0  0
    5.0842   -1.2591    0.0000 C   0  0  0  0  0  0  0  0  0  0  0  0
    5.6315   -2.7627    0.0000 H   0  0  0  0  0  0  0  0  0  0  0  0
    6.1126   -0.0335    0.0000 C   0  0  0  0  0  0  0  0  0  0  0  0
    7.6884   -0.3113    0.0000 Cl  0  0  0  0  0  0  0  0  0  0  0  0
    5.5655    1.4700    0.0000 C   0  0  0  0  0  0  0  0  0  0  0  0
    6.5940    2.6957    0.0000 H   0  0  0  0  0  0  0  0  0  0  0  0
    3.9898    1.7479    0.0000 C   0  0  0  0  0  0  0  0  0  0  0  0
    3.4426    3.2513    0.0000 H   0  0  0  0  0  0  0  0  0  0  0  0
   -0.0001    0.0000    0.0000 C   0  0  0  0  0  0  0  0  0  0  0  0
   -1.3857    0.8000    0.0000 C   0  0  0  0  0  0  0  0  0  0  0  0
   -1.3857    2.4000    0.0000 O   0  0  0  0  0  0  0  0  0  0  0  0
   -2.7713    3.2000    0.0000 H   0  0  0  0  0  0  0  0  0  0  0  0
   -2.7713    0.0000    0.0000 C   0  0  0  0  0  0  0  0  0  0  0  0
   -4.1569    0.8000    0.0000 H   0  0  0  0  0  0  0  0  0  0  0  0
   -2.7713   -1.6000    0.0000 C   0  0  0  0  0  0  0  0  0  0  0  0
   -4.1569   -2.4000    0.0000 Cl  0  0  0  0  0  0  0  0  0  0  0  0
   -1.3857   -2.4000    0.0000 C   0  0  0  0  0  0  0  0  0  0  0  0
   -1.3857   -4.0000    0.0000 H   0  0  0  0  0  0  0  0  0  0  0  0
   -0.0001   -1.6000    0.0000 C   0  0  0  0  0  0  0  0  0  0  0  0
    1.3857   -2.4000    0.0000 H   0  0  0  0  0  0  0  0  0  0  0  0
  1  2  1  0  0  0  0
  2  3  1  0  0  0  0
  3  4  1  0  0  0  0
  3  5  2  0  0  0  0
  5  6  1  0  0  0  0
  5  7  1  0  0  0  0
  7  8  1  0  0  0  0
  7  9  2  0  0  0  0
  9 10  1  0  0  0  0
  9 11  1  0  0  0  0
 11  2  2  0  0  0  0
 11 12  1  0  0  0  0
  1 13  1  0  0  0  0
 13 14  1  0  0  0  0
 14 15  1  0  0  0  0
 15 16  1  0  0  0  0
 14 17  2  0  0  0  0
 17 18  1  0  0  0  0
 17 19  1  0  0  0  0
 19 20  1  0  0  0  0
 19 21  2  0  0  0  0
 21 22  1  0  0  0  0
 21 23  1  0  0  0  0
 23 13  2  0  0  0  0
 23 24  1  0  0  0  0
M  END
> <ChemID>
100505

> <source_casrn>
3380-34-5

> <CAS>
3380-34-5

> <SMILES>
Oc1cc(Cl)ccc1Oc1ccc(Cl)cc1Cl

> <NAME>
5-CHLORO-2-(2,4-DICHLOROPHENOXY)PHENOL

> <preferred_name>
Triclosan

> <iupac>
5-chloro-2-(2,4-dichlorophenoxy)phenol

> <MPID>
98427

> <dsstox_substance_id>
DTXSID5032498

> <Canonical_QSARr>
Oc1cc(Cl)ccc1Oc1ccc(Cl)cc1Cl

> <InChI_Code_QSARr>
InChI=1S/C12H7Cl3O2/c13-7-1-3-11(9(15)5-7)17-12-4-2-8(14)6-10(12)16/h1-6,16H

> <InChI Key_QSARr>
XEFQLINVKFYRCS-UHFFFAOYSA-N

> <Salt_Solvent>
?

> <LogBCF>
1.72

$$$$
100506
  -INDIGO-08031719362D

 15 16  0  0  0  0  0  0  0  0999 V2000
   -0.0449   -1.4507    0.0000 C   0  0  0  0  0  0  0  0  0  0  0  0
    1.0340   -2.6323    0.0000 H   0  0  0  0  0  0  0  0  0  0  0  0
   -1.6862   -1.3522    0.0000 C   0  0  0  0  0  0  0  0  0  0  0  0
   -2.8395   -2.4611    0.0000 H   0  0  0  0  0  0  0  0  0  0  0  0
   -1.7194    0.2568    0.0000 C   0  0  0  0  0  0  0  0  0  0  0  0
   -0.2732    1.1663    0.0000 C   0  0  0  0  0  0  0  0  0  0  0  0
    1.2294    1.0240    0.0000 C   0  0  0  0  0  0  0  0  0  0  0  0
    2.7579    1.4970    0.0000 Cl  0  0  0  0  0  0  0  0  0  0  0  0
    0.0000    0.0000    0.0000 C   0  0  0  0  0  0  0  0  0  0  0  0
   -2.8095    1.3184    0.0000 C   0  0  0  0  0  0  0  0  0  0  0  0
   -4.2917    0.7157    0.0000 Cl  0  0  0  0  0  0  0  0  0  0  0  0
   -2.7675    2.9179    0.0000 Cl  0  0  0  0  0  0  0  0  0  0  0  0
    1.4382   -0.7011    0.0000 Cl  0  0  0  0  0  0  0  0  0  0  0  0
   -0.6434    2.7228    0.0000 Cl  0  0  0  0  0  0  0  0  0  0  0  0
   -3.1870   -0.3805    0.0000 Cl  0  0  0  0  0  0  0  0  0  0  0  0
  1  2  1  0  0  0  0
  1  3  2  0  0  0  0
  3  4  1  0  0  0  0
  3  5  1  0  0  0  0
  5  6  1  0  0  0  0
  6  7  2  0  0  0  0
  7  8  1  0  0  0  0
  7  9  1  0  0  0  0
  9  1  1  0  0  0  0
  9 10  1  0  0  0  0
 10  5  1  0  0  0  0
 10 11  1  0  0  0  0
 10 12  1  0  0  0  0
  9 13  1  0  0  0  0
  6 14  1  0  0  0  0
  5 15  1  0  0  0  0
M  END
> <ChemID>
100506

> <source_casrn>
3389-71-7

> <CAS>
3389-71-7

> <SMILES>
C(=C(C(C1(Cl)Cl)(C=C2)Cl)Cl)(C12Cl)Cl

> <NAME>
1,2,3,4,7,7-HEXACHLORO-2,5-NORBORNADIENE

> <preferred_name>


> <iupac>


> <MPID>
98428

> <dsstox_substance_id>
DTXSID00875710

> <Canonical_QSARr>
ClC1(Cl)C2(Cl)C=CC1(Cl)C(Cl)=C2Cl

> <InChI_Code_QSARr>
InChI=1S/C7H2Cl6/c8-3-4(9)6(11)2-1-5(3,10)7(6,12)13/h1-2H

> <InChI Key_QSARr>
IHAXIFZOERJWDF-UHFFFAOYSA-N

> <Salt_Solvent>
?

> <LogBCF>
3.81

$$$$
100507
  -INDIGO-08031719362D

 14 14  0  0  0  0  0  0  0  0999 V2000
    1.6000   -0.0000    0.0000 N   0  0  0  0  0  0  0  0  0  0  0  0
    2.4000    1.3856    0.0000 H   0  0  0  0  0  0  0  0  0  0  0  0
    2.4000   -1.3856    0.0000 H   0  0  0  0  0  0  0  0  0  0  0  0
    0.0000   -0.0000    0.0000 C   0  0  0  0  0  0  0  0  0  0  0  0
   -0.8000    1.3856    0.0000 C   0  0  0  0  0  0  0  0  0  0  0  0
    0.0000    2.7713    0.0000 Cl  0  0  0  0  0  0  0  0  0  0  0  0
   -2.4000    1.3856    0.0000 C   0  0  0  0  0  0  0  0  0  0  0  0
   -3.2000    2.7713    0.0000 Cl  0  0  0  0  0  0  0  0  0  0  0  0
   -3.2000   -0.0000    0.0000 C   0  0  0  0  0  0  0  0  0  0  0  0
   -4.8000   -0.0000    0.0000 H   0  0  0  0  0  0  0  0  0  0  0  0
   -2.4000   -1.3856    0.0000 C   0  0  0  0  0  0  0  0  0  0  0  0
   -3.2000   -2.7713    0.0000 Cl  0  0  0  0  0  0  0  0  0  0  0  0
   -0.8000   -1.3856    0.0000 C   0  0  0  0  0  0  0  0  0  0  0  0
    0.0000   -2.7713    0.0000 Cl  0  0  0  0  0  0  0  0  0  0  0  0
  1  2  1  0  0  0  0
  1  3  1  0  0  0  0
  1  4  1  0  0  0  0
  4  5  1  0  0  0  0
  5  6  1  0  0  0  0
  5  7  2  0  0  0  0
  7  8  1  0  0  0  0
  7  9  1  0  0  0  0
  9 10  1  0  0  0  0
  9 11  2  0  0  0  0
 11 12  1  0  0  0  0
 11 13  1  0  0  0  0
 13  4  2  0  0  0  0
 13 14  1  0  0  0  0
M  END
> <ChemID>
100507

> <source_casrn>
3481-20-7

> <CAS>
3481-20-7

> <SMILES>
Nc1c(Cl)c(Cl)cc(Cl)c1Cl

> <NAME>
2,3,5,6-TETRACHLOROANILINE

> <preferred_name>
2,3,5,6-Tetrachloroaniline

> <iupac>
2,3,5,6-tetrachloroaniline

> <MPID>
98429

> <dsstox_substance_id>
DTXSID2022208

> <Canonical_QSARr>
Nc1c(Cl)c(Cl)cc(Cl)c1Cl

> <InChI_Code_QSARr>
InChI=1S/C6H3Cl4N/c7-2-1-3(8)5(10)6(11)4(2)9/h1H,11H2

> <InChI Key_QSARr>
YTDHEFNWWHSXSU-UHFFFAOYSA-N

> <Salt_Solvent>
?

> <LogBCF>
2.52

$$$$
100509
  -INDIGO-08031719362D

 33 33  0  0  0  0  0  0  0  0999 V2000
   -5.5425    3.2000    0.0000 S   0  0  0  0  0  0  0  0  0  0  0  0
   -5.5425    1.6000    0.0000 P   0  0  0  0  0  0  0  0  0  0  0  0
   -4.1569    2.4000    0.0000 O   0  0  0  0  0  0  0  0  0  0  0  0
   -2.7712    1.6000    0.0000 C   0  0  0  0  0  0  0  0  0  0  0  0
   -1.3856    2.4000    0.0000 C   0  0  0  0  0  0  0  0  0  0  0  0
   -1.3856    4.0000    0.0000 H   0  0  0  0  0  0  0  0  0  0  0  0
    0.0001    1.6000    0.0000 C   0  0  0  0  0  0  0  0  0  0  0  0
    1.3856    2.4000    0.0000 C   0  0  0  0  0  0  0  0  0  0  0  0
    2.7714    3.2000    0.0000 H   0  0  0  0  0  0  0  0  0  0  0  0
    1.3856    4.0000    0.0000 H   0  0  0  0  0  0  0  0  0  0  0  0
    2.7714    1.6000    0.0000 H   0  0  0  0  0  0  0  0  0  0  0  0
    0.0001    0.0000    0.0000 C   0  0  0  0  0  0  0  0  0  0  0  0
    1.3856   -0.8000    0.0000 S   0  0  0  0  0  0  0  0  0  0  0  0
    2.7714   -1.6000    0.0000 C   0  0  0  0  0  0  0  0  0  0  0  0
    4.1569   -2.4000    0.0000 H   0  0  0  0  0  0  0  0  0  0  0  0
    2.7714   -3.2000    0.0000 H   0  0  0  0  0  0  0  0  0  0  0  0
    4.1569   -0.8000    0.0000 H   0  0  0  0  0  0  0  0  0  0  0  0
    0.5856   -2.1856    0.0000 O   0  0  0  0  0  0  0  0  0  0  0  0
    2.1857    0.5856    0.0000 O   0  0  0  0  0  0  0  0  0  0  0  0
   -1.3856   -0.8000    0.0000 C   0  0  0  0  0  0  0  0  0  0  0  0
   -1.3856   -2.4000    0.0000 H   0  0  0  0  0  0  0  0  0  0  0  0
   -2.7712    0.0000    0.0000 C   0  0  0  0  0  0  0  0  0  0  0  0
   -4.1569   -0.8000    0.0000 H   0  0  0  0  0  0  0  0  0  0  0  0
   -6.9282    2.4000    0.0000 O   0  0  0  0  0  0  0  0  0  0  0  0
   -8.3139    1.6000    0.0000 C   0  0  0  0  0  0  0  0  0  0  0  0
   -9.6995    2.4000    0.0000 H   0  0  0  0  0  0  0  0  0  0  0  0
   -9.6995    0.8000    0.0000 H   0  0  0  0  0  0  0  0  0  0  0  0
   -8.3139    3.2000    0.0000 H   0  0  0  0  0  0  0  0  0  0  0  0
   -6.9282    0.8000    0.0000 O   0  0  0  0  0  0  0  0  0  0  0  0
   -6.9282   -0.8000    0.0000 C   0  0  0  0  0  0  0  0  0  0  0  0
   -6.9282   -2.4000    0.0000 H   0  0  0  0  0  0  0  0  0  0  0  0
   -8.3139   -1.6000    0.0000 H   0  0  0  0  0  0  0  0  0  0  0  0
   -5.5425   -1.6000    0.0000 H   0  0  0  0  0  0  0  0  0  0  0  0
  1  2  2  0  0  0  0
  2  3  1  0  0  0  0
  3  4  1  0  0  0  0
  4  5  1  0  0  0  0
  5  6  1  0  0  0  0
  5  7  2  0  0  0  0
  7  8  1  0  0  0  0
  8  9  1  0  0  0  0
  8 10  1  0  0  0  0
  8 11  1  0  0  0  0
  7 12  1  0  0  0  0
 12 13  1  0  0  0  0
 13 14  1  0  0  0  0
 14 15  1  0  0  0  0
 14 16  1  0  0  0  0
 14 17  1  0  0  0  0
 13 18  2  0  0  0  0
 13 19  2  0  0  0  0
 12 20  2  0  0  0  0
 20 21  1  0  0  0  0
 20 22  1  0  0  0  0
 22  4  2  0  0  0  0
 22 23  1  0  0  0  0
  2 24  1  0  0  0  0
 24 25  1  0  0  0  0
 25 26  1  0  0  0  0
 25 27  1  0  0  0  0
 25 28  1  0  0  0  0
  2 29  1  0  0  0  0
 29 30  1  0  0  0  0
 30 31  1  0  0  0  0
 30 32  1  0  0  0  0
 30 33  1  0  0  0  0
M  END
> <ChemID>
100509

> <source_casrn>
3761-42-0

> <CAS>
3761-42-0

> <SMILES>
S(=O)(=O)(C)c1c(C)cc(OP(=S)(OC)OC)cc1

> <NAME>
Phosphorothioic acid, O,O-dimethyl O-(3-methyl-4

> <preferred_name>
Fenthion sulfone

> <iupac>
O,O-dimethyl O-[3-methyl-4-(methylsulfonyl)phenyl] phosphorothioate

> <MPID>
98431

> <dsstox_substance_id>
DTXSID6041975

> <Canonical_QSARr>
Cc1cc(ccc1S(C)(=O)=O)OP(=S)(OC)OC

> <InChI_Code_QSARr>
InChI=1S/C10H15O5PS2/c1-8-7-9(15-16(17,13-2)14-3)5-6-10(8)18(4,11)12/h5-7H,1-4H3

> <InChI Key_QSARr>
ZDHYERRNXRANLI-UHFFFAOYSA-N

> <Salt_Solvent>
?

> <LogBCF>
0.51

$$$$
100510
  -INDIGO-08031719362D

 32 32  0  0  0  0  0  0  0  0999 V2000
    2.6041    0.9478    0.0000 C   0  0  0  0  0  0  0  0  0  0  0  0
    4.1798    0.6700    0.0000 H   0  0  0  0  0  0  0  0  0  0  0  0
    3.6326    2.1735    0.0000 H   0  0  0  0  0  0  0  0  0  0  0  0
    3.1513   -0.5557    0.0000 H   0  0  0  0  0  0  0  0  0  0  0  0
    1.0284    1.2256    0.0000 C   0  0  0  0  0  0  0  0  0  0  0  0
    0.1688    2.5750    0.0000 H   0  0  0  0  0  0  0  0  0  0  0  0
    1.0983    2.8241    0.0000 H   0  0  0  0  0  0  0  0  0  0  0  0
   -0.0001    0.0000    0.0000 C   0  0  0  0  0  0  0  0  0  0  0  0
    1.3856   -0.8000    0.0000 H   0  0  0  0  0  0  0  0  0  0  0  0
   -1.3856    0.8000    0.0000 C   0  0  0  0  0  0  0  0  0  0  0  0
   -1.3856    2.4000    0.0000 H   0  0  0  0  0  0  0  0  0  0  0  0
   -2.7712    1.6000    0.0000 H   0  0  0  0  0  0  0  0  0  0  0  0
   -0.0001    1.6000    0.0000 H   0  0  0  0  0  0  0  0  0  0  0  0
   -0.8001   -1.3856    0.0000 C   0  0  0  0  0  0  0  0  0  0  0  0
   -2.4000   -1.3856    0.0000 C   0  0  0  0  0  0  0  0  0  0  0  0
   -3.2000    0.0000    0.0000 H   0  0  0  0  0  0  0  0  0  0  0  0
   -3.2000   -2.7713    0.0000 C   0  0  0  0  0  0  0  0  0  0  0  0
   -4.8000   -2.7713    0.0000 H   0  0  0  0  0  0  0  0  0  0  0  0
   -2.4000   -4.1569    0.0000 C   0  0  0  0  0  0  0  0  0  0  0  0
   -3.2000   -5.5426    0.0000 H   0  0  0  0  0  0  0  0  0  0  0  0
   -0.8001   -4.1569    0.0000 C   0  0  0  0  0  0  0  0  0  0  0  0
   -0.0001   -5.5426    0.0000 H   0  0  0  0  0  0  0  0  0  0  0  0
   -0.0001   -2.7713    0.0000 C   0  0  0  0  0  0  0  0  0  0  0  0
    1.6001   -2.7713    0.0000 O   0  0  0  0  0  0  0  0  0  0  0  0
    2.4001   -4.1569    0.0000 C   0  0  0  0  0  0  0  0  0  0  0  0
    4.0000   -4.1569    0.0000 N   0  0  0  0  0  0  0  0  0  0  0  0
    4.8000   -2.7713    0.0000 H   0  0  0  0  0  0  0  0  0  0  0  0
    4.8000   -5.5426    0.0000 C   0  0  0  0  0  0  0  0  0  0  0  0
    5.6000   -6.9282    0.0000 H   0  0  0  0  0  0  0  0  0  0  0  0
    6.4000   -5.5426    0.0000 H   0  0  0  0  0  0  0  0  0  0  0  0
    4.0000   -6.9282    0.0000 H   0  0  0  0  0  0  0  0  0  0  0  0
    1.6001   -5.5426    0.0000 O   0  0  0  0  0  0  0  0  0  0  0  0
  1  2  1  0  0  0  0
  1  3  1  0  0  0  0
  1  4  1  0  0  0  0
  1  5  1  0  0  0  0
  5  6  1  0  0  0  0
  5  7  1  0  0  0  0
  5  8  1  0  0  0  0
  8  9  1  0  0  0  0
  8 10  1  0  0  0  0
 10 11  1  0  0  0  0
 10 12  1  0  0  0  0
 10 13  1  0  0  0  0
  8 14  1  0  0  0  0
 14 15  1  0  0  0  0
 15 16  1  0  0  0  0
 15 17  2  0  0  0  0
 17 18  1  0  0  0  0
 17 19  1  0  0  0  0
 19 20  1  0  0  0  0
 19 21  2  0  0  0  0
 21 22  1  0  0  0  0
 21 23  1  0  0  0  0
 23 14  2  0  0  0  0
 23 24  1  0  0  0  0
 24 25  1  0  0  0  0
 25 26  1  0  0  0  0
 26 27  1  0  0  0  0
 26 28  1  0  0  0  0
 28 29  1  0  0  0  0
 28 30  1  0  0  0  0
 28 31  1  0  0  0  0
 25 32  2  0  0  0  0
M  END
> <ChemID>
100510

> <source_casrn>
3766-81-2

> <CAS>
3766-81-2

> <SMILES>
O=C(Oc(c(ccc1)C(CC)C)c1)NC

> <NAME>
N-METHYL O-SEC-BUTYL PHENYL CARBAMATE

> <preferred_name>
Fenobucarb

> <iupac>
2-sec-butylphenyl methylcarbamate

> <MPID>
98432

> <dsstox_substance_id>
DTXSID4058077

> <Canonical_QSARr>
CCC(C)c1ccccc1OC(=O)NC

> <InChI_Code_QSARr>
InChI=1S/C12H17NO2/c1-4-9(2)10-7-5-6-8-11(10)15-12(14)13-3/h5-9H,4H2,1-3H3,(H,13,14)

> <InChI Key_QSARr>
DIRFUJHNVNOBMY-UHFFFAOYSA-N

> <Salt_Solvent>
?

> <LogBCF>
1.41

$$$$
100511
  -INDIGO-08031719362D

 22 23  0  0  0  0  0  0  0  0999 V2000
   -2.3999    1.3857    0.0000 O   0  0  0  0  0  0  0  0  0  0  0  0
   -3.2000    0.0000    0.0000 P   0  0  0  0  0  0  0  0  0  0  0  0
   -4.4257   -1.0285    0.0000 S   0  0  0  0  0  0  0  0  0  0  0  0
   -4.4257    1.0284    0.0000 O   0  0  0  0  0  0  0  0  0  0  0  0
   -5.9293    0.4812    0.0000 C   0  0  0  0  0  0  0  0  0  0  0  0
   -7.4327   -0.0660    0.0000 H   0  0  0  0  0  0  0  0  0  0  0  0
   -7.1548    1.5097    0.0000 H   0  0  0  0  0  0  0  0  0  0  0  0
   -6.2070   -1.0944    0.0000 H   0  0  0  0  0  0  0  0  0  0  0  0
   -2.3999   -1.3856    0.0000 O   0  0  0  0  0  0  0  0  0  0  0  0
   -0.8000   -1.3856    0.0000 C   0  0  0  0  0  0  0  0  0  0  0  0
   -1.0778   -2.9613    0.0000 H   0  0  0  0  0  0  0  0  0  0  0  0
    0.7036   -1.9328    0.0000 H   0  0  0  0  0  0  0  0  0  0  0  0
    0.0000    0.0000    0.0000 C   0  0  0  0  0  0  0  0  0  0  0  0
   -0.8000    1.3857    0.0000 C   0  0  0  0  0  0  0  0  0  0  0  0
    0.0000    2.7713    0.0000 C   0  0  0  0  0  0  0  0  0  0  0  0
   -0.8000    4.1569    0.0000 H   0  0  0  0  0  0  0  0  0  0  0  0
    1.6001    2.7713    0.0000 C   0  0  0  0  0  0  0  0  0  0  0  0
    2.3999    4.1569    0.0000 H   0  0  0  0  0  0  0  0  0  0  0  0
    2.3999    1.3857    0.0000 C   0  0  0  0  0  0  0  0  0  0  0  0
    4.0000    1.3857    0.0000 H   0  0  0  0  0  0  0  0  0  0  0  0
    1.6001    0.0000    0.0000 C   0  0  0  0  0  0  0  0  0  0  0  0
    2.3999   -1.3856    0.0000 H   0  0  0  0  0  0  0  0  0  0  0  0
  1  2  1  0  0  0  0
  2  3  2  0  0  0  0
  2  4  1  0  0  0  0
  4  5  1  0  0  0  0
  5  6  1  0  0  0  0
  5  7  1  0  0  0  0
  5  8  1  0  0  0  0
  2  9  1  0  0  0  0
  9 10  1  0  0  0  0
 10 11  1  0  0  0  0
 10 12  1  0  0  0  0
 10 13  1  0  0  0  0
 13 14  1  0  0  0  0
 14  1  1  0  0  0  0
 14 15  2  0  0  0  0
 15 16  1  0  0  0  0
 15 17  1  0  0  0  0
 17 18  1  0  0  0  0
 17 19  2  0  0  0  0
 19 20  1  0  0  0  0
 19 21  1  0  0  0  0
 21 13  2  0  0  0  0
 21 22  1  0  0  0  0
M  END
> <ChemID>
100511

> <source_casrn>
3811-49-2

> <CAS>
3811-49-2

> <SMILES>
COP1(=S)OCc2ccccc2O1

> <NAME>
SALITHION

> <preferred_name>
Dioxabenzofos

> <iupac>
2-methoxy-4H-1,3,2-benzodioxaphosphinine 2-sulfide

> <MPID>
98433

> <dsstox_substance_id>
DTXSID7041885

> <Canonical_QSARr>
COP1(=S)OCc2ccccc2O1

> <InChI_Code_QSARr>
InChI=1S/C8H9O3PS/c1-9-12(13)10-6-7-4-2-3-5-8(7)11-12/h2-5H,6H2,1H3

> <InChI Key_QSARr>
OUNSASXJZHBGAI-UHFFFAOYSA-N

> <Salt_Solvent>
?

> <LogBCF>
1.31

$$$$
100515
  -INDIGO-08031719362D

 43 43  0  0  0  0  0  0  0  0999 V2000
   -2.4001    1.3857    0.0000 C   0  0  0  0  0  0  0  0  0  0  0  0
   -1.6000    2.7713    0.0000 O   0  0  0  0  0  0  0  0  0  0  0  0
    0.0000    2.7713    0.0000 H   0  0  0  0  0  0  0  0  0  0  0  0
   -4.0001    1.3857    0.0000 C   0  0  0  0  0  0  0  0  0  0  0  0
   -4.8000    2.7713    0.0000 C   0  0  0  0  0  0  0  0  0  0  0  0
   -5.6001    4.1568    0.0000 C   0  0  0  0  0  0  0  0  0  0  0  0
   -6.4000    5.5426    0.0000 H   0  0  0  0  0  0  0  0  0  0  0  0
   -7.1757    4.4348    0.0000 H   0  0  0  0  0  0  0  0  0  0  0  0
   -5.0528    5.6604    0.0000 H   0  0  0  0  0  0  0  0  0  0  0  0
   -6.1856    1.9713    0.0000 C   0  0  0  0  0  0  0  0  0  0  0  0
   -7.4112    0.9429    0.0000 H   0  0  0  0  0  0  0  0  0  0  0  0
   -7.6891    2.5184    0.0000 H   0  0  0  0  0  0  0  0  0  0  0  0
   -6.4635    3.5469    0.0000 H   0  0  0  0  0  0  0  0  0  0  0  0
   -3.4144    3.5712    0.0000 C   0  0  0  0  0  0  0  0  0  0  0  0
   -1.9108    4.1185    0.0000 H   0  0  0  0  0  0  0  0  0  0  0  0
   -3.1365    5.1470    0.0000 H   0  0  0  0  0  0  0  0  0  0  0  0
   -4.6400    4.5997    0.0000 H   0  0  0  0  0  0  0  0  0  0  0  0
   -4.8000   -0.0000    0.0000 C   0  0  0  0  0  0  0  0  0  0  0  0
   -6.4000   -0.0000    0.0000 H   0  0  0  0  0  0  0  0  0  0  0  0
   -4.0001   -1.3856    0.0000 C   0  0  0  0  0  0  0  0  0  0  0  0
   -4.8000   -2.7713    0.0000 C   0  0  0  0  0  0  0  0  0  0  0  0
   -3.5306   -3.7454    0.0000 H   0  0  0  0  0  0  0  0  0  0  0  0
   -4.5912   -4.3576    0.0000 H   0  0  0  0  0  0  0  0  0  0  0  0
   -6.4000   -2.7713    0.0000 C   0  0  0  0  0  0  0  0  0  0  0  0
   -7.2001   -4.1569    0.0000 H   0  0  0  0  0  0  0  0  0  0  0  0
   -8.0000   -2.7713    0.0000 H   0  0  0  0  0  0  0  0  0  0  0  0
   -5.6001   -4.1569    0.0000 H   0  0  0  0  0  0  0  0  0  0  0  0
   -2.4001   -1.3856    0.0000 C   0  0  0  0  0  0  0  0  0  0  0  0
   -1.6000   -2.7713    0.0000 H   0  0  0  0  0  0  0  0  0  0  0  0
   -1.6000   -0.0000    0.0000 C   0  0  0  0  0  0  0  0  0  0  0  0
    0.0000   -0.0000    0.0000 C   0  0  0  0  0  0  0  0  0  0  0  0
    1.5757   -0.2778    0.0000 C   0  0  0  0  0  0  0  0  0  0  0  0
    3.1514   -0.5557    0.0000 H   0  0  0  0  0  0  0  0  0  0  0  0
    2.8014    0.7506    0.0000 H   0  0  0  0  0  0  0  0  0  0  0  0
    2.3756   -1.6635    0.0000 H   0  0  0  0  0  0  0  0  0  0  0  0
   -0.2778   -1.5758    0.0000 C   0  0  0  0  0  0  0  0  0  0  0  0
   -0.5557   -3.1513    0.0000 H   0  0  0  0  0  0  0  0  0  0  0  0
    0.9478   -2.6041    0.0000 H   0  0  0  0  0  0  0  0  0  0  0  0
    1.2978   -1.2978    0.0000 H   0  0  0  0  0  0  0  0  0  0  0  0
    0.2779    1.5757    0.0000 C   0  0  0  0  0  0  0  0  0  0  0  0
    1.6635    2.3757    0.0000 H   0  0  0  0  0  0  0  0  0  0  0  0
    1.6635    0.7756    0.0000 H   0  0  0  0  0  0  0  0  0  0  0  0
   -1.2256    1.0285    0.0000 H   0  0  0  0  0  0  0  0  0  0  0  0
  1  2  1  0  0  0  0
  2  3  1  0  0  0  0
  1  4  1  0  0  0  0
  4  5  1  0  0  0  0
  5  6  1  0  0  0  0
  6  7  1  0  0  0  0
  6  8  1  0  0  0  0
  6  9  1  0  0  0  0
  5 10  1  0  0  0  0
 10 11  1  0  0  0  0
 10 12  1  0  0  0  0
 10 13  1  0  0  0  0
  5 14  1  0  0  0  0
 14 15  1  0  0  0  0
 14 16  1  0  0  0  0
 14 17  1  0  0  0  0
  4 18  2  0  0  0  0
 18 19  1  0  0  0  0
 18 20  1  0  0  0  0
 20 21  1  0  0  0  0
 21 22  1  0  0  0  0
 21 23  1  0  0  0  0
 21 24  1  0  0  0  0
 24 25  1  0  0  0  0
 24 26  1  0  0  0  0
 24 27  1  0  0  0  0
 20 28  2  0  0  0  0
 28 29  1  0  0  0  0
 28 30  1  0  0  0  0
 30  1  2  0  0  0  0
 30 31  1  0  0  0  0
 31 32  1  0  0  0  0
 32 33  1  0  0  0  0
 32 34  1  0  0  0  0
 32 35  1  0  0  0  0
 31 36  1  0  0  0  0
 36 37  1  0  0  0  0
 36 38  1  0  0  0  0
 36 39  1  0  0  0  0
 31 40  1  0  0  0  0
 40 41  1  0  0  0  0
 40 42  1  0  0  0  0
 40 43  1  0  0  0  0
M  END
> <ChemID>
100515

> <source_casrn>
4130-42-1

> <CAS>
4130-42-1

> <SMILES>
CCc1cc(c(O)c(c1)C(C)(C)C)C(C)(C)C

> <NAME>
Phenol, 2,6-bis(1,1-dimethylethyl)-4-ethyl-

> <preferred_name>
2,6-Di-tert-butyl-4-ethylphenol

> <iupac>
2,6-di-tert-butyl-4-ethylphenol

> <MPID>
98435

> <dsstox_substance_id>
DTXSID0029262

> <Canonical_QSARr>
CCc1cc(c(O)c(c1)C(C)(C)C)C(C)(C)C

> <InChI_Code_QSARr>
InChI=1S/C16H26O/c1-8-11-9-12(15(2,3)4)14(17)13(10-11)16(5,6)7/h9-10,17H,8H2,1-7H3

> <InChI Key_QSARr>
BVUXDWXKPROUDO-UHFFFAOYSA-N

> <Salt_Solvent>
?

> <LogBCF>
3.46

$$$$
100516
  -INDIGO-08031719362D

 50 49  0  0  0  0  0  0  0  0999 V2000
    4.5857    0.8000    0.0000 C   0  0  0  0  0  0  0  0  0  0  0  0
    4.7944    2.3864    0.0000 H   0  0  0  0  0  0  0  0  0  0  0  0
    5.8549    1.7740    0.0000 H   0  0  0  0  0  0  0  0  0  0  0  0
    2.9856    0.8000    0.0000 C   0  0  0  0  0  0  0  0  0  0  0  0
    2.1857   -0.5856    0.0000 H   0  0  0  0  0  0  0  0  0  0  0  0
    2.9856    2.4000    0.0000 C   0  0  0  0  0  0  0  0  0  0  0  0
    2.9856    4.0000    0.0000 H   0  0  0  0  0  0  0  0  0  0  0  0
    1.6001    3.2000    0.0000 H   0  0  0  0  0  0  0  0  0  0  0  0
    4.3713    3.2000    0.0000 H   0  0  0  0  0  0  0  0  0  0  0  0
    1.3856    0.8000    0.0000 C   0  0  0  0  0  0  0  0  0  0  0  0
    1.9980    2.2782    0.0000 H   0  0  0  0  0  0  0  0  0  0  0  0
    0.7733    2.2782    0.0000 H   0  0  0  0  0  0  0  0  0  0  0  0
   -0.0001   -0.0000    0.0000 C   0  0  0  0  0  0  0  0  0  0  0  0
   -1.3856   -0.8000    0.0000 C   0  0  0  0  0  0  0  0  0  0  0  0
   -1.9979   -2.2782    0.0000 H   0  0  0  0  0  0  0  0  0  0  0  0
   -0.7733   -2.2782    0.0000 H   0  0  0  0  0  0  0  0  0  0  0  0
   -2.7713   -0.0000    0.0000 C   0  0  0  0  0  0  0  0  0  0  0  0
   -4.1568    0.8000    0.0000 C   0  0  0  0  0  0  0  0  0  0  0  0
   -5.5426    1.6000    0.0000 H   0  0  0  0  0  0  0  0  0  0  0  0
   -5.5426   -0.0000    0.0000 H   0  0  0  0  0  0  0  0  0  0  0  0
   -4.1568    2.4000    0.0000 H   0  0  0  0  0  0  0  0  0  0  0  0
   -3.5712   -1.3856    0.0000 C   0  0  0  0  0  0  0  0  0  0  0  0
   -4.3713   -2.7713    0.0000 H   0  0  0  0  0  0  0  0  0  0  0  0
   -2.7713   -2.7713    0.0000 H   0  0  0  0  0  0  0  0  0  0  0  0
   -5.1713   -1.3856    0.0000 H   0  0  0  0  0  0  0  0  0  0  0  0
   -1.9713    1.3857    0.0000 C   0  0  0  0  0  0  0  0  0  0  0  0
   -2.7713    2.7712    0.0000 H   0  0  0  0  0  0  0  0  0  0  0  0
   -3.5712    1.3857    0.0000 H   0  0  0  0  0  0  0  0  0  0  0  0
   -1.1712   -0.0000    0.0000 H   0  0  0  0  0  0  0  0  0  0  0  0
   -0.8000    1.3857    0.0000 C   0  0  0  0  0  0  0  0  0  0  0  0
   -0.0001    2.7712    0.0000 H   0  0  0  0  0  0  0  0  0  0  0  0
   -1.6000    2.7712    0.0000 H   0  0  0  0  0  0  0  0  0  0  0  0
    0.8000    1.3857    0.0000 H   0  0  0  0  0  0  0  0  0  0  0  0
    0.8000   -1.3856    0.0000 C   0  0  0  0  0  0  0  0  0  0  0  0
    1.6001   -2.7713    0.0000 H   0  0  0  0  0  0  0  0  0  0  0  0
   -0.0001   -2.7713    0.0000 H   0  0  0  0  0  0  0  0  0  0  0  0
    2.3758   -1.6634    0.0000 H   0  0  0  0  0  0  0  0  0  0  0  0
    5.6140   -0.4257    0.0000 C   0  0  0  0  0  0  0  0  0  0  0  0
    6.8397    0.6028    0.0000 C   0  0  0  0  0  0  0  0  0  0  0  0
    8.0655    1.6312    0.0000 H   0  0  0  0  0  0  0  0  0  0  0  0
    8.3433    0.0555    0.0000 H   0  0  0  0  0  0  0  0  0  0  0  0
    6.8397    2.2028    0.0000 H   0  0  0  0  0  0  0  0  0  0  0  0
    6.8397   -1.4542    0.0000 C   0  0  0  0  0  0  0  0  0  0  0  0
    8.0655   -2.4825    0.0000 H   0  0  0  0  0  0  0  0  0  0  0  0
    6.5620   -3.0298    0.0000 H   0  0  0  0  0  0  0  0  0  0  0  0
    8.3433   -0.9069    0.0000 H   0  0  0  0  0  0  0  0  0  0  0  0
    4.3885   -1.4542    0.0000 C   0  0  0  0  0  0  0  0  0  0  0  0
    4.6662   -3.0298    0.0000 H   0  0  0  0  0  0  0  0  0  0  0  0
    5.8920   -2.0013    0.0000 H   0  0  0  0  0  0  0  0  0  0  0  0
    3.8412    0.0494    0.0000 H   0  0  0  0  0  0  0  0  0  0  0  0
  1  2  1  0  0  0  0
  1  3  1  0  0  0  0
  1  4  1  0  0  0  0
  4  5  1  0  0  0  0
  4  6  1  0  0  0  0
  6  7  1  0  0  0  0
  6  8  1  0  0  0  0
  6  9  1  0  0  0  0
  4 10  1  0  0  0  0
 10 11  1  0  0  0  0
 10 12  1  0  0  0  0
 10 13  1  0  0  0  0
 13 14  1  0  0  0  0
 14 15  1  0  0  0  0
 14 16  1  0  0  0  0
 14 17  1  0  0  0  0
 17 18  1  0  0  0  0
 18 19  1  0  0  0  0
 18 20  1  0  0  0  0
 18 21  1  0  0  0  0
 17 22  1  0  0  0  0
 22 23  1  0  0  0  0
 22 24  1  0  0  0  0
 22 25  1  0  0  0  0
 17 26  1  0  0  0  0
 26 27  1  0  0  0  0
 26 28  1  0  0  0  0
 26 29  1  0  0  0  0
 13 30  1  0  0  0  0
 30 31  1  0  0  0  0
 30 32  1  0  0  0  0
 30 33  1  0  0  0  0
 13 34  1  0  0  0  0
 34 35  1  0  0  0  0
 34 36  1  0  0  0  0
 34 37  1  0  0  0  0
  1 38  1  0  0  0  0
 38 39  1  0  0  0  0
 39 40  1  0  0  0  0
 39 41  1  0  0  0  0
 39 42  1  0  0  0  0
 38 43  1  0  0  0  0
 43 44  1  0  0  0  0
 43 45  1  0  0  0  0
 43 46  1  0  0  0  0
 38 47  1  0  0  0  0
 47 48  1  0  0  0  0
 47 49  1  0  0  0  0
 47 50  1  0  0  0  0
M  END
> <ChemID>
100516

> <source_casrn>
4390-04-9

> <CAS>
4390-04-9

> <SMILES>
CC(CC(C)(C)C)CC(C)(C)CC(C)(C)C

> <NAME>
Nonane, 2,2,4,4,6,8,8-heptamethyl-

> <preferred_name>
2,2,4,4,6,8,8-Heptamethylnonane

> <iupac>
2,2,4,4,6,8,8-heptamethylnonane

> <MPID>
98436

> <dsstox_substance_id>
DTXSID7052101

> <Canonical_QSARr>
CC(CC(C)(C)C)CC(C)(C)CC(C)(C)C

> <InChI_Code_QSARr>
InChI=1S/C16H34/c1-13(10-14(2,3)4)11-16(8,9)12-15(5,6)7/h13H,10-12H2,1-9H3

> <InChI Key_QSARr>
VCLJODPNBNEBKW-UHFFFAOYSA-N

> <Salt_Solvent>
?

> <LogBCF>
3.82

$$$$
100517
  -INDIGO-08031719362D

 45 47  0  0  0  0  0  0  0  0999 V2000
    2.1820   -1.9848    0.0000 O   0  0  0  0  0  0  0  0  0  0  0  0
    3.2104   -3.2103    0.0000 H   0  0  0  0  0  0  0  0  0  0  0  0
    2.7291   -0.4812    0.0000 C   0  0  0  0  0  0  0  0  0  0  0  0
    4.2326    0.0660    0.0000 C   0  0  0  0  0  0  0  0  0  0  0  0
    5.4584   -0.9625    0.0000 C   0  0  0  0  0  0  0  0  0  0  0  0
    3.9550   -1.5097    0.0000 H   0  0  0  0  0  0  0  0  0  0  0  0
    5.7363   -2.5381    0.0000 C   0  0  0  0  0  0  0  0  0  0  0  0
    4.1362   -2.5381    0.0000 H   0  0  0  0  0  0  0  0  0  0  0  0
    5.4584   -4.1139    0.0000 H   0  0  0  0  0  0  0  0  0  0  0  0
    7.2398   -3.0853    0.0000 C   0  0  0  0  0  0  0  0  0  0  0  0
    6.4396   -4.4710    0.0000 H   0  0  0  0  0  0  0  0  0  0  0  0
    8.4654   -4.1139    0.0000 H   0  0  0  0  0  0  0  0  0  0  0  0
    8.4654   -2.0569    0.0000 C   0  0  0  0  0  0  0  0  0  0  0  0
    9.2654   -3.4426    0.0000 H   0  0  0  0  0  0  0  0  0  0  0  0
    9.9689   -1.5097    0.0000 H   0  0  0  0  0  0  0  0  0  0  0  0
    8.1875   -0.4812    0.0000 C   0  0  0  0  0  0  0  0  0  0  0  0
    9.7875   -0.4812    0.0000 H   0  0  0  0  0  0  0  0  0  0  0  0
    8.4654    1.0944    0.0000 H   0  0  0  0  0  0  0  0  0  0  0  0
    6.6841    0.0660    0.0000 C   0  0  0  0  0  0  0  0  0  0  0  0
    7.4840    1.4517    0.0000 H   0  0  0  0  0  0  0  0  0  0  0  0
    5.4584    1.0944    0.0000 H   0  0  0  0  0  0  0  0  0  0  0  0
    4.5104    1.6418    0.0000 C   0  0  0  0  0  0  0  0  0  0  0  0
    6.0141    2.1890    0.0000 H   0  0  0  0  0  0  0  0  0  0  0  0
    3.2848    2.6702    0.0000 C   0  0  0  0  0  0  0  0  0  0  0  0
    3.5627    4.2458    0.0000 H   0  0  0  0  0  0  0  0  0  0  0  0
    1.7813    2.1229    0.0000 C   0  0  0  0  0  0  0  0  0  0  0  0
    0.5557    3.1514    0.0000 H   0  0  0  0  0  0  0  0  0  0  0  0
    1.5035    0.5472    0.0000 C   0  0  0  0  0  0  0  0  0  0  0  0
    0.0000    0.0000    0.0000 C   0  0  0  0  0  0  0  0  0  0  0  0
    1.2256   -1.0284    0.0000 H   0  0  0  0  0  0  0  0  0  0  0  0
   -0.8000    1.3856    0.0000 C   0  0  0  0  0  0  0  0  0  0  0  0
    0.7035    1.9329    0.0000 H   0  0  0  0  0  0  0  0  0  0  0  0
   -1.0778    2.9614    0.0000 H   0  0  0  0  0  0  0  0  0  0  0  0
   -2.4001    1.3856    0.0000 C   0  0  0  0  0  0  0  0  0  0  0  0
   -2.1222    2.9614    0.0000 H   0  0  0  0  0  0  0  0  0  0  0  0
   -3.9036    1.9329    0.0000 H   0  0  0  0  0  0  0  0  0  0  0  0
   -3.2000    0.0000    0.0000 C   0  0  0  0  0  0  0  0  0  0  0  0
   -4.4257    1.0284    0.0000 H   0  0  0  0  0  0  0  0  0  0  0  0
   -4.4257   -1.0284    0.0000 H   0  0  0  0  0  0  0  0  0  0  0  0
   -2.4001   -1.3857    0.0000 C   0  0  0  0  0  0  0  0  0  0  0  0
   -3.9036   -1.9329    0.0000 H   0  0  0  0  0  0  0  0  0  0  0  0
   -2.1222   -2.9613    0.0000 H   0  0  0  0  0  0  0  0  0  0  0  0
   -0.8000   -1.3857    0.0000 C   0  0  0  0  0  0  0  0  0  0  0  0
   -1.0778   -2.9613    0.0000 H   0  0  0  0  0  0  0  0  0  0  0  0
    0.7035   -1.9329    0.0000 H   0  0  0  0  0  0  0  0  0  0  0  0
  1  2  1  0  0  0  0
  1  3  1  0  0  0  0
  3  4  1  0  0  0  0
  4  5  1  0  0  0  0
  5  6  1  0  0  0  0
  5  7  1  0  0  0  0
  7  8  1  0  0  0  0
  7  9  1  0  0  0  0
  7 10  1  0  0  0  0
 10 11  1  0  0  0  0
 10 12  1  0  0  0  0
 10 13  1  0  0  0  0
 13 14  1  0  0  0  0
 13 15  1  0  0  0  0
 13 16  1  0  0  0  0
 16 17  1  0  0  0  0
 16 18  1  0  0  0  0
 16 19  1  0  0  0  0
 19  5  1  0  0  0  0
 19 20  1  0  0  0  0
 19 21  1  0  0  0  0
  4 22  2  0  0  0  0
 22 23  1  0  0  0  0
 22 24  1  0  0  0  0
 24 25  1  0  0  0  0
 24 26  2  0  0  0  0
 26 27  1  0  0  0  0
 26 28  1  0  0  0  0
 28  3  2  0  0  0  0
 28 29  1  0  0  0  0
 29 30  1  0  0  0  0
 29 31  1  0  0  0  0
 31 32  1  0  0  0  0
 31 33  1  0  0  0  0
 31 34  1  0  0  0  0
 34 35  1  0  0  0  0
 34 36  1  0  0  0  0
 34 37  1  0  0  0  0
 37 38  1  0  0  0  0
 37 39  1  0  0  0  0
 37 40  1  0  0  0  0
 40 41  1  0  0  0  0
 40 42  1  0  0  0  0
 40 43  1  0  0  0  0
 43 29  1  0  0  0  0
 43 44  1  0  0  0  0
 43 45  1  0  0  0  0
M  END
> <ChemID>
100517

> <source_casrn>
4821-19-6

> <CAS>
4821-19-6

> <SMILES>
Oc1c(cccc1C1CCCCC1)C1CCCCC1

> <NAME>
2,6-Dicyclohexylphenol

> <preferred_name>
2,6-Dicyclohexylphenol

> <iupac>
2,6-Dicyclohexylphenol

> <MPID>
98437

> <dsstox_substance_id>
DTXSID60197465

> <Canonical_QSARr>
Oc1c(cccc1C1CCCCC1)C1CCCCC1

> <InChI_Code_QSARr>
InChI=1S/C18H26O/c19-18-16(14-8-3-1-4-9-14)12-7-13-17(18)15-10-5-2-6-11-15/h7,12-15,19H,1-6,8-11H2

> <InChI Key_QSARr>
AUEZNTKYSSUTGZ-UHFFFAOYSA-N

> <Salt_Solvent>
?

> <LogBCF>
3.02

$$$$
100521
  -INDIGO-08031719362D

 41 43  0  0  0  0  0  0  0  0999 V2000
   -4.0001   -1.3857    0.0000 C   0  0  0  0  0  0  0  0  0  0  0  0
   -3.1999   -2.7713    0.0000 C   0  0  0  0  0  0  0  0  0  0  0  0
   -1.5999   -2.7713    0.0000 H   0  0  0  0  0  0  0  0  0  0  0  0
   -4.0001   -4.1569    0.0000 C   0  0  0  0  0  0  0  0  0  0  0  0
   -3.1999   -5.5426    0.0000 H   0  0  0  0  0  0  0  0  0  0  0  0
   -5.6001   -4.1569    0.0000 C   0  0  0  0  0  0  0  0  0  0  0  0
   -6.4000   -5.5426    0.0000 H   0  0  0  0  0  0  0  0  0  0  0  0
   -6.4000   -2.7713    0.0000 C   0  0  0  0  0  0  0  0  0  0  0  0
   -8.0000   -2.7713    0.0000 H   0  0  0  0  0  0  0  0  0  0  0  0
   -5.6001   -1.3857    0.0000 C   0  0  0  0  0  0  0  0  0  0  0  0
   -6.4000    0.0001    0.0000 H   0  0  0  0  0  0  0  0  0  0  0  0
   -3.1999    0.0001    0.0000 N   0  0  0  0  0  0  0  0  0  0  0  0
   -4.0001    1.3857    0.0000 H   0  0  0  0  0  0  0  0  0  0  0  0
   -1.5999    0.0001    0.0000 S   0  0  0  0  0  0  0  0  0  0  0  0
   -1.5999   -1.6000    0.0000 O   0  0  0  0  0  0  0  0  0  0  0  0
   -1.5999    1.6000    0.0000 O   0  0  0  0  0  0  0  0  0  0  0  0
    0.0001    0.0001    0.0000 C   0  0  0  0  0  0  0  0  0  0  0  0
    0.8000    1.3857    0.0000 C   0  0  0  0  0  0  0  0  0  0  0  0
    0.0001    2.7713    0.0000 H   0  0  0  0  0  0  0  0  0  0  0  0
    2.4000    1.3857    0.0000 C   0  0  0  0  0  0  0  0  0  0  0  0
    3.1999    2.7713    0.0000 N   0  0  0  0  0  0  0  0  0  0  0  0
    2.4000    4.1569    0.0000 O   0  0  0  0  0  0  0  0  0  0  0  0
    4.7999    2.7713    0.0000 O   0  0  0  0  0  0  0  0  0  0  0  0
    3.1999    0.0001    0.0000 C   0  0  0  0  0  0  0  0  0  0  0  0
    4.7999    0.0001    0.0000 N   0  0  0  0  0  0  0  0  0  0  0  0
    5.6001    1.3857    0.0000 H   0  0  0  0  0  0  0  0  0  0  0  0
    6.0258   -1.0284    0.0000 C   0  0  0  0  0  0  0  0  0  0  0  0
    7.5291   -0.4812    0.0000 C   0  0  0  0  0  0  0  0  0  0  0  0
    7.8069    1.0944    0.0000 H   0  0  0  0  0  0  0  0  0  0  0  0
    8.7547   -1.5097    0.0000 C   0  0  0  0  0  0  0  0  0  0  0  0
   10.2584   -0.9624    0.0000 H   0  0  0  0  0  0  0  0  0  0  0  0
    8.4770   -3.0854    0.0000 C   0  0  0  0  0  0  0  0  0  0  0  0
    9.7028   -4.1139    0.0000 H   0  0  0  0  0  0  0  0  0  0  0  0
    6.9736   -3.6326    0.0000 C   0  0  0  0  0  0  0  0  0  0  0  0
    6.6956   -5.2084    0.0000 H   0  0  0  0  0  0  0  0  0  0  0  0
    5.7477   -2.6041    0.0000 C   0  0  0  0  0  0  0  0  0  0  0  0
    4.2444   -3.1514    0.0000 H   0  0  0  0  0  0  0  0  0  0  0  0
    2.4000   -1.3857    0.0000 C   0  0  0  0  0  0  0  0  0  0  0  0
    3.1999   -2.7713    0.0000 H   0  0  0  0  0  0  0  0  0  0  0  0
    0.8000   -1.3857    0.0000 C   0  0  0  0  0  0  0  0  0  0  0  0
    0.0001   -2.7713    0.0000 H   0  0  0  0  0  0  0  0  0  0  0  0
  1  2  1  0  0  0  0
  2  3  1  0  0  0  0
  2  4  2  0  0  0  0
  4  5  1  0  0  0  0
  4  6  1  0  0  0  0
  6  7  1  0  0  0  0
  6  8  2  0  0  0  0
  8  9  1  0  0  0  0
  8 10  1  0  0  0  0
 10  1  2  0  0  0  0
 10 11  1  0  0  0  0
  1 12  1  0  0  0  0
 12 13  1  0  0  0  0
 12 14  1  0  0  0  0
 14 15  2  0  0  0  0
 14 16  2  0  0  0  0
 14 17  1  0  0  0  0
 17 18  1  0  0  0  0
 18 19  1  0  0  0  0
 18 20  2  0  0  0  0
 20 21  1  0  0  0  0
 21 22  1  0  0  0  0
 21 23  2  0  0  0  0
 20 24  1  0  0  0  0
 24 25  1  0  0  0  0
 25 26  1  0  0  0  0
 25 27  1  0  0  0  0
 27 28  1  0  0  0  0
 28 29  1  0  0  0  0
 28 30  2  0  0  0  0
 30 31  1  0  0  0  0
 30 32  1  0  0  0  0
 32 33  1  0  0  0  0
 32 34  2  0  0  0  0
 34 35  1  0  0  0  0
 34 36  1  0  0  0  0
 36 27  2  0  0  0  0
 36 37  1  0  0  0  0
 24 38  2  0  0  0  0
 38 39  1  0  0  0  0
 38 40  1  0  0  0  0
 40 17  2  0  0  0  0
 40 41  1  0  0  0  0
M  CHG  2  21   1  22  -1
M  END
> <ChemID>
100521

> <source_casrn>
5124-25-4

> <CAS>
5124-25-4

> <SMILES>
O=S(=O)(Nc(cccc1)c1)c(ccc(Nc(cccc2)c2)c3N(=O)(=O))c3

> <NAME>
C.I. DISPERSE YELLOW 42

> <preferred_name>
C.I.Disperse Yellow 42

> <iupac>
4-anilino-3-nitro-N-phenylbenzenesulfonamide

> <MPID>
98440

> <dsstox_substance_id>
DTXSID8052148

> <Canonical_QSARr>
[O-][N+](=O)c1cc(ccc1Nc1ccccc1)S(=O)(=O)Nc1ccccc1

> <InChI_Code_QSARr>
InChI=1S/C18H15N3O4S/c22-21(23)18-13-16(26(24,25)20-15-9-5-2-6-10-15)11-12-17(18)19-14-7-3-1-4-8-14/h1-13,19-20H

> <InChI Key_QSARr>
BBFRYSKTTHYWQZ-UHFFFAOYSA-N

> <Salt_Solvent>
?

> <LogBCF>
1.61

$$$$
100523
  -INDIGO-08031719362D

 18 18  0  0  0  0  0  0  0  0999 V2000
    4.1569   -4.0000    0.0000 O   0  0  0  0  0  0  0  0  0  0  0  0
    4.1569   -2.4000    0.0000 N   0  0  0  0  0  0  0  0  0  0  0  0
    5.5426   -1.6000    0.0000 O   0  0  0  0  0  0  0  0  0  0  0  0
    2.7713   -1.6000    0.0000 C   0  0  0  0  0  0  0  0  0  0  0  0
    2.7713   -0.0000    0.0000 C   0  0  0  0  0  0  0  0  0  0  0  0
    4.1570    0.8000    0.0000 H   0  0  0  0  0  0  0  0  0  0  0  0
    1.3857    0.8000    0.0000 C   0  0  0  0  0  0  0  0  0  0  0  0
    1.3857    2.4000    0.0000 H   0  0  0  0  0  0  0  0  0  0  0  0
    0.0000   -0.0000    0.0000 C   0  0  0  0  0  0  0  0  0  0  0  0
   -1.3856    0.8000    0.0000 C   0  0  0  0  0  0  0  0  0  0  0  0
   -2.7713    1.6000    0.0000 H   0  0  0  0  0  0  0  0  0  0  0  0
   -1.3856    2.4000    0.0000 H   0  0  0  0  0  0  0  0  0  0  0  0
   -2.7713   -0.0000    0.0000 H   0  0  0  0  0  0  0  0  0  0  0  0
    0.0000   -1.6000    0.0000 C   0  0  0  0  0  0  0  0  0  0  0  0
   -1.3856   -2.4000    0.0000 O   0  0  0  0  0  0  0  0  0  0  0  0
   -1.3856   -4.0000    0.0000 H   0  0  0  0  0  0  0  0  0  0  0  0
    1.3857   -2.4000    0.0000 C   0  0  0  0  0  0  0  0  0  0  0  0
    1.3857   -4.0000    0.0000 H   0  0  0  0  0  0  0  0  0  0  0  0
  1  2  2  0  0  0  0
  2  3  1  0  0  0  0
  2  4  1  0  0  0  0
  4  5  1  0  0  0  0
  5  6  1  0  0  0  0
  5  7  2  0  0  0  0
  7  8  1  0  0  0  0
  7  9  1  0  0  0  0
  9 10  1  0  0  0  0
 10 11  1  0  0  0  0
 10 12  1  0  0  0  0
 10 13  1  0  0  0  0
  9 14  2  0  0  0  0
 14 15  1  0  0  0  0
 15 16  1  0  0  0  0
 14 17  1  0  0  0  0
 17  4  2  0  0  0  0
 17 18  1  0  0  0  0
M  CHG  2   2   1   3  -1
M  END
> <ChemID>
100523

> <source_casrn>
5428-54-6

> <CAS>
5428-54-6

> <SMILES>
Cc1ccc(cc1O)[N+]([O-])=O

> <NAME>
PHENOL, 2-METHYL-5-NITRO-

> <preferred_name>
Phenol, 2-methyl-5-nitro-

> <iupac>
2-Methyl-5-nitrophenol

> <MPID>
98441

> <dsstox_substance_id>
DTXSID4063874

> <Canonical_QSARr>
Cc1ccc(cc1O)[N+]([O-])=O

> <InChI_Code_QSARr>
InChI=1S/C7H7NO3/c1-5-2-3-6(8(10)11)4-7(5)9/h2-4,9H,1H3

> <InChI Key_QSARr>
UMFDLIXUUJMPSI-UHFFFAOYSA-N

> <Salt_Solvent>
?

> <LogBCF>
0.85

$$$$
100525
  -INDIGO-08031719362D

 37 37  0  0  0  0  0  0  0  0999 V2000
    2.7714    0.0000    0.0000 C   0  0  0  0  0  0  0  0  0  0  0  0
    2.7712    1.6001    0.0000 O   0  0  0  0  0  0  0  0  0  0  0  0
    4.1569    2.3999    0.0000 H   0  0  0  0  0  0  0  0  0  0  0  0
    4.1569   -0.8000    0.0000 C   0  0  0  0  0  0  0  0  0  0  0  0
    5.5426    0.0000    0.0000 C   0  0  0  0  0  0  0  0  0  0  0  0
    4.7426    1.3857    0.0000 H   0  0  0  0  0  0  0  0  0  0  0  0
    6.7683    1.0284    0.0000 C   0  0  0  0  0  0  0  0  0  0  0  0
    7.1145    2.5905    0.0000 H   0  0  0  0  0  0  0  0  0  0  0  0
    5.9086    2.3778    0.0000 H   0  0  0  0  0  0  0  0  0  0  0  0
    8.2718    0.4812    0.0000 C   0  0  0  0  0  0  0  0  0  0  0  0
    9.4974    1.5097    0.0000 H   0  0  0  0  0  0  0  0  0  0  0  0
    9.7753   -0.0660    0.0000 H   0  0  0  0  0  0  0  0  0  0  0  0
    7.9939    2.0569    0.0000 H   0  0  0  0  0  0  0  0  0  0  0  0
    6.3425   -1.3856    0.0000 C   0  0  0  0  0  0  0  0  0  0  0  0
    7.1425   -2.7712    0.0000 H   0  0  0  0  0  0  0  0  0  0  0  0
    7.9426   -1.3856    0.0000 H   0  0  0  0  0  0  0  0  0  0  0  0
    7.1425    0.0000    0.0000 H   0  0  0  0  0  0  0  0  0  0  0  0
    4.1569   -2.4000    0.0000 C   0  0  0  0  0  0  0  0  0  0  0  0
    5.5426   -3.2000    0.0000 H   0  0  0  0  0  0  0  0  0  0  0  0
    2.7714   -3.2000    0.0000 C   0  0  0  0  0  0  0  0  0  0  0  0
    2.7714   -4.8000    0.0000 H   0  0  0  0  0  0  0  0  0  0  0  0
    1.3857   -2.4000    0.0000 C   0  0  0  0  0  0  0  0  0  0  0  0
   -0.0001   -3.2000    0.0000 H   0  0  0  0  0  0  0  0  0  0  0  0
    1.3857   -0.8000    0.0000 C   0  0  0  0  0  0  0  0  0  0  0  0
   -0.0001    0.0000    0.0000 C   0  0  0  0  0  0  0  0  0  0  0  0
    0.8000    1.3857    0.0000 H   0  0  0  0  0  0  0  0  0  0  0  0
   -1.2257    1.0284    0.0000 C   0  0  0  0  0  0  0  0  0  0  0  0
   -0.3660    2.3778    0.0000 H   0  0  0  0  0  0  0  0  0  0  0  0
   -1.5720    2.5905    0.0000 H   0  0  0  0  0  0  0  0  0  0  0  0
   -2.7292    0.4812    0.0000 C   0  0  0  0  0  0  0  0  0  0  0  0
   -3.9548    1.5097    0.0000 H   0  0  0  0  0  0  0  0  0  0  0  0
   -4.2327   -0.0660    0.0000 H   0  0  0  0  0  0  0  0  0  0  0  0
   -2.4513    2.0569    0.0000 H   0  0  0  0  0  0  0  0  0  0  0  0
   -0.7999   -1.3856    0.0000 C   0  0  0  0  0  0  0  0  0  0  0  0
   -1.6000   -2.7712    0.0000 H   0  0  0  0  0  0  0  0  0  0  0  0
   -2.4000   -1.3856    0.0000 H   0  0  0  0  0  0  0  0  0  0  0  0
   -1.6000    0.0000    0.0000 H   0  0  0  0  0  0  0  0  0  0  0  0
  1  2  1  0  0  0  0
  2  3  1  0  0  0  0
  1  4  1  0  0  0  0
  4  5  1  0  0  0  0
  5  6  1  0  0  0  0
  5  7  1  0  0  0  0
  7  8  1  0  0  0  0
  7  9  1  0  0  0  0
  7 10  1  0  0  0  0
 10 11  1  0  0  0  0
 10 12  1  0  0  0  0
 10 13  1  0  0  0  0
  5 14  1  0  0  0  0
 14 15  1  0  0  0  0
 14 16  1  0  0  0  0
 14 17  1  0  0  0  0
  4 18  2  0  0  0  0
 18 19  1  0  0  0  0
 18 20  1  0  0  0  0
 20 21  1  0  0  0  0
 20 22  2  0  0  0  0
 22 23  1  0  0  0  0
 22 24  1  0  0  0  0
 24  1  2  0  0  0  0
 24 25  1  0  0  0  0
 25 26  1  0  0  0  0
 25 27  1  0  0  0  0
 27 28  1  0  0  0  0
 27 29  1  0  0  0  0
 27 30  1  0  0  0  0
 30 31  1  0  0  0  0
 30 32  1  0  0  0  0
 30 33  1  0  0  0  0
 25 34  1  0  0  0  0
 34 35  1  0  0  0  0
 34 36  1  0  0  0  0
 34 37  1  0  0  0  0
M  END
> <ChemID>
100525

> <source_casrn>
5510-99-6

> <CAS>
5510-99-6

> <SMILES>
CC(CC)c1cccc(C(C)CC)c1O

> <NAME>
2,6-DI-SEC-BUTYLPHENOL

> <preferred_name>
2,6-Di(butan-2-yl)phenol

> <iupac>
2,6-di(butan-2-yl)phenol

> <MPID>
98443

> <dsstox_substance_id>
DTXSID0044440

> <Canonical_QSARr>
CC(CC)c1cccc(C(C)CC)c1O

> <InChI_Code_QSARr>
InChI=1S/C14H22O/c1-5-10(3)12-8-7-9-13(14(12)15)11(4)6-2/h7-11,15H,5-6H2,1-4H3

> <InChI Key_QSARr>
FHTGJZOULSYEOB-UHFFFAOYSA-N

> <Salt_Solvent>
?

> <LogBCF>
2.39

$$$$
100527
  -INDIGO-08031719362D

 28 29  0  0  0  0  0  0  0  0999 V2000
    3.2000    0.0000    0.0000 C   0  0  0  0  0  0  0  0  0  0  0  0
    4.8000    0.0000    0.0000 C   0  0  0  0  0  0  0  0  0  0  0  0
    5.6000   -1.3856    0.0000 C   0  0  0  0  0  0  0  0  0  0  0  0
    4.8000   -2.7713    0.0000 H   0  0  0  0  0  0  0  0  0  0  0  0
    7.2000   -1.3856    0.0000 C   0  0  0  0  0  0  0  0  0  0  0  0
    8.0000   -2.7713    0.0000 H   0  0  0  0  0  0  0  0  0  0  0  0
    8.0000    0.0000    0.0000 C   0  0  0  0  0  0  0  0  0  0  0  0
    9.6000    0.0000    0.0000 H   0  0  0  0  0  0  0  0  0  0  0  0
    7.2000    1.3856    0.0000 C   0  0  0  0  0  0  0  0  0  0  0  0
    8.0000    2.7713    0.0000 H   0  0  0  0  0  0  0  0  0  0  0  0
    5.6000    1.3856    0.0000 C   0  0  0  0  0  0  0  0  0  0  0  0
    4.8000    2.7713    0.0000 H   0  0  0  0  0  0  0  0  0  0  0  0
    2.4000    1.3856    0.0000 C   0  0  0  0  0  0  0  0  0  0  0  0
    3.2000    2.7713    0.0000 H   0  0  0  0  0  0  0  0  0  0  0  0
    0.8000    1.3856    0.0000 C   0  0  0  0  0  0  0  0  0  0  0  0
    0.0000    2.7713    0.0000 H   0  0  0  0  0  0  0  0  0  0  0  0
    0.0000    0.0000    0.0000 C   0  0  0  0  0  0  0  0  0  0  0  0
   -1.6000    0.0000    0.0000 C   0  0  0  0  0  0  0  0  0  0  0  0
   -1.8088   -1.5863    0.0000 H   0  0  0  0  0  0  0  0  0  0  0  0
   -2.8694   -0.9740    0.0000 H   0  0  0  0  0  0  0  0  0  0  0  0
   -2.4000    1.3856    0.0000 C   0  0  0  0  0  0  0  0  0  0  0  0
   -4.0000    1.3856    0.0000 H   0  0  0  0  0  0  0  0  0  0  0  0
   -3.2000    2.7713    0.0000 H   0  0  0  0  0  0  0  0  0  0  0  0
   -3.2000   -0.0000    0.0000 H   0  0  0  0  0  0  0  0  0  0  0  0
    0.8000   -1.3856    0.0000 C   0  0  0  0  0  0  0  0  0  0  0  0
    0.0000   -2.7713    0.0000 H   0  0  0  0  0  0  0  0  0  0  0  0
    2.4000   -1.3856    0.0000 C   0  0  0  0  0  0  0  0  0  0  0  0
    3.2000   -2.7713    0.0000 H   0  0  0  0  0  0  0  0  0  0  0  0
  1  2  1  0  0  0  0
  2  3  1  0  0  0  0
  3  4  1  0  0  0  0
  3  5  2  0  0  0  0
  5  6  1  0  0  0  0
  5  7  1  0  0  0  0
  7  8  1  0  0  0  0
  7  9  2  0  0  0  0
  9 10  1  0  0  0  0
  9 11  1  0  0  0  0
 11  2  2  0  0  0  0
 11 12  1  0  0  0  0
  1 13  1  0  0  0  0
 13 14  1  0  0  0  0
 13 15  2  0  0  0  0
 15 16  1  0  0  0  0
 15 17  1  0  0  0  0
 17 18  1  0  0  0  0
 18 19  1  0  0  0  0
 18 20  1  0  0  0  0
 18 21  1  0  0  0  0
 21 22  1  0  0  0  0
 21 23  1  0  0  0  0
 21 24  1  0  0  0  0
 17 25  2  0  0  0  0
 25 26  1  0  0  0  0
 25 27  1  0  0  0  0
 27  1  2  0  0  0  0
 27 28  1  0  0  0  0
M  END
> <ChemID>
100527

> <source_casrn>
5707-44-8

> <CAS>
5707-44-8

> <SMILES>
CCc1ccc(cc1)-c1ccccc1

> <NAME>
4-ETHYL-1,1'-BIPHENYL

> <preferred_name>
1,1'-Biphenyl, 4-ethyl-

> <iupac>
1-Ethyl-4-phenylbenzene

> <MPID>
98445

> <dsstox_substance_id>
DTXSID7073355

> <Canonical_QSARr>
CCc1ccc(cc1)-c1ccccc1

> <InChI_Code_QSARr>
InChI=1S/C14H14/c1-2-12-8-10-14(11-9-12)13-6-4-3-5-7-13/h3-11H,2H2,1H3

> <InChI Key_QSARr>
SRQOBNUBCLPPPH-UHFFFAOYSA-N

> <Salt_Solvent>
?

> <LogBCF>
2.82

$$$$
100528
  -INDIGO-08031719362D

 52 54  0  0  0  0  0  0  0  0999 V2000
   -0.0001    0.0000    0.0000 C   0  0  0  0  0  0  0  0  0  0  0  0
    1.5999    0.0000    0.0000 C   0  0  0  0  0  0  0  0  0  0  0  0
    1.5094   -0.9718    0.0000 H   0  0  0  0  0  0  0  0  0  0  0  0
    2.4001    1.3857    0.0000 C   0  0  0  0  0  0  0  0  0  0  0  0
    4.0001    1.3857    0.0000 C   0  0  0  0  0  0  0  0  0  0  0  0
    5.5035    1.9329    0.0000 H   0  0  0  0  0  0  0  0  0  0  0  0
    3.7222    2.9613    0.0000 H   0  0  0  0  0  0  0  0  0  0  0  0
    4.8001    0.0000    0.0000 C   0  0  0  0  0  0  0  0  0  0  0  0
    4.0001   -1.3857    0.0000 C   0  0  0  0  0  0  0  0  0  0  0  0
    3.7222   -2.9613    0.0000 H   0  0  0  0  0  0  0  0  0  0  0  0
    5.5035   -1.9328    0.0000 H   0  0  0  0  0  0  0  0  0  0  0  0
    2.4001   -1.3857    0.0000 C   0  0  0  0  0  0  0  0  0  0  0  0
    0.8965   -1.9329    0.0000 H   0  0  0  0  0  0  0  0  0  0  0  0
    2.6778   -2.9613    0.0000 H   0  0  0  0  0  0  0  0  0  0  0  0
    6.0258   -1.0284    0.0000 C   0  0  0  0  0  0  0  0  0  0  0  0
    7.2513   -2.0569    0.0000 H   0  0  0  0  0  0  0  0  0  0  0  0
    7.5292   -0.4813    0.0000 H   0  0  0  0  0  0  0  0  0  0  0  0
    5.7479   -2.6042    0.0000 H   0  0  0  0  0  0  0  0  0  0  0  0
    6.0258    1.0285    0.0000 C   0  0  0  0  0  0  0  0  0  0  0  0
    5.7479    2.6042    0.0000 H   0  0  0  0  0  0  0  0  0  0  0  0
    7.5292    0.4813    0.0000 C   0  0  0  0  0  0  0  0  0  0  0  0
    8.7548    1.5097    0.0000 H   0  0  0  0  0  0  0  0  0  0  0  0
    7.8071   -1.0945    0.0000 H   0  0  0  0  0  0  0  0  0  0  0  0
    1.5999    2.7712    0.0000 C   0  0  0  0  0  0  0  0  0  0  0  0
    2.4001    4.1569    0.0000 H   0  0  0  0  0  0  0  0  0  0  0  0
   -0.0001    2.7712    0.0000 C   0  0  0  0  0  0  0  0  0  0  0  0
    0.2778    4.3470    0.0000 H   0  0  0  0  0  0  0  0  0  0  0  0
   -0.4593    3.3185    0.0000 H   0  0  0  0  0  0  0  0  0  0  0  0
   -0.8001    1.3857    0.0000 C   0  0  0  0  0  0  0  0  0  0  0  0
   -1.6001    2.7712    0.0000 H   0  0  0  0  0  0  0  0  0  0  0  0
   -2.4000    1.3857    0.0000 C   0  0  0  0  0  0  0  0  0  0  0  0
   -2.1221    2.9613    0.0000 C   0  0  0  0  0  0  0  0  0  0  0  0
   -1.5035    3.3185    0.0000 O   0  0  0  0  0  0  0  0  0  0  0  0
   -3.3478    3.9898    0.0000 O   0  0  0  0  0  0  0  0  0  0  0  0
   -3.0699    5.5655    0.0000 H   0  0  0  0  0  0  0  0  0  0  0  0
   -3.9034    1.9329    0.0000 C   0  0  0  0  0  0  0  0  0  0  0  0
   -5.4070    2.4802    0.0000 H   0  0  0  0  0  0  0  0  0  0  0  0
   -4.1813    3.5086    0.0000 H   0  0  0  0  0  0  0  0  0  0  0  0
   -5.1291    0.9044    0.0000 H   0  0  0  0  0  0  0  0  0  0  0  0
   -3.2000    0.0000    0.0000 C   0  0  0  0  0  0  0  0  0  0  0  0
   -4.4257    1.0285    0.0000 H   0  0  0  0  0  0  0  0  0  0  0  0
   -4.4257   -1.0284    0.0000 H   0  0  0  0  0  0  0  0  0  0  0  0
   -2.4000   -1.3857    0.0000 C   0  0  0  0  0  0  0  0  0  0  0  0
   -3.9034   -1.9329    0.0000 H   0  0  0  0  0  0  0  0  0  0  0  0
   -2.1221   -2.9613    0.0000 H   0  0  0  0  0  0  0  0  0  0  0  0
   -0.8001   -1.3857    0.0000 C   0  0  0  0  0  0  0  0  0  0  0  0
   -1.0777   -2.9613    0.0000 H   0  0  0  0  0  0  0  0  0  0  0  0
   -0.1358   -1.9938    0.0000 H   0  0  0  0  0  0  0  0  0  0  0  0
    0.4114   -0.4903    0.0000 C   0  0  0  0  0  0  0  0  0  0  0  0
    0.7999   -1.3857    0.0000 H   0  0  0  0  0  0  0  0  0  0  0  0
    0.5901   -1.3728    0.0000 H   0  0  0  0  0  0  0  0  0  0  0  0
   -1.1644   -0.7681    0.0000 H   0  0  0  0  0  0  0  0  0  0  0  0
  1  2  1  0  0  0  0
  2  3  1  0  0  0  0
  2  4  1  0  0  0  0
  4  5  1  0  0  0  0
  5  6  1  0  0  0  0
  5  7  1  0  0  0  0
  5  8  1  0  0  0  0
  8  9  1  0  0  0  0
  9 10  1  0  0  0  0
  9 11  1  0  0  0  0
  9 12  1  0  0  0  0
 12  2  1  0  0  0  0
 12 13  1  0  0  0  0
 12 14  1  0  0  0  0
  8 15  1  0  0  0  0
 15 16  1  0  0  0  0
 15 17  1  0  0  0  0
 15 18  1  0  0  0  0
  8 19  1  0  0  0  0
 19 20  1  0  0  0  0
 19 21  2  0  0  0  0
 21 22  1  0  0  0  0
 21 23  1  0  0  0  0
  4 24  2  0  0  0  0
 24 25  1  0  0  0  0
 24 26  1  0  0  0  0
 26 27  1  0  0  0  0
 26 28  1  0  0  0  0
 26 29  1  0  0  0  0
 29  1  1  0  0  0  0
 29 30  1  0  0  0  0
 29 31  1  0  0  0  0
 31 32  1  0  0  0  0
 32 33  2  0  0  0  0
 32 34  1  0  0  0  0
 34 35  1  0  0  0  0
 31 36  1  0  0  0  0
 36 37  1  0  0  0  0
 36 38  1  0  0  0  0
 36 39  1  0  0  0  0
 31 40  1  0  0  0  0
 40 41  1  0  0  0  0
 40 42  1  0  0  0  0
 40 43  1  0  0  0  0
 43 44  1  0  0  0  0
 43 45  1  0  0  0  0
 43 46  1  0  0  0  0
 46  1  1  0  0  0  0
 46 47  1  0  0  0  0
 46 48  1  0  0  0  0
  1 49  1  0  0  0  0
 49 50  1  0  0  0  0
 49 51  1  0  0  0  0
 49 52  1  0  0  0  0
M  END
> <ChemID>
100528

> <source_casrn>
5835-26-7

> <CAS>
5835-26-7

> <SMILES>
C[C@]1(CCC[C@@]2(C)[C@H]1CC=C1C[C@](C)(CC[C@H]21)C=C)C(O)=O

> <NAME>
Isopimaric Acid

> <preferred_name>
Isopimaric acid

> <iupac>
(13alpha)-pimara-7,15-dien-18-oic acid

> <MPID>
98446

> <dsstox_substance_id>
DTXSID9022233

> <Canonical_QSARr>
CC1(CCCC2(C)C1CC=C1CC(C)(CCC21)C=C)C(O)=O

> <InChI_Code_QSARr>
InChI=1S/C20H30O2/c1-5-18(2)12-9-15-14(13-18)7-8-16-19(15,3)10-6-11-20(16,4)17(21)22/h5,7,15-16H,1,6,8-13H2,2-4H3,(H,21,22)

> <InChI Key_QSARr>
MXYATHGRPJZBNA-UHFFFAOYSA-N

> <Salt_Solvent>
?

> <LogBCF>
1.63

$$$$
100529
  -INDIGO-08031719362D

 23 24  0  0  0  0  0  0  0  0999 V2000
    0.0001    0.0001    0.0000 C   0  0  0  0  0  0  0  0  0  0  0  0
    0.8000   -1.3856    0.0000 C   0  0  0  0  0  0  0  0  0  0  0  0
    2.4000   -1.3856    0.0000 S   0  0  0  0  0  0  0  0  0  0  0  0
    4.0000   -1.3856    0.0000 O   0  0  0  0  0  0  0  0  0  0  0  0
    4.8000   -2.7713    0.0000 H   0  0  0  0  0  0  0  0  0  0  0  0
    2.4000   -2.9856    0.0000 O   0  0  0  0  0  0  0  0  0  0  0  0
    2.4000    0.2143    0.0000 O   0  0  0  0  0  0  0  0  0  0  0  0
    0.0001   -2.7713    0.0000 C   0  0  0  0  0  0  0  0  0  0  0  0
    0.8000   -4.1569    0.0000 H   0  0  0  0  0  0  0  0  0  0  0  0
   -1.6000   -2.7712    0.0000 C   0  0  0  0  0  0  0  0  0  0  0  0
   -2.4000   -4.1569    0.0000 H   0  0  0  0  0  0  0  0  0  0  0  0
   -2.4000   -1.3856    0.0000 C   0  0  0  0  0  0  0  0  0  0  0  0
   -4.0000   -1.3856    0.0000 O   0  0  0  0  0  0  0  0  0  0  0  0
   -4.8000   -2.7712    0.0000 H   0  0  0  0  0  0  0  0  0  0  0  0
   -1.6000    0.0001    0.0000 C   0  0  0  0  0  0  0  0  0  0  0  0
   -2.4000    1.3856    0.0000 C   0  0  0  0  0  0  0  0  0  0  0  0
   -4.0000    1.3856    0.0000 H   0  0  0  0  0  0  0  0  0  0  0  0
   -1.6000    2.7713    0.0000 C   0  0  0  0  0  0  0  0  0  0  0  0
   -2.4000    4.1569    0.0000 H   0  0  0  0  0  0  0  0  0  0  0  0
   -0.0001    2.7713    0.0000 C   0  0  0  0  0  0  0  0  0  0  0  0
    0.8000    4.1569    0.0000 H   0  0  0  0  0  0  0  0  0  0  0  0
    0.8000    1.3856    0.0000 C   0  0  0  0  0  0  0  0  0  0  0  0
    2.4000    1.3856    0.0000 H   0  0  0  0  0  0  0  0  0  0  0  0
  1  2  1  0  0  0  0
  2  3  1  0  0  0  0
  3  4  1  0  0  0  0
  4  5  1  0  0  0  0
  3  6  2  0  0  0  0
  3  7  2  0  0  0  0
  2  8  2  0  0  0  0
  8  9  1  0  0  0  0
  8 10  1  0  0  0  0
 10 11  1  0  0  0  0
 10 12  2  0  0  0  0
 12 13  1  0  0  0  0
 13 14  1  0  0  0  0
 12 15  1  0  0  0  0
 15  1  1  0  0  0  0
 15 16  2  0  0  0  0
 16 17  1  0  0  0  0
 16 18  1  0  0  0  0
 18 19  1  0  0  0  0
 18 20  2  0  0  0  0
 20 21  1  0  0  0  0
 20 22  1  0  0  0  0
 22  1  2  0  0  0  0
 22 23  1  0  0  0  0
M  END
> <ChemID>
100529

> <source_casrn>
6099-57-6

> <CAS>
84-87-7

> <SMILES>
c12c(S(=O)(=O)O)ccc(O)c1cccc2

> <NAME>
1-NAPHTHOL-4-SULFONIC ACID

> <preferred_name>
1-Naphthalenesulfonic acid, 4-hydroxy-

> <iupac>
4-hydroxynaphthalene-1-sulfonic acid

> <MPID>
98447

> <dsstox_substance_id>
DTXSID2058910

> <Canonical_QSARr>
Oc1ccc(c2ccccc12)S(O)(=O)=O

> <InChI_Code_QSARr>
InChI=1S/C10H8O4S/c11-9-5-6-10(15(12,13)14)8-4-2-1-3-7(8)9/h1-6,11H,(H,12,13,14)

> <InChI Key_QSARr>
HGWQOFDAUWCQDA-UHFFFAOYSA-N

> <Salt_Solvent>
?

> <LogBCF>
1.11

$$$$
100531
  -INDIGO-08031719362D

 34 35  0  0  0  0  0  0  0  0999 V2000
    2.4001    1.3856    0.0000 C   0  0  0  0  0  0  0  0  0  0  0  0
    4.0000    1.3856    0.0000 C   0  0  0  0  0  0  0  0  0  0  0  0
    4.7999    2.7713    0.0000 H   0  0  0  0  0  0  0  0  0  0  0  0
    4.7999    0.0001    0.0000 C   0  0  0  0  0  0  0  0  0  0  0  0
    6.4000    0.0001    0.0000 H   0  0  0  0  0  0  0  0  0  0  0  0
    4.0000   -1.3856    0.0000 C   0  0  0  0  0  0  0  0  0  0  0  0
    4.7999   -2.7712    0.0000 C   0  0  0  0  0  0  0  0  0  0  0  0
    5.6001   -4.1569    0.0000 H   0  0  0  0  0  0  0  0  0  0  0  0
    6.4000   -2.7712    0.0000 H   0  0  0  0  0  0  0  0  0  0  0  0
    4.0000   -4.1569    0.0000 H   0  0  0  0  0  0  0  0  0  0  0  0
    2.4001   -1.3856    0.0000 C   0  0  0  0  0  0  0  0  0  0  0  0
    1.5999   -2.7712    0.0000 H   0  0  0  0  0  0  0  0  0  0  0  0
    1.5999    0.0001    0.0000 C   0  0  0  0  0  0  0  0  0  0  0  0
    0.0001    0.0001    0.0000 C   0  0  0  0  0  0  0  0  0  0  0  0
    0.0001    1.6000    0.0000 H   0  0  0  0  0  0  0  0  0  0  0  0
    0.2778   -1.5757    0.0000 C   0  0  0  0  0  0  0  0  0  0  0  0
    0.5556   -3.1514    0.0000 H   0  0  0  0  0  0  0  0  0  0  0  0
   -0.9478   -2.6041    0.0000 H   0  0  0  0  0  0  0  0  0  0  0  0
   -1.2257   -1.0284    0.0000 H   0  0  0  0  0  0  0  0  0  0  0  0
   -1.5756    0.2779    0.0000 C   0  0  0  0  0  0  0  0  0  0  0  0
   -2.6041   -0.9478    0.0000 C   0  0  0  0  0  0  0  0  0  0  0  0
   -2.0569   -2.4514    0.0000 H   0  0  0  0  0  0  0  0  0  0  0  0
   -4.1799   -0.6700    0.0000 C   0  0  0  0  0  0  0  0  0  0  0  0
   -5.2084   -1.8956    0.0000 H   0  0  0  0  0  0  0  0  0  0  0  0
   -4.7271    0.8335    0.0000 C   0  0  0  0  0  0  0  0  0  0  0  0
   -6.3028    1.1114    0.0000 H   0  0  0  0  0  0  0  0  0  0  0  0
   -3.6986    2.0591    0.0000 C   0  0  0  0  0  0  0  0  0  0  0  0
   -4.2458    3.5627    0.0000 H   0  0  0  0  0  0  0  0  0  0  0  0
   -2.1230    1.7813    0.0000 C   0  0  0  0  0  0  0  0  0  0  0  0
   -1.0945    3.0071    0.0000 H   0  0  0  0  0  0  0  0  0  0  0  0
    1.5999    2.7713    0.0000 C   0  0  0  0  0  0  0  0  0  0  0  0
    0.8000    4.1569    0.0000 H   0  0  0  0  0  0  0  0  0  0  0  0
    2.4001    4.1569    0.0000 H   0  0  0  0  0  0  0  0  0  0  0  0
    0.0001    2.7713    0.0000 H   0  0  0  0  0  0  0  0  0  0  0  0
  1  2  1  0  0  0  0
  2  3  1  0  0  0  0
  2  4  2  0  0  0  0
  4  5  1  0  0  0  0
  4  6  1  0  0  0  0
  6  7  1  0  0  0  0
  7  8  1  0  0  0  0
  7  9  1  0  0  0  0
  7 10  1  0  0  0  0
  6 11  2  0  0  0  0
 11 12  1  0  0  0  0
 11 13  1  0  0  0  0
 13  1  2  0  0  0  0
 13 14  1  0  0  0  0
 14 15  1  0  0  0  0
 14 16  1  0  0  0  0
 16 17  1  0  0  0  0
 16 18  1  0  0  0  0
 16 19  1  0  0  0  0
 14 20  1  0  0  0  0
 20 21  1  0  0  0  0
 21 22  1  0  0  0  0
 21 23  2  0  0  0  0
 23 24  1  0  0  0  0
 23 25  1  0  0  0  0
 25 26  1  0  0  0  0
 25 27  2  0  0  0  0
 27 28  1  0  0  0  0
 27 29  1  0  0  0  0
 29 20  2  0  0  0  0
 29 30  1  0  0  0  0
  1 31  1  0  0  0  0
 31 32  1  0  0  0  0
 31 33  1  0  0  0  0
 31 34  1  0  0  0  0
M  END
> <ChemID>
100531

> <source_casrn>
6165-51-1

> <CAS>
6165-51-1

> <SMILES>
c(cccc1)(c1)C(c(c(ccc2C)C)c2)C

> <NAME>
Benzene, 1,4-dimethyl-2-(1-phenylethyl)-

> <preferred_name>


> <iupac>


> <MPID>
98449

> <dsstox_substance_id>
DTXSID30879781

> <Canonical_QSARr>
Cc1cc(C(C)c2ccccc2)c(C)cc1

> <InChI_Code_QSARr>
InChI=1S/C16H18/c1-12-9-10-13(2)16(11-12)14(3)15-7-5-4-6-8-15/h4-11,14H,1-3H3

> <InChI Key_QSARr>
FRAOOIFTSMORED-UHFFFAOYSA-N

> <Salt_Solvent>
?

> <LogBCF>
2.86

$$$$
100533
  -INDIGO-08031719362D

 15 15  0  0  0  0  0  0  0  0999 V2000
    0.0000   -0.0000    0.0000 C   0  0  0  0  0  0  0  0  0  0  0  0
   -0.8001    1.3856    0.0000 C   0  0  0  0  0  0  0  0  0  0  0  0
    0.0000    2.7713    0.0000 Cl  0  0  0  0  0  0  0  0  0  0  0  0
   -2.4001    1.3856    0.0000 C   0  0  0  0  0  0  0  0  0  0  0  0
   -3.2000    2.7713    0.0000 H   0  0  0  0  0  0  0  0  0  0  0  0
   -3.2000   -0.0000    0.0000 C   0  0  0  0  0  0  0  0  0  0  0  0
   -4.8000   -0.0000    0.0000 Cl  0  0  0  0  0  0  0  0  0  0  0  0
   -2.4001   -1.3856    0.0000 C   0  0  0  0  0  0  0  0  0  0  0  0
   -3.2000   -2.7713    0.0000 Cl  0  0  0  0  0  0  0  0  0  0  0  0
   -0.8001   -1.3856    0.0000 C   0  0  0  0  0  0  0  0  0  0  0  0
    0.0000   -2.7713    0.0000 H   0  0  0  0  0  0  0  0  0  0  0  0
    1.6000   -0.0000    0.0000 C   0  0  0  0  0  0  0  0  0  0  0  0
    3.2000   -0.0000    0.0000 H   0  0  0  0  0  0  0  0  0  0  0  0
    2.4001   -1.3856    0.0000 H   0  0  0  0  0  0  0  0  0  0  0  0
    2.4001    1.3856    0.0000 H   0  0  0  0  0  0  0  0  0  0  0  0
  1  2  1  0  0  0  0
  2  3  1  0  0  0  0
  2  4  2  0  0  0  0
  4  5  1  0  0  0  0
  4  6  1  0  0  0  0
  6  7  1  0  0  0  0
  6  8  2  0  0  0  0
  8  9  1  0  0  0  0
  8 10  1  0  0  0  0
 10  1  2  0  0  0  0
 10 11  1  0  0  0  0
  1 12  1  0  0  0  0
 12 13  1  0  0  0  0
 12 14  1  0  0  0  0
 12 15  1  0  0  0  0
M  END
> <ChemID>
100533

> <source_casrn>
6639-30-1

> <CAS>
6639-30-1

> <SMILES>
Cc1cc(Cl)c(Cl)cc1Cl

> <NAME>
2,4,5-TRICHLOROTOLUENE

> <preferred_name>
2,4,5-Trichlorotoluene

> <iupac>
1,2,4-trichloro-5-methylbenzene

> <MPID>
98450

> <dsstox_substance_id>
DTXSID8064434

> <Canonical_QSARr>
Cc1cc(Cl)c(Cl)cc1Cl

> <InChI_Code_QSARr>
InChI=1S/C7H5Cl3/c1-4-2-6(9)7(10)3-5(4)8/h2-3H,1H3

> <InChI Key_QSARr>
ZCXHZKNWIYVQNC-UHFFFAOYSA-N

> <Salt_Solvent>
?

> <LogBCF>
3.87

$$$$
100534
  -INDIGO-08031719362D

 55 55  0  0  0  0  0  0  0  0999 V2000
    2.7713   -1.5999    0.0000 C   0  0  0  0  0  0  0  0  0  0  0  0
    4.3469   -1.3222    0.0000 H   0  0  0  0  0  0  0  0  0  0  0  0
    3.3185   -3.1035    0.0000 H   0  0  0  0  0  0  0  0  0  0  0  0
    2.7713    0.0000    0.0000 C   0  0  0  0  0  0  0  0  0  0  0  0
    3.3185    1.5036    0.0000 H   0  0  0  0  0  0  0  0  0  0  0  0
    4.3469    0.2779    0.0000 C   0  0  0  0  0  0  0  0  0  0  0  0
    5.9227    0.5557    0.0000 H   0  0  0  0  0  0  0  0  0  0  0  0
    4.8943    1.7813    0.0000 H   0  0  0  0  0  0  0  0  0  0  0  0
    5.3754   -0.9479    0.0000 H   0  0  0  0  0  0  0  0  0  0  0  0
    1.3856    0.8000    0.0000 C   0  0  0  0  0  0  0  0  0  0  0  0
    2.4141    2.0257    0.0000 H   0  0  0  0  0  0  0  0  0  0  0  0
    0.3571    2.0257    0.0000 H   0  0  0  0  0  0  0  0  0  0  0  0
    0.0000    0.0000    0.0000 C   0  0  0  0  0  0  0  0  0  0  0  0
   -0.5473    1.5036    0.0000 C   0  0  0  0  0  0  0  0  0  0  0  0
   -1.0944    3.0070    0.0000 H   0  0  0  0  0  0  0  0  0  0  0  0
   -2.1229    1.7813    0.0000 H   0  0  0  0  0  0  0  0  0  0  0  0
    0.2527    2.8891    0.0000 H   0  0  0  0  0  0  0  0  0  0  0  0
   -1.5758   -0.2779    0.0000 C   0  0  0  0  0  0  0  0  0  0  0  0
   -3.1514   -0.5558    0.0000 H   0  0  0  0  0  0  0  0  0  0  0  0
   -2.6042    0.9478    0.0000 H   0  0  0  0  0  0  0  0  0  0  0  0
   -2.3758   -1.6634    0.0000 H   0  0  0  0  0  0  0  0  0  0  0  0
    0.0000   -1.5999    0.0000 C   0  0  0  0  0  0  0  0  0  0  0  0
   -1.5758   -1.3222    0.0000 H   0  0  0  0  0  0  0  0  0  0  0  0
   -0.5473   -3.1035    0.0000 H   0  0  0  0  0  0  0  0  0  0  0  0
    1.3856   -2.4001    0.0000 C   0  0  0  0  0  0  0  0  0  0  0  0
    0.3571   -3.6256    0.0000 O   0  0  0  0  0  0  0  0  0  0  0  0
   -1.2429   -3.6256    0.0000 O   0  0  0  0  0  0  0  0  0  0  0  0
   -2.0429   -5.0113    0.0000 C   0  0  0  0  0  0  0  0  0  0  0  0
   -2.8429   -6.3969    0.0000 C   0  0  0  0  0  0  0  0  0  0  0  0
   -3.6427   -7.7826    0.0000 H   0  0  0  0  0  0  0  0  0  0  0  0
   -2.0429   -7.7826    0.0000 H   0  0  0  0  0  0  0  0  0  0  0  0
   -4.4427   -6.3969    0.0000 H   0  0  0  0  0  0  0  0  0  0  0  0
   -3.2684   -3.9829    0.0000 C   0  0  0  0  0  0  0  0  0  0  0  0
   -4.7720   -4.5300    0.0000 H   0  0  0  0  0  0  0  0  0  0  0  0
   -4.4942   -2.9543    0.0000 H   0  0  0  0  0  0  0  0  0  0  0  0
   -3.5463   -5.5586    0.0000 H   0  0  0  0  0  0  0  0  0  0  0  0
   -0.6572   -5.8113    0.0000 C   0  0  0  0  0  0  0  0  0  0  0  0
    0.7286   -6.6112    0.0000 H   0  0  0  0  0  0  0  0  0  0  0  0
   -0.6572   -7.4114    0.0000 H   0  0  0  0  0  0  0  0  0  0  0  0
    0.7286   -5.0113    0.0000 H   0  0  0  0  0  0  0  0  0  0  0  0
    2.4141   -3.6256    0.0000 O   0  0  0  0  0  0  0  0  0  0  0  0
    3.9899   -3.9035    0.0000 O   0  0  0  0  0  0  0  0  0  0  0  0
    5.0183   -5.1292    0.0000 C   0  0  0  0  0  0  0  0  0  0  0  0
    6.0468   -6.3549    0.0000 C   0  0  0  0  0  0  0  0  0  0  0  0
    7.0753   -7.5805    0.0000 H   0  0  0  0  0  0  0  0  0  0  0  0
    5.4995   -7.8584    0.0000 H   0  0  0  0  0  0  0  0  0  0  0  0
    7.6224   -6.0771    0.0000 H   0  0  0  0  0  0  0  0  0  0  0  0
    3.7926   -6.1576    0.0000 C   0  0  0  0  0  0  0  0  0  0  0  0
    2.5669   -7.1861    0.0000 H   0  0  0  0  0  0  0  0  0  0  0  0
    4.0704   -7.7333    0.0000 H   0  0  0  0  0  0  0  0  0  0  0  0
    2.2890   -5.6103    0.0000 H   0  0  0  0  0  0  0  0  0  0  0  0
    6.0468   -3.9035    0.0000 C   0  0  0  0  0  0  0  0  0  0  0  0
    7.6224   -4.1814    0.0000 H   0  0  0  0  0  0  0  0  0  0  0  0
    6.5939   -5.4071    0.0000 H   0  0  0  0  0  0  0  0  0  0  0  0
    7.0753   -2.6778    0.0000 H   0  0  0  0  0  0  0  0  0  0  0  0
  1  2  1  0  0  0  0
  1  3  1  0  0  0  0
  1  4  1  0  0  0  0
  4  5  1  0  0  0  0
  4  6  1  0  0  0  0
  6  7  1  0  0  0  0
  6  8  1  0  0  0  0
  6  9  1  0  0  0  0
  4 10  1  0  0  0  0
 10 11  1  0  0  0  0
 10 12  1  0  0  0  0
 10 13  1  0  0  0  0
 13 14  1  0  0  0  0
 14 15  1  0  0  0  0
 14 16  1  0  0  0  0
 14 17  1  0  0  0  0
 13 18  1  0  0  0  0
 18 19  1  0  0  0  0
 18 20  1  0  0  0  0
 18 21  1  0  0  0  0
 13 22  1  0  0  0  0
 22 23  1  0  0  0  0
 22 24  1  0  0  0  0
 22 25  1  0  0  0  0
 25  1  1  0  0  0  0
 25 26  1  0  0  0  0
 26 27  1  0  0  0  0
 27 28  1  0  0  0  0
 28 29  1  0  0  0  0
 29 30  1  0  0  0  0
 29 31  1  0  0  0  0
 29 32  1  0  0  0  0
 28 33  1  0  0  0  0
 33 34  1  0  0  0  0
 33 35  1  0  0  0  0
 33 36  1  0  0  0  0
 28 37  1  0  0  0  0
 37 38  1  0  0  0  0
 37 39  1  0  0  0  0
 37 40  1  0  0  0  0
 25 41  1  0  0  0  0
 41 42  1  0  0  0  0
 42 43  1  0  0  0  0
 43 44  1  0  0  0  0
 44 45  1  0  0  0  0
 44 46  1  0  0  0  0
 44 47  1  0  0  0  0
 43 48  1  0  0  0  0
 48 49  1  0  0  0  0
 48 50  1  0  0  0  0
 48 51  1  0  0  0  0
 43 52  1  0  0  0  0
 52 53  1  0  0  0  0
 52 54  1  0  0  0  0
 52 55  1  0  0  0  0
M  END
> <ChemID>
100534

> <source_casrn>
6731-36-8

> <CAS>
6731-36-8

> <SMILES>
O(OC(C)(C)C)C(OOC(C)(C)C)(CC(CC1(C)C)C)C1

> <NAME>
Di-tert-butylperoxy-3,3,5-trimethylcyclohexane p

> <preferred_name>
1,1-Bis(tert-butylperoxy)-3,3,5-trimethylcyclohexane

> <iupac>
1,1-bis(tert-butylperoxy)-3,3,5-trimethylcyclohexane

> <MPID>
98451

> <dsstox_substance_id>
DTXSID4020165

> <Canonical_QSARr>
CC1(C)CC(C)CC(C1)(OOC(C)(C)C)OOC(C)(C)C

> <InChI_Code_QSARr>
InChI=1S/C17H34O4/c1-13-10-16(8,9)12-17(11-13,20-18-14(2,3)4)21-19-15(5,6)7/h13H,10-12H2,1-9H3

> <InChI Key_QSARr>
NALFRYPTRXKZPN-UHFFFAOYSA-N

> <Salt_Solvent>
?

> <LogBCF>
3.96

$$$$
100540
  -INDIGO-08031719362D

 27 27  0  0  0  0  0  0  0  0999 V2000
    6.0257   -1.0285    0.0000 O   0  0  0  0  0  0  0  0  0  0  0  0
    5.2257    0.3572    0.0000 C   0  0  0  0  0  0  0  0  0  0  0  0
    6.7292    0.9044    0.0000 H   0  0  0  0  0  0  0  0  0  0  0  0
    4.9478    1.9329    0.0000 H   0  0  0  0  0  0  0  0  0  0  0  0
    3.6256    0.3572    0.0000 C   0  0  0  0  0  0  0  0  0  0  0  0
    3.9036    1.9329    0.0000 H   0  0  0  0  0  0  0  0  0  0  0  0
    2.1222    0.9044    0.0000 H   0  0  0  0  0  0  0  0  0  0  0  0
    2.8256   -1.0285    0.0000 N   0  0  0  0  0  0  0  0  0  0  0  0
    1.2256   -1.0285    0.0000 C   0  0  0  0  0  0  0  0  0  0  0  0
    1.0168   -2.6147    0.0000 H   0  0  0  0  0  0  0  0  0  0  0  0
   -0.0437   -2.0024    0.0000 H   0  0  0  0  0  0  0  0  0  0  0  0
    0.0000   -0.0000    0.0000 C   0  0  0  0  0  0  0  0  0  0  0  0
    1.0285    1.2257    0.0000 H   0  0  0  0  0  0  0  0  0  0  0  0
   -1.0284    1.2257    0.0000 C   0  0  0  0  0  0  0  0  0  0  0  0
   -2.0569    2.4513    0.0000 H   0  0  0  0  0  0  0  0  0  0  0  0
   -2.6042    0.9478    0.0000 H   0  0  0  0  0  0  0  0  0  0  0  0
   -0.4812    2.7292    0.0000 H   0  0  0  0  0  0  0  0  0  0  0  0
   -1.2257   -1.0285    0.0000 C   0  0  0  0  0  0  0  0  0  0  0  0
   -2.4514   -2.0569    0.0000 H   0  0  0  0  0  0  0  0  0  0  0  0
   -0.9478   -2.6042    0.0000 H   0  0  0  0  0  0  0  0  0  0  0  0
   -2.7292   -0.4812    0.0000 H   0  0  0  0  0  0  0  0  0  0  0  0
    3.6256   -2.4141    0.0000 C   0  0  0  0  0  0  0  0  0  0  0  0
    2.1222   -2.9614    0.0000 H   0  0  0  0  0  0  0  0  0  0  0  0
    3.9036   -3.9898    0.0000 H   0  0  0  0  0  0  0  0  0  0  0  0
    5.2257   -2.4141    0.0000 C   0  0  0  0  0  0  0  0  0  0  0  0
    4.9478   -3.9898    0.0000 H   0  0  0  0  0  0  0  0  0  0  0  0
    6.7292   -2.9614    0.0000 H   0  0  0  0  0  0  0  0  0  0  0  0
  1  2  1  0  0  0  0
  2  3  1  0  0  0  0
  2  4  1  0  0  0  0
  2  5  1  0  0  0  0
  5  6  1  0  0  0  0
  5  7  1  0  0  0  0
  5  8  1  0  0  0  0
  8  9  1  0  0  0  0
  9 10  1  0  0  0  0
  9 11  1  0  0  0  0
  9 12  1  0  0  0  0
 12 13  1  0  0  0  0
 12 14  1  0  0  0  0
 14 15  1  0  0  0  0
 14 16  1  0  0  0  0
 14 17  1  0  0  0  0
 12 18  1  0  0  0  0
 18 19  1  0  0  0  0
 18 20  1  0  0  0  0
 18 21  1  0  0  0  0
  8 22  1  0  0  0  0
 22 23  1  0  0  0  0
 22 24  1  0  0  0  0
 22 25  1  0  0  0  0
 25  1  1  0  0  0  0
 25 26  1  0  0  0  0
 25 27  1  0  0  0  0
M  END
> <ChemID>
100540

> <source_casrn>
10315-98-7

> <CAS>
10315-98-7

> <SMILES>
CC(C)CN1CCOCC1

> <NAME>
N-ISOBUTYLMORPHOLINE

> <preferred_name>
4-Isobutylmorpholine

> <iupac>
4-(2-methylpropyl)morpholine

> <MPID>
98453

> <dsstox_substance_id>
DTXSID30145675

> <Canonical_QSARr>
CC(C)CN1CCOCC1

> <InChI_Code_QSARr>
InChI=1S/C8H17NO/c1-8(2)7-9-3-5-10-6-4-9/h8H,3-7H2,1-2H3

> <InChI Key_QSARr>
QKVSMSABRNCNRS-UHFFFAOYSA-N

> <Salt_Solvent>
?

> <LogBCF>
0.25

$$$$
100541
  -INDIGO-08031719362D

 33 36  0  0  0  0  0  0  0  0999 V2000
   -0.0000    0.0000    0.0000 C   0  0  0  0  0  0  0  0  0  0  0  0
    0.4945    1.5216    0.0000 H   0  0  0  0  0  0  0  0  0  0  0  0
   -0.1673   -1.5913    0.0000 C   0  0  0  0  0  0  0  0  0  0  0  0
    1.0218   -2.6619    0.0000 O   0  0  0  0  0  0  0  0  0  0  0  0
   -1.7324   -1.9239    0.0000 C   0  0  0  0  0  0  0  0  0  0  0  0
   -2.5323   -0.5383    0.0000 C   0  0  0  0  0  0  0  0  0  0  0  0
   -4.1323   -0.5383    0.0000 C   0  0  0  0  0  0  0  0  0  0  0  0
   -4.9323    0.8474    0.0000 H   0  0  0  0  0  0  0  0  0  0  0  0
   -4.9323   -1.9239    0.0000 C   0  0  0  0  0  0  0  0  0  0  0  0
   -6.5323   -1.9239    0.0000 H   0  0  0  0  0  0  0  0  0  0  0  0
   -4.1323   -3.3096    0.0000 C   0  0  0  0  0  0  0  0  0  0  0  0
   -4.9323   -4.6952    0.0000 H   0  0  0  0  0  0  0  0  0  0  0  0
   -2.5323   -3.3096    0.0000 C   0  0  0  0  0  0  0  0  0  0  0  0
   -1.7324   -4.6952    0.0000 H   0  0  0  0  0  0  0  0  0  0  0  0
   -1.4618    0.6508    0.0000 C   0  0  0  0  0  0  0  0  0  0  0  0
   -1.7942    2.2159    0.0000 O   0  0  0  0  0  0  0  0  0  0  0  0
    1.5650   -0.3327    0.0000 C   0  0  0  0  0  0  0  0  0  0  0  0
    2.0595   -1.8543    0.0000 N   0  0  0  0  0  0  0  0  0  0  0  0
    3.6246   -2.1870    0.0000 C   0  0  0  0  0  0  0  0  0  0  0  0
    4.6952   -0.9979    0.0000 C   0  0  0  0  0  0  0  0  0  0  0  0
    6.2600   -1.3306    0.0000 C   0  0  0  0  0  0  0  0  0  0  0  0
    7.3308   -0.1417    0.0000 H   0  0  0  0  0  0  0  0  0  0  0  0
    6.7545   -2.8524    0.0000 C   0  0  0  0  0  0  0  0  0  0  0  0
    8.3196   -3.1850    0.0000 H   0  0  0  0  0  0  0  0  0  0  0  0
    5.6840   -4.0413    0.0000 C   0  0  0  0  0  0  0  0  0  0  0  0
    6.1785   -5.5630    0.0000 H   0  0  0  0  0  0  0  0  0  0  0  0
    4.1189   -3.7087    0.0000 C   0  0  0  0  0  0  0  0  0  0  0  0
    3.0483   -4.8977    0.0000 H   0  0  0  0  0  0  0  0  0  0  0  0
    4.2007    0.5237    0.0000 C   0  0  0  0  0  0  0  0  0  0  0  0
    5.2713    1.7128    0.0000 Br  0  0  0  0  0  0  0  0  0  0  0  0
    2.6356    0.8564    0.0000 C   0  0  0  0  0  0  0  0  0  0  0  0
    2.1411    2.3780    0.0000 O   0  0  0  0  0  0  0  0  0  0  0  0
    3.2119    3.5671    0.0000 H   0  0  0  0  0  0  0  0  0  0  0  0
  1  2  1  0  0  0  0
  1  3  1  0  0  0  0
  3  4  2  0  0  0  0
  3  5  1  0  0  0  0
  5  6  1  0  0  0  0
  6  7  2  0  0  0  0
  7  8  1  0  0  0  0
  7  9  1  0  0  0  0
  9 10  1  0  0  0  0
  9 11  2  0  0  0  0
 11 12  1  0  0  0  0
 11 13  1  0  0  0  0
 13  5  2  0  0  0  0
 13 14  1  0  0  0  0
  6 15  1  0  0  0  0
 15  1  1  0  0  0  0
 15 16  2  0  0  0  0
  1 17  1  0  0  0  0
 17 18  1  0  0  0  0
 18 19  2  0  0  0  0
 19 20  1  0  0  0  0
 20 21  1  0  0  0  0
 21 22  1  0  0  0  0
 21 23  2  0  0  0  0
 23 24  1  0  0  0  0
 23 25  1  0  0  0  0
 25 26  1  0  0  0  0
 25 27  2  0  0  0  0
 27 19  1  0  0  0  0
 27 28  1  0  0  0  0
 20 29  2  0  0  0  0
 29 30  1  0  0  0  0
 29 31  1  0  0  0  0
 31 17  2  0  0  0  0
 31 32  1  0  0  0  0
 32 33  1  0  0  0  0
M  END
> <ChemID>
100541

> <source_casrn>
10319-14-9

> <CAS>
10319-14-9

> <SMILES>
O=C(c(c(C1(=O))ccc2)c2)C1c(nc(c(c3Br)ccc4)c4)c3O

> <NAME>
1H-Indene-1,3(2H)-dione, 2-(4-bromo-3-hydroxy-2-

> <preferred_name>
C.I. Disperse Yellow 64

> <iupac>
2-(4-bromo-3-hydroxyquinolin-2-yl)-1H-indene-1,3(2H)-dione

> <MPID>
98454

> <dsstox_substance_id>
DTXSID2044503

> <Canonical_QSARr>
Oc1c(Br)c2ccccc2[n]c1C1C(=O)c2ccccc2C1=O

> <InChI_Code_QSARr>
InChI=1S/C18H10BrNO3/c19-14-11-7-3-4-8-12(11)20-15(18(14)23)13-16(21)9-5-1-2-6-10(9)17(13)22/h1-8,13,23H

> <InChI Key_QSARr>
DVBLPJWQXDCAKU-UHFFFAOYSA-N

> <Salt_Solvent>
?

> <LogBCF>
1.14

$$$$
100542
  -INDIGO-08031719362D

 20 20  0  0  0  0  0  0  0  0999 V2000
    2.7713   -0.0000    0.0000 C   0  0  0  0  0  0  0  0  0  0  0  0
    4.1569   -0.8000    0.0000 H   0  0  0  0  0  0  0  0  0  0  0  0
    4.1569    0.8000    0.0000 H   0  0  0  0  0  0  0  0  0  0  0  0
    2.7713   -1.6000    0.0000 H   0  0  0  0  0  0  0  0  0  0  0  0
    1.3856    0.8000    0.0000 N   0  0  0  0  0  0  0  0  0  0  0  0
    1.3856    2.4000    0.0000 H   0  0  0  0  0  0  0  0  0  0  0  0
   -0.0001   -0.0000    0.0000 C   0  0  0  0  0  0  0  0  0  0  0  0
   -0.0001   -1.6000    0.0000 C   0  0  0  0  0  0  0  0  0  0  0  0
    1.3856   -2.4000    0.0000 H   0  0  0  0  0  0  0  0  0  0  0  0
   -1.3856   -2.4000    0.0000 C   0  0  0  0  0  0  0  0  0  0  0  0
   -1.3856   -4.0000    0.0000 H   0  0  0  0  0  0  0  0  0  0  0  0
   -2.7712   -1.6000    0.0000 C   0  0  0  0  0  0  0  0  0  0  0  0
   -4.1569   -2.4000    0.0000 C   0  0  0  0  0  0  0  0  0  0  0  0
   -5.5425   -1.6000    0.0000 O   0  0  0  0  0  0  0  0  0  0  0  0
   -6.9282   -2.4000    0.0000 H   0  0  0  0  0  0  0  0  0  0  0  0
   -4.1569   -4.0000    0.0000 O   0  0  0  0  0  0  0  0  0  0  0  0
   -2.7712   -0.0000    0.0000 C   0  0  0  0  0  0  0  0  0  0  0  0
   -4.1569    0.8000    0.0000 H   0  0  0  0  0  0  0  0  0  0  0  0
   -1.3856    0.8000    0.0000 C   0  0  0  0  0  0  0  0  0  0  0  0
   -1.3856    2.4000    0.0000 H   0  0  0  0  0  0  0  0  0  0  0  0
  1  2  1  0  0  0  0
  1  3  1  0  0  0  0
  1  4  1  0  0  0  0
  1  5  1  0  0  0  0
  5  6  1  0  0  0  0
  5  7  1  0  0  0  0
  7  8  1  0  0  0  0
  8  9  1  0  0  0  0
  8 10  2  0  0  0  0
 10 11  1  0  0  0  0
 10 12  1  0  0  0  0
 12 13  1  0  0  0  0
 13 14  1  0  0  0  0
 14 15  1  0  0  0  0
 13 16  2  0  0  0  0
 12 17  2  0  0  0  0
 17 18  1  0  0  0  0
 17 19  1  0  0  0  0
 19  7  2  0  0  0  0
 19 20  1  0  0  0  0
M  END
> <ChemID>
100542

> <source_casrn>
10541-83-0

> <CAS>
10541-83-0

> <SMILES>
CNc1ccc(cc1)C(O)=O

> <NAME>
Benzoic acid, 4-(methylamino)-

> <preferred_name>
Benzoic acid, 4-(methylamino)-

> <iupac>
4-Methylaminobenzoic acid

> <MPID>
98455

> <dsstox_substance_id>
DTXSID8065117

> <Canonical_QSARr>
CNc1ccc(cc1)C(O)=O

> <InChI_Code_QSARr>
InChI=1S/C8H9NO2/c1-9-7-4-2-6(3-5-7)8(10)11/h2-5,9H,1H3,(H,10,11)

> <InChI Key_QSARr>
ZVIDMSBTYRSMAR-UHFFFAOYSA-N

> <Salt_Solvent>
?

> <LogBCF>
0.38

$$$$
100546
  -INDIGO-08031719362D

 11 10  0  0  0  0  0  0  0  0999 V2000
    1.3856    0.8000    0.0000 C   0  0  0  0  0  0  0  0  0  0  0  0
    2.7713    1.6000    0.0000 H   0  0  0  0  0  0  0  0  0  0  0  0
    2.7713    0.0000    0.0000 H   0  0  0  0  0  0  0  0  0  0  0  0
    0.0000    0.0000    0.0000 C   0  0  0  0  0  0  0  0  0  0  0  0
   -1.3856    0.8000    0.0000 C   0  0  0  0  0  0  0  0  0  0  0  0
   -2.7713    1.6000    0.0000 H   0  0  0  0  0  0  0  0  0  0  0  0
   -2.7713    0.0000    0.0000 H   0  0  0  0  0  0  0  0  0  0  0  0
   -1.3856    2.4000    0.0000 Cl  0  0  0  0  0  0  0  0  0  0  0  0
    0.6123   -1.4782    0.0000 Cl  0  0  0  0  0  0  0  0  0  0  0  0
   -0.6123   -1.4782    0.0000 Cl  0  0  0  0  0  0  0  0  0  0  0  0
    1.3856    2.4000    0.0000 Cl  0  0  0  0  0  0  0  0  0  0  0  0
  1  2  1  0  0  0  0
  1  3  1  0  0  0  0
  1  4  1  0  0  0  0
  4  5  1  0  0  0  0
  5  6  1  0  0  0  0
  5  7  1  0  0  0  0
  5  8  1  0  0  0  0
  4  9  1  0  0  0  0
  4 10  1  0  0  0  0
  1 11  1  0  0  0  0
M  END
> <ChemID>
100546

> <source_casrn>
13116-53-5

> <CAS>
13116-53-5

> <SMILES>
ClC(Cl)(CCl)CCl

> <NAME>
PROPANE, 1,2,2,3-TETRACHLORO-

> <preferred_name>
1,2,2,3-Tetrachloropropane

> <iupac>
1,2,2,3-tetrachloropropane

> <MPID>
98458

> <dsstox_substance_id>
DTXSID5051656

> <Canonical_QSARr>
ClC(Cl)(CCl)CCl

> <InChI_Code_QSARr>
InChI=1S/C3H4Cl4/c4-1-3(6,7)2-5/h1-2H2

> <InChI Key_QSARr>
UDPHJTAYHSSOQB-UHFFFAOYSA-N

> <Salt_Solvent>
?

> <LogBCF>
1.57

$$$$
100547
  -INDIGO-08031719362D

 60 62  0  0  0  0  0  0  0  0999 V2000
   -0.0001    0.0000    0.0000 C   0  0  0  0  0  0  0  0  0  0  0  0
    1.6001    0.0000    0.0000 C   0  0  0  0  0  0  0  0  0  0  0  0
    0.9492    1.4616    0.0000 H   0  0  0  0  0  0  0  0  0  0  0  0
    2.3999   -1.3856    0.0000 C   0  0  0  0  0  0  0  0  0  0  0  0
    3.3404   -2.6800    0.0000 H   0  0  0  0  0  0  0  0  0  0  0  0
    3.9650   -1.0530    0.0000 C   0  0  0  0  0  0  0  0  0  0  0  0
    4.1323    0.5382    0.0000 N   0  0  0  0  0  0  0  0  0  0  0  0
    2.6706    1.1890    0.0000 C   0  0  0  0  0  0  0  0  0  0  0  0
    2.3379    2.7540    0.0000 O   0  0  0  0  0  0  0  0  0  0  0  0
    5.5180    1.3382    0.0000 C   0  0  0  0  0  0  0  0  0  0  0  0
    6.1302    2.8165    0.0000 H   0  0  0  0  0  0  0  0  0  0  0  0
    4.9057    2.8165    0.0000 H   0  0  0  0  0  0  0  0  0  0  0  0
    6.9037    0.5382    0.0000 C   0  0  0  0  0  0  0  0  0  0  0  0
    6.1036   -0.8474    0.0000 H   0  0  0  0  0  0  0  0  0  0  0  0
    8.2891   -0.2618    0.0000 C   0  0  0  0  0  0  0  0  0  0  0  0
    7.4296   -1.6112    0.0000 H   0  0  0  0  0  0  0  0  0  0  0  0
    8.6355   -1.8238    0.0000 H   0  0  0  0  0  0  0  0  0  0  0  0
    9.8893   -0.2618    0.0000 C   0  0  0  0  0  0  0  0  0  0  0  0
   11.1586    0.7122    0.0000 H   0  0  0  0  0  0  0  0  0  0  0  0
   10.0982    1.3246    0.0000 H   0  0  0  0  0  0  0  0  0  0  0  0
   10.6891   -1.6474    0.0000 C   0  0  0  0  0  0  0  0  0  0  0  0
    9.4198   -2.6214    0.0000 H   0  0  0  0  0  0  0  0  0  0  0  0
   10.4802   -3.2337    0.0000 H   0  0  0  0  0  0  0  0  0  0  0  0
   12.2893   -1.6474    0.0000 C   0  0  0  0  0  0  0  0  0  0  0  0
   13.8892   -1.6474    0.0000 H   0  0  0  0  0  0  0  0  0  0  0  0
   13.0891   -3.0331    0.0000 H   0  0  0  0  0  0  0  0  0  0  0  0
   13.0891   -0.2618    0.0000 H   0  0  0  0  0  0  0  0  0  0  0  0
    7.7035    1.9239    0.0000 C   0  0  0  0  0  0  0  0  0  0  0  0
    9.1817    1.3116    0.0000 H   0  0  0  0  0  0  0  0  0  0  0  0
    9.1817    2.5362    0.0000 H   0  0  0  0  0  0  0  0  0  0  0  0
    6.9037    3.3095    0.0000 C   0  0  0  0  0  0  0  0  0  0  0  0
    7.7035    4.6952    0.0000 H   0  0  0  0  0  0  0  0  0  0  0  0
    6.1036    4.6952    0.0000 H   0  0  0  0  0  0  0  0  0  0  0  0
    8.5036    3.3095    0.0000 H   0  0  0  0  0  0  0  0  0  0  0  0
    5.1540   -2.1236    0.0000 O   0  0  0  0  0  0  0  0  0  0  0  0
    1.6001   -2.7713    0.0000 C   0  0  0  0  0  0  0  0  0  0  0  0
   -0.0001   -2.7713    0.0000 C   0  0  0  0  0  0  0  0  0  0  0  0
   -0.3509   -3.5755    0.0000 H   0  0  0  0  0  0  0  0  0  0  0  0
   -1.5035   -3.3185    0.0000 H   0  0  0  0  0  0  0  0  0  0  0  0
   -0.7999   -1.3856    0.0000 C   0  0  0  0  0  0  0  0  0  0  0  0
   -2.0257   -2.4141    0.0000 H   0  0  0  0  0  0  0  0  0  0  0  0
   -1.6719   -1.2877    0.0000 H   0  0  0  0  0  0  0  0  0  0  0  0
    2.3999   -4.1569    0.0000 C   0  0  0  0  0  0  0  0  0  0  0  0
    3.2000   -5.5426    0.0000 H   0  0  0  0  0  0  0  0  0  0  0  0
    1.6001   -5.5426    0.0000 H   0  0  0  0  0  0  0  0  0  0  0  0
    4.0001   -4.1569    0.0000 H   0  0  0  0  0  0  0  0  0  0  0  0
    0.5256   -2.2370    0.0000 C   0  0  0  0  0  0  0  0  0  0  0  0
    0.4233   -3.1084    0.0000 H   0  0  0  0  0  0  0  0  0  0  0  0
   -0.0744   -1.1977    0.0000 C   0  0  0  0  0  0  0  0  0  0  0  0
   -0.8803   -0.8506    0.0000 H   0  0  0  0  0  0  0  0  0  0  0  0
   -0.7999    1.3857    0.0000 C   0  0  0  0  0  0  0  0  0  0  0  0
    0.4257    2.4141    0.0000 H   0  0  0  0  0  0  0  0  0  0  0  0
   -1.3471    2.8891    0.0000 C   0  0  0  0  0  0  0  0  0  0  0  0
   -1.8944    4.3927    0.0000 H   0  0  0  0  0  0  0  0  0  0  0  0
   -2.9231    3.1670    0.0000 H   0  0  0  0  0  0  0  0  0  0  0  0
   -0.3187    4.1148    0.0000 H   0  0  0  0  0  0  0  0  0  0  0  0
   -2.1856    0.5857    0.0000 C   0  0  0  0  0  0  0  0  0  0  0  0
   -3.5713    1.3857    0.0000 H   0  0  0  0  0  0  0  0  0  0  0  0
   -3.5713   -0.2143    0.0000 H   0  0  0  0  0  0  0  0  0  0  0  0
   -2.1856    2.1857    0.0000 H   0  0  0  0  0  0  0  0  0  0  0  0
  1  2  1  0  0  0  0
  2  3  1  0  0  0  0
  2  4  1  0  0  0  0
  4  5  1  0  0  0  0
  4  6  1  0  0  0  0
  6  7  1  0  0  0  0
  7  8  1  0  0  0  0
  8  2  1  0  0  0  0
  8  9  2  0  0  0  0
  7 10  1  0  0  0  0
 10 11  1  0  0  0  0
 10 12  1  0  0  0  0
 10 13  1  0  0  0  0
 13 14  1  0  0  0  0
 13 15  1  0  0  0  0
 15 16  1  0  0  0  0
 15 17  1  0  0  0  0
 15 18  1  0  0  0  0
 18 19  1  0  0  0  0
 18 20  1  0  0  0  0
 18 21  1  0  0  0  0
 21 22  1  0  0  0  0
 21 23  1  0  0  0  0
 21 24  1  0  0  0  0
 24 25  1  0  0  0  0
 24 26  1  0  0  0  0
 24 27  1  0  0  0  0
 13 28  1  0  0  0  0
 28 29  1  0  0  0  0
 28 30  1  0  0  0  0
 28 31  1  0  0  0  0
 31 32  1  0  0  0  0
 31 33  1  0  0  0  0
 31 34  1  0  0  0  0
  6 35  2  0  0  0  0
  4 36  1  0  0  0  0
 36 37  1  0  0  0  0
 37 38  1  0  0  0  0
 37 39  1  0  0  0  0
 37 40  1  0  0  0  0
 40  1  1  0  0  0  0
 40 41  1  0  0  0  0
 40 42  1  0  0  0  0
 36 43  1  0  0  0  0
 43 44  1  0  0  0  0
 43 45  1  0  0  0  0
 43 46  1  0  0  0  0
 36 47  1  0  0  0  0
 47 48  1  0  0  0  0
 47 49  2  0  0  0  0
 49  1  1  0  0  0  0
 49 50  1  0  0  0  0
  1 51  1  0  0  0  0
 51 52  1  0  0  0  0
 51 53  1  0  0  0  0
 53 54  1  0  0  0  0
 53 55  1  0  0  0  0
 53 56  1  0  0  0  0
 51 57  1  0  0  0  0
 57 58  1  0  0  0  0
 57 59  1  0  0  0  0
 57 60  1  0  0  0  0
M  END
> <ChemID>
100547

> <source_casrn>
13358-11-7

> <CAS>
13358-11-7

> <SMILES>
C1=CC(C(C)C)(CC2)C3C(=O)N(CC(CC)CCCC)C(=O)C3C12C

> <NAME>
N(2-ETHEXYL)-1-ISOPROPYL-4-METHYLBICYCLO[2.2.2]-

> <preferred_name>
N-(2-Ethylhexyl)-1-isopropyl-4-methylbiclyclo[2:2:2]oct-5-ene-2,3-dicarboximide

> <iupac>
2-(2-ethylhexyl)-4-methyl-7-(propan-2-yl)-3a,4,7,7a-tetrahydro-1H-4,7-ethanoisoindole-1,3(2H)-dione

> <MPID>
98459

> <dsstox_substance_id>
DTXSID9042176

> <Canonical_QSARr>
CC12CCC(C=C1)(C1C2C(=O)N(CC(CCCC)CC)C1=O)C(C)C

> <InChI_Code_QSARr>
InChI=1S/C22H35NO2/c1-6-8-9-16(7-2)14-23-19(24)17-18(20(23)25)22(15(3)4)12-10-21(17,5)11-13-22/h10,12,15-18H,6-9,11,13-14H2,1-5H3

> <InChI Key_QSARr>
MVKYQJHRHHQPDM-UHFFFAOYSA-N

> <Salt_Solvent>
?

> <LogBCF>
2.97

$$$$
100548
  -INDIGO-08031719362D

 38 37  0  0  0  0  0  0  0  0999 V2000
    0.8000   -1.3857    0.0000 C   0  0  0  0  0  0  0  0  0  0  0  0
    1.6000   -2.7712    0.0000 H   0  0  0  0  0  0  0  0  0  0  0  0
    0.2528   -2.8891    0.0000 H   0  0  0  0  0  0  0  0  0  0  0  0
    2.4000   -1.3857    0.0000 H   0  0  0  0  0  0  0  0  0  0  0  0
   -0.0000    0.0000    0.0000 C   0  0  0  0  0  0  0  0  0  0  0  0
   -1.3857   -0.7999    0.0000 C   0  0  0  0  0  0  0  0  0  0  0  0
   -1.7320   -2.3621    0.0000 H   0  0  0  0  0  0  0  0  0  0  0  0
   -0.5260   -2.1494    0.0000 H   0  0  0  0  0  0  0  0  0  0  0  0
   -2.9614   -0.5221    0.0000 C   0  0  0  0  0  0  0  0  0  0  0  0
   -2.6836    1.0535    0.0000 H   0  0  0  0  0  0  0  0  0  0  0  0
   -4.5371   -0.2443    0.0000 C   0  0  0  0  0  0  0  0  0  0  0  0
   -5.0182   -1.7703    0.0000 H   0  0  0  0  0  0  0  0  0  0  0  0
   -5.9562   -0.9832    0.0000 H   0  0  0  0  0  0  0  0  0  0  0  0
   -5.5654    0.9814    0.0000 C   0  0  0  0  0  0  0  0  0  0  0  0
   -6.7912   -0.0471    0.0000 C   0  0  0  0  0  0  0  0  0  0  0  0
   -8.0168   -1.0755    0.0000 H   0  0  0  0  0  0  0  0  0  0  0  0
   -6.7912   -1.6471    0.0000 H   0  0  0  0  0  0  0  0  0  0  0  0
   -8.2947    0.5001    0.0000 H   0  0  0  0  0  0  0  0  0  0  0  0
   -6.7912    2.0099    0.0000 C   0  0  0  0  0  0  0  0  0  0  0  0
   -8.0168    3.0383    0.0000 H   0  0  0  0  0  0  0  0  0  0  0  0
   -6.5134    3.5855    0.0000 H   0  0  0  0  0  0  0  0  0  0  0  0
   -8.2947    1.4626    0.0000 H   0  0  0  0  0  0  0  0  0  0  0  0
   -4.3398    2.0099    0.0000 C   0  0  0  0  0  0  0  0  0  0  0  0
   -4.6176    3.5855    0.0000 H   0  0  0  0  0  0  0  0  0  0  0  0
   -5.8433    2.5570    0.0000 H   0  0  0  0  0  0  0  0  0  0  0  0
   -3.7926    0.5063    0.0000 H   0  0  0  0  0  0  0  0  0  0  0  0
   -3.2392   -2.0979    0.0000 C   0  0  0  0  0  0  0  0  0  0  0  0
   -3.5170   -3.6735    0.0000 H   0  0  0  0  0  0  0  0  0  0  0  0
   -2.2107   -3.3235    0.0000 H   0  0  0  0  0  0  0  0  0  0  0  0
   -4.6249   -2.8979    0.0000 H   0  0  0  0  0  0  0  0  0  0  0  0
    1.5036    0.5472    0.0000 C   0  0  0  0  0  0  0  0  0  0  0  0
    3.0070    1.0945    0.0000 H   0  0  0  0  0  0  0  0  0  0  0  0
    2.7292   -0.4813    0.0000 H   0  0  0  0  0  0  0  0  0  0  0  0
    1.7814    2.1229    0.0000 H   0  0  0  0  0  0  0  0  0  0  0  0
   -0.8000    1.3857    0.0000 C   0  0  0  0  0  0  0  0  0  0  0  0
   -1.6001    2.7713    0.0000 H   0  0  0  0  0  0  0  0  0  0  0  0
   -0.0000    2.7713    0.0000 H   0  0  0  0  0  0  0  0  0  0  0  0
    0.8000    1.3857    0.0000 H   0  0  0  0  0  0  0  0  0  0  0  0
  1  2  1  0  0  0  0
  1  3  1  0  0  0  0
  1  4  1  0  0  0  0
  1  5  1  0  0  0  0
  5  6  1  0  0  0  0
  6  7  1  0  0  0  0
  6  8  1  0  0  0  0
  6  9  1  0  0  0  0
  9 10  1  0  0  0  0
  9 11  1  0  0  0  0
 11 12  1  0  0  0  0
 11 13  1  0  0  0  0
 11 14  1  0  0  0  0
 14 15  1  0  0  0  0
 15 16  1  0  0  0  0
 15 17  1  0  0  0  0
 15 18  1  0  0  0  0
 14 19  1  0  0  0  0
 19 20  1  0  0  0  0
 19 21  1  0  0  0  0
 19 22  1  0  0  0  0
 14 23  1  0  0  0  0
 23 24  1  0  0  0  0
 23 25  1  0  0  0  0
 23 26  1  0  0  0  0
  9 27  1  0  0  0  0
 27 28  1  0  0  0  0
 27 29  1  0  0  0  0
 27 30  1  0  0  0  0
  5 31  1  0  0  0  0
 31 32  1  0  0  0  0
 31 33  1  0  0  0  0
 31 34  1  0  0  0  0
  5 35  1  0  0  0  0
 35 36  1  0  0  0  0
 35 37  1  0  0  0  0
 35 38  1  0  0  0  0
M  END
> <ChemID>
100548

> <source_casrn>
13475-82-6

> <CAS>
13475-82-6

> <SMILES>
CC(CC(C)(C)C)CC(C)(C)C

> <NAME>
Heptane, 2,2,4,6,6-pentamethyl-

> <preferred_name>
2,2,4,6,6-Pentamethylheptane

> <iupac>
2,2,4,6,6-pentamethylheptane

> <MPID>
98460

> <dsstox_substance_id>
DTXSID0042034

> <Canonical_QSARr>
CC(CC(C)(C)C)CC(C)(C)C

> <InChI_Code_QSARr>
InChI=1S/C12H26/c1-10(8-11(2,3)4)9-12(5,6)7/h10H,8-9H2,1-7H3

> <InChI Key_QSARr>
VKPSKYDESGTTFR-UHFFFAOYSA-N

> <Salt_Solvent>
?

> <LogBCF>
2.94

$$$$
100550
  -INDIGO-08031719362D

 35 34  0  0  0  0  0  0  0  0999 V2000
   -0.0000    3.2000    0.0000 O   0  0  0  0  0  0  0  0  0  0  0  0
   -1.3857    2.3999    0.0000 P   0  0  0  0  0  0  0  0  0  0  0  0
   -1.3857    4.0000    0.0000 O   0  0  0  0  0  0  0  0  0  0  0  0
   -0.1600    5.0285    0.0000 C   0  0  0  0  0  0  0  0  0  0  0  0
    0.8685    3.8028    0.0000 H   0  0  0  0  0  0  0  0  0  0  0  0
    1.0657    6.0569    0.0000 C   0  0  0  0  0  0  0  0  0  0  0  0
    2.2914    7.0854    0.0000 H   0  0  0  0  0  0  0  0  0  0  0  0
    0.7878    7.6326    0.0000 H   0  0  0  0  0  0  0  0  0  0  0  0
    2.5691    5.5097    0.0000 Cl  0  0  0  0  0  0  0  0  0  0  0  0
   -1.1885    6.2541    0.0000 C   0  0  0  0  0  0  0  0  0  0  0  0
   -2.2169    7.4798    0.0000 H   0  0  0  0  0  0  0  0  0  0  0  0
   -2.7641    5.9764    0.0000 H   0  0  0  0  0  0  0  0  0  0  0  0
   -0.6413    7.7576    0.0000 H   0  0  0  0  0  0  0  0  0  0  0  0
   -2.7712    3.2000    0.0000 O   0  0  0  0  0  0  0  0  0  0  0  0
   -4.1569    2.3999    0.0000 C   0  0  0  0  0  0  0  0  0  0  0  0
   -3.3569    1.0143    0.0000 H   0  0  0  0  0  0  0  0  0  0  0  0
   -5.5425    1.6000    0.0000 C   0  0  0  0  0  0  0  0  0  0  0  0
   -6.9282    0.8000    0.0000 H   0  0  0  0  0  0  0  0  0  0  0  0
   -6.9282    2.3999    0.0000 H   0  0  0  0  0  0  0  0  0  0  0  0
   -5.5425   -0.0001    0.0000 Cl  0  0  0  0  0  0  0  0  0  0  0  0
   -4.7041    3.9035    0.0000 C   0  0  0  0  0  0  0  0  0  0  0  0
   -6.2799    4.1814    0.0000 H   0  0  0  0  0  0  0  0  0  0  0  0
   -5.7326    2.6778    0.0000 H   0  0  0  0  0  0  0  0  0  0  0  0
   -5.2514    5.4071    0.0000 H   0  0  0  0  0  0  0  0  0  0  0  0
   -0.0000    1.6000    0.0000 O   0  0  0  0  0  0  0  0  0  0  0  0
   -0.0000   -0.0001    0.0000 C   0  0  0  0  0  0  0  0  0  0  0  0
   -0.0000   -1.6000    0.0000 H   0  0  0  0  0  0  0  0  0  0  0  0
    1.6000   -0.0001    0.0000 C   0  0  0  0  0  0  0  0  0  0  0  0
    3.2000   -0.0001    0.0000 H   0  0  0  0  0  0  0  0  0  0  0  0
    2.4001   -1.3857    0.0000 H   0  0  0  0  0  0  0  0  0  0  0  0
    2.4001    1.3857    0.0000 Cl  0  0  0  0  0  0  0  0  0  0  0  0
   -1.6001   -0.0001    0.0000 C   0  0  0  0  0  0  0  0  0  0  0  0
   -3.1999   -0.0001    0.0000 H   0  0  0  0  0  0  0  0  0  0  0  0
   -2.4000   -1.3857    0.0000 H   0  0  0  0  0  0  0  0  0  0  0  0
   -2.4000    1.3857    0.0000 H   0  0  0  0  0  0  0  0  0  0  0  0
  1  2  2  0  0  0  0
  2  3  1  0  0  0  0
  3  4  1  0  0  0  0
  4  5  1  0  0  0  0
  4  6  1  0  0  0  0
  6  7  1  0  0  0  0
  6  8  1  0  0  0  0
  6  9  1  0  0  0  0
  4 10  1  0  0  0  0
 10 11  1  0  0  0  0
 10 12  1  0  0  0  0
 10 13  1  0  0  0  0
  2 14  1  0  0  0  0
 14 15  1  0  0  0  0
 15 16  1  0  0  0  0
 15 17  1  0  0  0  0
 17 18  1  0  0  0  0
 17 19  1  0  0  0  0
 17 20  1  0  0  0  0
 15 21  1  0  0  0  0
 21 22  1  0  0  0  0
 21 23  1  0  0  0  0
 21 24  1  0  0  0  0
  2 25  1  0  0  0  0
 25 26  1  0  0  0  0
 26 27  1  0  0  0  0
 26 28  1  0  0  0  0
 28 29  1  0  0  0  0
 28 30  1  0  0  0  0
 28 31  1  0  0  0  0
 26 32  1  0  0  0  0
 32 33  1  0  0  0  0
 32 34  1  0  0  0  0
 32 35  1  0  0  0  0
M  END
> <ChemID>
100550

> <source_casrn>
13674-84-5

> <CAS>
13674-84-5

> <SMILES>
O=P(OC(CCl)C)(OC(CCl)C)OC(CCl)C

> <NAME>
2-PROPANOL, 1-CHLORO-, PHOSPHATE (3:1)

> <preferred_name>
Tris(2-chloroisopropyl)phosphate

> <iupac>
C9H18Cl3O4P

> <MPID>
98462

> <dsstox_substance_id>
DTXSID5026259

> <Canonical_QSARr>
CC(CCl)OP(=O)(OC(C)CCl)OC(C)CCl

> <InChI_Code_QSARr>
InChI=1S/C9H18Cl3O4P/c1-7(4-10)14-17(13,15-8(2)5-11)16-9(3)6-12/h7-9H,4-6H2,1-3H3

> <InChI Key_QSARr>
KVMPUXDNESXNOH-UHFFFAOYSA-N

> <Salt_Solvent>
?

> <LogBCF>
0.9

$$$$
100551
  -INDIGO-08031719362D

 35 34  0  0  0  0  0  0  0  0999 V2000
   -0.0000    3.2000    0.0000 O   0  0  0  0  0  0  0  0  0  0  0  0
   -1.3857    2.3999    0.0000 P   0  0  0  0  0  0  0  0  0  0  0  0
   -1.3857    4.0000    0.0000 O   0  0  0  0  0  0  0  0  0  0  0  0
   -0.1600    5.0285    0.0000 C   0  0  0  0  0  0  0  0  0  0  0  0
    0.8685    3.8028    0.0000 H   0  0  0  0  0  0  0  0  0  0  0  0
    1.0657    6.0569    0.0000 C   0  0  0  0  0  0  0  0  0  0  0  0
    2.2914    7.0854    0.0000 H   0  0  0  0  0  0  0  0  0  0  0  0
    0.7878    7.6326    0.0000 H   0  0  0  0  0  0  0  0  0  0  0  0
    2.5691    5.5097    0.0000 Cl  0  0  0  0  0  0  0  0  0  0  0  0
   -1.1885    6.2541    0.0000 C   0  0  0  0  0  0  0  0  0  0  0  0
   -2.2169    7.4798    0.0000 H   0  0  0  0  0  0  0  0  0  0  0  0
   -2.7641    5.9764    0.0000 H   0  0  0  0  0  0  0  0  0  0  0  0
   -0.6413    7.7576    0.0000 Cl  0  0  0  0  0  0  0  0  0  0  0  0
   -2.7712    3.2000    0.0000 O   0  0  0  0  0  0  0  0  0  0  0  0
   -4.1569    2.3999    0.0000 C   0  0  0  0  0  0  0  0  0  0  0  0
   -3.3569    1.0143    0.0000 H   0  0  0  0  0  0  0  0  0  0  0  0
   -5.5425    1.6000    0.0000 C   0  0  0  0  0  0  0  0  0  0  0  0
   -6.9282    0.8000    0.0000 H   0  0  0  0  0  0  0  0  0  0  0  0
   -6.9282    2.3999    0.0000 H   0  0  0  0  0  0  0  0  0  0  0  0
   -5.5425   -0.0001    0.0000 Cl  0  0  0  0  0  0  0  0  0  0  0  0
   -4.7041    3.9035    0.0000 C   0  0  0  0  0  0  0  0  0  0  0  0
   -6.2799    4.1814    0.0000 H   0  0  0  0  0  0  0  0  0  0  0  0
   -5.7326    2.6778    0.0000 H   0  0  0  0  0  0  0  0  0  0  0  0
   -5.2514    5.4071    0.0000 Cl  0  0  0  0  0  0  0  0  0  0  0  0
   -0.0000    1.6000    0.0000 O   0  0  0  0  0  0  0  0  0  0  0  0
   -0.0000   -0.0001    0.0000 C   0  0  0  0  0  0  0  0  0  0  0  0
   -0.0000   -1.6000    0.0000 H   0  0  0  0  0  0  0  0  0  0  0  0
    1.6000   -0.0001    0.0000 C   0  0  0  0  0  0  0  0  0  0  0  0
    3.2000   -0.0001    0.0000 H   0  0  0  0  0  0  0  0  0  0  0  0
    2.4001   -1.3857    0.0000 H   0  0  0  0  0  0  0  0  0  0  0  0
    2.4001    1.3857    0.0000 Cl  0  0  0  0  0  0  0  0  0  0  0  0
   -1.6001   -0.0001    0.0000 C   0  0  0  0  0  0  0  0  0  0  0  0
   -3.1999   -0.0001    0.0000 H   0  0  0  0  0  0  0  0  0  0  0  0
   -2.4000   -1.3857    0.0000 H   0  0  0  0  0  0  0  0  0  0  0  0
   -2.4000    1.3857    0.0000 Cl  0  0  0  0  0  0  0  0  0  0  0  0
  1  2  2  0  0  0  0
  2  3  1  0  0  0  0
  3  4  1  0  0  0  0
  4  5  1  0  0  0  0
  4  6  1  0  0  0  0
  6  7  1  0  0  0  0
  6  8  1  0  0  0  0
  6  9  1  0  0  0  0
  4 10  1  0  0  0  0
 10 11  1  0  0  0  0
 10 12  1  0  0  0  0
 10 13  1  0  0  0  0
  2 14  1  0  0  0  0
 14 15  1  0  0  0  0
 15 16  1  0  0  0  0
 15 17  1  0  0  0  0
 17 18  1  0  0  0  0
 17 19  1  0  0  0  0
 17 20  1  0  0  0  0
 15 21  1  0  0  0  0
 21 22  1  0  0  0  0
 21 23  1  0  0  0  0
 21 24  1  0  0  0  0
  2 25  1  0  0  0  0
 25 26  1  0  0  0  0
 26 27  1  0  0  0  0
 26 28  1  0  0  0  0
 28 29  1  0  0  0  0
 28 30  1  0  0  0  0
 28 31  1  0  0  0  0
 26 32  1  0  0  0  0
 32 33  1  0  0  0  0
 32 34  1  0  0  0  0
 32 35  1  0  0  0  0
M  END
> <ChemID>
100551

> <source_casrn>
13674-87-8

> <CAS>
13674-87-8

> <SMILES>
O=P(OC(CCl)CCl)(OC(CCl)CCl)OC(CCl)CCl

> <NAME>
TRIS(1,3-DICHLOROISOPROPYL) PHOSPHATE

> <preferred_name>
TDCPP

> <iupac>
C9H15Cl6O4P

> <MPID>
98463

> <dsstox_substance_id>
DTXSID9026261

> <Canonical_QSARr>
O=P(OC(CCl)CCl)(OC(CCl)CCl)OC(CCl)CCl

> <InChI_Code_QSARr>
InChI=1S/C9H15Cl6O4P/c10-1-7(2-11)17-20(16,18-8(3-12)4-13)19-9(5-14)6-15/h7-9H,1-6H2

> <InChI Key_QSARr>
ASLWPAWFJZFCKF-UHFFFAOYSA-N

> <Salt_Solvent>
?

> <LogBCF>
1.08

$$$$
100552
  -INDIGO-08031719362D

 39 41  0  0  0  0  0  0  0  0999 V2000
    5.5425   -0.0000    0.0000 C   0  0  0  0  0  0  0  0  0  0  0  0
    6.9281    0.8000    0.0000 C   0  0  0  0  0  0  0  0  0  0  0  0
    6.9281    2.4000    0.0000 O   0  0  0  0  0  0  0  0  0  0  0  0
    8.3140   -0.0000    0.0000 C   0  0  0  0  0  0  0  0  0  0  0  0
    9.6996    0.8000    0.0000 C   0  0  0  0  0  0  0  0  0  0  0  0
    9.6996    2.4000    0.0000 H   0  0  0  0  0  0  0  0  0  0  0  0
   11.0852   -0.0000    0.0000 C   0  0  0  0  0  0  0  0  0  0  0  0
   12.4708    0.8000    0.0000 H   0  0  0  0  0  0  0  0  0  0  0  0
   11.0852   -1.6000    0.0000 C   0  0  0  0  0  0  0  0  0  0  0  0
   12.4708   -2.4000    0.0000 H   0  0  0  0  0  0  0  0  0  0  0  0
    9.6996   -2.4000    0.0000 C   0  0  0  0  0  0  0  0  0  0  0  0
    9.6996   -4.0000    0.0000 H   0  0  0  0  0  0  0  0  0  0  0  0
    8.3140   -1.6000    0.0000 C   0  0  0  0  0  0  0  0  0  0  0  0
    6.9281   -2.4000    0.0000 C   0  0  0  0  0  0  0  0  0  0  0  0
    6.9281   -4.0000    0.0000 O   0  0  0  0  0  0  0  0  0  0  0  0
    5.5425   -1.6000    0.0000 C   0  0  0  0  0  0  0  0  0  0  0  0
    4.1569   -2.4000    0.0000 C   0  0  0  0  0  0  0  0  0  0  0  0
    4.1569   -4.0000    0.0000 H   0  0  0  0  0  0  0  0  0  0  0  0
    2.7713   -1.6000    0.0000 C   0  0  0  0  0  0  0  0  0  0  0  0
    1.3857   -2.4000    0.0000 H   0  0  0  0  0  0  0  0  0  0  0  0
    2.7713   -0.0000    0.0000 C   0  0  0  0  0  0  0  0  0  0  0  0
    1.3857    0.8000    0.0000 C   0  0  0  0  0  0  0  0  0  0  0  0
    1.9978    2.2782    0.0000 H   0  0  0  0  0  0  0  0  0  0  0  0
    0.7733    2.2782    0.0000 H   0  0  0  0  0  0  0  0  0  0  0  0
    0.0001   -0.0000    0.0000 C   0  0  0  0  0  0  0  0  0  0  0  0
   -0.6123   -1.4782    0.0000 H   0  0  0  0  0  0  0  0  0  0  0  0
    0.6122   -1.4782    0.0000 H   0  0  0  0  0  0  0  0  0  0  0  0
   -1.3858    0.8000    0.0000 C   0  0  0  0  0  0  0  0  0  0  0  0
   -0.7734    2.2782    0.0000 H   0  0  0  0  0  0  0  0  0  0  0  0
   -1.9979    2.2782    0.0000 H   0  0  0  0  0  0  0  0  0  0  0  0
   -2.7714   -0.0000    0.0000 C   0  0  0  0  0  0  0  0  0  0  0  0
   -3.3835   -1.4782    0.0000 H   0  0  0  0  0  0  0  0  0  0  0  0
   -2.1590   -1.4782    0.0000 H   0  0  0  0  0  0  0  0  0  0  0  0
   -4.1570    0.8000    0.0000 C   0  0  0  0  0  0  0  0  0  0  0  0
   -5.5426    1.6000    0.0000 H   0  0  0  0  0  0  0  0  0  0  0  0
   -5.5426   -0.0000    0.0000 H   0  0  0  0  0  0  0  0  0  0  0  0
   -4.1570    2.4000    0.0000 H   0  0  0  0  0  0  0  0  0  0  0  0
    4.1569    0.8000    0.0000 C   0  0  0  0  0  0  0  0  0  0  0  0
    4.1569    2.4000    0.0000 H   0  0  0  0  0  0  0  0  0  0  0  0
  1  2  1  0  0  0  0
  2  3  2  0  0  0  0
  2  4  1  0  0  0  0
  4  5  1  0  0  0  0
  5  6  1  0  0  0  0
  5  7  2  0  0  0  0
  7  8  1  0  0  0  0
  7  9  1  0  0  0  0
  9 10  1  0  0  0  0
  9 11  2  0  0  0  0
 11 12  1  0  0  0  0
 11 13  1  0  0  0  0
 13  4  2  0  0  0  0
 13 14  1  0  0  0  0
 14 15  2  0  0  0  0
 14 16  1  0  0  0  0
 16  1  1  0  0  0  0
 16 17  2  0  0  0  0
 17 18  1  0  0  0  0
 17 19  1  0  0  0  0
 19 20  1  0  0  0  0
 19 21  2  0  0  0  0
 21 22  1  0  0  0  0
 22 23  1  0  0  0  0
 22 24  1  0  0  0  0
 22 25  1  0  0  0  0
 25 26  1  0  0  0  0
 25 27  1  0  0  0  0
 25 28  1  0  0  0  0
 28 29  1  0  0  0  0
 28 30  1  0  0  0  0
 28 31  1  0  0  0  0
 31 32  1  0  0  0  0
 31 33  1  0  0  0  0
 31 34  1  0  0  0  0
 34 35  1  0  0  0  0
 34 36  1  0  0  0  0
 34 37  1  0  0  0  0
 21 38  1  0  0  0  0
 38  1  2  0  0  0  0
 38 39  1  0  0  0  0
M  END
> <ChemID>
100552

> <source_casrn>
13936-21-5

> <CAS>
13936-21-5

> <SMILES>
O=C(c(c(C(=O)c1cccc2)ccc3CCCCC)c3)c12

> <NAME>
9,10-Anthracenedione, 2-pentyl-

> <preferred_name>
9,10-Anthracenedione, 2-pentyl-

> <iupac>
2-pentylanthracene-9,10-dione

> <MPID>
98464

> <dsstox_substance_id>
DTXSID1065681

> <Canonical_QSARr>
CCCCCc1cc2c(cc1)C(=O)c1ccccc1C2=O

> <InChI_Code_QSARr>
InChI=1S/C19H18O2/c1-2-3-4-7-13-10-11-16-17(12-13)19(21)15-9-6-5-8-14(15)18(16)20/h5-6,8-12H,2-4,7H2,1H3

> <InChI Key_QSARr>
UMWZLYTVXQBTTE-UHFFFAOYSA-N

> <Salt_Solvent>
?

> <LogBCF>
2.94

$$$$
100555
  -INDIGO-08031719362D

 16 16  0  0  0  0  0  0  0  0999 V2000
   -0.0000    2.7713    0.0000 Cl  0  0  0  0  0  0  0  0  0  0  0  0
   -0.8000    1.3856    0.0000 C   0  0  0  0  0  0  0  0  0  0  0  0
   -0.0000   -0.0000    0.0000 C   0  0  0  0  0  0  0  0  0  0  0  0
    1.6000   -0.0000    0.0000 C   0  0  0  0  0  0  0  0  0  0  0  0
    1.8088   -1.5863    0.0000 H   0  0  0  0  0  0  0  0  0  0  0  0
    2.8694   -0.9740    0.0000 H   0  0  0  0  0  0  0  0  0  0  0  0
    2.4001    1.3856    0.0000 O   0  0  0  0  0  0  0  0  0  0  0  0
    4.0000    1.3856    0.0000 H   0  0  0  0  0  0  0  0  0  0  0  0
   -0.8000   -1.3856    0.0000 C   0  0  0  0  0  0  0  0  0  0  0  0
   -0.0000   -2.7713    0.0000 Cl  0  0  0  0  0  0  0  0  0  0  0  0
   -2.4000   -1.3856    0.0000 C   0  0  0  0  0  0  0  0  0  0  0  0
   -3.2001   -2.7713    0.0000 H   0  0  0  0  0  0  0  0  0  0  0  0
   -3.2001   -0.0000    0.0000 C   0  0  0  0  0  0  0  0  0  0  0  0
   -4.8000   -0.0000    0.0000 H   0  0  0  0  0  0  0  0  0  0  0  0
   -2.4000    1.3856    0.0000 C   0  0  0  0  0  0  0  0  0  0  0  0
   -3.2001    2.7713    0.0000 H   0  0  0  0  0  0  0  0  0  0  0  0
  1  2  1  0  0  0  0
  2  3  1  0  0  0  0
  3  4  1  0  0  0  0
  4  5  1  0  0  0  0
  4  6  1  0  0  0  0
  4  7  1  0  0  0  0
  7  8  1  0  0  0  0
  3  9  2  0  0  0  0
  9 10  1  0  0  0  0
  9 11  1  0  0  0  0
 11 12  1  0  0  0  0
 11 13  2  0  0  0  0
 13 14  1  0  0  0  0
 13 15  1  0  0  0  0
 15  2  2  0  0  0  0
 15 16  1  0  0  0  0
M  END
> <ChemID>
100555

> <source_casrn>
15258-73-8

> <CAS>
15258-73-8

> <SMILES>
OCc1c(Cl)cccc1Cl

> <NAME>
BENZENEMETHANOL, 2,6-DICHLORO-

> <preferred_name>
Benzenemethanol, 2,6-dichloro- (9CI)

> <iupac>
(2,6-dichlorophenyl)methanol

> <MPID>
98466

> <dsstox_substance_id>
DTXSID30165075

> <Canonical_QSARr>
OCc1c(Cl)cccc1Cl

> <InChI_Code_QSARr>
InChI=1S/C7H6Cl2O/c8-6-2-1-3-7(9)5(6)4-10/h1-3,10H,4H2

> <InChI Key_QSARr>
WKKHCCZLKYKUDN-UHFFFAOYSA-N

> <Salt_Solvent>
?

> <LogBCF>
0.47

$$$$
100556
  -INDIGO-08031719362D

 22 23  0  0  0  0  0  0  0  0999 V2000
   -0.0001    0.0000    0.0000 C   0  0  0  0  0  0  0  0  0  0  0  0
    1.6001   -0.0000    0.0000 C   0  0  0  0  0  0  0  0  0  0  0  0
    2.4001   -1.3856    0.0000 C   0  0  0  0  0  0  0  0  0  0  0  0
    1.6001   -2.7713    0.0000 H   0  0  0  0  0  0  0  0  0  0  0  0
    4.0000   -1.3856    0.0000 C   0  0  0  0  0  0  0  0  0  0  0  0
    4.8000   -2.7713    0.0000 H   0  0  0  0  0  0  0  0  0  0  0  0
    4.8000    0.0000    0.0000 C   0  0  0  0  0  0  0  0  0  0  0  0
    6.4000    0.0000    0.0000 H   0  0  0  0  0  0  0  0  0  0  0  0
    4.0000    1.3856    0.0000 C   0  0  0  0  0  0  0  0  0  0  0  0
    4.8000    2.7713    0.0000 H   0  0  0  0  0  0  0  0  0  0  0  0
    2.4001    1.3856    0.0000 C   0  0  0  0  0  0  0  0  0  0  0  0
    1.6001    2.7713    0.0000 H   0  0  0  0  0  0  0  0  0  0  0  0
   -0.8001    1.3856    0.0000 C   0  0  0  0  0  0  0  0  0  0  0  0
   -0.0001    2.7713    0.0000 Cl  0  0  0  0  0  0  0  0  0  0  0  0
   -2.4000    1.3856    0.0000 C   0  0  0  0  0  0  0  0  0  0  0  0
   -3.2000    2.7713    0.0000 H   0  0  0  0  0  0  0  0  0  0  0  0
   -3.2000    0.0000    0.0000 C   0  0  0  0  0  0  0  0  0  0  0  0
   -4.8000   -0.0000    0.0000 Cl  0  0  0  0  0  0  0  0  0  0  0  0
   -2.4000   -1.3856    0.0000 C   0  0  0  0  0  0  0  0  0  0  0  0
   -3.2000   -2.7713    0.0000 Cl  0  0  0  0  0  0  0  0  0  0  0  0
   -0.8001   -1.3856    0.0000 C   0  0  0  0  0  0  0  0  0  0  0  0
   -0.0001   -2.7713    0.0000 H   0  0  0  0  0  0  0  0  0  0  0  0
  1  2  1  0  0  0  0
  2  3  1  0  0  0  0
  3  4  1  0  0  0  0
  3  5  2  0  0  0  0
  5  6  1  0  0  0  0
  5  7  1  0  0  0  0
  7  8  1  0  0  0  0
  7  9  2  0  0  0  0
  9 10  1  0  0  0  0
  9 11  1  0  0  0  0
 11  2  2  0  0  0  0
 11 12  1  0  0  0  0
  1 13  1  0  0  0  0
 13 14  1  0  0  0  0
 13 15  2  0  0  0  0
 15 16  1  0  0  0  0
 15 17  1  0  0  0  0
 17 18  1  0  0  0  0
 17 19  2  0  0  0  0
 19 20  1  0  0  0  0
 19 21  1  0  0  0  0
 21  1  2  0  0  0  0
 21 22  1  0  0  0  0
M  END
> <ChemID>
100556

> <source_casrn>
15862-07-4

> <CAS>
15862-07-4

> <SMILES>
Clc1cc(-c2ccccc2)c(Cl)cc1Cl

> <NAME>
2,4,5-TRICHLOROBIPHENYL

> <preferred_name>
2,4,5-Trichlorobiphenyl

> <iupac>
1,2,4-trichloro-5-phenylbenzene

> <MPID>
98467

> <dsstox_substance_id>
DTXSID0073405

> <Canonical_QSARr>
Clc1cc(-c2ccccc2)c(Cl)cc1Cl

> <InChI_Code_QSARr>
InChI=1S/C12H7Cl3/c13-10-7-12(15)11(14)6-9(10)8-4-2-1-3-5-8/h1-7H

> <InChI Key_QSARr>
VGVIKVCCUATMNG-UHFFFAOYSA-N

> <Salt_Solvent>
?

> <LogBCF>
3.78

$$$$
100557
  -INDIGO-08031719362D

 27 28  0  0  0  0  0  0  0  0999 V2000
    5.5427   -1.6000    0.0000 O   0  0  0  0  0  0  0  0  0  0  0  0
    6.9282   -0.8000    0.0000 H   0  0  0  0  0  0  0  0  0  0  0  0
    4.1569   -0.8000    0.0000 S   0  0  0  0  0  0  0  0  0  0  0  0
    2.7714    0.0000    0.0000 C   0  0  0  0  0  0  0  0  0  0  0  0
    1.3856   -0.8000    0.0000 C   0  0  0  0  0  0  0  0  0  0  0  0
    1.3856   -2.4000    0.0000 H   0  0  0  0  0  0  0  0  0  0  0  0
    0.0001    0.0000    0.0000 C   0  0  0  0  0  0  0  0  0  0  0  0
    0.0001    1.6000    0.0000 C   0  0  0  0  0  0  0  0  0  0  0  0
   -1.3856    2.4000    0.0000 C   0  0  0  0  0  0  0  0  0  0  0  0
   -1.3856    4.0000    0.0000 H   0  0  0  0  0  0  0  0  0  0  0  0
   -2.7712    1.6000    0.0000 C   0  0  0  0  0  0  0  0  0  0  0  0
   -4.1569    2.4000    0.0000 O   0  0  0  0  0  0  0  0  0  0  0  0
   -4.1569    4.0000    0.0000 H   0  0  0  0  0  0  0  0  0  0  0  0
   -2.7714    0.0000    0.0000 C   0  0  0  0  0  0  0  0  0  0  0  0
   -4.1569   -0.8000    0.0000 S   0  0  0  0  0  0  0  0  0  0  0  0
   -4.9570    0.5857    0.0000 O   0  0  0  0  0  0  0  0  0  0  0  0
   -3.3569   -2.1856    0.0000 O   0  0  0  0  0  0  0  0  0  0  0  0
   -5.5427   -1.6000    0.0000 O   0  0  0  0  0  0  0  0  0  0  0  0
   -6.9282   -0.8000    0.0000 H   0  0  0  0  0  0  0  0  0  0  0  0
   -1.3856   -0.8000    0.0000 C   0  0  0  0  0  0  0  0  0  0  0  0
   -1.3856   -2.4000    0.0000 H   0  0  0  0  0  0  0  0  0  0  0  0
    1.3856    2.4000    0.0000 C   0  0  0  0  0  0  0  0  0  0  0  0
    1.3856    4.0000    0.0000 H   0  0  0  0  0  0  0  0  0  0  0  0
    2.7714    1.6000    0.0000 C   0  0  0  0  0  0  0  0  0  0  0  0
    4.1569    2.4000    0.0000 H   0  0  0  0  0  0  0  0  0  0  0  0
    4.9570    0.5857    0.0000 O   0  0  0  0  0  0  0  0  0  0  0  0
    3.3569   -2.1856    0.0000 O   0  0  0  0  0  0  0  0  0  0  0  0
  1  2  1  0  0  0  0
  1  3  1  0  0  0  0
  3  4  1  0  0  0  0
  4  5  1  0  0  0  0
  5  6  1  0  0  0  0
  5  7  2  0  0  0  0
  7  8  1  0  0  0  0
  8  9  1  0  0  0  0
  9 10  1  0  0  0  0
  9 11  2  0  0  0  0
 11 12  1  0  0  0  0
 12 13  1  0  0  0  0
 11 14  1  0  0  0  0
 14 15  1  0  0  0  0
 15 16  2  0  0  0  0
 15 17  2  0  0  0  0
 15 18  1  0  0  0  0
 18 19  1  0  0  0  0
 14 20  2  0  0  0  0
 20  7  1  0  0  0  0
 20 21  1  0  0  0  0
  8 22  2  0  0  0  0
 22 23  1  0  0  0  0
 22 24  1  0  0  0  0
 24  4  2  0  0  0  0
 24 25  1  0  0  0  0
  3 26  2  0  0  0  0
  3 27  2  0  0  0  0
M  END
> <ChemID>
100557

> <source_casrn>
15883-57-5

> <CAS>
135-51-3

> <SMILES>
[Na]OS(=O)(=O)c1c(cc2ccc(cc2c1)S(=O)(=O)O[Na])O

> <NAME>
2-NAPHTHOL-3,6-DISULFONIC ACID DISODIUM SALT

> <preferred_name>
Disodium 3-hydroxynaphthalene-2,7-disulfonate

> <iupac>
disodium 3-hydroxynaphthalene-2,7-disulfonate

> <MPID>
98468

> <dsstox_substance_id>
DTXSID8044543

> <Canonical_QSARr>
Oc1cc2ccc(cc2cc1S(O)(=O)=O)S(O)(=O)=O

> <InChI_Code_QSARr>
InChI=1S/C10H8O7S2/c11-9-4-6-1-2-8(18(12,13)14)3-7(6)5-10(9)19(15,16)17/h1-5,11H,(H,12,13,14)(H,15,16,17)

> <InChI Key_QSARr>
USWINTIHFQKJTR-UHFFFAOYSA-N

> <Salt_Solvent>
[Na+].[Na+]

> <LogBCF>
0.3

$$$$
100558
  -INDIGO-08031719362D

 22 23  0  0  0  0  0  0  0  0999 V2000
   -0.0001    0.0000    0.0000 C   0  0  0  0  0  0  0  0  0  0  0  0
    1.6001   -0.0000    0.0000 C   0  0  0  0  0  0  0  0  0  0  0  0
    2.4001   -1.3856    0.0000 C   0  0  0  0  0  0  0  0  0  0  0  0
    1.6001   -2.7713    0.0000 Cl  0  0  0  0  0  0  0  0  0  0  0  0
    4.0000   -1.3856    0.0000 C   0  0  0  0  0  0  0  0  0  0  0  0
    4.8000   -2.7713    0.0000 H   0  0  0  0  0  0  0  0  0  0  0  0
    4.8000    0.0000    0.0000 C   0  0  0  0  0  0  0  0  0  0  0  0
    6.4000    0.0000    0.0000 H   0  0  0  0  0  0  0  0  0  0  0  0
    4.0000    1.3856    0.0000 C   0  0  0  0  0  0  0  0  0  0  0  0
    4.8000    2.7713    0.0000 H   0  0  0  0  0  0  0  0  0  0  0  0
    2.4001    1.3856    0.0000 C   0  0  0  0  0  0  0  0  0  0  0  0
    1.6001    2.7713    0.0000 Cl  0  0  0  0  0  0  0  0  0  0  0  0
   -0.8001    1.3856    0.0000 C   0  0  0  0  0  0  0  0  0  0  0  0
   -0.0001    2.7713    0.0000 Cl  0  0  0  0  0  0  0  0  0  0  0  0
   -2.4000    1.3856    0.0000 C   0  0  0  0  0  0  0  0  0  0  0  0
   -3.2000    2.7713    0.0000 H   0  0  0  0  0  0  0  0  0  0  0  0
   -3.2000    0.0000    0.0000 C   0  0  0  0  0  0  0  0  0  0  0  0
   -4.8000   -0.0000    0.0000 H   0  0  0  0  0  0  0  0  0  0  0  0
   -2.4000   -1.3856    0.0000 C   0  0  0  0  0  0  0  0  0  0  0  0
   -3.2000   -2.7713    0.0000 H   0  0  0  0  0  0  0  0  0  0  0  0
   -0.8001   -1.3856    0.0000 C   0  0  0  0  0  0  0  0  0  0  0  0
   -0.0001   -2.7713    0.0000 Cl  0  0  0  0  0  0  0  0  0  0  0  0
  1  2  1  0  0  0  0
  2  3  1  0  0  0  0
  3  4  1  0  0  0  0
  3  5  2  0  0  0  0
  5  6  1  0  0  0  0
  5  7  1  0  0  0  0
  7  8  1  0  0  0  0
  7  9  2  0  0  0  0
  9 10  1  0  0  0  0
  9 11  1  0  0  0  0
 11  2  2  0  0  0  0
 11 12  1  0  0  0  0
  1 13  1  0  0  0  0
 13 14  1  0  0  0  0
 13 15  2  0  0  0  0
 15 16  1  0  0  0  0
 15 17  1  0  0  0  0
 17 18  1  0  0  0  0
 17 19  2  0  0  0  0
 19 20  1  0  0  0  0
 19 21  1  0  0  0  0
 21  1  2  0  0  0  0
 21 22  1  0  0  0  0
M  END
> <ChemID>
100558

> <source_casrn>
15968-05-5

> <CAS>
15968-05-5

> <SMILES>
Clc1cccc(Cl)c1-c1c(Cl)cccc1Cl

> <NAME>
2,2',6,6'-TETRACHLOROBIPHENYL

> <preferred_name>
2,2',6,6'-Tetrachlorobiphenyl

> <iupac>
1,3-dichloro-2-(2,6-dichlorophenyl)benzene

> <MPID>
98469

> <dsstox_substance_id>
DTXSID0065983

> <Canonical_QSARr>
Clc1cccc(Cl)c1-c1c(Cl)cccc1Cl

> <InChI_Code_QSARr>
InChI=1S/C12H6Cl4/c13-7-3-1-4-8(14)11(7)12-9(15)5-2-6-10(12)16/h1-6H

> <InChI Key_QSARr>
PXAGFNRKXSYIHU-UHFFFAOYSA-N

> <Salt_Solvent>
?

> <LogBCF>
3.85

$$$$
100561
  -INDIGO-08031719362D

 21 22  0  0  0  0  0  0  0  0999 V2000
    2.3161    0.5964    0.0000 C   0  0  0  0  0  0  0  0  0  0  0  0
    3.8787    0.9398    0.0000 C   0  0  0  0  0  0  0  0  0  0  0  0
    4.3626    2.4649    0.0000 H   0  0  0  0  0  0  0  0  0  0  0  0
    4.9576   -0.2418    0.0000 C   0  0  0  0  0  0  0  0  0  0  0  0
    6.0364   -1.4233    0.0000 H   0  0  0  0  0  0  0  0  0  0  0  0
    6.5202    0.1017    0.0000 H   0  0  0  0  0  0  0  0  0  0  0  0
    4.4736   -1.7668    0.0000 H   0  0  0  0  0  0  0  0  0  0  0  0
    1.0821    1.3606    0.0000 C   0  0  0  0  0  0  0  0  0  0  0  0
    2.4084    2.2556    0.0000 H   0  0  0  0  0  0  0  0  0  0  0  0
    0.8100    2.9373    0.0000 C   0  0  0  0  0  0  0  0  0  0  0  0
    1.1646    4.4975    0.0000 H   0  0  0  0  0  0  0  0  0  0  0  0
   -0.0645    1.7071    0.0000 C   0  0  0  0  0  0  0  0  0  0  0  0
   -1.5976    2.1648    0.0000 H   0  0  0  0  0  0  0  0  0  0  0  0
   -0.0000   -0.0000    0.0000 C   0  0  0  0  0  0  0  0  0  0  0  0
   -0.1819   -1.5896    0.0000 H   0  0  0  0  0  0  0  0  0  0  0  0
   -1.4644   -0.4133    0.0000 C   0  0  0  0  0  0  0  0  0  0  0  0
   -1.6836   -1.9983    0.0000 H   0  0  0  0  0  0  0  0  0  0  0  0
   -2.8286    0.4228    0.0000 H   0  0  0  0  0  0  0  0  0  0  0  0
    1.4101   -0.7757    0.0000 C   0  0  0  0  0  0  0  0  0  0  0  0
    2.7686   -1.6211    0.0000 H   0  0  0  0  0  0  0  0  0  0  0  0
    0.6015   -2.1564    0.0000 H   0  0  0  0  0  0  0  0  0  0  0  0
  1  2  2  0  0  0  0
  2  3  1  0  0  0  0
  2  4  1  0  0  0  0
  4  5  1  0  0  0  0
  4  6  1  0  0  0  0
  4  7  1  0  0  0  0
  1  8  1  0  0  0  0
  8  9  1  0  0  0  0
  8 10  1  0  0  0  0
 10 11  1  0  0  0  0
 10 12  2  0  0  0  0
 12 13  1  0  0  0  0
 12 14  1  0  0  0  0
 14 15  1  0  0  0  0
 14 16  1  0  0  0  0
 16  8  1  0  0  0  0
 16 17  1  0  0  0  0
 16 18  1  0  0  0  0
 14 19  1  0  0  0  0
 19  1  1  0  0  0  0
 19 20  1  0  0  0  0
 19 21  1  0  0  0  0
M  END
> <ChemID>
100561

> <source_casrn>
16219-75-3

> <CAS>
16219-75-3

> <SMILES>
C(C(C=CC12)C1)(=CC)C2

> <NAME>
ETHYLIDENE NORBORNENE

> <preferred_name>
5-Ethylidene-2-norbornene

> <iupac>
5-ethylidenebicyclo[2.2.1]hept-2-ene

> <MPID>
98471

> <dsstox_substance_id>
DTXSID1025306

> <Canonical_QSARr>
CC=C1CC2CC1C=C2

> <InChI_Code_QSARr>
InChI=1S/C9H12/c1-2-8-5-7-3-4-9(8)6-7/h2-4,7,9H,5-6H2,1H3/b8-2+

> <InChI Key_QSARr>
OJOWICOBYCXEKR-KRXBUXKQSA-N

> <Salt_Solvent>
?

> <LogBCF>
2.04

$$$$
100562
  -INDIGO-08031719362D

 22 23  0  0  0  0  0  0  0  0999 V2000
   -0.0001    0.0000    0.0000 C   0  0  0  0  0  0  0  0  0  0  0  0
    1.6001   -0.0000    0.0000 C   0  0  0  0  0  0  0  0  0  0  0  0
    2.4001   -1.3856    0.0000 C   0  0  0  0  0  0  0  0  0  0  0  0
    1.6001   -2.7713    0.0000 H   0  0  0  0  0  0  0  0  0  0  0  0
    4.0000   -1.3856    0.0000 C   0  0  0  0  0  0  0  0  0  0  0  0
    4.8000   -2.7713    0.0000 H   0  0  0  0  0  0  0  0  0  0  0  0
    4.8000    0.0000    0.0000 C   0  0  0  0  0  0  0  0  0  0  0  0
    6.4000    0.0000    0.0000 H   0  0  0  0  0  0  0  0  0  0  0  0
    4.0000    1.3856    0.0000 C   0  0  0  0  0  0  0  0  0  0  0  0
    4.8000    2.7713    0.0000 H   0  0  0  0  0  0  0  0  0  0  0  0
    2.4001    1.3856    0.0000 C   0  0  0  0  0  0  0  0  0  0  0  0
    1.6001    2.7713    0.0000 H   0  0  0  0  0  0  0  0  0  0  0  0
   -0.8001    1.3856    0.0000 C   0  0  0  0  0  0  0  0  0  0  0  0
   -0.0001    2.7713    0.0000 Cl  0  0  0  0  0  0  0  0  0  0  0  0
   -2.4000    1.3856    0.0000 C   0  0  0  0  0  0  0  0  0  0  0  0
   -3.2000    2.7713    0.0000 Cl  0  0  0  0  0  0  0  0  0  0  0  0
   -3.2000    0.0000    0.0000 C   0  0  0  0  0  0  0  0  0  0  0  0
   -4.8000   -0.0000    0.0000 H   0  0  0  0  0  0  0  0  0  0  0  0
   -2.4000   -1.3856    0.0000 C   0  0  0  0  0  0  0  0  0  0  0  0
   -3.2000   -2.7713    0.0000 H   0  0  0  0  0  0  0  0  0  0  0  0
   -0.8001   -1.3856    0.0000 C   0  0  0  0  0  0  0  0  0  0  0  0
   -0.0001   -2.7713    0.0000 H   0  0  0  0  0  0  0  0  0  0  0  0
  1  2  1  0  0  0  0
  2  3  1  0  0  0  0
  3  4  1  0  0  0  0
  3  5  2  0  0  0  0
  5  6  1  0  0  0  0
  5  7  1  0  0  0  0
  7  8  1  0  0  0  0
  7  9  2  0  0  0  0
  9 10  1  0  0  0  0
  9 11  1  0  0  0  0
 11  2  2  0  0  0  0
 11 12  1  0  0  0  0
  1 13  1  0  0  0  0
 13 14  1  0  0  0  0
 13 15  2  0  0  0  0
 15 16  1  0  0  0  0
 15 17  1  0  0  0  0
 17 18  1  0  0  0  0
 17 19  2  0  0  0  0
 19 20  1  0  0  0  0
 19 21  1  0  0  0  0
 21  1  2  0  0  0  0
 21 22  1  0  0  0  0
M  END
> <ChemID>
100562

> <source_casrn>
16605-91-7

> <CAS>
16605-91-7

> <SMILES>
Clc1cccc(-c2ccccc2)c1Cl

> <NAME>
2,3-DICHLOROBIPHENYL

> <preferred_name>
2,3-Dichlorobiphenyl

> <iupac>
1,2-dichloro-3-phenylbenzene

> <MPID>
98472

> <dsstox_substance_id>
DTXSID0073409

> <Canonical_QSARr>
Clc1cccc(-c2ccccc2)c1Cl

> <InChI_Code_QSARr>
InChI=1S/C12H8Cl2/c13-11-8-4-7-10(12(11)14)9-5-2-1-3-6-9/h1-8H

> <InChI Key_QSARr>
XOMKZKJEJBZBJJ-UHFFFAOYSA-N

> <Salt_Solvent>
?

> <LogBCF>
3.98

$$$$
100563
  -INDIGO-08031719362D

 22 23  0  0  0  0  0  0  0  0999 V2000
   -0.0001    0.0000    0.0000 C   0  0  0  0  0  0  0  0  0  0  0  0
    1.6001   -0.0000    0.0000 C   0  0  0  0  0  0  0  0  0  0  0  0
    2.4001   -1.3856    0.0000 C   0  0  0  0  0  0  0  0  0  0  0  0
    1.6001   -2.7713    0.0000 H   0  0  0  0  0  0  0  0  0  0  0  0
    4.0000   -1.3856    0.0000 C   0  0  0  0  0  0  0  0  0  0  0  0
    4.8000   -2.7713    0.0000 H   0  0  0  0  0  0  0  0  0  0  0  0
    4.8000    0.0000    0.0000 C   0  0  0  0  0  0  0  0  0  0  0  0
    6.4000    0.0000    0.0000 Cl  0  0  0  0  0  0  0  0  0  0  0  0
    4.0000    1.3856    0.0000 C   0  0  0  0  0  0  0  0  0  0  0  0
    4.8000    2.7713    0.0000 H   0  0  0  0  0  0  0  0  0  0  0  0
    2.4001    1.3856    0.0000 C   0  0  0  0  0  0  0  0  0  0  0  0
    1.6001    2.7713    0.0000 H   0  0  0  0  0  0  0  0  0  0  0  0
   -0.8001    1.3856    0.0000 C   0  0  0  0  0  0  0  0  0  0  0  0
   -0.0001    2.7713    0.0000 Cl  0  0  0  0  0  0  0  0  0  0  0  0
   -2.4000    1.3856    0.0000 C   0  0  0  0  0  0  0  0  0  0  0  0
   -3.2000    2.7713    0.0000 H   0  0  0  0  0  0  0  0  0  0  0  0
   -3.2000    0.0000    0.0000 C   0  0  0  0  0  0  0  0  0  0  0  0
   -4.8000   -0.0000    0.0000 H   0  0  0  0  0  0  0  0  0  0  0  0
   -2.4000   -1.3856    0.0000 C   0  0  0  0  0  0  0  0  0  0  0  0
   -3.2000   -2.7713    0.0000 Cl  0  0  0  0  0  0  0  0  0  0  0  0
   -0.8001   -1.3856    0.0000 C   0  0  0  0  0  0  0  0  0  0  0  0
   -0.0001   -2.7713    0.0000 H   0  0  0  0  0  0  0  0  0  0  0  0
  1  2  1  0  0  0  0
  2  3  1  0  0  0  0
  3  4  1  0  0  0  0
  3  5  2  0  0  0  0
  5  6  1  0  0  0  0
  5  7  1  0  0  0  0
  7  8  1  0  0  0  0
  7  9  2  0  0  0  0
  9 10  1  0  0  0  0
  9 11  1  0  0  0  0
 11  2  2  0  0  0  0
 11 12  1  0  0  0  0
  1 13  1  0  0  0  0
 13 14  1  0  0  0  0
 13 15  2  0  0  0  0
 15 16  1  0  0  0  0
 15 17  1  0  0  0  0
 17 18  1  0  0  0  0
 17 19  2  0  0  0  0
 19 20  1  0  0  0  0
 19 21  1  0  0  0  0
 21  1  2  0  0  0  0
 21 22  1  0  0  0  0
M  END
> <ChemID>
100563

> <source_casrn>
16606-02-3

> <CAS>
16606-02-3

> <SMILES>
Clc1ccc(Cl)cc1-c1ccc(Cl)cc1

> <NAME>
2,4',5-TRICHLOROBIPHENYL

> <preferred_name>
2,4',5-Trichlorobiphenyl

> <iupac>
1,4-dichloro-2-(4-chlorophenyl)benzene

> <MPID>
98473

> <dsstox_substance_id>
DTXSID9073410

> <Canonical_QSARr>
Clc1ccc(Cl)cc1-c1ccc(Cl)cc1

> <InChI_Code_QSARr>
InChI=1S/C12H7Cl3/c13-9-3-1-8(2-4-9)11-7-10(14)5-6-12(11)15/h1-7H

> <InChI Key_QSARr>
VAHKBZSAUKPEOV-UHFFFAOYSA-N

> <Salt_Solvent>
?

> <LogBCF>
4.13

$$$$
100566
  -INDIGO-08031719362D

 14 14  0  0  0  0  0  0  0  0999 V2000
    1.6000   -0.0000    0.0000 N   0  0  0  0  0  0  0  0  0  0  0  0
    2.4000    1.3856    0.0000 O   0  0  0  0  0  0  0  0  0  0  0  0
    2.4000   -1.3856    0.0000 O   0  0  0  0  0  0  0  0  0  0  0  0
    0.0000   -0.0000    0.0000 C   0  0  0  0  0  0  0  0  0  0  0  0
   -0.8000    1.3856    0.0000 C   0  0  0  0  0  0  0  0  0  0  0  0
    0.0000    2.7713    0.0000 H   0  0  0  0  0  0  0  0  0  0  0  0
   -2.4000    1.3856    0.0000 C   0  0  0  0  0  0  0  0  0  0  0  0
   -3.2000    2.7713    0.0000 H   0  0  0  0  0  0  0  0  0  0  0  0
   -3.2000   -0.0000    0.0000 C   0  0  0  0  0  0  0  0  0  0  0  0
   -4.8000   -0.0000    0.0000 Cl  0  0  0  0  0  0  0  0  0  0  0  0
   -2.4000   -1.3856    0.0000 C   0  0  0  0  0  0  0  0  0  0  0  0
   -3.2000   -2.7713    0.0000 Cl  0  0  0  0  0  0  0  0  0  0  0  0
   -0.8000   -1.3856    0.0000 C   0  0  0  0  0  0  0  0  0  0  0  0
    0.0000   -2.7713    0.0000 Cl  0  0  0  0  0  0  0  0  0  0  0  0
  1  2  2  0  0  0  0
  1  3  1  0  0  0  0
  1  4  1  0  0  0  0
  4  5  1  0  0  0  0
  5  6  1  0  0  0  0
  5  7  2  0  0  0  0
  7  8  1  0  0  0  0
  7  9  1  0  0  0  0
  9 10  1  0  0  0  0
  9 11  2  0  0  0  0
 11 12  1  0  0  0  0
 11 13  1  0  0  0  0
 13  4  2  0  0  0  0
 13 14  1  0  0  0  0
M  CHG  2   1   1   3  -1
M  END
> <ChemID>
100566

> <source_casrn>
17700-09-3

> <CAS>
17700-09-3

> <SMILES>
[O-][N+](=O)c1ccc(Cl)c(Cl)c1Cl

> <NAME>
2,3,4-TRICHLORONITROBENZENE

> <preferred_name>
2,3,4-Trichloronitrobenzene

> <iupac>
1,2,3-trichloro-4-nitrobenzene

> <MPID>
98475

> <dsstox_substance_id>
DTXSID0026202

> <Canonical_QSARr>
[O-][N+](=O)c1ccc(Cl)c(Cl)c1Cl

> <InChI_Code_QSARr>
InChI=1S/C6H2Cl3NO2/c7-3-1-2-4(10(11)12)6(9)5(3)8/h1-2H

> <InChI Key_QSARr>
BGKIECJVXXHLDP-UHFFFAOYSA-N

> <Salt_Solvent>
?

> <LogBCF>
2.2

$$$$
100567
  -INDIGO-08031719362D

 24 24  0  0  0  0  0  0  0  0999 V2000
    0.0001   -0.0000    0.0000 P   0  0  0  0  0  0  0  0  0  0  0  0
    1.3857    0.8000    0.0000 O   0  0  0  0  0  0  0  0  0  0  0  0
    2.7712   -0.0000    0.0000 C   0  0  0  0  0  0  0  0  0  0  0  0
    2.7712   -1.6000    0.0000 C   0  0  0  0  0  0  0  0  0  0  0  0
    1.3856   -2.4000    0.0000 H   0  0  0  0  0  0  0  0  0  0  0  0
    4.1569   -2.4000    0.0000 C   0  0  0  0  0  0  0  0  0  0  0  0
    4.1569   -4.0000    0.0000 Cl  0  0  0  0  0  0  0  0  0  0  0  0
    5.5425   -1.6000    0.0000 C   0  0  0  0  0  0  0  0  0  0  0  0
    6.9282   -2.4000    0.0000 I   0  0  0  0  0  0  0  0  0  0  0  0
    5.5425   -0.0000    0.0000 C   0  0  0  0  0  0  0  0  0  0  0  0
    6.9282    0.8000    0.0000 H   0  0  0  0  0  0  0  0  0  0  0  0
    4.1569    0.8000    0.0000 C   0  0  0  0  0  0  0  0  0  0  0  0
    4.1569    2.4000    0.0000 Cl  0  0  0  0  0  0  0  0  0  0  0  0
    0.0001    1.6000    0.0000 S   0  0  0  0  0  0  0  0  0  0  0  0
   -1.3856    0.8000    0.0000 O   0  0  0  0  0  0  0  0  0  0  0  0
   -2.7713   -0.0000    0.0000 C   0  0  0  0  0  0  0  0  0  0  0  0
   -4.1569    0.8000    0.0000 H   0  0  0  0  0  0  0  0  0  0  0  0
   -4.1569   -0.8000    0.0000 H   0  0  0  0  0  0  0  0  0  0  0  0
   -2.7713    1.6000    0.0000 H   0  0  0  0  0  0  0  0  0  0  0  0
   -1.3856   -0.8000    0.0000 O   0  0  0  0  0  0  0  0  0  0  0  0
   -1.3856   -2.4000    0.0000 C   0  0  0  0  0  0  0  0  0  0  0  0
   -1.3856   -4.0000    0.0000 H   0  0  0  0  0  0  0  0  0  0  0  0
   -2.7713   -3.2000    0.0000 H   0  0  0  0  0  0  0  0  0  0  0  0
    0.0001   -3.2000    0.0000 H   0  0  0  0  0  0  0  0  0  0  0  0
  1  2  1  0  0  0  0
  2  3  1  0  0  0  0
  3  4  1  0  0  0  0
  4  5  1  0  0  0  0
  4  6  2  0  0  0  0
  6  7  1  0  0  0  0
  6  8  1  0  0  0  0
  8  9  1  0  0  0  0
  8 10  2  0  0  0  0
 10 11  1  0  0  0  0
 10 12  1  0  0  0  0
 12  3  2  0  0  0  0
 12 13  1  0  0  0  0
  1 14  2  0  0  0  0
  1 15  1  0  0  0  0
 15 16  1  0  0  0  0
 16 17  1  0  0  0  0
 16 18  1  0  0  0  0
 16 19  1  0  0  0  0
  1 20  1  0  0  0  0
 20 21  1  0  0  0  0
 21 22  1  0  0  0  0
 21 23  1  0  0  0  0
 21 24  1  0  0  0  0
M  END
> <ChemID>
100567

> <source_casrn>
18181-70-9

> <CAS>
18181-70-9

> <SMILES>
COP(=S)(Oc1cc(Cl)c(I)cc1Cl)OC

> <NAME>
IODOFENPHOS

> <preferred_name>
Iodenphos

> <iupac>
O-(2,5-dichloro-4-iodophenyl) O,O-dimethyl phosphorothioate

> <MPID>
98476

> <dsstox_substance_id>
DTXSID8040278

> <Canonical_QSARr>
COP(=S)(Oc1cc(Cl)c(I)cc1Cl)OC

> <InChI_Code_QSARr>
InChI=1S/C8H8Cl2IO3PS/c1-12-15(16,13-2)14-8-4-5(9)7(11)3-6(8)10/h3-4H,1-2H3

> <InChI Key_QSARr>
LFVLUOAHQIVABZ-UHFFFAOYSA-N

> <Salt_Solvent>
?

> <LogBCF>
3.62

$$$$
100568
  -INDIGO-08031719362D

 14 14  0  0  0  0  0  0  0  0999 V2000
    2.4000   -1.3856    0.0000 O   0  0  0  0  0  0  0  0  0  0  0  0
    1.6000   -0.0000    0.0000 N   0  0  0  0  0  0  0  0  0  0  0  0
    2.4000    1.3856    0.0000 O   0  0  0  0  0  0  0  0  0  0  0  0
    0.0000   -0.0000    0.0000 C   0  0  0  0  0  0  0  0  0  0  0  0
   -0.8000    1.3856    0.0000 C   0  0  0  0  0  0  0  0  0  0  0  0
    0.0000    2.7713    0.0000 Cl  0  0  0  0  0  0  0  0  0  0  0  0
   -2.4000    1.3856    0.0000 C   0  0  0  0  0  0  0  0  0  0  0  0
   -3.2000    2.7713    0.0000 H   0  0  0  0  0  0  0  0  0  0  0  0
   -3.2000   -0.0000    0.0000 C   0  0  0  0  0  0  0  0  0  0  0  0
   -4.8000   -0.0000    0.0000 Cl  0  0  0  0  0  0  0  0  0  0  0  0
   -2.4000   -1.3856    0.0000 C   0  0  0  0  0  0  0  0  0  0  0  0
   -3.2000   -2.7713    0.0000 H   0  0  0  0  0  0  0  0  0  0  0  0
   -0.8000   -1.3856    0.0000 C   0  0  0  0  0  0  0  0  0  0  0  0
    0.0000   -2.7713    0.0000 Cl  0  0  0  0  0  0  0  0  0  0  0  0
  1  2  1  0  0  0  0
  2  3  2  0  0  0  0
  2  4  1  0  0  0  0
  4  5  1  0  0  0  0
  5  6  1  0  0  0  0
  5  7  2  0  0  0  0
  7  8  1  0  0  0  0
  7  9  1  0  0  0  0
  9 10  1  0  0  0  0
  9 11  2  0  0  0  0
 11 12  1  0  0  0  0
 11 13  1  0  0  0  0
 13  4  2  0  0  0  0
 13 14  1  0  0  0  0
M  CHG  2   1  -1   2   1
M  END
> <ChemID>
100568

> <source_casrn>
18708-70-8

> <CAS>
18708-70-8

> <SMILES>
[O-][N+](=O)c1c(Cl)cc(Cl)cc1Cl

> <NAME>
BENZENE, 1,3,5-TRICHLORO-2-NITRO-

> <preferred_name>
2,4,6-Trichloronitrobenzene

> <iupac>
1,3,5-trichloro-2-nitrobenzene

> <MPID>
98477

> <dsstox_substance_id>
DTXSID0026204

> <Canonical_QSARr>
[O-][N+](=O)c1c(Cl)cc(Cl)cc1Cl

> <InChI_Code_QSARr>
InChI=1S/C6H2Cl3NO2/c7-3-1-4(8)6(10(11)12)5(9)2-3/h1-2H

> <InChI Key_QSARr>
AEBJDOTVYMITIA-UHFFFAOYSA-N

> <Salt_Solvent>
?

> <LogBCF>
2.47

$$$$
100570
  -INDIGO-08031719362D

 22 24  0  0  0  0  0  0  0  0999 V2000
    1.3856    0.8000    0.0000 O   0  0  0  0  0  0  0  0  0  0  0  0
    2.7712   -0.0000    0.0000 C   0  0  0  0  0  0  0  0  0  0  0  0
    2.7712   -1.6000    0.0000 C   0  0  0  0  0  0  0  0  0  0  0  0
    4.1569   -2.4000    0.0000 C   0  0  0  0  0  0  0  0  0  0  0  0
    4.1569   -4.0000    0.0000 H   0  0  0  0  0  0  0  0  0  0  0  0
    5.5425   -1.6000    0.0000 C   0  0  0  0  0  0  0  0  0  0  0  0
    5.5425   -0.0000    0.0000 C   0  0  0  0  0  0  0  0  0  0  0  0
    4.1569    0.8000    0.0000 C   0  0  0  0  0  0  0  0  0  0  0  0
    4.1569    2.4000    0.0000 Cl  0  0  0  0  0  0  0  0  0  0  0  0
    6.9282    0.8000    0.0000 Cl  0  0  0  0  0  0  0  0  0  0  0  0
    6.9282   -2.4000    0.0000 Cl  0  0  0  0  0  0  0  0  0  0  0  0
    1.3856   -2.4000    0.0000 O   0  0  0  0  0  0  0  0  0  0  0  0
    0.0001   -1.6000    0.0000 C   0  0  0  0  0  0  0  0  0  0  0  0
    0.0001   -0.0000    0.0000 C   0  0  0  0  0  0  0  0  0  0  0  0
   -1.3856    0.8000    0.0000 C   0  0  0  0  0  0  0  0  0  0  0  0
   -2.7713   -0.0000    0.0000 C   0  0  0  0  0  0  0  0  0  0  0  0
   -2.7713   -1.6000    0.0000 C   0  0  0  0  0  0  0  0  0  0  0  0
   -1.3856   -2.4000    0.0000 C   0  0  0  0  0  0  0  0  0  0  0  0
   -1.3856   -4.0000    0.0000 H   0  0  0  0  0  0  0  0  0  0  0  0
   -4.1569   -2.4000    0.0000 Cl  0  0  0  0  0  0  0  0  0  0  0  0
   -4.1569    0.8000    0.0000 Cl  0  0  0  0  0  0  0  0  0  0  0  0
   -1.3856    2.4000    0.0000 Cl  0  0  0  0  0  0  0  0  0  0  0  0
  1  2  1  0  0  0  0
  2  3  1  0  0  0  0
  3  4  2  0  0  0  0
  4  5  1  0  0  0  0
  4  6  1  0  0  0  0
  6  7  2  0  0  0  0
  7  8  1  0  0  0  0
  8  2  2  0  0  0  0
  8  9  1  0  0  0  0
  7 10  1  0  0  0  0
  6 11  1  0  0  0  0
  3 12  1  0  0  0  0
 12 13  1  0  0  0  0
 13 14  1  0  0  0  0
 14  1  1  0  0  0  0
 14 15  2  0  0  0  0
 15 16  1  0  0  0  0
 16 17  2  0  0  0  0
 17 18  1  0  0  0  0
 18 13  2  0  0  0  0
 18 19  1  0  0  0  0
 17 20  1  0  0  0  0
 16 21  1  0  0  0  0
 15 22  1  0  0  0  0
M  END
> <ChemID>
100570

> <source_casrn>
19408-74-3

> <CAS>
19408-74-3

> <SMILES>
Clc1cc2Oc3cc(Cl)c(Cl)c(Cl)c3Oc2c(Cl)c1Cl

> <NAME>
1,2,3,7,8,9-HEXACHLORODIBENZO-P-DIOXIN

> <preferred_name>
Hexachlorodibenzo-p-dioxin

> <iupac>
1,2,3,7,8,9-hexachlorooxanthrene

> <MPID>
98479

> <dsstox_substance_id>
DTXSID6023781

> <Canonical_QSARr>
Clc1cc2Oc3cc(Cl)c(Cl)c(Cl)c3Oc2c(Cl)c1Cl

> <InChI_Code_QSARr>
InChI=1S/C12H2Cl6O2/c13-3-1-5-11(9(17)7(3)15)20-12-6(19-5)2-4(14)8(16)10(12)18/h1-2H

> <InChI Key_QSARr>
LGIRBUBHIWTVCK-UHFFFAOYSA-N

> <Salt_Solvent>
?

> <LogBCF>
3.92

$$$$
100571
  -INDIGO-08031719362D

 40 41  0  0  0  0  0  0  0  0999 V2000
   -4.1236   -0.3710    0.0000 N   0  0  0  0  0  0  0  0  0  0  0  0
   -2.6620   -1.0217    0.0000 N   0  0  0  0  0  0  0  0  0  0  0  0
   -1.5913    0.1673    0.0000 C   0  0  0  0  0  0  0  0  0  0  0  0
    0.0001    0.0000    0.0000 C   0  0  0  0  0  0  0  0  0  0  0  0
    1.5913   -0.1672    0.0000 C   0  0  0  0  0  0  0  0  0  0  0  0
    3.1825   -0.3344    0.0000 H   0  0  0  0  0  0  0  0  0  0  0  0
    2.5317    1.1272    0.0000 H   0  0  0  0  0  0  0  0  0  0  0  0
    2.2421   -1.6289    0.0000 H   0  0  0  0  0  0  0  0  0  0  0  0
    0.1672    1.5912    0.0000 C   0  0  0  0  0  0  0  0  0  0  0  0
    0.3346    3.1825    0.0000 H   0  0  0  0  0  0  0  0  0  0  0  0
    1.6289    2.2420    0.0000 H   0  0  0  0  0  0  0  0  0  0  0  0
   -1.1271    2.5316    0.0000 H   0  0  0  0  0  0  0  0  0  0  0  0
   -0.1672   -1.5913    0.0000 C   0  0  0  0  0  0  0  0  0  0  0  0
   -0.3346   -3.1824    0.0000 H   0  0  0  0  0  0  0  0  0  0  0  0
    1.1271   -2.5317    0.0000 H   0  0  0  0  0  0  0  0  0  0  0  0
   -1.6289   -2.2420    0.0000 H   0  0  0  0  0  0  0  0  0  0  0  0
   -2.3913    1.5529    0.0000 O   0  0  0  0  0  0  0  0  0  0  0  0
   -3.9563    1.2203    0.0000 C   0  0  0  0  0  0  0  0  0  0  0  0
   -5.1452    2.2908    0.0000 O   0  0  0  0  0  0  0  0  0  0  0  0
   -5.5090   -1.1710    0.0000 C   0  0  0  0  0  0  0  0  0  0  0  0
   -6.8947   -0.3710    0.0000 C   0  0  0  0  0  0  0  0  0  0  0  0
   -6.8947    1.2291    0.0000 H   0  0  0  0  0  0  0  0  0  0  0  0
   -8.2804   -1.1710    0.0000 C   0  0  0  0  0  0  0  0  0  0  0  0
   -9.6660   -0.3710    0.0000 O   0  0  0  0  0  0  0  0  0  0  0  0
  -11.0517   -1.1710    0.0000 C   0  0  0  0  0  0  0  0  0  0  0  0
  -10.2517   -2.5567    0.0000 H   0  0  0  0  0  0  0  0  0  0  0  0
  -12.4373   -1.9710    0.0000 C   0  0  0  0  0  0  0  0  0  0  0  0
  -13.8230   -2.7710    0.0000 H   0  0  0  0  0  0  0  0  0  0  0  0
  -13.8230   -1.1710    0.0000 H   0  0  0  0  0  0  0  0  0  0  0  0
  -12.4373   -3.5711    0.0000 H   0  0  0  0  0  0  0  0  0  0  0  0
  -11.8517    0.2147    0.0000 C   0  0  0  0  0  0  0  0  0  0  0  0
  -12.6517    1.6002    0.0000 H   0  0  0  0  0  0  0  0  0  0  0  0
  -11.0517    1.6002    0.0000 H   0  0  0  0  0  0  0  0  0  0  0  0
  -13.4517    0.2147    0.0000 H   0  0  0  0  0  0  0  0  0  0  0  0
   -8.2804   -2.7710    0.0000 C   0  0  0  0  0  0  0  0  0  0  0  0
   -9.6660   -3.5711    0.0000 Cl  0  0  0  0  0  0  0  0  0  0  0  0
   -6.8947   -3.5711    0.0000 C   0  0  0  0  0  0  0  0  0  0  0  0
   -6.8947   -5.1710    0.0000 H   0  0  0  0  0  0  0  0  0  0  0  0
   -5.5090   -2.7710    0.0000 C   0  0  0  0  0  0  0  0  0  0  0  0
   -4.1236   -3.5711    0.0000 Cl  0  0  0  0  0  0  0  0  0  0  0  0
  1  2  1  0  0  0  0
  2  3  2  0  0  0  0
  3  4  1  0  0  0  0
  4  5  1  0  0  0  0
  5  6  1  0  0  0  0
  5  7  1  0  0  0  0
  5  8  1  0  0  0  0
  4  9  1  0  0  0  0
  9 10  1  0  0  0  0
  9 11  1  0  0  0  0
  9 12  1  0  0  0  0
  4 13  1  0  0  0  0
 13 14  1  0  0  0  0
 13 15  1  0  0  0  0
 13 16  1  0  0  0  0
  3 17  1  0  0  0  0
 17 18  1  0  0  0  0
 18  1  1  0  0  0  0
 18 19  2  0  0  0  0
  1 20  1  0  0  0  0
 20 21  1  0  0  0  0
 21 22  1  0  0  0  0
 21 23  2  0  0  0  0
 23 24  1  0  0  0  0
 24 25  1  0  0  0  0
 25 26  1  0  0  0  0
 25 27  1  0  0  0  0
 27 28  1  0  0  0  0
 27 29  1  0  0  0  0
 27 30  1  0  0  0  0
 25 31  1  0  0  0  0
 31 32  1  0  0  0  0
 31 33  1  0  0  0  0
 31 34  1  0  0  0  0
 23 35  1  0  0  0  0
 35 36  1  0  0  0  0
 35 37  2  0  0  0  0
 37 38  1  0  0  0  0
 37 39  1  0  0  0  0
 39 20  2  0  0  0  0
 39 40  1  0  0  0  0
M  END
> <ChemID>
100571

> <source_casrn>
19666-30-9

> <CAS>
19666-30-9

> <SMILES>
CC(C)Oc1cc(c(Cl)cc1Cl)N1N=C(OC1=O)C(C)(C)C

> <NAME>
OXADIAZON

> <preferred_name>
Oxadiazon

> <iupac>
5-tert-butyl-3-[2,4-dichloro-5-(propan-2-yloxy)phenyl]-1,3,4-oxadiazol-2(3H)-one

> <MPID>
98480

> <dsstox_substance_id>
DTXSID3024239

> <Canonical_QSARr>
CC(C)Oc1cc(c(Cl)cc1Cl)N1N=C(OC1=O)C(C)(C)C

> <InChI_Code_QSARr>
InChI=1S/C15H18Cl2N2O3/c1-8(2)21-12-7-11(9(16)6-10(12)17)19-14(20)22-13(18-19)15(3,4)5/h6-8H,1-5H3

> <InChI Key_QSARr>
CHNUNORXWHYHNE-UHFFFAOYSA-N

> <Salt_Solvent>
?

> <LogBCF>
3.08

$$$$
100572
  -INDIGO-08031719362D

 18 19  0  0  0  0  0  0  0  0999 V2000
   -4.1569    0.8000    0.0000 Cl  0  0  0  0  0  0  0  0  0  0  0  0
   -2.7712   -0.0000    0.0000 C   0  0  0  0  0  0  0  0  0  0  0  0
   -2.7713   -1.6000    0.0000 C   0  0  0  0  0  0  0  0  0  0  0  0
   -4.1569   -2.4000    0.0000 Cl  0  0  0  0  0  0  0  0  0  0  0  0
   -1.3856   -2.4000    0.0000 C   0  0  0  0  0  0  0  0  0  0  0  0
   -1.3856   -4.0000    0.0000 Cl  0  0  0  0  0  0  0  0  0  0  0  0
    0.0001   -1.6000    0.0000 C   0  0  0  0  0  0  0  0  0  0  0  0
    0.0001   -0.0000    0.0000 C   0  0  0  0  0  0  0  0  0  0  0  0
    1.3856    0.8000    0.0000 C   0  0  0  0  0  0  0  0  0  0  0  0
    1.3856    2.4000    0.0000 H   0  0  0  0  0  0  0  0  0  0  0  0
    2.7713   -0.0000    0.0000 C   0  0  0  0  0  0  0  0  0  0  0  0
    4.1569    0.8000    0.0000 H   0  0  0  0  0  0  0  0  0  0  0  0
    2.7713   -1.6000    0.0000 C   0  0  0  0  0  0  0  0  0  0  0  0
    4.1569   -2.4000    0.0000 H   0  0  0  0  0  0  0  0  0  0  0  0
    1.3856   -2.4000    0.0000 C   0  0  0  0  0  0  0  0  0  0  0  0
    1.3856   -4.0000    0.0000 H   0  0  0  0  0  0  0  0  0  0  0  0
   -1.3856    0.8000    0.0000 C   0  0  0  0  0  0  0  0  0  0  0  0
   -1.3856    2.4000    0.0000 Cl  0  0  0  0  0  0  0  0  0  0  0  0
  1  2  1  0  0  0  0
  2  3  1  0  0  0  0
  3  4  1  0  0  0  0
  3  5  2  0  0  0  0
  5  6  1  0  0  0  0
  5  7  1  0  0  0  0
  7  8  1  0  0  0  0
  8  9  2  0  0  0  0
  9 10  1  0  0  0  0
  9 11  1  0  0  0  0
 11 12  1  0  0  0  0
 11 13  2  0  0  0  0
 13 14  1  0  0  0  0
 13 15  1  0  0  0  0
 15  7  2  0  0  0  0
 15 16  1  0  0  0  0
  8 17  1  0  0  0  0
 17  2  2  0  0  0  0
 17 18  1  0  0  0  0
M  END
> <ChemID>
100572

> <source_casrn>
20020-02-4

> <CAS>
20020-02-4

> <SMILES>
Clc1c2ccccc2c(Cl)c(Cl)c1Cl

> <NAME>
1,2,3,4-TETRACHLORONAPHTHALENE

> <preferred_name>
1,2,3,4-Tetrachloronaphthalene

> <iupac>
1,2,3,4-tetrachloronaphthalene

> <MPID>
98481

> <dsstox_substance_id>
DTXSID5026095

> <Canonical_QSARr>
Clc1c2ccccc2c(Cl)c(Cl)c1Cl

> <InChI_Code_QSARr>
InChI=1S/C10H4Cl4/c11-7-5-3-1-2-4-6(5)8(12)10(14)9(7)13/h1-4H

> <InChI Key_QSARr>
NAQWICRLNQSPPW-UHFFFAOYSA-N

> <Salt_Solvent>
?

> <LogBCF>
3.7

$$$$
100574
  -INDIGO-08031719362D

 30 31  0  0  0  0  0  0  0  0999 V2000
    0.0001   -0.0000    0.0000 P   0  0  0  0  0  0  0  0  0  0  0  0
    1.3856    0.8000    0.0000 O   0  0  0  0  0  0  0  0  0  0  0  0
    2.7713   -0.0000    0.0000 C   0  0  0  0  0  0  0  0  0  0  0  0
    4.1570    0.8000    0.0000 C   0  0  0  0  0  0  0  0  0  0  0  0
    4.1570    2.4001    0.0000 H   0  0  0  0  0  0  0  0  0  0  0  0
    5.5425   -0.0000    0.0000 C   0  0  0  0  0  0  0  0  0  0  0  0
    6.9282    0.8000    0.0000 Cl  0  0  0  0  0  0  0  0  0  0  0  0
    5.5425   -1.6000    0.0000 C   0  0  0  0  0  0  0  0  0  0  0  0
    6.9282   -2.4000    0.0000 Br  0  0  0  0  0  0  0  0  0  0  0  0
    4.1570   -2.4000    0.0000 C   0  0  0  0  0  0  0  0  0  0  0  0
    4.1570   -4.0000    0.0000 H   0  0  0  0  0  0  0  0  0  0  0  0
    2.7713   -1.6000    0.0000 C   0  0  0  0  0  0  0  0  0  0  0  0
    1.3856   -2.4000    0.0000 Cl  0  0  0  0  0  0  0  0  0  0  0  0
    1.3856   -0.8000    0.0000 S   0  0  0  0  0  0  0  0  0  0  0  0
   -1.3856   -0.8000    0.0000 C   0  0  0  0  0  0  0  0  0  0  0  0
   -1.3856   -2.4000    0.0000 C   0  0  0  0  0  0  0  0  0  0  0  0
    0.0001   -3.2001    0.0000 H   0  0  0  0  0  0  0  0  0  0  0  0
   -2.7713   -3.2001    0.0000 C   0  0  0  0  0  0  0  0  0  0  0  0
   -2.7713   -4.8000    0.0000 H   0  0  0  0  0  0  0  0  0  0  0  0
   -4.1569   -2.4000    0.0000 C   0  0  0  0  0  0  0  0  0  0  0  0
   -5.5426   -3.2001    0.0000 H   0  0  0  0  0  0  0  0  0  0  0  0
   -4.1569   -0.8000    0.0000 C   0  0  0  0  0  0  0  0  0  0  0  0
   -5.5426   -0.0000    0.0000 H   0  0  0  0  0  0  0  0  0  0  0  0
   -2.7713   -0.0000    0.0000 C   0  0  0  0  0  0  0  0  0  0  0  0
   -2.7713    1.6000    0.0000 H   0  0  0  0  0  0  0  0  0  0  0  0
    0.0001    1.6000    0.0000 O   0  0  0  0  0  0  0  0  0  0  0  0
    1.3856    2.4001    0.0000 C   0  0  0  0  0  0  0  0  0  0  0  0
    1.3856    4.0000    0.0000 H   0  0  0  0  0  0  0  0  0  0  0  0
    2.7713    3.2000    0.0000 H   0  0  0  0  0  0  0  0  0  0  0  0
    0.0001    3.2000    0.0000 H   0  0  0  0  0  0  0  0  0  0  0  0
  1  2  1  0  0  0  0
  2  3  1  0  0  0  0
  3  4  1  0  0  0  0
  4  5  1  0  0  0  0
  4  6  2  0  0  0  0
  6  7  1  0  0  0  0
  6  8  1  0  0  0  0
  8  9  1  0  0  0  0
  8 10  2  0  0  0  0
 10 11  1  0  0  0  0
 10 12  1  0  0  0  0
 12  3  2  0  0  0  0
 12 13  1  0  0  0  0
  1 14  2  0  0  0  0
  1 15  1  0  0  0  0
 15 16  1  0  0  0  0
 16 17  1  0  0  0  0
 16 18  2  0  0  0  0
 18 19  1  0  0  0  0
 18 20  1  0  0  0  0
 20 21  1  0  0  0  0
 20 22  2  0  0  0  0
 22 23  1  0  0  0  0
 22 24  1  0  0  0  0
 24 15  2  0  0  0  0
 24 25  1  0  0  0  0
  1 26  1  0  0  0  0
 26 27  1  0  0  0  0
 27 28  1  0  0  0  0
 27 29  1  0  0  0  0
 27 30  1  0  0  0  0
M  END
> <ChemID>
100574

> <source_casrn>
21609-90-5

> <CAS>
21609-90-5

> <SMILES>
COP(=S)(Oc1cc(Cl)c(Br)cc1Cl)c1ccccc1

> <NAME>
LEPTOPHOS

> <preferred_name>
Leptophos

> <iupac>
O-(4-bromo-2,5-dichlorophenyl) O-methyl phenylphosphonothioate

> <MPID>
98483

> <dsstox_substance_id>
DTXSID3040279

> <Canonical_QSARr>
COP(=S)(Oc1cc(Cl)c(Br)cc1Cl)c1ccccc1

> <InChI_Code_QSARr>
InChI=1S/C13H10BrCl2O2PS/c1-17-19(20,9-5-3-2-4-6-9)18-13-8-11(15)10(14)7-12(13)16/h2-8H,1H3

> <InChI Key_QSARr>
CVRALZAYCYJELZ-UHFFFAOYSA-N

> <Salt_Solvent>
?

> <LogBCF>
3.78

$$$$
100575
  -INDIGO-08031719362D

 43 45  0  0  0  0  0  0  0  0999 V2000
   -0.0000   -0.0000    0.0000 C   0  0  0  0  0  0  0  0  0  0  0  0
    1.3855    0.7999    0.0000 C   0  0  0  0  0  0  0  0  0  0  0  0
    1.3855    2.4000    0.0000 H   0  0  0  0  0  0  0  0  0  0  0  0
    2.7714   -0.0000    0.0000 C   0  0  0  0  0  0  0  0  0  0  0  0
    4.1569    0.7999    0.0000 Cl  0  0  0  0  0  0  0  0  0  0  0  0
    2.7714   -1.6000    0.0000 C   0  0  0  0  0  0  0  0  0  0  0  0
    4.1569   -2.3999    0.0000 H   0  0  0  0  0  0  0  0  0  0  0  0
    1.3855   -2.3999    0.0000 C   0  0  0  0  0  0  0  0  0  0  0  0
    1.3855   -4.0000    0.0000 H   0  0  0  0  0  0  0  0  0  0  0  0
   -0.0000   -1.6000    0.0000 C   0  0  0  0  0  0  0  0  0  0  0  0
   -1.3856   -2.3999    0.0000 O   0  0  0  0  0  0  0  0  0  0  0  0
   -1.9329   -3.9035    0.0000 C   0  0  0  0  0  0  0  0  0  0  0  0
   -3.5087   -4.1813    0.0000 C   0  0  0  0  0  0  0  0  0  0  0  0
   -4.5370   -2.9557    0.0000 N   0  0  0  0  0  0  0  0  0  0  0  0
   -3.9897   -1.4522    0.0000 H   0  0  0  0  0  0  0  0  0  0  0  0
   -6.1127   -3.2336    0.0000 C   0  0  0  0  0  0  0  0  0  0  0  0
   -7.1411   -2.0078    0.0000 N   0  0  0  0  0  0  0  0  0  0  0  0
   -6.5940   -0.5044    0.0000 H   0  0  0  0  0  0  0  0  0  0  0  0
   -8.7168   -2.2856    0.0000 C   0  0  0  0  0  0  0  0  0  0  0  0
   -9.2642   -3.7892    0.0000 C   0  0  0  0  0  0  0  0  0  0  0  0
   -8.2355   -5.0148    0.0000 H   0  0  0  0  0  0  0  0  0  0  0  0
  -10.8399   -4.0670    0.0000 C   0  0  0  0  0  0  0  0  0  0  0  0
  -11.3870   -5.5706    0.0000 Cl  0  0  0  0  0  0  0  0  0  0  0  0
  -11.8682   -2.8414    0.0000 C   0  0  0  0  0  0  0  0  0  0  0  0
  -13.4439   -3.1193    0.0000 Cl  0  0  0  0  0  0  0  0  0  0  0  0
  -11.3212   -1.3379    0.0000 C   0  0  0  0  0  0  0  0  0  0  0  0
  -12.3495   -0.1122    0.0000 H   0  0  0  0  0  0  0  0  0  0  0  0
   -9.7454   -1.0600    0.0000 C   0  0  0  0  0  0  0  0  0  0  0  0
   -9.1981    0.4435    0.0000 H   0  0  0  0  0  0  0  0  0  0  0  0
   -6.6598   -4.7371    0.0000 O   0  0  0  0  0  0  0  0  0  0  0  0
   -4.0557   -5.6849    0.0000 C   0  0  0  0  0  0  0  0  0  0  0  0
   -5.6315   -5.9627    0.0000 H   0  0  0  0  0  0  0  0  0  0  0  0
   -3.0274   -6.9105    0.0000 C   0  0  0  0  0  0  0  0  0  0  0  0
   -3.5745   -8.4140    0.0000 Cl  0  0  0  0  0  0  0  0  0  0  0  0
   -1.4517   -6.6326    0.0000 C   0  0  0  0  0  0  0  0  0  0  0  0
   -0.4233   -7.8583    0.0000 H   0  0  0  0  0  0  0  0  0  0  0  0
   -0.9043   -5.1291    0.0000 C   0  0  0  0  0  0  0  0  0  0  0  0
    0.6714   -4.8514    0.0000 H   0  0  0  0  0  0  0  0  0  0  0  0
   -1.3856    0.7999    0.0000 S   0  0  0  0  0  0  0  0  0  0  0  0
   -0.5855    2.1856    0.0000 O   0  0  0  0  0  0  0  0  0  0  0  0
   -2.7712    1.6001    0.0000 O   0  0  0  0  0  0  0  0  0  0  0  0
   -2.7712    3.2000    0.0000 H   0  0  0  0  0  0  0  0  0  0  0  0
   -2.1857   -0.5856    0.0000 O   0  0  0  0  0  0  0  0  0  0  0  0
  1  2  1  0  0  0  0
  2  3  1  0  0  0  0
  2  4  2  0  0  0  0
  4  5  1  0  0  0  0
  4  6  1  0  0  0  0
  6  7  1  0  0  0  0
  6  8  2  0  0  0  0
  8  9  1  0  0  0  0
  8 10  1  0  0  0  0
 10  1  2  0  0  0  0
 10 11  1  0  0  0  0
 11 12  1  0  0  0  0
 12 13  1  0  0  0  0
 13 14  1  0  0  0  0
 14 15  1  0  0  0  0
 14 16  1  0  0  0  0
 16 17  1  0  0  0  0
 17 18  1  0  0  0  0
 17 19  1  0  0  0  0
 19 20  1  0  0  0  0
 20 21  1  0  0  0  0
 20 22  2  0  0  0  0
 22 23  1  0  0  0  0
 22 24  1  0  0  0  0
 24 25  1  0  0  0  0
 24 26  2  0  0  0  0
 26 27  1  0  0  0  0
 26 28  1  0  0  0  0
 28 19  2  0  0  0  0
 28 29  1  0  0  0  0
 16 30  2  0  0  0  0
 13 31  2  0  0  0  0
 31 32  1  0  0  0  0
 31 33  1  0  0  0  0
 33 34  1  0  0  0  0
 33 35  2  0  0  0  0
 35 36  1  0  0  0  0
 35 37  1  0  0  0  0
 37 12  2  0  0  0  0
 37 38  1  0  0  0  0
  1 39  1  0  0  0  0
 39 40  2  0  0  0  0
 39 41  1  0  0  0  0
 41 42  1  0  0  0  0
 39 43  2  0  0  0  0
M  END
> <ChemID>
100575

> <source_casrn>
24019-05-4

> <CAS>
24019-05-4

> <SMILES>
OS(=O)(=O)c1cc(Cl)ccc1Oc1ccc(Cl)cc1NC(=O)Nc1cc(Cl)c(Cl)cc1

> <NAME>
Sulcofuron

> <preferred_name>
Sulcofuron

> <iupac>
5-chloro-2-[4-chloro-2-[(3,4-dichlorophenyl)carbamoylamino]phenoxy]benzenesulfonic acid

> <MPID>
98484

> <dsstox_substance_id>
DTXSID9058656

> <Canonical_QSARr>
OS(=O)(=O)c1cc(Cl)ccc1Oc1ccc(Cl)cc1NC(=O)Nc1cc(Cl)c(Cl)cc1

> <InChI_Code_QSARr>
InChI=1S/C19H12Cl4N2O5S/c20-10-1-5-16(30-17-6-2-11(21)8-18(17)31(27,28)29)15(7-10)25-19(26)24-12-3-4-13(22)14(23)9-12/h1-9H,(H2,24,25,26)(H,27,28,29)

> <InChI Key_QSARr>
MKUMTCOTMQPYTQ-UHFFFAOYSA-N

> <Salt_Solvent>
?

> <LogBCF>
1.87

$$$$
100579
  -INDIGO-08031719362D

 46 46  0  0  0  0  0  0  0  0999 V2000
    0.2528   -2.8891    0.0000 P   0  0  0  0  0  0  0  0  0  0  0  0
    1.8528   -2.8891    0.0000 O   0  0  0  0  0  0  0  0  0  0  0  0
    2.6528   -4.2748    0.0000 C   0  0  0  0  0  0  0  0  0  0  0  0
    4.2529   -4.2748    0.0000 C   0  0  0  0  0  0  0  0  0  0  0  0
    5.0529   -2.8891    0.0000 C   0  0  0  0  0  0  0  0  0  0  0  0
    6.6529   -2.8891    0.0000 O   0  0  0  0  0  0  0  0  0  0  0  0
    7.4527   -1.5035    0.0000 C   0  0  0  0  0  0  0  0  0  0  0  0
    6.0672   -0.7034    0.0000 H   0  0  0  0  0  0  0  0  0  0  0  0
    8.2527   -0.1178    0.0000 C   0  0  0  0  0  0  0  0  0  0  0  0
    9.0527    1.2677    0.0000 H   0  0  0  0  0  0  0  0  0  0  0  0
    9.8527   -0.1178    0.0000 H   0  0  0  0  0  0  0  0  0  0  0  0
    7.4527    1.2677    0.0000 H   0  0  0  0  0  0  0  0  0  0  0  0
    8.8384   -2.3035    0.0000 C   0  0  0  0  0  0  0  0  0  0  0  0
   10.2241   -3.1036    0.0000 H   0  0  0  0  0  0  0  0  0  0  0  0
    8.8384   -3.9035    0.0000 H   0  0  0  0  0  0  0  0  0  0  0  0
   10.2241   -1.5035    0.0000 H   0  0  0  0  0  0  0  0  0  0  0  0
    4.2529   -1.5035    0.0000 O   0  0  0  0  0  0  0  0  0  0  0  0
    5.0529   -5.6605    0.0000 C   0  0  0  0  0  0  0  0  0  0  0  0
    6.6529   -5.6605    0.0000 H   0  0  0  0  0  0  0  0  0  0  0  0
    4.2529   -7.0460    0.0000 C   0  0  0  0  0  0  0  0  0  0  0  0
    5.0529   -8.4317    0.0000 H   0  0  0  0  0  0  0  0  0  0  0  0
    2.6528   -7.0460    0.0000 C   0  0  0  0  0  0  0  0  0  0  0  0
    1.8528   -8.4317    0.0000 H   0  0  0  0  0  0  0  0  0  0  0  0
    1.8528   -5.6605    0.0000 C   0  0  0  0  0  0  0  0  0  0  0  0
    0.2528   -5.6605    0.0000 H   0  0  0  0  0  0  0  0  0  0  0  0
   -0.5472   -1.5035    0.0000 N   0  0  0  0  0  0  0  0  0  0  0  0
   -2.1230   -1.7814    0.0000 H   0  0  0  0  0  0  0  0  0  0  0  0
    0.0000   -0.0000    0.0000 C   0  0  0  0  0  0  0  0  0  0  0  0
    1.5036   -0.5472    0.0000 H   0  0  0  0  0  0  0  0  0  0  0  0
    0.5472    1.5035    0.0000 C   0  0  0  0  0  0  0  0  0  0  0  0
    1.0944    3.0070    0.0000 H   0  0  0  0  0  0  0  0  0  0  0  0
   -0.4811    2.7291    0.0000 H   0  0  0  0  0  0  0  0  0  0  0  0
    2.1230    1.7814    0.0000 H   0  0  0  0  0  0  0  0  0  0  0  0
   -1.5035    0.5472    0.0000 C   0  0  0  0  0  0  0  0  0  0  0  0
   -3.0071    1.0945    0.0000 H   0  0  0  0  0  0  0  0  0  0  0  0
   -1.7813    2.1230    0.0000 H   0  0  0  0  0  0  0  0  0  0  0  0
   -2.7291   -0.4812    0.0000 H   0  0  0  0  0  0  0  0  0  0  0  0
    1.0528   -1.5035    0.0000 S   0  0  0  0  0  0  0  0  0  0  0  0
   -1.3472   -2.8891    0.0000 O   0  0  0  0  0  0  0  0  0  0  0  0
   -2.1472   -4.2748    0.0000 C   0  0  0  0  0  0  0  0  0  0  0  0
   -1.9383   -5.8610    0.0000 H   0  0  0  0  0  0  0  0  0  0  0  0
   -0.8779   -5.2487    0.0000 H   0  0  0  0  0  0  0  0  0  0  0  0
   -3.7472   -4.2748    0.0000 C   0  0  0  0  0  0  0  0  0  0  0  0
   -4.5472   -5.6605    0.0000 H   0  0  0  0  0  0  0  0  0  0  0  0
   -5.3472   -4.2748    0.0000 H   0  0  0  0  0  0  0  0  0  0  0  0
   -2.9472   -5.6605    0.0000 H   0  0  0  0  0  0  0  0  0  0  0  0
  1  2  1  0  0  0  0
  2  3  1  0  0  0  0
  3  4  1  0  0  0  0
  4  5  1  0  0  0  0
  5  6  1  0  0  0  0
  6  7  1  0  0  0  0
  7  8  1  0  0  0  0
  7  9  1  0  0  0  0
  9 10  1  0  0  0  0
  9 11  1  0  0  0  0
  9 12  1  0  0  0  0
  7 13  1  0  0  0  0
 13 14  1  0  0  0  0
 13 15  1  0  0  0  0
 13 16  1  0  0  0  0
  5 17  2  0  0  0  0
  4 18  2  0  0  0  0
 18 19  1  0  0  0  0
 18 20  1  0  0  0  0
 20 21  1  0  0  0  0
 20 22  2  0  0  0  0
 22 23  1  0  0  0  0
 22 24  1  0  0  0  0
 24  3  2  0  0  0  0
 24 25  1  0  0  0  0
  1 26  1  0  0  0  0
 26 27  1  0  0  0  0
 26 28  1  0  0  0  0
 28 29  1  0  0  0  0
 28 30  1  0  0  0  0
 30 31  1  0  0  0  0
 30 32  1  0  0  0  0
 30 33  1  0  0  0  0
 28 34  1  0  0  0  0
 34 35  1  0  0  0  0
 34 36  1  0  0  0  0
 34 37  1  0  0  0  0
  1 38  2  0  0  0  0
  1 39  1  0  0  0  0
 39 40  1  0  0  0  0
 40 41  1  0  0  0  0
 40 42  1  0  0  0  0
 40 43  1  0  0  0  0
 43 44  1  0  0  0  0
 43 45  1  0  0  0  0
 43 46  1  0  0  0  0
M  END
> <ChemID>
100579

> <source_casrn>
25311-71-1

> <CAS>
25311-71-1

> <SMILES>
CCOP(=S)(NC(C)C)Oc1ccccc1C(=O)OC(C)C

> <NAME>
ISOFENPHOS

> <preferred_name>
Isofenphos

> <iupac>
propan-2-yl 2-{[ethoxy(propan-2-ylamino)phosphorothioyl]oxy}benzoate

> <MPID>
98485

> <dsstox_substance_id>
DTXSID8032417

> <Canonical_QSARr>
CCOP(=S)(NC(C)C)Oc1ccccc1C(=O)OC(C)C

> <InChI_Code_QSARr>
InChI=1S/C15H24NO4PS/c1-6-18-21(22,16-11(2)3)20-14-10-8-7-9-13(14)15(17)19-12(4)5/h7-12H,6H2,1-5H3,(H,16,22)

> <InChI Key_QSARr>
HOQADATXFBOEGG-UHFFFAOYSA-N

> <Salt_Solvent>
?

> <LogBCF>
2.12

$$$$
100591
  -INDIGO-08031719362D

 78 78  0  0  0  0  0  0  0  0999 V2000
  -11.2001    8.3139    0.0000 C   0  0  0  0  0  0  0  0  0  0  0  0
   -9.6000    8.3139    0.0000 H   0  0  0  0  0  0  0  0  0  0  0  0
  -11.9999    9.6994    0.0000 C   0  0  0  0  0  0  0  0  0  0  0  0
  -11.2001   11.0851    0.0000 H   0  0  0  0  0  0  0  0  0  0  0  0
  -13.6001    9.6994    0.0000 C   0  0  0  0  0  0  0  0  0  0  0  0
  -14.3999   11.0851    0.0000 H   0  0  0  0  0  0  0  0  0  0  0  0
  -14.3999    8.3139    0.0000 C   0  0  0  0  0  0  0  0  0  0  0  0
  -16.0000    8.3139    0.0000 H   0  0  0  0  0  0  0  0  0  0  0  0
  -13.6001    6.9281    0.0000 C   0  0  0  0  0  0  0  0  0  0  0  0
  -14.3999    5.5426    0.0000 C   0  0  0  0  0  0  0  0  0  0  0  0
  -13.6001    4.1568    0.0000 O   0  0  0  0  0  0  0  0  0  0  0  0
  -16.0000    5.5426    0.0000 O   0  0  0  0  0  0  0  0  0  0  0  0
  -16.7998    4.1568    0.0000 C   0  0  0  0  0  0  0  0  0  0  0  0
  -15.5307    3.1830    0.0000 H   0  0  0  0  0  0  0  0  0  0  0  0
  -16.5910    2.5706    0.0000 H   0  0  0  0  0  0  0  0  0  0  0  0
  -18.4000    4.1568    0.0000 C   0  0  0  0  0  0  0  0  0  0  0  0
  -19.6696    5.1309    0.0000 H   0  0  0  0  0  0  0  0  0  0  0  0
  -18.6088    5.7433    0.0000 H   0  0  0  0  0  0  0  0  0  0  0  0
  -19.1998    2.7713    0.0000 C   0  0  0  0  0  0  0  0  0  0  0  0
  -17.9307    1.7972    0.0000 H   0  0  0  0  0  0  0  0  0  0  0  0
  -18.9909    1.1851    0.0000 H   0  0  0  0  0  0  0  0  0  0  0  0
  -20.7999    2.7713    0.0000 C   0  0  0  0  0  0  0  0  0  0  0  0
  -22.0695    3.7454    0.0000 H   0  0  0  0  0  0  0  0  0  0  0  0
  -21.0088    4.3576    0.0000 H   0  0  0  0  0  0  0  0  0  0  0  0
  -21.6002    1.3856    0.0000 C   0  0  0  0  0  0  0  0  0  0  0  0
  -20.3306    0.4117    0.0000 H   0  0  0  0  0  0  0  0  0  0  0  0
  -21.3914   -0.2007    0.0000 H   0  0  0  0  0  0  0  0  0  0  0  0
  -23.1999    1.3856    0.0000 C   0  0  0  0  0  0  0  0  0  0  0  0
  -24.4694    2.3597    0.0000 H   0  0  0  0  0  0  0  0  0  0  0  0
  -23.4087    2.9720    0.0000 H   0  0  0  0  0  0  0  0  0  0  0  0
  -24.0002    0.0000    0.0000 C   0  0  0  0  0  0  0  0  0  0  0  0
  -22.7306   -0.9740    0.0000 H   0  0  0  0  0  0  0  0  0  0  0  0
  -23.7913   -1.5862    0.0000 H   0  0  0  0  0  0  0  0  0  0  0  0
  -25.5998    0.0000    0.0000 C   0  0  0  0  0  0  0  0  0  0  0  0
  -25.3223    1.5757    0.0000 H   0  0  0  0  0  0  0  0  0  0  0  0
  -27.1756    0.2779    0.0000 C   0  0  0  0  0  0  0  0  0  0  0  0
  -28.7514    0.5557    0.0000 H   0  0  0  0  0  0  0  0  0  0  0  0
  -28.2042   -0.9477    0.0000 H   0  0  0  0  0  0  0  0  0  0  0  0
  -27.7228    1.7814    0.0000 H   0  0  0  0  0  0  0  0  0  0  0  0
  -25.8778   -1.5758    0.0000 C   0  0  0  0  0  0  0  0  0  0  0  0
  -26.1557   -3.1514    0.0000 H   0  0  0  0  0  0  0  0  0  0  0  0
  -24.6520   -2.6042    0.0000 H   0  0  0  0  0  0  0  0  0  0  0  0
  -27.3815   -2.1230    0.0000 H   0  0  0  0  0  0  0  0  0  0  0  0
  -11.9999    6.9281    0.0000 C   0  0  0  0  0  0  0  0  0  0  0  0
  -11.2001    5.5426    0.0000 C   0  0  0  0  0  0  0  0  0  0  0  0
   -9.6000    5.5426    0.0000 O   0  0  0  0  0  0  0  0  0  0  0  0
   -8.8002    4.1568    0.0000 C   0  0  0  0  0  0  0  0  0  0  0  0
   -9.0090    2.5706    0.0000 H   0  0  0  0  0  0  0  0  0  0  0  0
  -10.0693    3.1830    0.0000 H   0  0  0  0  0  0  0  0  0  0  0  0
   -7.2000    4.1568    0.0000 C   0  0  0  0  0  0  0  0  0  0  0  0
   -6.9912    5.7433    0.0000 H   0  0  0  0  0  0  0  0  0  0  0  0
   -5.9305    5.1309    0.0000 H   0  0  0  0  0  0  0  0  0  0  0  0
   -6.4002    2.7713    0.0000 C   0  0  0  0  0  0  0  0  0  0  0  0
   -6.6091    1.1851    0.0000 H   0  0  0  0  0  0  0  0  0  0  0  0
   -7.6693    1.7972    0.0000 H   0  0  0  0  0  0  0  0  0  0  0  0
   -4.8001    2.7713    0.0000 C   0  0  0  0  0  0  0  0  0  0  0  0
   -4.5912    4.3576    0.0000 H   0  0  0  0  0  0  0  0  0  0  0  0
   -3.5305    3.7454    0.0000 H   0  0  0  0  0  0  0  0  0  0  0  0
   -3.9998    1.3856    0.0000 C   0  0  0  0  0  0  0  0  0  0  0  0
   -4.2086   -0.2007    0.0000 H   0  0  0  0  0  0  0  0  0  0  0  0
   -5.2694    0.4117    0.0000 H   0  0  0  0  0  0  0  0  0  0  0  0
   -2.4001    1.3856    0.0000 C   0  0  0  0  0  0  0  0  0  0  0  0
   -2.1913    2.9720    0.0000 H   0  0  0  0  0  0  0  0  0  0  0  0
   -1.1306    2.3597    0.0000 H   0  0  0  0  0  0  0  0  0  0  0  0
   -1.5998    0.0000    0.0000 C   0  0  0  0  0  0  0  0  0  0  0  0
   -1.8087   -1.5862    0.0000 H   0  0  0  0  0  0  0  0  0  0  0  0
   -2.8694   -0.9740    0.0000 H   0  0  0  0  0  0  0  0  0  0  0  0
   -0.0002    0.0000    0.0000 C   0  0  0  0  0  0  0  0  0  0  0  0
   -0.2777    1.5757    0.0000 H   0  0  0  0  0  0  0  0  0  0  0  0
    1.5756    0.2779    0.0000 C   0  0  0  0  0  0  0  0  0  0  0  0
    3.1514    0.5557    0.0000 H   0  0  0  0  0  0  0  0  0  0  0  0
    2.6042   -0.9477    0.0000 H   0  0  0  0  0  0  0  0  0  0  0  0
    2.1228    1.7814    0.0000 H   0  0  0  0  0  0  0  0  0  0  0  0
    0.2778   -1.5758    0.0000 C   0  0  0  0  0  0  0  0  0  0  0  0
    0.5557   -3.1514    0.0000 H   0  0  0  0  0  0  0  0  0  0  0  0
   -0.9480   -2.6042    0.0000 H   0  0  0  0  0  0  0  0  0  0  0  0
    1.7815   -2.1230    0.0000 H   0  0  0  0  0  0  0  0  0  0  0  0
  -11.9999    4.1568    0.0000 O   0  0  0  0  0  0  0  0  0  0  0  0
  1  2  1  0  0  0  0
  1  3  1  0  0  0  0
  3  4  1  0  0  0  0
  3  5  2  0  0  0  0
  5  6  1  0  0  0  0
  5  7  1  0  0  0  0
  7  8  1  0  0  0  0
  7  9  2  0  0  0  0
  9 10  1  0  0  0  0
 10 11  2  0  0  0  0
 10 12  1  0  0  0  0
 12 13  1  0  0  0  0
 13 14  1  0  0  0  0
 13 15  1  0  0  0  0
 13 16  1  0  0  0  0
 16 17  1  0  0  0  0
 16 18  1  0  0  0  0
 16 19  1  0  0  0  0
 19 20  1  0  0  0  0
 19 21  1  0  0  0  0
 19 22  1  0  0  0  0
 22 23  1  0  0  0  0
 22 24  1  0  0  0  0
 22 25  1  0  0  0  0
 25 26  1  0  0  0  0
 25 27  1  0  0  0  0
 25 28  1  0  0  0  0
 28 29  1  0  0  0  0
 28 30  1  0  0  0  0
 28 31  1  0  0  0  0
 31 32  1  0  0  0  0
 31 33  1  0  0  0  0
 31 34  1  0  0  0  0
 34 35  1  0  0  0  0
 34 36  1  0  0  0  0
 36 37  1  0  0  0  0
 36 38  1  0  0  0  0
 36 39  1  0  0  0  0
 34 40  1  0  0  0  0
 40 41  1  0  0  0  0
 40 42  1  0  0  0  0
 40 43  1  0  0  0  0
  9 44  1  0  0  0  0
 44  1  2  0  0  0  0
 44 45  1  0  0  0  0
 45 46  1  0  0  0  0
 46 47  1  0  0  0  0
 47 48  1  0  0  0  0
 47 49  1  0  0  0  0
 47 50  1  0  0  0  0
 50 51  1  0  0  0  0
 50 52  1  0  0  0  0
 50 53  1  0  0  0  0
 53 54  1  0  0  0  0
 53 55  1  0  0  0  0
 53 56  1  0  0  0  0
 56 57  1  0  0  0  0
 56 58  1  0  0  0  0
 56 59  1  0  0  0  0
 59 60  1  0  0  0  0
 59 61  1  0  0  0  0
 59 62  1  0  0  0  0
 62 63  1  0  0  0  0
 62 64  1  0  0  0  0
 62 65  1  0  0  0  0
 65 66  1  0  0  0  0
 65 67  1  0  0  0  0
 65 68  1  0  0  0  0
 68 69  1  0  0  0  0
 68 70  1  0  0  0  0
 70 71  1  0  0  0  0
 70 72  1  0  0  0  0
 70 73  1  0  0  0  0
 68 74  1  0  0  0  0
 74 75  1  0  0  0  0
 74 76  1  0  0  0  0
 74 77  1  0  0  0  0
 45 78  2  0  0  0  0
M  END
> <ChemID>
100591

> <source_casrn>
26761-40-0

> <CAS>
26761-40-0

> <SMILES>
CC(C)CCCCCCCOC(=O)c1ccccc1C(=O)OCCCCCCCC(C)C

> <NAME>
DIISODECYL PHTHALATE

> <preferred_name>
bis(8-Methylnonyl) phthalate

> <iupac>
bis(8-methylnonyl) benzene-1,2-dicarboxylate

> <MPID>
98487

> <dsstox_substance_id>
DTXSID4025082

> <Canonical_QSARr>
CC(C)CCCCCCCOC(=O)c1ccccc1C(=O)OCCCCCCCC(C)C

> <InChI_Code_QSARr>
InChI=1S/C28H46O4/c1-23(2)17-11-7-5-9-15-21-31-27(29)25-19-13-14-20-26(25)28(30)32-22-16-10-6-8-12-18-24(3)4/h13-14,19-20,23-24H,5-12,15-18,21-22H2,1-4H3

> <InChI Key_QSARr>
ZVFDTKUVRCTHQE-UHFFFAOYSA-N

> <Salt_Solvent>
?

> <LogBCF>
1.16

$$$$
100594
  -INDIGO-08031719362D

 22 22  0  0  0  0  0  0  0  0999 V2000
   -1.6000   -0.0000    0.0000 C   0  0  0  0  0  0  0  0  0  0  0  0
   -0.0000   -0.0000    0.0000 C   0  0  0  0  0  0  0  0  0  0  0  0
    0.8000    1.3856    0.0000 C   0  0  0  0  0  0  0  0  0  0  0  0
    0.5912    2.9720    0.0000 H   0  0  0  0  0  0  0  0  0  0  0  0
   -0.4694    2.3596    0.0000 H   0  0  0  0  0  0  0  0  0  0  0  0
    2.4001    1.3856    0.0000 C   0  0  0  0  0  0  0  0  0  0  0  0
    3.2000    2.7713    0.0000 H   0  0  0  0  0  0  0  0  0  0  0  0
    4.0000    1.3856    0.0000 H   0  0  0  0  0  0  0  0  0  0  0  0
    3.2000   -0.0000    0.0000 H   0  0  0  0  0  0  0  0  0  0  0  0
    0.8000   -1.3857    0.0000 C   0  0  0  0  0  0  0  0  0  0  0  0
    2.4001   -1.3857    0.0000 H   0  0  0  0  0  0  0  0  0  0  0  0
   -0.0000   -2.7713    0.0000 C   0  0  0  0  0  0  0  0  0  0  0  0
    0.8000   -4.1569    0.0000 H   0  0  0  0  0  0  0  0  0  0  0  0
   -1.6000   -2.7713    0.0000 C   0  0  0  0  0  0  0  0  0  0  0  0
   -2.4000   -4.1569    0.0000 H   0  0  0  0  0  0  0  0  0  0  0  0
   -2.4000   -1.3857    0.0000 C   0  0  0  0  0  0  0  0  0  0  0  0
   -4.0000   -1.3857    0.0000 H   0  0  0  0  0  0  0  0  0  0  0  0
   -2.4000    1.3856    0.0000 C   0  0  0  0  0  0  0  0  0  0  0  0
   -1.6000    2.7713    0.0000 H   0  0  0  0  0  0  0  0  0  0  0  0
   -4.0000    1.3856    0.0000 C   0  0  0  0  0  0  0  0  0  0  0  0
   -4.8000    2.7713    0.0000 H   0  0  0  0  0  0  0  0  0  0  0  0
   -4.8000   -0.0000    0.0000 H   0  0  0  0  0  0  0  0  0  0  0  0
  1  2  1  0  0  0  0
  2  3  1  0  0  0  0
  3  4  1  0  0  0  0
  3  5  1  0  0  0  0
  3  6  1  0  0  0  0
  6  7  1  0  0  0  0
  6  8  1  0  0  0  0
  6  9  1  0  0  0  0
  2 10  2  0  0  0  0
 10 11  1  0  0  0  0
 10 12  1  0  0  0  0
 12 13  1  0  0  0  0
 12 14  2  0  0  0  0
 14 15  1  0  0  0  0
 14 16  1  0  0  0  0
 16  1  2  0  0  0  0
 16 17  1  0  0  0  0
  1 18  1  0  0  0  0
 18 19  1  0  0  0  0
 18 20  2  0  0  0  0
 20 21  1  0  0  0  0
 20 22  1  0  0  0  0
M  END
> <ChemID>
100594

> <source_casrn>
28106-30-1

> <CAS>
28106-30-1

> <SMILES>
C=Cc1ccc(cc1)CC

> <NAME>
ETHYLSTYRENE

> <preferred_name>
Ethylstyrene

> <iupac>
1-ethenyl-2-ethylbenzene

> <MPID>
98488

> <dsstox_substance_id>
DTXSID5027938

> <Canonical_QSARr>
CCc1ccccc1C=C

> <InChI_Code_QSARr>
InChI=1S/C10H12/c1-3-9-7-5-6-8-10(9)4-2/h3,5-8H,1,4H2,2H3

> <InChI Key_QSARr>
VTPNYMSKBPZSTF-UHFFFAOYSA-N

> <Salt_Solvent>
?

> <LogBCF>
2.69

$$$$
100595
  -INDIGO-08031719362D

 32 32  0  0  0  0  0  0  0  0999 V2000
   -1.3856    0.8000    0.0000 C   0  0  0  0  0  0  0  0  0  0  0  0
   -1.3856    2.4000    0.0000 O   0  0  0  0  0  0  0  0  0  0  0  0
   -2.7712   -0.0000    0.0000 S   0  0  0  0  0  0  0  0  0  0  0  0
   -4.1569    0.8000    0.0000 C   0  0  0  0  0  0  0  0  0  0  0  0
   -4.7692    2.2782    0.0000 H   0  0  0  0  0  0  0  0  0  0  0  0
   -3.5446    2.2782    0.0000 H   0  0  0  0  0  0  0  0  0  0  0  0
   -5.5427   -0.0000    0.0000 C   0  0  0  0  0  0  0  0  0  0  0  0
   -6.9282    0.8000    0.0000 C   0  0  0  0  0  0  0  0  0  0  0  0
   -6.9282    2.4000    0.0000 H   0  0  0  0  0  0  0  0  0  0  0  0
   -8.3139   -0.0000    0.0000 C   0  0  0  0  0  0  0  0  0  0  0  0
   -9.6995    0.8000    0.0000 H   0  0  0  0  0  0  0  0  0  0  0  0
   -8.3139   -1.6000    0.0000 C   0  0  0  0  0  0  0  0  0  0  0  0
   -9.6995   -2.4000    0.0000 Cl  0  0  0  0  0  0  0  0  0  0  0  0
   -6.9282   -2.4000    0.0000 C   0  0  0  0  0  0  0  0  0  0  0  0
   -6.9282   -4.0000    0.0000 H   0  0  0  0  0  0  0  0  0  0  0  0
   -5.5427   -1.6000    0.0000 C   0  0  0  0  0  0  0  0  0  0  0  0
   -4.1569   -2.4000    0.0000 H   0  0  0  0  0  0  0  0  0  0  0  0
    0.0001   -0.0000    0.0000 N   0  0  0  0  0  0  0  0  0  0  0  0
    1.3856    0.8000    0.0000 C   0  0  0  0  0  0  0  0  0  0  0  0
    0.7733    2.2782    0.0000 H   0  0  0  0  0  0  0  0  0  0  0  0
    1.9980    2.2782    0.0000 H   0  0  0  0  0  0  0  0  0  0  0  0
    2.7714   -0.0000    0.0000 C   0  0  0  0  0  0  0  0  0  0  0  0
    4.1569    0.8000    0.0000 H   0  0  0  0  0  0  0  0  0  0  0  0
    4.1569   -0.8000    0.0000 H   0  0  0  0  0  0  0  0  0  0  0  0
    2.7714    1.6000    0.0000 H   0  0  0  0  0  0  0  0  0  0  0  0
    0.0001   -1.6000    0.0000 C   0  0  0  0  0  0  0  0  0  0  0  0
   -0.9740   -2.8693    0.0000 H   0  0  0  0  0  0  0  0  0  0  0  0
   -1.5863   -1.8089    0.0000 H   0  0  0  0  0  0  0  0  0  0  0  0
    1.3856   -2.4000    0.0000 C   0  0  0  0  0  0  0  0  0  0  0  0
    1.3856   -4.0000    0.0000 H   0  0  0  0  0  0  0  0  0  0  0  0
    2.7714   -3.2000    0.0000 H   0  0  0  0  0  0  0  0  0  0  0  0
    0.0001   -3.2000    0.0000 H   0  0  0  0  0  0  0  0  0  0  0  0
  1  2  2  0  0  0  0
  1  3  1  0  0  0  0
  3  4  1  0  0  0  0
  4  5  1  0  0  0  0
  4  6  1  0  0  0  0
  4  7  1  0  0  0  0
  7  8  1  0  0  0  0
  8  9  1  0  0  0  0
  8 10  2  0  0  0  0
 10 11  1  0  0  0  0
 10 12  1  0  0  0  0
 12 13  1  0  0  0  0
 12 14  2  0  0  0  0
 14 15  1  0  0  0  0
 14 16  1  0  0  0  0
 16  7  2  0  0  0  0
 16 17  1  0  0  0  0
  1 18  1  0  0  0  0
 18 19  1  0  0  0  0
 19 20  1  0  0  0  0
 19 21  1  0  0  0  0
 19 22  1  0  0  0  0
 22 23  1  0  0  0  0
 22 24  1  0  0  0  0
 22 25  1  0  0  0  0
 18 26  1  0  0  0  0
 26 27  1  0  0  0  0
 26 28  1  0  0  0  0
 26 29  1  0  0  0  0
 29 30  1  0  0  0  0
 29 31  1  0  0  0  0
 29 32  1  0  0  0  0
M  END
> <ChemID>
100595

> <source_casrn>
28249-77-6

> <CAS>
28249-77-6

> <SMILES>
CCN(CC)C(=O)SCc1ccc(Cl)cc1

> <NAME>
THIOBENCARB

> <preferred_name>
Thiobencarb

> <iupac>
S-(4-chlorobenzyl) diethylcarbamothioate

> <MPID>
98489

> <dsstox_substance_id>
DTXSID6024337

> <Canonical_QSARr>
CCN(CC)C(=O)SCc1ccc(Cl)cc1

> <InChI_Code_QSARr>
InChI=1S/C12H16ClNOS/c1-3-14(4-2)12(15)16-9-10-5-7-11(13)8-6-10/h5-8H,3-4,9H2,1-2H3

> <InChI Key_QSARr>
QHTQREMOGMZHJV-UHFFFAOYSA-N

> <Salt_Solvent>
?

> <LogBCF>
2.23

$$$$
100602
  -INDIGO-08031719362D

 22 24  0  0  0  0  0  0  0  0999 V2000
    0.0001   -0.0000    0.0000 C   0  0  0  0  0  0  0  0  0  0  0  0
    1.3857    0.8000    0.0000 O   0  0  0  0  0  0  0  0  0  0  0  0
    2.7712   -0.0000    0.0000 C   0  0  0  0  0  0  0  0  0  0  0  0
    4.1569    0.8000    0.0000 C   0  0  0  0  0  0  0  0  0  0  0  0
    4.1569    2.4000    0.0000 H   0  0  0  0  0  0  0  0  0  0  0  0
    5.5425   -0.0000    0.0000 C   0  0  0  0  0  0  0  0  0  0  0  0
    6.9282    0.8000    0.0000 H   0  0  0  0  0  0  0  0  0  0  0  0
    5.5425   -1.6000    0.0000 C   0  0  0  0  0  0  0  0  0  0  0  0
    6.9282   -2.4000    0.0000 H   0  0  0  0  0  0  0  0  0  0  0  0
    4.1569   -2.4000    0.0000 C   0  0  0  0  0  0  0  0  0  0  0  0
    4.1569   -4.0000    0.0000 H   0  0  0  0  0  0  0  0  0  0  0  0
    2.7712   -1.6000    0.0000 C   0  0  0  0  0  0  0  0  0  0  0  0
    1.3857   -2.4000    0.0000 O   0  0  0  0  0  0  0  0  0  0  0  0
    0.0001   -1.6000    0.0000 C   0  0  0  0  0  0  0  0  0  0  0  0
   -1.3856   -2.4000    0.0000 C   0  0  0  0  0  0  0  0  0  0  0  0
   -1.3856   -4.0000    0.0000 Cl  0  0  0  0  0  0  0  0  0  0  0  0
   -2.7713   -1.6000    0.0000 C   0  0  0  0  0  0  0  0  0  0  0  0
   -4.1569   -2.4000    0.0000 Cl  0  0  0  0  0  0  0  0  0  0  0  0
   -2.7713   -0.0000    0.0000 C   0  0  0  0  0  0  0  0  0  0  0  0
   -4.1569    0.8000    0.0000 Cl  0  0  0  0  0  0  0  0  0  0  0  0
   -1.3856    0.8000    0.0000 C   0  0  0  0  0  0  0  0  0  0  0  0
   -1.3856    2.4000    0.0000 Cl  0  0  0  0  0  0  0  0  0  0  0  0
  1  2  1  0  0  0  0
  2  3  1  0  0  0  0
  3  4  1  0  0  0  0
  4  5  1  0  0  0  0
  4  6  2  0  0  0  0
  6  7  1  0  0  0  0
  6  8  1  0  0  0  0
  8  9  1  0  0  0  0
  8 10  2  0  0  0  0
 10 11  1  0  0  0  0
 10 12  1  0  0  0  0
 12  3  2  0  0  0  0
 12 13  1  0  0  0  0
 13 14  1  0  0  0  0
 14  1  1  0  0  0  0
 14 15  2  0  0  0  0
 15 16  1  0  0  0  0
 15 17  1  0  0  0  0
 17 18  1  0  0  0  0
 17 19  2  0  0  0  0
 19 20  1  0  0  0  0
 19 21  1  0  0  0  0
 21  1  2  0  0  0  0
 21 22  1  0  0  0  0
M  END
> <ChemID>
100602

> <source_casrn>
30746-58-8

> <CAS>
30746-58-8

> <SMILES>
Clc1c2Oc3ccccc3Oc2c(Cl)c(Cl)c1Cl

> <NAME>
1,2,3,4-TETRACHLORODIBENZO-P-DIOXIN

> <preferred_name>
1,2,3,4-Tetrachlorodibenzo-p-dioxin

> <iupac>
1,2,3,4-tetrachlorooxanthrene

> <MPID>
98491

> <dsstox_substance_id>
DTXSID7074030

> <Canonical_QSARr>
Clc1c2Oc3ccccc3Oc2c(Cl)c(Cl)c1Cl

> <InChI_Code_QSARr>
InChI=1S/C12H4Cl4O2/c13-7-8(14)10(16)12-11(9(7)15)17-5-3-1-2-4-6(5)18-12/h1-4H

> <InChI Key_QSARr>
DJHHDLMTUOLVHY-UHFFFAOYSA-N

> <Salt_Solvent>
?

> <LogBCF>
3.46

$$$$
100603
  -INDIGO-08031719362D

 22 23  0  0  0  0  0  0  0  0999 V2000
   -0.0001    0.0000    0.0000 C   0  0  0  0  0  0  0  0  0  0  0  0
    1.6001   -0.0000    0.0000 C   0  0  0  0  0  0  0  0  0  0  0  0
    2.4001   -1.3856    0.0000 C   0  0  0  0  0  0  0  0  0  0  0  0
    1.6001   -2.7713    0.0000 H   0  0  0  0  0  0  0  0  0  0  0  0
    4.0000   -1.3856    0.0000 C   0  0  0  0  0  0  0  0  0  0  0  0
    4.8000   -2.7713    0.0000 Cl  0  0  0  0  0  0  0  0  0  0  0  0
    4.8000    0.0000    0.0000 C   0  0  0  0  0  0  0  0  0  0  0  0
    6.4000    0.0000    0.0000 Cl  0  0  0  0  0  0  0  0  0  0  0  0
    4.0000    1.3856    0.0000 C   0  0  0  0  0  0  0  0  0  0  0  0
    4.8000    2.7713    0.0000 H   0  0  0  0  0  0  0  0  0  0  0  0
    2.4001    1.3856    0.0000 C   0  0  0  0  0  0  0  0  0  0  0  0
    1.6001    2.7713    0.0000 H   0  0  0  0  0  0  0  0  0  0  0  0
   -0.8001    1.3856    0.0000 C   0  0  0  0  0  0  0  0  0  0  0  0
   -0.0001    2.7713    0.0000 Cl  0  0  0  0  0  0  0  0  0  0  0  0
   -2.4000    1.3856    0.0000 C   0  0  0  0  0  0  0  0  0  0  0  0
   -3.2000    2.7713    0.0000 H   0  0  0  0  0  0  0  0  0  0  0  0
   -3.2000    0.0000    0.0000 C   0  0  0  0  0  0  0  0  0  0  0  0
   -4.8000   -0.0000    0.0000 H   0  0  0  0  0  0  0  0  0  0  0  0
   -2.4000   -1.3856    0.0000 C   0  0  0  0  0  0  0  0  0  0  0  0
   -3.2000   -2.7713    0.0000 Cl  0  0  0  0  0  0  0  0  0  0  0  0
   -0.8001   -1.3856    0.0000 C   0  0  0  0  0  0  0  0  0  0  0  0
   -0.0001   -2.7713    0.0000 H   0  0  0  0  0  0  0  0  0  0  0  0
  1  2  1  0  0  0  0
  2  3  1  0  0  0  0
  3  4  1  0  0  0  0
  3  5  2  0  0  0  0
  5  6  1  0  0  0  0
  5  7  1  0  0  0  0
  7  8  1  0  0  0  0
  7  9  2  0  0  0  0
  9 10  1  0  0  0  0
  9 11  1  0  0  0  0
 11  2  2  0  0  0  0
 11 12  1  0  0  0  0
  1 13  1  0  0  0  0
 13 14  1  0  0  0  0
 13 15  2  0  0  0  0
 15 16  1  0  0  0  0
 15 17  1  0  0  0  0
 17 18  1  0  0  0  0
 17 19  2  0  0  0  0
 19 20  1  0  0  0  0
 19 21  1  0  0  0  0
 21  1  2  0  0  0  0
 21 22  1  0  0  0  0
M  END
> <ChemID>
100603

> <source_casrn>
32598-11-1

> <CAS>
32598-11-1

> <SMILES>
Clc1cc(-c2cc(Cl)c(Cl)cc2)c(Cl)cc1

> <NAME>
2,3',4',5-TETRACHLOROBIPHENYL

> <preferred_name>
2,3',4',5-Tetrachlorobiphenyl

> <iupac>
2,3',4',5-tetrachlorobiphenyl

> <MPID>
98492

> <dsstox_substance_id>
DTXSID3038309

> <Canonical_QSARr>
Clc1cc(-c2cc(Cl)c(Cl)cc2)c(Cl)cc1

> <InChI_Code_QSARr>
InChI=1S/C12H6Cl4/c13-8-2-4-10(14)9(6-8)7-1-3-11(15)12(16)5-7/h1-6H

> <InChI Key_QSARr>
KENZYIHFBRWMOD-UHFFFAOYSA-N

> <Salt_Solvent>
?

> <LogBCF>
5.08

$$$$
100604
  -INDIGO-08031719362D

 22 23  0  0  0  0  0  0  0  0999 V2000
   -0.0001    0.0000    0.0000 C   0  0  0  0  0  0  0  0  0  0  0  0
    1.6001   -0.0000    0.0000 C   0  0  0  0  0  0  0  0  0  0  0  0
    2.4001   -1.3856    0.0000 C   0  0  0  0  0  0  0  0  0  0  0  0
    1.6001   -2.7713    0.0000 H   0  0  0  0  0  0  0  0  0  0  0  0
    4.0000   -1.3856    0.0000 C   0  0  0  0  0  0  0  0  0  0  0  0
    4.8000   -2.7713    0.0000 Cl  0  0  0  0  0  0  0  0  0  0  0  0
    4.8000    0.0000    0.0000 C   0  0  0  0  0  0  0  0  0  0  0  0
    6.4000    0.0000    0.0000 Cl  0  0  0  0  0  0  0  0  0  0  0  0
    4.0000    1.3856    0.0000 C   0  0  0  0  0  0  0  0  0  0  0  0
    4.8000    2.7713    0.0000 H   0  0  0  0  0  0  0  0  0  0  0  0
    2.4001    1.3856    0.0000 C   0  0  0  0  0  0  0  0  0  0  0  0
    1.6001    2.7713    0.0000 H   0  0  0  0  0  0  0  0  0  0  0  0
   -0.8001    1.3856    0.0000 C   0  0  0  0  0  0  0  0  0  0  0  0
   -0.0001    2.7713    0.0000 H   0  0  0  0  0  0  0  0  0  0  0  0
   -2.4000    1.3856    0.0000 C   0  0  0  0  0  0  0  0  0  0  0  0
   -3.2000    2.7713    0.0000 Cl  0  0  0  0  0  0  0  0  0  0  0  0
   -3.2000    0.0000    0.0000 C   0  0  0  0  0  0  0  0  0  0  0  0
   -4.8000   -0.0000    0.0000 Cl  0  0  0  0  0  0  0  0  0  0  0  0
   -2.4000   -1.3856    0.0000 C   0  0  0  0  0  0  0  0  0  0  0  0
   -3.2000   -2.7713    0.0000 H   0  0  0  0  0  0  0  0  0  0  0  0
   -0.8001   -1.3856    0.0000 C   0  0  0  0  0  0  0  0  0  0  0  0
   -0.0001   -2.7713    0.0000 H   0  0  0  0  0  0  0  0  0  0  0  0
  1  2  1  0  0  0  0
  2  3  1  0  0  0  0
  3  4  1  0  0  0  0
  3  5  2  0  0  0  0
  5  6  1  0  0  0  0
  5  7  1  0  0  0  0
  7  8  1  0  0  0  0
  7  9  2  0  0  0  0
  9 10  1  0  0  0  0
  9 11  1  0  0  0  0
 11  2  2  0  0  0  0
 11 12  1  0  0  0  0
  1 13  1  0  0  0  0
 13 14  1  0  0  0  0
 13 15  2  0  0  0  0
 15 16  1  0  0  0  0
 15 17  1  0  0  0  0
 17 18  1  0  0  0  0
 17 19  2  0  0  0  0
 19 20  1  0  0  0  0
 19 21  1  0  0  0  0
 21  1  2  0  0  0  0
 21 22  1  0  0  0  0
M  END
> <ChemID>
100604

> <source_casrn>
32598-13-3

> <CAS>
32598-13-3

> <SMILES>
Clc1ccc(cc1Cl)-c1cc(Cl)c(Cl)cc1

> <NAME>
3,3',4,4'-TETRACHLOROBIPHENYL

> <preferred_name>
3,3',4,4'-Tetrachlorobinphenyl

> <iupac>
3,3',4,4'-tetrachlorobiphenyl

> <MPID>
98493

> <dsstox_substance_id>
DTXSID5022514

> <Canonical_QSARr>
Clc1ccc(cc1Cl)-c1cc(Cl)c(Cl)cc1

> <InChI_Code_QSARr>
InChI=1S/C12H6Cl4/c13-9-3-1-7(5-11(9)15)8-2-4-10(14)12(16)6-8/h1-6H

> <InChI Key_QSARr>
UQMGJOKDKOLIDP-UHFFFAOYSA-N

> <Salt_Solvent>
?

> <LogBCF>
4.62

$$$$
100606
  -INDIGO-08031719362D

 22 23  0  0  0  0  0  0  0  0999 V2000
    0.0001   -0.0000    0.0000 C   0  0  0  0  0  0  0  0  0  0  0  0
    0.8001   -1.3856    0.0000 C   0  0  0  0  0  0  0  0  0  0  0  0
    0.0001   -2.7713    0.0000 H   0  0  0  0  0  0  0  0  0  0  0  0
    2.4000   -1.3856    0.0000 C   0  0  0  0  0  0  0  0  0  0  0  0
    3.2000   -2.7713    0.0000 Cl  0  0  0  0  0  0  0  0  0  0  0  0
    3.2000   -0.0000    0.0000 C   0  0  0  0  0  0  0  0  0  0  0  0
    4.8000    0.0000    0.0000 Cl  0  0  0  0  0  0  0  0  0  0  0  0
    2.4000    1.3856    0.0000 C   0  0  0  0  0  0  0  0  0  0  0  0
    3.2000    2.7713    0.0000 Cl  0  0  0  0  0  0  0  0  0  0  0  0
    0.8001    1.3856    0.0000 C   0  0  0  0  0  0  0  0  0  0  0  0
    0.0001    2.7713    0.0000 H   0  0  0  0  0  0  0  0  0  0  0  0
   -1.6001    0.0000    0.0000 C   0  0  0  0  0  0  0  0  0  0  0  0
   -2.4001    1.3856    0.0000 C   0  0  0  0  0  0  0  0  0  0  0  0
   -1.6001    2.7713    0.0000 H   0  0  0  0  0  0  0  0  0  0  0  0
   -4.0000    1.3856    0.0000 C   0  0  0  0  0  0  0  0  0  0  0  0
   -4.8000    2.7713    0.0000 Cl  0  0  0  0  0  0  0  0  0  0  0  0
   -4.8000    0.0000    0.0000 C   0  0  0  0  0  0  0  0  0  0  0  0
   -6.4000    0.0000    0.0000 Cl  0  0  0  0  0  0  0  0  0  0  0  0
   -4.0000   -1.3856    0.0000 C   0  0  0  0  0  0  0  0  0  0  0  0
   -4.8000   -2.7713    0.0000 Cl  0  0  0  0  0  0  0  0  0  0  0  0
   -2.4001   -1.3856    0.0000 C   0  0  0  0  0  0  0  0  0  0  0  0
   -1.6001   -2.7713    0.0000 H   0  0  0  0  0  0  0  0  0  0  0  0
  1  2  1  0  0  0  0
  2  3  1  0  0  0  0
  2  4  2  0  0  0  0
  4  5  1  0  0  0  0
  4  6  1  0  0  0  0
  6  7  1  0  0  0  0
  6  8  2  0  0  0  0
  8  9  1  0  0  0  0
  8 10  1  0  0  0  0
 10  1  2  0  0  0  0
 10 11  1  0  0  0  0
  1 12  1  0  0  0  0
 12 13  1  0  0  0  0
 13 14  1  0  0  0  0
 13 15  2  0  0  0  0
 15 16  1  0  0  0  0
 15 17  1  0  0  0  0
 17 18  1  0  0  0  0
 17 19  2  0  0  0  0
 19 20  1  0  0  0  0
 19 21  1  0  0  0  0
 21 12  2  0  0  0  0
 21 22  1  0  0  0  0
M  END
> <ChemID>
100606

> <source_casrn>
32774-16-6

> <CAS>
32774-16-6

> <SMILES>
Clc1cc(cc(Cl)c1Cl)-c1cc(Cl)c(Cl)c(Cl)c1

> <NAME>
3,3',4,4',5,5'-PCB

> <preferred_name>
3,3',4,4',5,5'-Hexachlorobiphenyl

> <iupac>
3,3',4,4',5,5'-hexachlorobiphenyl

> <MPID>
98495

> <dsstox_substance_id>
DTXSID2038314

> <Canonical_QSARr>
Clc1cc(cc(Cl)c1Cl)-c1cc(Cl)c(Cl)c(Cl)c1

> <InChI_Code_QSARr>
InChI=1S/C12H4Cl6/c13-7-1-5(2-8(14)11(7)17)6-3-9(15)12(18)10(16)4-6/h1-4H

> <InChI Key_QSARr>
ZHLICBPIXDOFFG-UHFFFAOYSA-N

> <Salt_Solvent>
?

> <LogBCF>
5.97

$$$$
100607
  -INDIGO-08031719362D

 29 30  0  0  0  0  0  0  0  0999 V2000
    1.3857    2.4000    0.0000 C   0  0  0  0  0  0  0  0  0  0  0  0
    2.7713    3.2001    0.0000 H   0  0  0  0  0  0  0  0  0  0  0  0
    1.3857    4.0000    0.0000 H   0  0  0  0  0  0  0  0  0  0  0  0
    2.7713    1.5999    0.0000 H   0  0  0  0  0  0  0  0  0  0  0  0
    1.3857    0.8000    0.0000 O   0  0  0  0  0  0  0  0  0  0  0  0
   -0.0001    0.0001    0.0000 C   0  0  0  0  0  0  0  0  0  0  0  0
   -1.3857    0.8000    0.0000 C   0  0  0  0  0  0  0  0  0  0  0  0
   -1.3857    2.4000    0.0000 H   0  0  0  0  0  0  0  0  0  0  0  0
   -2.7713    0.0001    0.0000 C   0  0  0  0  0  0  0  0  0  0  0  0
   -4.1568    0.8000    0.0000 O   0  0  0  0  0  0  0  0  0  0  0  0
   -5.7326    0.5222    0.0000 C   0  0  0  0  0  0  0  0  0  0  0  0
   -6.2799   -0.9814    0.0000 C   0  0  0  0  0  0  0  0  0  0  0  0
   -5.2513   -2.2070    0.0000 H   0  0  0  0  0  0  0  0  0  0  0  0
   -7.8555   -1.2592    0.0000 C   0  0  0  0  0  0  0  0  0  0  0  0
   -8.4028   -2.7627    0.0000 H   0  0  0  0  0  0  0  0  0  0  0  0
   -8.8839   -0.0335    0.0000 C   0  0  0  0  0  0  0  0  0  0  0  0
  -10.4597   -0.3113    0.0000 Cl  0  0  0  0  0  0  0  0  0  0  0  0
   -8.3368    1.4701    0.0000 C   0  0  0  0  0  0  0  0  0  0  0  0
   -9.3652    2.6957    0.0000 H   0  0  0  0  0  0  0  0  0  0  0  0
   -6.7610    1.7479    0.0000 C   0  0  0  0  0  0  0  0  0  0  0  0
   -6.2139    3.2513    0.0000 Cl  0  0  0  0  0  0  0  0  0  0  0  0
   -2.7713   -1.5999    0.0000 C   0  0  0  0  0  0  0  0  0  0  0  0
   -4.1568   -2.4000    0.0000 H   0  0  0  0  0  0  0  0  0  0  0  0
   -1.3857   -2.4000    0.0000 C   0  0  0  0  0  0  0  0  0  0  0  0
   -1.3857   -4.0000    0.0000 H   0  0  0  0  0  0  0  0  0  0  0  0
   -0.0001   -1.5999    0.0000 C   0  0  0  0  0  0  0  0  0  0  0  0
    1.3857   -2.4000    0.0000 N   0  0  0  0  0  0  0  0  0  0  0  0
    1.3857   -4.0000    0.0000 O   0  0  0  0  0  0  0  0  0  0  0  0
    2.7713   -1.5999    0.0000 O   0  0  0  0  0  0  0  0  0  0  0  0
  1  2  1  0  0  0  0
  1  3  1  0  0  0  0
  1  4  1  0  0  0  0
  1  5  1  0  0  0  0
  5  6  1  0  0  0  0
  6  7  1  0  0  0  0
  7  8  1  0  0  0  0
  7  9  2  0  0  0  0
  9 10  1  0  0  0  0
 10 11  1  0  0  0  0
 11 12  1  0  0  0  0
 12 13  1  0  0  0  0
 12 14  2  0  0  0  0
 14 15  1  0  0  0  0
 14 16  1  0  0  0  0
 16 17  1  0  0  0  0
 16 18  2  0  0  0  0
 18 19  1  0  0  0  0
 18 20  1  0  0  0  0
 20 11  2  0  0  0  0
 20 21  1  0  0  0  0
  9 22  1  0  0  0  0
 22 23  1  0  0  0  0
 22 24  2  0  0  0  0
 24 25  1  0  0  0  0
 24 26  1  0  0  0  0
 26  6  2  0  0  0  0
 26 27  1  0  0  0  0
 27 28  1  0  0  0  0
 27 29  2  0  0  0  0
M  CHG  2  27   1  28  -1
M  END
> <ChemID>
100607

> <source_casrn>
32861-85-1

> <CAS>
32861-85-1

> <SMILES>
COc1cc(ccc1[N+]([O-])=O)Oc1ccc(Cl)cc1Cl

> <NAME>
CHLOMETHOXYNIL

> <preferred_name>
Chlomethoxyfen

> <iupac>
2,4-dichloro-1-(3-methoxy-4-nitrophenoxy)benzene

> <MPID>
98496

> <dsstox_substance_id>
DTXSID6058055

> <Canonical_QSARr>
COc1cc(ccc1[N+]([O-])=O)Oc1ccc(Cl)cc1Cl

> <InChI_Code_QSARr>
InChI=1S/C13H9Cl2NO4/c1-19-13-7-9(3-4-11(13)16(17)18)20-12-5-2-8(14)6-10(12)15/h2-7H,1H3

> <InChI Key_QSARr>
DXXVCXKMSWHGTF-UHFFFAOYSA-N

> <Salt_Solvent>
?

> <LogBCF>
3.59

$$$$
100610
  -INDIGO-08031719362D

 22 24  0  0  0  0  0  0  0  0999 V2000
   -4.1569   -2.4000    0.0000 Cl  0  0  0  0  0  0  0  0  0  0  0  0
   -2.7713   -1.6000    0.0000 C   0  0  0  0  0  0  0  0  0  0  0  0
   -1.3856   -2.4000    0.0000 C   0  0  0  0  0  0  0  0  0  0  0  0
   -1.3856   -4.0000    0.0000 H   0  0  0  0  0  0  0  0  0  0  0  0
    0.0001   -1.6000    0.0000 C   0  0  0  0  0  0  0  0  0  0  0  0
    0.0001   -0.0000    0.0000 C   0  0  0  0  0  0  0  0  0  0  0  0
    1.3857    0.8000    0.0000 O   0  0  0  0  0  0  0  0  0  0  0  0
    2.7712   -0.0000    0.0000 C   0  0  0  0  0  0  0  0  0  0  0  0
    2.7712   -1.6000    0.0000 C   0  0  0  0  0  0  0  0  0  0  0  0
    1.3857   -2.4000    0.0000 O   0  0  0  0  0  0  0  0  0  0  0  0
    4.1569   -2.4000    0.0000 C   0  0  0  0  0  0  0  0  0  0  0  0
    4.1569   -4.0000    0.0000 H   0  0  0  0  0  0  0  0  0  0  0  0
    5.5425   -1.6000    0.0000 C   0  0  0  0  0  0  0  0  0  0  0  0
    6.9282   -2.4000    0.0000 H   0  0  0  0  0  0  0  0  0  0  0  0
    5.5425   -0.0000    0.0000 C   0  0  0  0  0  0  0  0  0  0  0  0
    6.9282    0.8000    0.0000 Cl  0  0  0  0  0  0  0  0  0  0  0  0
    4.1569    0.8000    0.0000 C   0  0  0  0  0  0  0  0  0  0  0  0
    4.1569    2.4000    0.0000 H   0  0  0  0  0  0  0  0  0  0  0  0
   -1.3856    0.8000    0.0000 C   0  0  0  0  0  0  0  0  0  0  0  0
   -1.3856    2.4000    0.0000 H   0  0  0  0  0  0  0  0  0  0  0  0
   -2.7713   -0.0000    0.0000 C   0  0  0  0  0  0  0  0  0  0  0  0
   -4.1569    0.8000    0.0000 H   0  0  0  0  0  0  0  0  0  0  0  0
  1  2  1  0  0  0  0
  2  3  1  0  0  0  0
  3  4  1  0  0  0  0
  3  5  2  0  0  0  0
  5  6  1  0  0  0  0
  6  7  1  0  0  0  0
  7  8  1  0  0  0  0
  8  9  1  0  0  0  0
  9 10  1  0  0  0  0
 10  5  1  0  0  0  0
  9 11  2  0  0  0  0
 11 12  1  0  0  0  0
 11 13  1  0  0  0  0
 13 14  1  0  0  0  0
 13 15  2  0  0  0  0
 15 16  1  0  0  0  0
 15 17  1  0  0  0  0
 17  8  2  0  0  0  0
 17 18  1  0  0  0  0
  6 19  2  0  0  0  0
 19 20  1  0  0  0  0
 19 21  1  0  0  0  0
 21  2  2  0  0  0  0
 21 22  1  0  0  0  0
M  END
> <ChemID>
100610

> <source_casrn>
33857-26-0

> <CAS>
33857-26-0

> <SMILES>
Clc3ccc2Oc1cc(Cl)ccc1Oc2c3

> <NAME>
2,7-DICHLORODIBENZO-P-DIOXIN

> <preferred_name>
2,7-Dichlorodibenzo-p-dioxin

> <iupac>
2,7-dichlorooxanthrene

> <MPID>
98497

> <dsstox_substance_id>
DTXSID1020435

> <Canonical_QSARr>
Clc1cc2Oc3ccc(Cl)cc3Oc2cc1

> <InChI_Code_QSARr>
InChI=1S/C12H6Cl2O2/c13-7-1-3-9-11(5-7)16-10-4-2-8(14)6-12(10)15-9/h1-6H

> <InChI Key_QSARr>
NBFMTHWVRBOVPE-UHFFFAOYSA-N

> <Salt_Solvent>
?

> <LogBCF>
2.54

$$$$
100612
  -INDIGO-08031719362D

 22 23  0  0  0  0  0  0  0  0999 V2000
   -0.0001    0.0000    0.0000 C   0  0  0  0  0  0  0  0  0  0  0  0
    1.6001   -0.0000    0.0000 C   0  0  0  0  0  0  0  0  0  0  0  0
    2.4001   -1.3856    0.0000 C   0  0  0  0  0  0  0  0  0  0  0  0
    1.6001   -2.7713    0.0000 H   0  0  0  0  0  0  0  0  0  0  0  0
    4.0000   -1.3856    0.0000 C   0  0  0  0  0  0  0  0  0  0  0  0
    4.8000   -2.7713    0.0000 H   0  0  0  0  0  0  0  0  0  0  0  0
    4.8000    0.0000    0.0000 C   0  0  0  0  0  0  0  0  0  0  0  0
    6.4000    0.0000    0.0000 H   0  0  0  0  0  0  0  0  0  0  0  0
    4.0000    1.3856    0.0000 C   0  0  0  0  0  0  0  0  0  0  0  0
    4.8000    2.7713    0.0000 H   0  0  0  0  0  0  0  0  0  0  0  0
    2.4001    1.3856    0.0000 C   0  0  0  0  0  0  0  0  0  0  0  0
    1.6001    2.7713    0.0000 H   0  0  0  0  0  0  0  0  0  0  0  0
   -0.8001    1.3856    0.0000 C   0  0  0  0  0  0  0  0  0  0  0  0
   -0.0001    2.7713    0.0000 H   0  0  0  0  0  0  0  0  0  0  0  0
   -2.4000    1.3856    0.0000 C   0  0  0  0  0  0  0  0  0  0  0  0
   -3.2000    2.7713    0.0000 Cl  0  0  0  0  0  0  0  0  0  0  0  0
   -3.2000    0.0000    0.0000 C   0  0  0  0  0  0  0  0  0  0  0  0
   -4.8000   -0.0000    0.0000 H   0  0  0  0  0  0  0  0  0  0  0  0
   -2.4000   -1.3856    0.0000 C   0  0  0  0  0  0  0  0  0  0  0  0
   -3.2000   -2.7713    0.0000 Cl  0  0  0  0  0  0  0  0  0  0  0  0
   -0.8001   -1.3856    0.0000 C   0  0  0  0  0  0  0  0  0  0  0  0
   -0.0001   -2.7713    0.0000 H   0  0  0  0  0  0  0  0  0  0  0  0
  1  2  1  0  0  0  0
  2  3  1  0  0  0  0
  3  4  1  0  0  0  0
  3  5  2  0  0  0  0
  5  6  1  0  0  0  0
  5  7  1  0  0  0  0
  7  8  1  0  0  0  0
  7  9  2  0  0  0  0
  9 10  1  0  0  0  0
  9 11  1  0  0  0  0
 11  2  2  0  0  0  0
 11 12  1  0  0  0  0
  1 13  1  0  0  0  0
 13 14  1  0  0  0  0
 13 15  2  0  0  0  0
 15 16  1  0  0  0  0
 15 17  1  0  0  0  0
 17 18  1  0  0  0  0
 17 19  2  0  0  0  0
 19 20  1  0  0  0  0
 19 21  1  0  0  0  0
 21  1  2  0  0  0  0
 21 22  1  0  0  0  0
M  END
> <ChemID>
100612

> <source_casrn>
34883-41-5

> <CAS>
34883-41-5

> <SMILES>
Clc1cc(cc(Cl)c1)-c1ccccc1

> <NAME>
3,5-DICHLOROBIPHENYL

> <preferred_name>
3,5-Dichlorobiphenyl

> <iupac>
1,3-dichloro-5-phenylbenzene

> <MPID>
98499

> <dsstox_substance_id>
DTXSID5074137

> <Canonical_QSARr>
Clc1cc(cc(Cl)c1)-c1ccccc1

> <InChI_Code_QSARr>
InChI=1S/C12H8Cl2/c13-11-6-10(7-12(14)8-11)9-4-2-1-3-5-9/h1-8H

> <InChI Key_QSARr>
QHZSDTDMQZPUKC-UHFFFAOYSA-N

> <Salt_Solvent>
?

> <LogBCF>
3.77

$$$$
100613
  -INDIGO-08031719362D

 22 23  0  0  0  0  0  0  0  0999 V2000
   -0.0001    0.0000    0.0000 C   0  0  0  0  0  0  0  0  0  0  0  0
    1.6001   -0.0000    0.0000 C   0  0  0  0  0  0  0  0  0  0  0  0
    2.4001   -1.3856    0.0000 C   0  0  0  0  0  0  0  0  0  0  0  0
    1.6001   -2.7713    0.0000 Cl  0  0  0  0  0  0  0  0  0  0  0  0
    4.0000   -1.3856    0.0000 C   0  0  0  0  0  0  0  0  0  0  0  0
    4.8000   -2.7713    0.0000 H   0  0  0  0  0  0  0  0  0  0  0  0
    4.8000    0.0000    0.0000 C   0  0  0  0  0  0  0  0  0  0  0  0
    6.4000    0.0000    0.0000 Cl  0  0  0  0  0  0  0  0  0  0  0  0
    4.0000    1.3856    0.0000 C   0  0  0  0  0  0  0  0  0  0  0  0
    4.8000    2.7713    0.0000 Cl  0  0  0  0  0  0  0  0  0  0  0  0
    2.4001    1.3856    0.0000 C   0  0  0  0  0  0  0  0  0  0  0  0
    1.6001    2.7713    0.0000 H   0  0  0  0  0  0  0  0  0  0  0  0
   -0.8001    1.3856    0.0000 C   0  0  0  0  0  0  0  0  0  0  0  0
   -0.0001    2.7713    0.0000 H   0  0  0  0  0  0  0  0  0  0  0  0
   -2.4000    1.3856    0.0000 C   0  0  0  0  0  0  0  0  0  0  0  0
   -3.2000    2.7713    0.0000 Cl  0  0  0  0  0  0  0  0  0  0  0  0
   -3.2000    0.0000    0.0000 C   0  0  0  0  0  0  0  0  0  0  0  0
   -4.8000   -0.0000    0.0000 Cl  0  0  0  0  0  0  0  0  0  0  0  0
   -2.4000   -1.3856    0.0000 C   0  0  0  0  0  0  0  0  0  0  0  0
   -3.2000   -2.7713    0.0000 H   0  0  0  0  0  0  0  0  0  0  0  0
   -0.8001   -1.3856    0.0000 C   0  0  0  0  0  0  0  0  0  0  0  0
   -0.0001   -2.7713    0.0000 Cl  0  0  0  0  0  0  0  0  0  0  0  0
  1  2  1  0  0  0  0
  2  3  1  0  0  0  0
  3  4  1  0  0  0  0
  3  5  2  0  0  0  0
  5  6  1  0  0  0  0
  5  7  1  0  0  0  0
  7  8  1  0  0  0  0
  7  9  2  0  0  0  0
  9 10  1  0  0  0  0
  9 11  1  0  0  0  0
 11  2  2  0  0  0  0
 11 12  1  0  0  0  0
  1 13  1  0  0  0  0
 13 14  1  0  0  0  0
 13 15  2  0  0  0  0
 15 16  1  0  0  0  0
 15 17  1  0  0  0  0
 17 18  1  0  0  0  0
 17 19  2  0  0  0  0
 19 20  1  0  0  0  0
 19 21  1  0  0  0  0
 21  1  2  0  0  0  0
 21 22  1  0  0  0  0
M  END
> <ChemID>
100613

> <source_casrn>
35065-27-1

> <CAS>
35065-27-1

> <SMILES>
Clc1cc(Cl)c(Cl)cc1-c1cc(Cl)c(Cl)cc1Cl

> <NAME>
2,4,5,2',4',5'-HEXACHLOROBIPHENYL

> <preferred_name>
2,2',4,4',5,5'-Hexachlorobiphenyl

> <iupac>
2,2',4,4',5,5'-hexachlorobiphenyl

> <MPID>
98500

> <dsstox_substance_id>
DTXSID2032180

> <Canonical_QSARr>
Clc1cc(Cl)c(Cl)cc1-c1cc(Cl)c(Cl)cc1Cl

> <InChI_Code_QSARr>
InChI=1S/C12H4Cl6/c13-7-3-11(17)9(15)1-5(7)6-2-10(16)12(18)4-8(6)14/h1-4H

> <InChI Key_QSARr>
MVWHGTYKUMDIHL-UHFFFAOYSA-N

> <Salt_Solvent>
?

> <LogBCF>
5.43

$$$$
100614
  -INDIGO-08031719362D

 30 31  0  0  0  0  0  0  0  0999 V2000
    1.6000    0.0000    0.0000 C   0  0  0  0  0  0  0  0  0  0  0  0
    2.4001   -1.3857    0.0000 N   0  0  0  0  0  0  0  0  0  0  0  0
    1.6000   -2.7713    0.0000 H   0  0  0  0  0  0  0  0  0  0  0  0
    3.9999   -1.3857    0.0000 C   0  0  0  0  0  0  0  0  0  0  0  0
    4.8000   -2.7713    0.0000 N   0  0  0  0  0  0  0  0  0  0  0  0
    3.9999   -4.1569    0.0000 H   0  0  0  0  0  0  0  0  0  0  0  0
    6.4001   -2.7713    0.0000 C   0  0  0  0  0  0  0  0  0  0  0  0
    7.1999   -4.1569    0.0000 C   0  0  0  0  0  0  0  0  0  0  0  0
    6.4001   -5.5426    0.0000 H   0  0  0  0  0  0  0  0  0  0  0  0
    8.8001   -4.1569    0.0000 C   0  0  0  0  0  0  0  0  0  0  0  0
    9.6001   -5.5426    0.0000 H   0  0  0  0  0  0  0  0  0  0  0  0
    9.6001   -2.7713    0.0000 C   0  0  0  0  0  0  0  0  0  0  0  0
   11.2000   -2.7713    0.0000 Cl  0  0  0  0  0  0  0  0  0  0  0  0
    8.8001   -1.3856    0.0000 C   0  0  0  0  0  0  0  0  0  0  0  0
    9.6001    0.0000    0.0000 H   0  0  0  0  0  0  0  0  0  0  0  0
    7.1999   -1.3856    0.0000 C   0  0  0  0  0  0  0  0  0  0  0  0
    6.3999    0.0000    0.0000 H   0  0  0  0  0  0  0  0  0  0  0  0
    4.8000    0.0000    0.0000 O   0  0  0  0  0  0  0  0  0  0  0  0
   -0.0001    0.0000    0.0000 C   0  0  0  0  0  0  0  0  0  0  0  0
   -0.7999    1.3857    0.0000 C   0  0  0  0  0  0  0  0  0  0  0  0
   -0.0001    2.7713    0.0000 F   0  0  0  0  0  0  0  0  0  0  0  0
   -2.4001    1.3857    0.0000 C   0  0  0  0  0  0  0  0  0  0  0  0
   -3.2001    2.7713    0.0000 H   0  0  0  0  0  0  0  0  0  0  0  0
   -3.2001    0.0000    0.0000 C   0  0  0  0  0  0  0  0  0  0  0  0
   -4.8000    0.0000    0.0000 H   0  0  0  0  0  0  0  0  0  0  0  0
   -2.4001   -1.3856    0.0000 C   0  0  0  0  0  0  0  0  0  0  0  0
   -3.2001   -2.7713    0.0000 H   0  0  0  0  0  0  0  0  0  0  0  0
   -0.7999   -1.3856    0.0000 C   0  0  0  0  0  0  0  0  0  0  0  0
    0.0001   -2.7713    0.0000 F   0  0  0  0  0  0  0  0  0  0  0  0
    2.4001    1.3856    0.0000 O   0  0  0  0  0  0  0  0  0  0  0  0
  1  2  1  0  0  0  0
  2  3  1  0  0  0  0
  2  4  1  0  0  0  0
  4  5  1  0  0  0  0
  5  6  1  0  0  0  0
  5  7  1  0  0  0  0
  7  8  1  0  0  0  0
  8  9  1  0  0  0  0
  8 10  2  0  0  0  0
 10 11  1  0  0  0  0
 10 12  1  0  0  0  0
 12 13  1  0  0  0  0
 12 14  2  0  0  0  0
 14 15  1  0  0  0  0
 14 16  1  0  0  0  0
 16  7  2  0  0  0  0
 16 17  1  0  0  0  0
  4 18  2  0  0  0  0
  1 19  1  0  0  0  0
 19 20  1  0  0  0  0
 20 21  1  0  0  0  0
 20 22  2  0  0  0  0
 22 23  1  0  0  0  0
 22 24  1  0  0  0  0
 24 25  1  0  0  0  0
 24 26  2  0  0  0  0
 26 27  1  0  0  0  0
 26 28  1  0  0  0  0
 28 19  2  0  0  0  0
 28 29  1  0  0  0  0
  1 30  2  0  0  0  0
M  END
> <ChemID>
100614

> <source_casrn>
35367-38-5

> <CAS>
35367-38-5

> <SMILES>
O=C(Nc1ccc(Cl)cc1)NC(=O)c1c(F)cccc1F

> <NAME>
DIFLUBENZURON

> <preferred_name>
Diflubenzuron

> <iupac>
N-[(4-chlorophenyl)carbamoyl]-2,6-difluorobenzamide

> <MPID>
98501

> <dsstox_substance_id>
DTXSID1024049

> <Canonical_QSARr>
O=C(Nc1ccc(Cl)cc1)NC(=O)c1c(F)cccc1F

> <InChI_Code_QSARr>
InChI=1S/C14H9ClF2N2O2/c15-8-4-6-9(7-5-8)18-14(21)19-13(20)12-10(16)2-1-3-11(12)17/h1-7H,(H2,18,19,20,21)

> <InChI Key_QSARr>
QQQYTWIFVNKMRW-UHFFFAOYSA-N

> <Salt_Solvent>
?

> <LogBCF>
2.2

$$$$
100616
  -INDIGO-08031719362D

 22 24  0  0  0  0  0  0  0  0999 V2000
    0.0001   -0.0000    0.0000 C   0  0  0  0  0  0  0  0  0  0  0  0
   -1.3856    0.8000    0.0000 C   0  0  0  0  0  0  0  0  0  0  0  0
   -1.3856    2.4000    0.0000 Cl  0  0  0  0  0  0  0  0  0  0  0  0
   -2.7713   -0.0000    0.0000 C   0  0  0  0  0  0  0  0  0  0  0  0
   -4.1569    0.8000    0.0000 Cl  0  0  0  0  0  0  0  0  0  0  0  0
   -2.7713   -1.6000    0.0000 C   0  0  0  0  0  0  0  0  0  0  0  0
   -4.1569   -2.4000    0.0000 Cl  0  0  0  0  0  0  0  0  0  0  0  0
   -1.3856   -2.4000    0.0000 C   0  0  0  0  0  0  0  0  0  0  0  0
   -1.3856   -4.0000    0.0000 H   0  0  0  0  0  0  0  0  0  0  0  0
    0.0001   -1.6000    0.0000 C   0  0  0  0  0  0  0  0  0  0  0  0
    1.3857   -2.4000    0.0000 O   0  0  0  0  0  0  0  0  0  0  0  0
    2.7712   -1.6000    0.0000 C   0  0  0  0  0  0  0  0  0  0  0  0
    2.7712   -0.0000    0.0000 C   0  0  0  0  0  0  0  0  0  0  0  0
    4.1569    0.8000    0.0000 C   0  0  0  0  0  0  0  0  0  0  0  0
    4.1569    2.4000    0.0000 Cl  0  0  0  0  0  0  0  0  0  0  0  0
    5.5425   -0.0000    0.0000 C   0  0  0  0  0  0  0  0  0  0  0  0
    6.9282    0.8000    0.0000 Cl  0  0  0  0  0  0  0  0  0  0  0  0
    5.5425   -1.6000    0.0000 C   0  0  0  0  0  0  0  0  0  0  0  0
    6.9282   -2.4000    0.0000 Cl  0  0  0  0  0  0  0  0  0  0  0  0
    4.1569   -2.4000    0.0000 C   0  0  0  0  0  0  0  0  0  0  0  0
    4.1569   -4.0000    0.0000 Cl  0  0  0  0  0  0  0  0  0  0  0  0
    1.3857    0.8000    0.0000 O   0  0  0  0  0  0  0  0  0  0  0  0
  1  2  1  0  0  0  0
  2  3  1  0  0  0  0
  2  4  2  0  0  0  0
  4  5  1  0  0  0  0
  4  6  1  0  0  0  0
  6  7  1  0  0  0  0
  6  8  2  0  0  0  0
  8  9  1  0  0  0  0
  8 10  1  0  0  0  0
 10  1  2  0  0  0  0
 10 11  1  0  0  0  0
 11 12  1  0  0  0  0
 12 13  1  0  0  0  0
 13 14  2  0  0  0  0
 14 15  1  0  0  0  0
 14 16  1  0  0  0  0
 16 17  1  0  0  0  0
 16 18  2  0  0  0  0
 18 19  1  0  0  0  0
 18 20  1  0  0  0  0
 20 12  2  0  0  0  0
 20 21  1  0  0  0  0
 13 22  1  0  0  0  0
 22  1  1  0  0  0  0
M  END
> <ChemID>
100616

> <source_casrn>
35822-46-9

> <CAS>
35822-46-9

> <SMILES>
Clc1cc2Oc3c(Oc2c(Cl)c1Cl)c(Cl)c(Cl)c(Cl)c3Cl

> <NAME>
1,2,3,4,6,7,8-HEPTACHLORODIBENZO-P-DIOXIN

> <preferred_name>
1,2,3,4,6,7,8-Heptachlorodibenzodioxin

> <iupac>
1,2,3,4,6,7,8-heptachlorooxanthrene

> <MPID>
98503

> <dsstox_substance_id>
DTXSID1052034

> <Canonical_QSARr>
Clc1cc2Oc3c(Oc2c(Cl)c1Cl)c(Cl)c(Cl)c(Cl)c3Cl

> <InChI_Code_QSARr>
InChI=1S/C12HCl7O2/c13-2-1-3-10(7(17)4(2)14)21-12-9(19)6(16)5(15)8(18)11(12)20-3/h1H

> <InChI Key_QSARr>
WCLNVRQZUKYVAI-UHFFFAOYSA-N

> <Salt_Solvent>
?

> <LogBCF>
3.67

$$$$
100619
  -INDIGO-08031719362D

 42 42  0  0  0  0  0  0  0  0999 V2000
    2.6041   -0.9478    0.0000 C   0  0  0  0  0  0  0  0  0  0  0  0
    3.6326   -2.1734    0.0000 H   0  0  0  0  0  0  0  0  0  0  0  0
    4.1798   -0.6701    0.0000 H   0  0  0  0  0  0  0  0  0  0  0  0
    2.0569   -2.4514    0.0000 H   0  0  0  0  0  0  0  0  0  0  0  0
    1.0285   -1.2257    0.0000 C   0  0  0  0  0  0  0  0  0  0  0  0
   -0.0525   -2.4053    0.0000 H   0  0  0  0  0  0  0  0  0  0  0  0
    1.0982   -2.8242    0.0000 H   0  0  0  0  0  0  0  0  0  0  0  0
   -0.0001   -0.0001    0.0000 C   0  0  0  0  0  0  0  0  0  0  0  0
   -1.2258   -1.0285    0.0000 H   0  0  0  0  0  0  0  0  0  0  0  0
    1.2256    1.0285    0.0000 C   0  0  0  0  0  0  0  0  0  0  0  0
    2.4514    2.0570    0.0000 H   0  0  0  0  0  0  0  0  0  0  0  0
    2.7291    0.4812    0.0000 H   0  0  0  0  0  0  0  0  0  0  0  0
    0.9479    2.6041    0.0000 H   0  0  0  0  0  0  0  0  0  0  0  0
   -1.0285    1.2256    0.0000 N   0  0  0  0  0  0  0  0  0  0  0  0
   -0.4813    2.7291    0.0000 H   0  0  0  0  0  0  0  0  0  0  0  0
   -2.6284    1.2256    0.0000 P   0  0  0  0  0  0  0  0  0  0  0  0
   -1.8285    2.6112    0.0000 O   0  0  0  0  0  0  0  0  0  0  0  0
   -2.6284    3.9969    0.0000 C   0  0  0  0  0  0  0  0  0  0  0  0
   -4.1067    3.3846    0.0000 H   0  0  0  0  0  0  0  0  0  0  0  0
   -4.1067    4.6092    0.0000 H   0  0  0  0  0  0  0  0  0  0  0  0
   -1.8285    5.3826    0.0000 C   0  0  0  0  0  0  0  0  0  0  0  0
   -2.6284    6.7682    0.0000 H   0  0  0  0  0  0  0  0  0  0  0  0
   -1.0285    6.7682    0.0000 H   0  0  0  0  0  0  0  0  0  0  0  0
   -3.4285    5.3826    0.0000 H   0  0  0  0  0  0  0  0  0  0  0  0
   -3.4285   -0.1599    0.0000 O   0  0  0  0  0  0  0  0  0  0  0  0
   -5.0284   -0.1599    0.0000 C   0  0  0  0  0  0  0  0  0  0  0  0
   -5.8285    1.2258    0.0000 C   0  0  0  0  0  0  0  0  0  0  0  0
   -5.0284    2.6112    0.0000 H   0  0  0  0  0  0  0  0  0  0  0  0
   -7.4284    1.2258    0.0000 C   0  0  0  0  0  0  0  0  0  0  0  0
   -8.2285    2.6112    0.0000 C   0  0  0  0  0  0  0  0  0  0  0  0
   -9.0284    3.9969    0.0000 H   0  0  0  0  0  0  0  0  0  0  0  0
   -9.8285    2.6112    0.0000 H   0  0  0  0  0  0  0  0  0  0  0  0
   -7.4284    3.9969    0.0000 H   0  0  0  0  0  0  0  0  0  0  0  0
   -8.2285   -0.1599    0.0000 C   0  0  0  0  0  0  0  0  0  0  0  0
   -9.8285   -0.1599    0.0000 H   0  0  0  0  0  0  0  0  0  0  0  0
   -7.4284   -1.5456    0.0000 C   0  0  0  0  0  0  0  0  0  0  0  0
   -8.2285   -2.9312    0.0000 H   0  0  0  0  0  0  0  0  0  0  0  0
   -5.8285   -1.5456    0.0000 C   0  0  0  0  0  0  0  0  0  0  0  0
   -5.0284   -2.9312    0.0000 N   0  0  0  0  0  0  0  0  0  0  0  0
   -5.8285   -4.3169    0.0000 O   0  0  0  0  0  0  0  0  0  0  0  0
   -3.4285   -2.9312    0.0000 O   0  0  0  0  0  0  0  0  0  0  0  0
   -1.8285   -0.1599    0.0000 S   0  0  0  0  0  0  0  0  0  0  0  0
  1  2  1  0  0  0  0
  1  3  1  0  0  0  0
  1  4  1  0  0  0  0
  1  5  1  0  0  0  0
  5  6  1  0  0  0  0
  5  7  1  0  0  0  0
  5  8  1  0  0  0  0
  8  9  1  0  0  0  0
  8 10  1  0  0  0  0
 10 11  1  0  0  0  0
 10 12  1  0  0  0  0
 10 13  1  0  0  0  0
  8 14  1  0  0  0  0
 14 15  1  0  0  0  0
 14 16  1  0  0  0  0
 16 17  1  0  0  0  0
 17 18  1  0  0  0  0
 18 19  1  0  0  0  0
 18 20  1  0  0  0  0
 18 21  1  0  0  0  0
 21 22  1  0  0  0  0
 21 23  1  0  0  0  0
 21 24  1  0  0  0  0
 16 25  1  0  0  0  0
 25 26  1  0  0  0  0
 26 27  1  0  0  0  0
 27 28  1  0  0  0  0
 27 29  2  0  0  0  0
 29 30  1  0  0  0  0
 30 31  1  0  0  0  0
 30 32  1  0  0  0  0
 30 33  1  0  0  0  0
 29 34  1  0  0  0  0
 34 35  1  0  0  0  0
 34 36  2  0  0  0  0
 36 37  1  0  0  0  0
 36 38  1  0  0  0  0
 38 26  2  0  0  0  0
 38 39  1  0  0  0  0
 39 40  1  0  0  0  0
 39 41  2  0  0  0  0
 16 42  2  0  0  0  0
M  CHG  2  39   1  40  -1
M  END
> <ChemID>
100619

> <source_casrn>
36335-67-8

> <CAS>
36335-67-8

> <SMILES>
Cc1ccc(c(c1)OP(=S)(NC(C)CC)OCC)[N+]([O-])=O

> <NAME>
BUTAMIFOS

> <preferred_name>
Butamiphos

> <iupac>
O-ethyl O-(5-methyl-2-nitrophenyl) sec-butylphosphoramidothioate

> <MPID>
98504

> <dsstox_substance_id>
DTXSID5058068

> <Canonical_QSARr>
Cc1ccc(c(c1)OP(=S)(NC(C)CC)OCC)[N+]([O-])=O

> <InChI_Code_QSARr>
InChI=1S/C13H21N2O4PS/c1-5-11(4)14-20(21,18-6-2)19-13-9-10(3)7-8-12(13)15(16)17/h7-9,11H,5-6H2,1-4H3,(H,14,21)

> <InChI Key_QSARr>
OEYOMNZEMCPTKN-UHFFFAOYSA-N

> <Salt_Solvent>
?

> <LogBCF>
2.46

$$$$
100620
  -INDIGO-08031719362D

 34 35  0  0  0  0  0  0  0  0999 V2000
   -3.8333   -1.7962    0.0000 N   0  0  0  0  0  0  0  0  0  0  0  0
   -2.2419   -1.6290    0.0000 C   0  0  0  0  0  0  0  0  0  0  0  0
   -1.5912   -0.1672    0.0000 N   0  0  0  0  0  0  0  0  0  0  0  0
   -2.5316    1.1272    0.0000 H   0  0  0  0  0  0  0  0  0  0  0  0
   -0.0001    0.0000    0.0000 C   0  0  0  0  0  0  0  0  0  0  0  0
    0.1674   -1.5912    0.0000 H   0  0  0  0  0  0  0  0  0  0  0  0
    1.5913    0.1672    0.0000 C   0  0  0  0  0  0  0  0  0  0  0  0
    3.1825    0.3344    0.0000 H   0  0  0  0  0  0  0  0  0  0  0  0
    2.2421    1.6289    0.0000 H   0  0  0  0  0  0  0  0  0  0  0  0
    2.5317   -1.1272    0.0000 H   0  0  0  0  0  0  0  0  0  0  0  0
   -0.1672    1.5913    0.0000 C   0  0  0  0  0  0  0  0  0  0  0  0
   -0.3344    3.1825    0.0000 H   0  0  0  0  0  0  0  0  0  0  0  0
    1.1271    2.5316    0.0000 H   0  0  0  0  0  0  0  0  0  0  0  0
   -1.6290    2.2420    0.0000 H   0  0  0  0  0  0  0  0  0  0  0  0
   -1.3015   -2.9234    0.0000 O   0  0  0  0  0  0  0  0  0  0  0  0
   -4.9038   -0.6072    0.0000 C   0  0  0  0  0  0  0  0  0  0  0  0
   -4.5711    0.9579    0.0000 O   0  0  0  0  0  0  0  0  0  0  0  0
   -6.3656   -1.2579    0.0000 N   0  0  0  0  0  0  0  0  0  0  0  0
   -7.7511   -0.4580    0.0000 C   0  0  0  0  0  0  0  0  0  0  0  0
   -7.7511    1.1421    0.0000 C   0  0  0  0  0  0  0  0  0  0  0  0
   -6.3656    1.9420    0.0000 H   0  0  0  0  0  0  0  0  0  0  0  0
   -9.1368    1.9420    0.0000 C   0  0  0  0  0  0  0  0  0  0  0  0
   -9.1368    3.5421    0.0000 Cl  0  0  0  0  0  0  0  0  0  0  0  0
  -10.5223    1.1421    0.0000 C   0  0  0  0  0  0  0  0  0  0  0  0
  -11.9081    1.9420    0.0000 H   0  0  0  0  0  0  0  0  0  0  0  0
  -10.5223   -0.4580    0.0000 C   0  0  0  0  0  0  0  0  0  0  0  0
  -11.9081   -1.2579    0.0000 Cl  0  0  0  0  0  0  0  0  0  0  0  0
   -9.1368   -1.2579    0.0000 C   0  0  0  0  0  0  0  0  0  0  0  0
   -9.1368   -2.8580    0.0000 H   0  0  0  0  0  0  0  0  0  0  0  0
   -6.1984   -2.8492    0.0000 C   0  0  0  0  0  0  0  0  0  0  0  0
   -7.3873   -3.9198    0.0000 O   0  0  0  0  0  0  0  0  0  0  0  0
   -4.6333   -3.1818    0.0000 C   0  0  0  0  0  0  0  0  0  0  0  0
   -5.1276   -4.7035    0.0000 H   0  0  0  0  0  0  0  0  0  0  0  0
   -3.1715   -3.8326    0.0000 H   0  0  0  0  0  0  0  0  0  0  0  0
  1  2  1  0  0  0  0
  2  3  1  0  0  0  0
  3  4  1  0  0  0  0
  3  5  1  0  0  0  0
  5  6  1  0  0  0  0
  5  7  1  0  0  0  0
  7  8  1  0  0  0  0
  7  9  1  0  0  0  0
  7 10  1  0  0  0  0
  5 11  1  0  0  0  0
 11 12  1  0  0  0  0
 11 13  1  0  0  0  0
 11 14  1  0  0  0  0
  2 15  2  0  0  0  0
  1 16  1  0  0  0  0
 16 17  2  0  0  0  0
 16 18  1  0  0  0  0
 18 19  1  0  0  0  0
 19 20  1  0  0  0  0
 20 21  1  0  0  0  0
 20 22  2  0  0  0  0
 22 23  1  0  0  0  0
 22 24  1  0  0  0  0
 24 25  1  0  0  0  0
 24 26  2  0  0  0  0
 26 27  1  0  0  0  0
 26 28  1  0  0  0  0
 28 19  2  0  0  0  0
 28 29  1  0  0  0  0
 18 30  1  0  0  0  0
 30 31  2  0  0  0  0
 30 32  1  0  0  0  0
 32  1  1  0  0  0  0
 32 33  1  0  0  0  0
 32 34  1  0  0  0  0
M  END
> <ChemID>
100620

> <source_casrn>
36734-19-7

> <CAS>
36734-19-7

> <SMILES>
c1c(Cl)cc(Cl)cc1N2C(=O)CN(C(=O)NC(C)C)C2(=O)

> <NAME>
ROVRAL (IPRODIONE)

> <preferred_name>
Iprodione

> <iupac>
3-(3,5-dichlorophenyl)-2,4-dioxo-N-(propan-2-yl)imidazolidine-1-carboxamide

> <MPID>
98505

> <dsstox_substance_id>
DTXSID3024154

> <Canonical_QSARr>
CC(C)NC(=O)N1CC(=O)N(c2cc(Cl)cc(Cl)c2)C1=O

> <InChI_Code_QSARr>
InChI=1S/C13H13Cl2N3O3/c1-7(2)16-12(20)17-6-11(19)18(13(17)21)10-4-8(14)3-9(15)5-10/h3-5,7H,6H2,1-2H3,(H,16,20)

> <InChI Key_QSARr>
ONUFESLQCSAYKA-UHFFFAOYSA-N

> <Salt_Solvent>
?

> <LogBCF>
2.53

$$$$
100622
  -INDIGO-08031719362D

 22 23  0  0  0  0  0  0  0  0999 V2000
   -0.0001    0.0000    0.0000 C   0  0  0  0  0  0  0  0  0  0  0  0
    1.6001   -0.0000    0.0000 C   0  0  0  0  0  0  0  0  0  0  0  0
    2.4001   -1.3856    0.0000 C   0  0  0  0  0  0  0  0  0  0  0  0
    1.6001   -2.7713    0.0000 Cl  0  0  0  0  0  0  0  0  0  0  0  0
    4.0000   -1.3856    0.0000 C   0  0  0  0  0  0  0  0  0  0  0  0
    4.8000   -2.7713    0.0000 H   0  0  0  0  0  0  0  0  0  0  0  0
    4.8000    0.0000    0.0000 C   0  0  0  0  0  0  0  0  0  0  0  0
    6.4000    0.0000    0.0000 H   0  0  0  0  0  0  0  0  0  0  0  0
    4.0000    1.3856    0.0000 C   0  0  0  0  0  0  0  0  0  0  0  0
    4.8000    2.7713    0.0000 Cl  0  0  0  0  0  0  0  0  0  0  0  0
    2.4001    1.3856    0.0000 C   0  0  0  0  0  0  0  0  0  0  0  0
    1.6001    2.7713    0.0000 H   0  0  0  0  0  0  0  0  0  0  0  0
   -0.8001    1.3856    0.0000 C   0  0  0  0  0  0  0  0  0  0  0  0
   -0.0001    2.7713    0.0000 Cl  0  0  0  0  0  0  0  0  0  0  0  0
   -2.4000    1.3856    0.0000 C   0  0  0  0  0  0  0  0  0  0  0  0
   -3.2000    2.7713    0.0000 H   0  0  0  0  0  0  0  0  0  0  0  0
   -3.2000    0.0000    0.0000 C   0  0  0  0  0  0  0  0  0  0  0  0
   -4.8000   -0.0000    0.0000 Cl  0  0  0  0  0  0  0  0  0  0  0  0
   -2.4000   -1.3856    0.0000 C   0  0  0  0  0  0  0  0  0  0  0  0
   -3.2000   -2.7713    0.0000 Cl  0  0  0  0  0  0  0  0  0  0  0  0
   -0.8001   -1.3856    0.0000 C   0  0  0  0  0  0  0  0  0  0  0  0
   -0.0001   -2.7713    0.0000 H   0  0  0  0  0  0  0  0  0  0  0  0
  1  2  1  0  0  0  0
  2  3  1  0  0  0  0
  3  4  1  0  0  0  0
  3  5  2  0  0  0  0
  5  6  1  0  0  0  0
  5  7  1  0  0  0  0
  7  8  1  0  0  0  0
  7  9  2  0  0  0  0
  9 10  1  0  0  0  0
  9 11  1  0  0  0  0
 11  2  2  0  0  0  0
 11 12  1  0  0  0  0
  1 13  1  0  0  0  0
 13 14  1  0  0  0  0
 13 15  2  0  0  0  0
 15 16  1  0  0  0  0
 15 17  1  0  0  0  0
 17 18  1  0  0  0  0
 17 19  2  0  0  0  0
 19 20  1  0  0  0  0
 19 21  1  0  0  0  0
 21  1  2  0  0  0  0
 21 22  1  0  0  0  0
M  END
> <ChemID>
100622

> <source_casrn>
37680-73-2

> <CAS>
37680-73-2

> <SMILES>
Clc1cc(-c2cc(Cl)c(Cl)cc2Cl)c(Cl)cc1

> <NAME>
2,4,5,2',5'-PENTACHLOROBIPHENYL

> <preferred_name>
2,2,4,5,5'-Pentochlorobiphenyl

> <iupac>
2,2',4,5,5'-pentachlorobiphenyl

> <MPID>
98507

> <dsstox_substance_id>
DTXSID8038304

> <Canonical_QSARr>
Clc1cc(-c2cc(Cl)c(Cl)cc2Cl)c(Cl)cc1

> <InChI_Code_QSARr>
InChI=1S/C12H5Cl5/c13-6-1-2-9(14)7(3-6)8-4-11(16)12(17)5-10(8)15/h1-5H

> <InChI Key_QSARr>
LAHWLEDBADHJGA-UHFFFAOYSA-N

> <Salt_Solvent>
?

> <LogBCF>
5.47

$$$$
100623
  -INDIGO-08031719362D

 22 23  0  0  0  0  0  0  0  0999 V2000
   -0.0001    0.0000    0.0000 C   0  0  0  0  0  0  0  0  0  0  0  0
    1.6001   -0.0000    0.0000 C   0  0  0  0  0  0  0  0  0  0  0  0
    2.4001   -1.3856    0.0000 C   0  0  0  0  0  0  0  0  0  0  0  0
    1.6001   -2.7713    0.0000 Cl  0  0  0  0  0  0  0  0  0  0  0  0
    4.0000   -1.3856    0.0000 C   0  0  0  0  0  0  0  0  0  0  0  0
    4.8000   -2.7713    0.0000 H   0  0  0  0  0  0  0  0  0  0  0  0
    4.8000    0.0000    0.0000 C   0  0  0  0  0  0  0  0  0  0  0  0
    6.4000    0.0000    0.0000 H   0  0  0  0  0  0  0  0  0  0  0  0
    4.0000    1.3856    0.0000 C   0  0  0  0  0  0  0  0  0  0  0  0
    4.8000    2.7713    0.0000 Cl  0  0  0  0  0  0  0  0  0  0  0  0
    2.4001    1.3856    0.0000 C   0  0  0  0  0  0  0  0  0  0  0  0
    1.6001    2.7713    0.0000 H   0  0  0  0  0  0  0  0  0  0  0  0
   -0.8001    1.3856    0.0000 C   0  0  0  0  0  0  0  0  0  0  0  0
   -0.0001    2.7713    0.0000 Cl  0  0  0  0  0  0  0  0  0  0  0  0
   -2.4000    1.3856    0.0000 C   0  0  0  0  0  0  0  0  0  0  0  0
   -3.2000    2.7713    0.0000 Cl  0  0  0  0  0  0  0  0  0  0  0  0
   -3.2000    0.0000    0.0000 C   0  0  0  0  0  0  0  0  0  0  0  0
   -4.8000   -0.0000    0.0000 Cl  0  0  0  0  0  0  0  0  0  0  0  0
   -2.4000   -1.3856    0.0000 C   0  0  0  0  0  0  0  0  0  0  0  0
   -3.2000   -2.7713    0.0000 H   0  0  0  0  0  0  0  0  0  0  0  0
   -0.8001   -1.3856    0.0000 C   0  0  0  0  0  0  0  0  0  0  0  0
   -0.0001   -2.7713    0.0000 H   0  0  0  0  0  0  0  0  0  0  0  0
  1  2  1  0  0  0  0
  2  3  1  0  0  0  0
  3  4  1  0  0  0  0
  3  5  2  0  0  0  0
  5  6  1  0  0  0  0
  5  7  1  0  0  0  0
  7  8  1  0  0  0  0
  7  9  2  0  0  0  0
  9 10  1  0  0  0  0
  9 11  1  0  0  0  0
 11  2  2  0  0  0  0
 11 12  1  0  0  0  0
  1 13  1  0  0  0  0
 13 14  1  0  0  0  0
 13 15  2  0  0  0  0
 15 16  1  0  0  0  0
 15 17  1  0  0  0  0
 17 18  1  0  0  0  0
 17 19  2  0  0  0  0
 19 20  1  0  0  0  0
 19 21  1  0  0  0  0
 21  1  2  0  0  0  0
 21 22  1  0  0  0  0
M  END
> <ChemID>
100623

> <source_casrn>
38380-02-8

> <CAS>
38380-02-8

> <SMILES>
Clc1cc(-c2ccc(Cl)c(Cl)c2Cl)c(Cl)cc1

> <NAME>
2,2',3,4,5'-PENTACHLOROBIPHENYL

> <preferred_name>
2,2',3,4,5'-Pentachlorobiphenyl

> <iupac>
1,2,3-trichloro-4-(2,5-dichlorophenyl)benzene

> <MPID>
98508

> <dsstox_substance_id>
DTXSID6073497

> <Canonical_QSARr>
Clc1cc(-c2ccc(Cl)c(Cl)c2Cl)c(Cl)cc1

> <InChI_Code_QSARr>
InChI=1S/C12H5Cl5/c13-6-1-3-9(14)8(5-6)7-2-4-10(15)12(17)11(7)16/h1-5H

> <InChI Key_QSARr>
OPKYDBFRKPQCBS-UHFFFAOYSA-N

> <Salt_Solvent>
?

> <LogBCF>
5.38

$$$$
100624
  -INDIGO-08031719362D

 22 23  0  0  0  0  0  0  0  0999 V2000
   -0.0001    0.0000    0.0000 C   0  0  0  0  0  0  0  0  0  0  0  0
    1.6001   -0.0000    0.0000 C   0  0  0  0  0  0  0  0  0  0  0  0
    2.4001   -1.3856    0.0000 C   0  0  0  0  0  0  0  0  0  0  0  0
    1.6001   -2.7713    0.0000 Cl  0  0  0  0  0  0  0  0  0  0  0  0
    4.0000   -1.3856    0.0000 C   0  0  0  0  0  0  0  0  0  0  0  0
    4.8000   -2.7713    0.0000 Cl  0  0  0  0  0  0  0  0  0  0  0  0
    4.8000    0.0000    0.0000 C   0  0  0  0  0  0  0  0  0  0  0  0
    6.4000    0.0000    0.0000 H   0  0  0  0  0  0  0  0  0  0  0  0
    4.0000    1.3856    0.0000 C   0  0  0  0  0  0  0  0  0  0  0  0
    4.8000    2.7713    0.0000 H   0  0  0  0  0  0  0  0  0  0  0  0
    2.4001    1.3856    0.0000 C   0  0  0  0  0  0  0  0  0  0  0  0
    1.6001    2.7713    0.0000 H   0  0  0  0  0  0  0  0  0  0  0  0
   -0.8001    1.3856    0.0000 C   0  0  0  0  0  0  0  0  0  0  0  0
   -0.0001    2.7713    0.0000 Cl  0  0  0  0  0  0  0  0  0  0  0  0
   -2.4000    1.3856    0.0000 C   0  0  0  0  0  0  0  0  0  0  0  0
   -3.2000    2.7713    0.0000 Cl  0  0  0  0  0  0  0  0  0  0  0  0
   -3.2000    0.0000    0.0000 C   0  0  0  0  0  0  0  0  0  0  0  0
   -4.8000   -0.0000    0.0000 H   0  0  0  0  0  0  0  0  0  0  0  0
   -2.4000   -1.3856    0.0000 C   0  0  0  0  0  0  0  0  0  0  0  0
   -3.2000   -2.7713    0.0000 H   0  0  0  0  0  0  0  0  0  0  0  0
   -0.8001   -1.3856    0.0000 C   0  0  0  0  0  0  0  0  0  0  0  0
   -0.0001   -2.7713    0.0000 H   0  0  0  0  0  0  0  0  0  0  0  0
  1  2  1  0  0  0  0
  2  3  1  0  0  0  0
  3  4  1  0  0  0  0
  3  5  2  0  0  0  0
  5  6  1  0  0  0  0
  5  7  1  0  0  0  0
  7  8  1  0  0  0  0
  7  9  2  0  0  0  0
  9 10  1  0  0  0  0
  9 11  1  0  0  0  0
 11  2  2  0  0  0  0
 11 12  1  0  0  0  0
  1 13  1  0  0  0  0
 13 14  1  0  0  0  0
 13 15  2  0  0  0  0
 15 16  1  0  0  0  0
 15 17  1  0  0  0  0
 17 18  1  0  0  0  0
 17 19  2  0  0  0  0
 19 20  1  0  0  0  0
 19 21  1  0  0  0  0
 21  1  2  0  0  0  0
 21 22  1  0  0  0  0
M  END
> <ChemID>
100624

> <source_casrn>
38444-93-8

> <CAS>
38444-93-8

> <SMILES>
Clc1cccc(-c2cccc(Cl)c2Cl)c1Cl

> <NAME>
2,2',3,3'-TETRACHLOROBIPHENYL

> <preferred_name>
2,2',3,3'-Tetrachlorobiphenyl

> <iupac>
1,2-dichloro-3-(2,3-dichlorophenyl)benzene

> <MPID>
98509

> <dsstox_substance_id>
DTXSID3073503

> <Canonical_QSARr>
Clc1cccc(-c2cccc(Cl)c2Cl)c1Cl

> <InChI_Code_QSARr>
InChI=1S/C12H6Cl4/c13-9-5-1-3-7(11(9)15)8-4-2-6-10(14)12(8)16/h1-6H

> <InChI Key_QSARr>
VTLYHLREPCPDKX-UHFFFAOYSA-N

> <Salt_Solvent>
?

> <LogBCF>
4.23

$$$$
100627
  -INDIGO-08031719362D

 22 24  0  0  0  0  0  0  0  0999 V2000
    0.0001   -0.0000    0.0000 C   0  0  0  0  0  0  0  0  0  0  0  0
   -1.3856    0.8000    0.0000 C   0  0  0  0  0  0  0  0  0  0  0  0
   -1.3856    2.4000    0.0000 H   0  0  0  0  0  0  0  0  0  0  0  0
   -2.7713   -0.0000    0.0000 C   0  0  0  0  0  0  0  0  0  0  0  0
   -4.1569    0.8000    0.0000 Cl  0  0  0  0  0  0  0  0  0  0  0  0
   -2.7713   -1.6000    0.0000 C   0  0  0  0  0  0  0  0  0  0  0  0
   -4.1569   -2.4000    0.0000 Cl  0  0  0  0  0  0  0  0  0  0  0  0
   -1.3856   -2.4000    0.0000 C   0  0  0  0  0  0  0  0  0  0  0  0
   -1.3856   -4.0000    0.0000 H   0  0  0  0  0  0  0  0  0  0  0  0
    0.0001   -1.6000    0.0000 C   0  0  0  0  0  0  0  0  0  0  0  0
    1.3857   -2.4000    0.0000 O   0  0  0  0  0  0  0  0  0  0  0  0
    2.7712   -1.6000    0.0000 C   0  0  0  0  0  0  0  0  0  0  0  0
    2.7712   -0.0000    0.0000 C   0  0  0  0  0  0  0  0  0  0  0  0
    4.1569    0.8000    0.0000 C   0  0  0  0  0  0  0  0  0  0  0  0
    4.1569    2.4000    0.0000 Cl  0  0  0  0  0  0  0  0  0  0  0  0
    5.5425   -0.0000    0.0000 C   0  0  0  0  0  0  0  0  0  0  0  0
    6.9282    0.8000    0.0000 Cl  0  0  0  0  0  0  0  0  0  0  0  0
    5.5425   -1.6000    0.0000 C   0  0  0  0  0  0  0  0  0  0  0  0
    6.9282   -2.4000    0.0000 Cl  0  0  0  0  0  0  0  0  0  0  0  0
    4.1569   -2.4000    0.0000 C   0  0  0  0  0  0  0  0  0  0  0  0
    4.1569   -4.0000    0.0000 Cl  0  0  0  0  0  0  0  0  0  0  0  0
    1.3857    0.8000    0.0000 O   0  0  0  0  0  0  0  0  0  0  0  0
  1  2  1  0  0  0  0
  2  3  1  0  0  0  0
  2  4  2  0  0  0  0
  4  5  1  0  0  0  0
  4  6  1  0  0  0  0
  6  7  1  0  0  0  0
  6  8  2  0  0  0  0
  8  9  1  0  0  0  0
  8 10  1  0  0  0  0
 10  1  2  0  0  0  0
 10 11  1  0  0  0  0
 11 12  1  0  0  0  0
 12 13  1  0  0  0  0
 13 14  2  0  0  0  0
 14 15  1  0  0  0  0
 14 16  1  0  0  0  0
 16 17  1  0  0  0  0
 16 18  2  0  0  0  0
 18 19  1  0  0  0  0
 18 20  1  0  0  0  0
 20 12  2  0  0  0  0
 20 21  1  0  0  0  0
 13 22  1  0  0  0  0
 22  1  1  0  0  0  0
M  END
> <ChemID>
100627

> <source_casrn>
39227-28-6

> <CAS>
39227-28-6

> <SMILES>
Clc1cc2Oc3c(Oc2cc1Cl)c(Cl)c(Cl)c(Cl)c3Cl

> <NAME>
1,2,3,4,7,8-HEXACHLORODIBENZO-P-DIOXIN

> <preferred_name>
1,2,3,4,7,8-Hexachlorodibenzodioxin

> <iupac>
1,2,3,4,7,8-hexachlorooxanthrene

> <MPID>
98511

> <dsstox_substance_id>
DTXSID8052067

> <Canonical_QSARr>
Clc1cc2Oc3c(Oc2cc1Cl)c(Cl)c(Cl)c(Cl)c3Cl

> <InChI_Code_QSARr>
InChI=1S/C12H2Cl6O2/c13-3-1-5-6(2-4(3)14)20-12-10(18)8(16)7(15)9(17)11(12)19-5/h1-2H

> <InChI Key_QSARr>
WCYYQNSQJHPVMG-UHFFFAOYSA-N

> <Salt_Solvent>
?

> <LogBCF>
4.0

$$$$
100628
  -INDIGO-08031719362D

 22 24  0  0  0  0  0  0  0  0999 V2000
   -1.3856   -4.0000    0.0000 Cl  0  0  0  0  0  0  0  0  0  0  0  0
   -1.3856   -2.4000    0.0000 C   0  0  0  0  0  0  0  0  0  0  0  0
    0.0001   -1.6000    0.0000 C   0  0  0  0  0  0  0  0  0  0  0  0
    1.3857   -2.4000    0.0000 O   0  0  0  0  0  0  0  0  0  0  0  0
    2.7712   -1.6000    0.0000 C   0  0  0  0  0  0  0  0  0  0  0  0
    2.7712   -0.0000    0.0000 C   0  0  0  0  0  0  0  0  0  0  0  0
    1.3857    0.8000    0.0000 O   0  0  0  0  0  0  0  0  0  0  0  0
    0.0001   -0.0000    0.0000 C   0  0  0  0  0  0  0  0  0  0  0  0
   -1.3856    0.8000    0.0000 C   0  0  0  0  0  0  0  0  0  0  0  0
   -1.3856    2.4000    0.0000 Cl  0  0  0  0  0  0  0  0  0  0  0  0
   -2.7713   -0.0000    0.0000 C   0  0  0  0  0  0  0  0  0  0  0  0
   -4.1569    0.8000    0.0000 H   0  0  0  0  0  0  0  0  0  0  0  0
   -2.7713   -1.6000    0.0000 C   0  0  0  0  0  0  0  0  0  0  0  0
   -4.1569   -2.4000    0.0000 Cl  0  0  0  0  0  0  0  0  0  0  0  0
    4.1569    0.8000    0.0000 C   0  0  0  0  0  0  0  0  0  0  0  0
    4.1569    2.4000    0.0000 H   0  0  0  0  0  0  0  0  0  0  0  0
    5.5425   -0.0000    0.0000 C   0  0  0  0  0  0  0  0  0  0  0  0
    6.9282    0.8000    0.0000 H   0  0  0  0  0  0  0  0  0  0  0  0
    5.5425   -1.6000    0.0000 C   0  0  0  0  0  0  0  0  0  0  0  0
    6.9282   -2.4000    0.0000 H   0  0  0  0  0  0  0  0  0  0  0  0
    4.1569   -2.4000    0.0000 C   0  0  0  0  0  0  0  0  0  0  0  0
    4.1569   -4.0000    0.0000 H   0  0  0  0  0  0  0  0  0  0  0  0
  1  2  1  0  0  0  0
  2  3  1  0  0  0  0
  3  4  1  0  0  0  0
  4  5  1  0  0  0  0
  5  6  1  0  0  0  0
  6  7  1  0  0  0  0
  7  8  1  0  0  0  0
  8  3  2  0  0  0  0
  8  9  1  0  0  0  0
  9 10  1  0  0  0  0
  9 11  2  0  0  0  0
 11 12  1  0  0  0  0
 11 13  1  0  0  0  0
 13  2  2  0  0  0  0
 13 14  1  0  0  0  0
  6 15  2  0  0  0  0
 15 16  1  0  0  0  0
 15 17  1  0  0  0  0
 17 18  1  0  0  0  0
 17 19  2  0  0  0  0
 19 20  1  0  0  0  0
 19 21  1  0  0  0  0
 21  5  2  0  0  0  0
 21 22  1  0  0  0  0
M  END
> <ChemID>
100628

> <source_casrn>
39227-58-2

> <CAS>
39227-58-2

> <SMILES>
Clc1cc(Cl)c(Cl)c2Oc3ccccc3Oc12

> <NAME>
1,2,4-TRICHLORODIBENZO-P-DIOXIN

> <preferred_name>
1,2,4-Trichlorodibenzo-1,4-dioxin

> <iupac>
1,2,4-trichlorooxanthrene

> <MPID>
98512

> <dsstox_substance_id>
DTXSID50192489

> <Canonical_QSARr>
Clc1cc(Cl)c(Cl)c2Oc3ccccc3Oc12

> <InChI_Code_QSARr>
InChI=1S/C12H5Cl3O2/c13-6-5-7(14)11-12(10(6)15)17-9-4-2-1-3-8(9)16-11/h1-5H

> <InChI Key_QSARr>
HRVUKLBFRPWXPJ-UHFFFAOYSA-N

> <Salt_Solvent>
?

> <LogBCF>
2.75

$$$$
100629
  -INDIGO-08031719362D

 22 24  0  0  0  0  0  0  0  0999 V2000
    0.0001   -0.0000    0.0000 C   0  0  0  0  0  0  0  0  0  0  0  0
   -1.3856    0.8000    0.0000 C   0  0  0  0  0  0  0  0  0  0  0  0
   -1.3856    2.4000    0.0000 H   0  0  0  0  0  0  0  0  0  0  0  0
   -2.7713   -0.0000    0.0000 C   0  0  0  0  0  0  0  0  0  0  0  0
   -4.1569    0.8000    0.0000 Cl  0  0  0  0  0  0  0  0  0  0  0  0
   -2.7713   -1.6000    0.0000 C   0  0  0  0  0  0  0  0  0  0  0  0
   -4.1569   -2.4000    0.0000 Cl  0  0  0  0  0  0  0  0  0  0  0  0
   -1.3856   -2.4000    0.0000 C   0  0  0  0  0  0  0  0  0  0  0  0
   -1.3856   -4.0000    0.0000 H   0  0  0  0  0  0  0  0  0  0  0  0
    0.0001   -1.6000    0.0000 C   0  0  0  0  0  0  0  0  0  0  0  0
    1.3857   -2.4000    0.0000 O   0  0  0  0  0  0  0  0  0  0  0  0
    2.7712   -1.6000    0.0000 C   0  0  0  0  0  0  0  0  0  0  0  0
    2.7712   -0.0000    0.0000 C   0  0  0  0  0  0  0  0  0  0  0  0
    4.1569    0.8000    0.0000 C   0  0  0  0  0  0  0  0  0  0  0  0
    4.1569    2.4000    0.0000 Cl  0  0  0  0  0  0  0  0  0  0  0  0
    5.5425   -0.0000    0.0000 C   0  0  0  0  0  0  0  0  0  0  0  0
    6.9282    0.8000    0.0000 Cl  0  0  0  0  0  0  0  0  0  0  0  0
    5.5425   -1.6000    0.0000 C   0  0  0  0  0  0  0  0  0  0  0  0
    6.9282   -2.4000    0.0000 Cl  0  0  0  0  0  0  0  0  0  0  0  0
    4.1569   -2.4000    0.0000 C   0  0  0  0  0  0  0  0  0  0  0  0
    4.1569   -4.0000    0.0000 H   0  0  0  0  0  0  0  0  0  0  0  0
    1.3857    0.8000    0.0000 O   0  0  0  0  0  0  0  0  0  0  0  0
  1  2  1  0  0  0  0
  2  3  1  0  0  0  0
  2  4  2  0  0  0  0
  4  5  1  0  0  0  0
  4  6  1  0  0  0  0
  6  7  1  0  0  0  0
  6  8  2  0  0  0  0
  8  9  1  0  0  0  0
  8 10  1  0  0  0  0
 10  1  2  0  0  0  0
 10 11  1  0  0  0  0
 11 12  1  0  0  0  0
 12 13  1  0  0  0  0
 13 14  2  0  0  0  0
 14 15  1  0  0  0  0
 14 16  1  0  0  0  0
 16 17  1  0  0  0  0
 16 18  2  0  0  0  0
 18 19  1  0  0  0  0
 18 20  1  0  0  0  0
 20 12  2  0  0  0  0
 20 21  1  0  0  0  0
 13 22  1  0  0  0  0
 22  1  1  0  0  0  0
M  END
> <ChemID>
100629

> <source_casrn>
40321-76-4

> <CAS>
40321-76-4

> <SMILES>
Clc1c(Cl)c2Oc3cc(Cl)c(Cl)cc3Oc2cc1Cl

> <NAME>
1,2,3,7,8-PENTACHLORODIBENZO-P-DIOXIN

> <preferred_name>
1,2,3,7,8-Pentachlorodibenzo-p-dioxin

> <iupac>
1,2,3,7,8-pentachlorooxanthrene

> <MPID>
98513

> <dsstox_substance_id>
DTXSID7052078

> <Canonical_QSARr>
Clc1c(Cl)c2Oc3cc(Cl)c(Cl)cc3Oc2cc1Cl

> <InChI_Code_QSARr>
InChI=1S/C12H3Cl5O2/c13-4-1-7-8(2-5(4)14)19-12-9(18-7)3-6(15)10(16)11(12)17/h1-3H

> <InChI Key_QSARr>
FSPZPQQWDODWAU-UHFFFAOYSA-N

> <Salt_Solvent>
?

> <LogBCF>
4.26

$$$$
100631
  -INDIGO-08031719362D

 22 23  0  0  0  0  0  0  0  0999 V2000
   -0.0001    0.0000    0.0000 C   0  0  0  0  0  0  0  0  0  0  0  0
    1.6001   -0.0000    0.0000 C   0  0  0  0  0  0  0  0  0  0  0  0
    2.4001   -1.3856    0.0000 C   0  0  0  0  0  0  0  0  0  0  0  0
    1.6001   -2.7713    0.0000 Cl  0  0  0  0  0  0  0  0  0  0  0  0
    4.0000   -1.3856    0.0000 C   0  0  0  0  0  0  0  0  0  0  0  0
    4.8000   -2.7713    0.0000 H   0  0  0  0  0  0  0  0  0  0  0  0
    4.8000    0.0000    0.0000 C   0  0  0  0  0  0  0  0  0  0  0  0
    6.4000    0.0000    0.0000 H   0  0  0  0  0  0  0  0  0  0  0  0
    4.0000    1.3856    0.0000 C   0  0  0  0  0  0  0  0  0  0  0  0
    4.8000    2.7713    0.0000 Cl  0  0  0  0  0  0  0  0  0  0  0  0
    2.4001    1.3856    0.0000 C   0  0  0  0  0  0  0  0  0  0  0  0
    1.6001    2.7713    0.0000 H   0  0  0  0  0  0  0  0  0  0  0  0
   -0.8001    1.3856    0.0000 C   0  0  0  0  0  0  0  0  0  0  0  0
   -0.0001    2.7713    0.0000 Cl  0  0  0  0  0  0  0  0  0  0  0  0
   -2.4000    1.3856    0.0000 C   0  0  0  0  0  0  0  0  0  0  0  0
   -3.2000    2.7713    0.0000 Cl  0  0  0  0  0  0  0  0  0  0  0  0
   -3.2000    0.0000    0.0000 C   0  0  0  0  0  0  0  0  0  0  0  0
   -4.8000   -0.0000    0.0000 H   0  0  0  0  0  0  0  0  0  0  0  0
   -2.4000   -1.3856    0.0000 C   0  0  0  0  0  0  0  0  0  0  0  0
   -3.2000   -2.7713    0.0000 H   0  0  0  0  0  0  0  0  0  0  0  0
   -0.8001   -1.3856    0.0000 C   0  0  0  0  0  0  0  0  0  0  0  0
   -0.0001   -2.7713    0.0000 H   0  0  0  0  0  0  0  0  0  0  0  0
  1  2  1  0  0  0  0
  2  3  1  0  0  0  0
  3  4  1  0  0  0  0
  3  5  2  0  0  0  0
  5  6  1  0  0  0  0
  5  7  1  0  0  0  0
  7  8  1  0  0  0  0
  7  9  2  0  0  0  0
  9 10  1  0  0  0  0
  9 11  1  0  0  0  0
 11  2  2  0  0  0  0
 11 12  1  0  0  0  0
  1 13  1  0  0  0  0
 13 14  1  0  0  0  0
 13 15  2  0  0  0  0
 15 16  1  0  0  0  0
 15 17  1  0  0  0  0
 17 18  1  0  0  0  0
 17 19  2  0  0  0  0
 19 20  1  0  0  0  0
 19 21  1  0  0  0  0
 21  1  2  0  0  0  0
 21 22  1  0  0  0  0
M  END
> <ChemID>
100631

> <source_casrn>
41464-39-5

> <CAS>
41464-39-5

> <SMILES>
Clc1cc(-c2cccc(Cl)c2Cl)c(Cl)cc1

> <NAME>
2,2',3,5'-TETRACHLOROBIPHENYL

> <preferred_name>
2,2',3,5'-tetrachlorobiphenyl

> <iupac>
2,2',3,5'-tetrachlorobiphenyl

> <MPID>
98515

> <dsstox_substance_id>
DTXSID8038302

> <Canonical_QSARr>
Clc1cc(-c2cccc(Cl)c2Cl)c(Cl)cc1

> <InChI_Code_QSARr>
InChI=1S/C12H6Cl4/c13-7-4-5-10(14)9(6-7)8-2-1-3-11(15)12(8)16/h1-6H

> <InChI Key_QSARr>
ALDJIKXAHSDLLB-UHFFFAOYSA-N

> <Salt_Solvent>
?

> <LogBCF>
4.84

$$$$
100633
  -INDIGO-08031719362D

 16 16  0  0  0  0  0  0  0  0999 V2000
   -0.0000    2.7713    0.0000 Cl  0  0  0  0  0  0  0  0  0  0  0  0
   -0.8000    1.3856    0.0000 C   0  0  0  0  0  0  0  0  0  0  0  0
   -0.0000   -0.0000    0.0000 C   0  0  0  0  0  0  0  0  0  0  0  0
    1.6000   -0.0000    0.0000 O   0  0  0  0  0  0  0  0  0  0  0  0
    2.4001    1.3856    0.0000 C   0  0  0  0  0  0  0  0  0  0  0  0
    4.0000    1.3856    0.0000 H   0  0  0  0  0  0  0  0  0  0  0  0
    3.2000    2.7713    0.0000 H   0  0  0  0  0  0  0  0  0  0  0  0
    3.2000   -0.0000    0.0000 H   0  0  0  0  0  0  0  0  0  0  0  0
   -0.8000   -1.3856    0.0000 C   0  0  0  0  0  0  0  0  0  0  0  0
   -0.0000   -2.7713    0.0000 Cl  0  0  0  0  0  0  0  0  0  0  0  0
   -2.4000   -1.3856    0.0000 C   0  0  0  0  0  0  0  0  0  0  0  0
   -3.2001   -2.7713    0.0000 H   0  0  0  0  0  0  0  0  0  0  0  0
   -3.2001   -0.0000    0.0000 C   0  0  0  0  0  0  0  0  0  0  0  0
   -4.8000   -0.0000    0.0000 H   0  0  0  0  0  0  0  0  0  0  0  0
   -2.4000    1.3856    0.0000 C   0  0  0  0  0  0  0  0  0  0  0  0
   -3.2001    2.7713    0.0000 Cl  0  0  0  0  0  0  0  0  0  0  0  0
  1  2  1  0  0  0  0
  2  3  1  0  0  0  0
  3  4  1  0  0  0  0
  4  5  1  0  0  0  0
  5  6  1  0  0  0  0
  5  7  1  0  0  0  0
  5  8  1  0  0  0  0
  3  9  2  0  0  0  0
  9 10  1  0  0  0  0
  9 11  1  0  0  0  0
 11 12  1  0  0  0  0
 11 13  2  0  0  0  0
 13 14  1  0  0  0  0
 13 15  1  0  0  0  0
 15  2  2  0  0  0  0
 15 16  1  0  0  0  0
M  END
> <ChemID>
100633

> <source_casrn>
50375-10-5

> <CAS>
50375-10-5

> <SMILES>
COc1c(Cl)c(Cl)ccc1Cl

> <NAME>
2,3,6-TRICHLOROANISOLE

> <preferred_name>
2,3,6-Trichloroanisole

> <iupac>
1,2,4-trichloro-3-methoxybenzene

> <MPID>
98516

> <dsstox_substance_id>
DTXSID60198432

> <Canonical_QSARr>
COc1c(Cl)c(Cl)ccc1Cl

> <InChI_Code_QSARr>
InChI=1S/C7H5Cl3O/c1-11-7-5(9)3-2-4(8)6(7)10/h2-3H,1H3

> <InChI Key_QSARr>
OTFNCXLUCRUNCH-UHFFFAOYSA-N

> <Salt_Solvent>
?

> <LogBCF>
2.52

$$$$
100634
  -INDIGO-08031719362D

 36 36  0  0  0  0  0  0  0  0999 V2000
    1.2944   -0.9405    0.0000 C   0  0  0  0  0  0  0  0  0  0  0  0
    2.5888   -1.8809    0.0000 H   0  0  0  0  0  0  0  0  0  0  0  0
    2.7561   -0.2896    0.0000 H   0  0  0  0  0  0  0  0  0  0  0  0
    1.1273   -2.5317    0.0000 H   0  0  0  0  0  0  0  0  0  0  0  0
    0.0000    0.0000    0.0000 C   0  0  0  0  0  0  0  0  0  0  0  0
   -1.2944    0.9404    0.0000 H   0  0  0  0  0  0  0  0  0  0  0  0
    0.9405    1.2944    0.0000 C   0  0  0  0  0  0  0  0  0  0  0  0
    1.8808    2.5889    0.0000 H   0  0  0  0  0  0  0  0  0  0  0  0
    2.5318    1.1272    0.0000 H   0  0  0  0  0  0  0  0  0  0  0  0
    0.2896    2.7561    0.0000 H   0  0  0  0  0  0  0  0  0  0  0  0
   -0.9405   -1.2944    0.0000 O   0  0  0  0  0  0  0  0  0  0  0  0
   -2.5318   -1.1271    0.0000 C   0  0  0  0  0  0  0  0  0  0  0  0
   -3.4721   -2.4216    0.0000 C   0  0  0  0  0  0  0  0  0  0  0  0
   -5.0634   -2.2543    0.0000 C   0  0  0  0  0  0  0  0  0  0  0  0
   -6.0039   -3.5487    0.0000 O   0  0  0  0  0  0  0  0  0  0  0  0
   -5.7141   -0.7927    0.0000 O   0  0  0  0  0  0  0  0  0  0  0  0
   -7.3054   -0.6254    0.0000 C   0  0  0  0  0  0  0  0  0  0  0  0
   -7.4727   -2.2166    0.0000 H   0  0  0  0  0  0  0  0  0  0  0  0
   -8.8966   -0.4582    0.0000 C   0  0  0  0  0  0  0  0  0  0  0  0
  -10.4879   -0.2909    0.0000 H   0  0  0  0  0  0  0  0  0  0  0  0
   -9.5473    1.0035    0.0000 H   0  0  0  0  0  0  0  0  0  0  0  0
   -9.8371   -1.7526    0.0000 H   0  0  0  0  0  0  0  0  0  0  0  0
   -7.1382    0.9658    0.0000 C   0  0  0  0  0  0  0  0  0  0  0  0
   -6.9709    2.5570    0.0000 H   0  0  0  0  0  0  0  0  0  0  0  0
   -8.4326    1.9063    0.0000 H   0  0  0  0  0  0  0  0  0  0  0  0
   -5.6765    1.6166    0.0000 H   0  0  0  0  0  0  0  0  0  0  0  0
   -2.8214   -3.8832    0.0000 C   0  0  0  0  0  0  0  0  0  0  0  0
   -1.2564   -4.2159    0.0000 S   0  0  0  0  0  0  0  0  0  0  0  0
   -1.0891   -5.8071    0.0000 C   0  0  0  0  0  0  0  0  0  0  0  0
    0.4759   -5.4746    0.0000 H   0  0  0  0  0  0  0  0  0  0  0  0
   -0.5948   -7.3289    0.0000 H   0  0  0  0  0  0  0  0  0  0  0  0
   -2.5508   -6.4580    0.0000 C   0  0  0  0  0  0  0  0  0  0  0  0
   -1.7507   -7.8436    0.0000 H   0  0  0  0  0  0  0  0  0  0  0  0
   -3.8452   -7.3985    0.0000 H   0  0  0  0  0  0  0  0  0  0  0  0
   -3.6215   -5.2690    0.0000 S   0  0  0  0  0  0  0  0  0  0  0  0
   -3.1825    0.3345    0.0000 O   0  0  0  0  0  0  0  0  0  0  0  0
  1  2  1  0  0  0  0
  1  3  1  0  0  0  0
  1  4  1  0  0  0  0
  1  5  1  0  0  0  0
  5  6  1  0  0  0  0
  5  7  1  0  0  0  0
  7  8  1  0  0  0  0
  7  9  1  0  0  0  0
  7 10  1  0  0  0  0
  5 11  1  0  0  0  0
 11 12  1  0  0  0  0
 12 13  1  0  0  0  0
 13 14  1  0  0  0  0
 14 15  2  0  0  0  0
 14 16  1  0  0  0  0
 16 17  1  0  0  0  0
 17 18  1  0  0  0  0
 17 19  1  0  0  0  0
 19 20  1  0  0  0  0
 19 21  1  0  0  0  0
 19 22  1  0  0  0  0
 17 23  1  0  0  0  0
 23 24  1  0  0  0  0
 23 25  1  0  0  0  0
 23 26  1  0  0  0  0
 13 27  2  0  0  0  0
 27 28  1  0  0  0  0
 28 29  1  0  0  0  0
 29 30  1  0  0  0  0
 29 31  1  0  0  0  0
 29 32  1  0  0  0  0
 32 33  1  0  0  0  0
 32 34  1  0  0  0  0
 32 35  1  0  0  0  0
 35 27  1  0  0  0  0
 12 36  2  0  0  0  0
M  END
> <ChemID>
100634

> <source_casrn>
50512-35-1

> <CAS>
50512-35-1

> <SMILES>
CC(C)OC(=O)C(C(=O)OC(C)C)=C1SCCS1

> <NAME>
IPT (ISOPROTHIOLANE)

> <preferred_name>
Isoprothiolane

> <iupac>
diisopropyl 1,3-dithiolan-2-ylidenemalonate

> <MPID>
98517

> <dsstox_substance_id>
DTXSID8058110

> <Canonical_QSARr>
CC(C)OC(=O)C(=C1SCCS1)C(=O)OC(C)C

> <InChI_Code_QSARr>
InChI=1S/C12H18O4S2/c1-7(2)15-10(13)9(11(14)16-8(3)4)12-17-5-6-18-12/h7-8H,5-6H2,1-4H3

> <InChI Key_QSARr>
UFHLMYOGRXOCSL-UHFFFAOYSA-N

> <Salt_Solvent>
?

> <LogBCF>
1.57

$$$$
100637
  -INDIGO-08031719362D

 52 54  0  0  0  0  0  0  0  0999 V2000
   -2.8893    0.2528    0.0000 O   0  0  0  0  0  0  0  0  0  0  0  0
   -1.5035   -0.5473    0.0000 C   0  0  0  0  0  0  0  0  0  0  0  0
    0.0001    0.0001    0.0000 C   0  0  0  0  0  0  0  0  0  0  0  0
    0.0001   -1.6001    0.0000 H   0  0  0  0  0  0  0  0  0  0  0  0
    1.5756   -0.2778    0.0000 C   0  0  0  0  0  0  0  0  0  0  0  0
    2.6041    0.9479    0.0000 C   0  0  0  0  0  0  0  0  0  0  0  0
    2.0568    2.4513    0.0000 H   0  0  0  0  0  0  0  0  0  0  0  0
    4.1799    0.6700    0.0000 C   0  0  0  0  0  0  0  0  0  0  0  0
    5.2085    1.8956    0.0000 H   0  0  0  0  0  0  0  0  0  0  0  0
    4.7269   -0.8336    0.0000 C   0  0  0  0  0  0  0  0  0  0  0  0
    6.3028   -1.1114    0.0000 Cl  0  0  0  0  0  0  0  0  0  0  0  0
    3.6988   -2.0591    0.0000 C   0  0  0  0  0  0  0  0  0  0  0  0
    4.2458   -3.5627    0.0000 H   0  0  0  0  0  0  0  0  0  0  0  0
    2.1229   -1.7814    0.0000 C   0  0  0  0  0  0  0  0  0  0  0  0
    1.0944   -3.0070    0.0000 H   0  0  0  0  0  0  0  0  0  0  0  0
    0.0001    1.6000    0.0000 C   0  0  0  0  0  0  0  0  0  0  0  0
    1.6000    1.6000    0.0000 H   0  0  0  0  0  0  0  0  0  0  0  0
    0.2778    3.1757    0.0000 C   0  0  0  0  0  0  0  0  0  0  0  0
    0.5558    4.7514    0.0000 H   0  0  0  0  0  0  0  0  0  0  0  0
   -0.9478    4.2042    0.0000 H   0  0  0  0  0  0  0  0  0  0  0  0
    1.7814    3.7229    0.0000 H   0  0  0  0  0  0  0  0  0  0  0  0
   -1.6001    1.6000    0.0000 C   0  0  0  0  0  0  0  0  0  0  0  0
   -2.4001    2.9857    0.0000 H   0  0  0  0  0  0  0  0  0  0  0  0
   -3.2000    1.6000    0.0000 H   0  0  0  0  0  0  0  0  0  0  0  0
   -0.7999    2.9857    0.0000 H   0  0  0  0  0  0  0  0  0  0  0  0
   -1.5035   -2.1472    0.0000 O   0  0  0  0  0  0  0  0  0  0  0  0
   -2.8893   -2.9473    0.0000 C   0  0  0  0  0  0  0  0  0  0  0  0
   -2.8893   -1.3472    0.0000 H   0  0  0  0  0  0  0  0  0  0  0  0
   -4.2748   -3.7471    0.0000 C   0  0  0  0  0  0  0  0  0  0  0  0
   -4.2748   -5.3473    0.0000 C   0  0  0  0  0  0  0  0  0  0  0  0
   -2.8893   -6.1473    0.0000 H   0  0  0  0  0  0  0  0  0  0  0  0
   -5.6606   -6.1473    0.0000 C   0  0  0  0  0  0  0  0  0  0  0  0
   -5.6606   -7.7472    0.0000 H   0  0  0  0  0  0  0  0  0  0  0  0
   -7.0460   -5.3473    0.0000 C   0  0  0  0  0  0  0  0  0  0  0  0
   -8.4318   -6.1473    0.0000 H   0  0  0  0  0  0  0  0  0  0  0  0
   -7.0460   -3.7471    0.0000 C   0  0  0  0  0  0  0  0  0  0  0  0
   -8.4318   -2.9473    0.0000 O   0  0  0  0  0  0  0  0  0  0  0  0
  -10.0073   -3.2251    0.0000 C   0  0  0  0  0  0  0  0  0  0  0  0
  -10.5546   -4.7286    0.0000 C   0  0  0  0  0  0  0  0  0  0  0  0
   -9.5261   -5.9543    0.0000 H   0  0  0  0  0  0  0  0  0  0  0  0
  -12.1305   -5.0064    0.0000 C   0  0  0  0  0  0  0  0  0  0  0  0
  -12.6775   -6.5099    0.0000 H   0  0  0  0  0  0  0  0  0  0  0  0
  -13.1587   -3.7807    0.0000 C   0  0  0  0  0  0  0  0  0  0  0  0
  -14.7345   -4.0586    0.0000 H   0  0  0  0  0  0  0  0  0  0  0  0
  -12.6117   -2.2773    0.0000 C   0  0  0  0  0  0  0  0  0  0  0  0
  -13.6402   -1.0516    0.0000 H   0  0  0  0  0  0  0  0  0  0  0  0
  -11.0358   -1.9994    0.0000 C   0  0  0  0  0  0  0  0  0  0  0  0
  -10.4885   -0.4958    0.0000 H   0  0  0  0  0  0  0  0  0  0  0  0
   -5.6606   -2.9473    0.0000 C   0  0  0  0  0  0  0  0  0  0  0  0
   -5.6606   -1.3472    0.0000 H   0  0  0  0  0  0  0  0  0  0  0  0
   -1.5035   -3.7471    0.0000 C   0  0  0  0  0  0  0  0  0  0  0  0
   -0.1177   -4.5472    0.0000 N   0  0  0  0  0  0  0  0  0  0  0  0
  1  2  2  0  0  0  0
  2  3  1  0  0  0  0
  3  4  1  0  0  0  0
  3  5  1  0  0  0  0
  5  6  1  0  0  0  0
  6  7  1  0  0  0  0
  6  8  2  0  0  0  0
  8  9  1  0  0  0  0
  8 10  1  0  0  0  0
 10 11  1  0  0  0  0
 10 12  2  0  0  0  0
 12 13  1  0  0  0  0
 12 14  1  0  0  0  0
 14  5  2  0  0  0  0
 14 15  1  0  0  0  0
  3 16  1  0  0  0  0
 16 17  1  0  0  0  0
 16 18  1  0  0  0  0
 18 19  1  0  0  0  0
 18 20  1  0  0  0  0
 18 21  1  0  0  0  0
 16 22  1  0  0  0  0
 22 23  1  0  0  0  0
 22 24  1  0  0  0  0
 22 25  1  0  0  0  0
  2 26  1  0  0  0  0
 26 27  1  0  0  0  0
 27 28  1  0  0  0  0
 27 29  1  0  0  0  0
 29 30  1  0  0  0  0
 30 31  1  0  0  0  0
 30 32  2  0  0  0  0
 32 33  1  0  0  0  0
 32 34  1  0  0  0  0
 34 35  1  0  0  0  0
 34 36  2  0  0  0  0
 36 37  1  0  0  0  0
 37 38  1  0  0  0  0
 38 39  1  0  0  0  0
 39 40  1  0  0  0  0
 39 41  2  0  0  0  0
 41 42  1  0  0  0  0
 41 43  1  0  0  0  0
 43 44  1  0  0  0  0
 43 45  2  0  0  0  0
 45 46  1  0  0  0  0
 45 47  1  0  0  0  0
 47 38  2  0  0  0  0
 47 48  1  0  0  0  0
 36 49  1  0  0  0  0
 49 29  2  0  0  0  0
 49 50  1  0  0  0  0
 27 51  1  0  0  0  0
 51 52  3  0  0  0  0
M  END
> <ChemID>
100637

> <source_casrn>
51630-58-1

> <CAS>
51630-58-1

> <SMILES>
CC(C)C(C(=O)OC(C#N)c1cc(ccc1)Oc1ccccc1)c1ccc(Cl)cc1

> <NAME>
FENVALERATE

> <preferred_name>
Fenvalerate

> <iupac>
cyano(3-phenoxyphenyl)methyl 2-(4-chlorophenyl)-3-methylbutanoate

> <MPID>
98519

> <dsstox_substance_id>
DTXSID3020621

> <Canonical_QSARr>
CC(C)C(C(=O)OC(C#N)c1cc(ccc1)Oc1ccccc1)c1ccc(Cl)cc1

> <InChI_Code_QSARr>
InChI=1S/C25H22ClNO3/c1-17(2)24(18-11-13-20(26)14-12-18)25(28)30-23(16-27)19-7-6-10-22(15-19)29-21-8-4-3-5-9-21/h3-15,17,23-24H,1-2H3

> <InChI Key_QSARr>
NYPJDWWKZLNGGM-UHFFFAOYSA-N

> <Salt_Solvent>
?

> <LogBCF>
2.85

$$$$
100638
  -INDIGO-08031719362D

 47 49  0  0  0  0  0  0  0  0999 V2000
   -0.0000    0.0000    0.0000 C   0  0  0  0  0  0  0  0  0  0  0  0
   -0.8000   -1.3857    0.0000 C   0  0  0  0  0  0  0  0  0  0  0  0
    0.4257   -2.4141    0.0000 H   0  0  0  0  0  0  0  0  0  0  0  0
   -2.1856   -2.1856    0.0000 C   0  0  0  0  0  0  0  0  0  0  0  0
   -3.1445   -2.1354    0.0000 H   0  0  0  0  0  0  0  0  0  0  0  0
   -2.1856   -3.7857    0.0000 C   0  0  0  0  0  0  0  0  0  0  0  0
   -3.5711   -4.5856    0.0000 Cl  0  0  0  0  0  0  0  0  0  0  0  0
   -0.8000   -4.5856    0.0000 Cl  0  0  0  0  0  0  0  0  0  0  0  0
   -1.6000    0.0000    0.0000 C   0  0  0  0  0  0  0  0  0  0  0  0
   -1.8780    1.5756    0.0000 H   0  0  0  0  0  0  0  0  0  0  0  0
   -3.1034   -0.5472    0.0000 C   0  0  0  0  0  0  0  0  0  0  0  0
   -4.3291    0.4812    0.0000 O   0  0  0  0  0  0  0  0  0  0  0  0
   -5.8328   -0.0660    0.0000 C   0  0  0  0  0  0  0  0  0  0  0  0
   -6.1104   -1.6417    0.0000 H   0  0  0  0  0  0  0  0  0  0  0  0
   -6.6328    1.3196    0.0000 C   0  0  0  0  0  0  0  0  0  0  0  0
   -7.4328    2.7053    0.0000 N   0  0  0  0  0  0  0  0  0  0  0  0
   -7.3362   -0.6133    0.0000 C   0  0  0  0  0  0  0  0  0  0  0  0
   -8.5619    0.4153    0.0000 C   0  0  0  0  0  0  0  0  0  0  0  0
   -8.2840    1.9909    0.0000 H   0  0  0  0  0  0  0  0  0  0  0  0
  -10.0653   -0.1320    0.0000 C   0  0  0  0  0  0  0  0  0  0  0  0
  -11.2910    0.8965    0.0000 O   0  0  0  0  0  0  0  0  0  0  0  0
  -12.8910    0.8965    0.0000 C   0  0  0  0  0  0  0  0  0  0  0  0
  -13.6910   -0.4892    0.0000 C   0  0  0  0  0  0  0  0  0  0  0  0
  -12.8910   -1.8748    0.0000 H   0  0  0  0  0  0  0  0  0  0  0  0
  -15.2910   -0.4892    0.0000 C   0  0  0  0  0  0  0  0  0  0  0  0
  -16.0910   -1.8748    0.0000 H   0  0  0  0  0  0  0  0  0  0  0  0
  -16.0910    0.8965    0.0000 C   0  0  0  0  0  0  0  0  0  0  0  0
  -17.6911    0.8965    0.0000 H   0  0  0  0  0  0  0  0  0  0  0  0
  -15.2910    2.2820    0.0000 C   0  0  0  0  0  0  0  0  0  0  0  0
  -16.0910    3.6677    0.0000 H   0  0  0  0  0  0  0  0  0  0  0  0
  -13.6910    2.2820    0.0000 C   0  0  0  0  0  0  0  0  0  0  0  0
  -12.8910    3.6677    0.0000 H   0  0  0  0  0  0  0  0  0  0  0  0
  -10.3432   -1.7077    0.0000 C   0  0  0  0  0  0  0  0  0  0  0  0
  -11.8466   -2.2549    0.0000 H   0  0  0  0  0  0  0  0  0  0  0  0
   -9.1175   -2.7361    0.0000 C   0  0  0  0  0  0  0  0  0  0  0  0
   -9.3954   -4.3119    0.0000 H   0  0  0  0  0  0  0  0  0  0  0  0
   -7.6141   -2.1889    0.0000 C   0  0  0  0  0  0  0  0  0  0  0  0
   -6.3884   -3.2174    0.0000 H   0  0  0  0  0  0  0  0  0  0  0  0
   -3.5711   -1.3857    0.0000 O   0  0  0  0  0  0  0  0  0  0  0  0
    0.2779    1.5756    0.0000 C   0  0  0  0  0  0  0  0  0  0  0  0
    0.5555    3.1514    0.0000 H   0  0  0  0  0  0  0  0  0  0  0  0
    1.7813    2.1230    0.0000 H   0  0  0  0  0  0  0  0  0  0  0  0
   -0.9478    2.6042    0.0000 H   0  0  0  0  0  0  0  0  0  0  0  0
    1.5037   -0.5472    0.0000 C   0  0  0  0  0  0  0  0  0  0  0  0
    3.0070   -1.0945    0.0000 H   0  0  0  0  0  0  0  0  0  0  0  0
    2.7291    0.4812    0.0000 H   0  0  0  0  0  0  0  0  0  0  0  0
    1.7813   -2.1229    0.0000 H   0  0  0  0  0  0  0  0  0  0  0  0
  1  2  1  0  0  0  0
  2  3  1  0  0  0  0
  2  4  1  0  0  0  0
  4  5  1  0  0  0  0
  4  6  2  0  0  0  0
  6  7  1  0  0  0  0
  6  8  1  0  0  0  0
  2  9  1  0  0  0  0
  9  1  1  0  0  0  0
  9 10  1  0  0  0  0
  9 11  1  0  0  0  0
 11 12  1  0  0  0  0
 12 13  1  0  0  0  0
 13 14  1  0  0  0  0
 13 15  1  0  0  0  0
 15 16  3  0  0  0  0
 13 17  1  0  0  0  0
 17 18  1  0  0  0  0
 18 19  1  0  0  0  0
 18 20  2  0  0  0  0
 20 21  1  0  0  0  0
 21 22  1  0  0  0  0
 22 23  1  0  0  0  0
 23 24  1  0  0  0  0
 23 25  2  0  0  0  0
 25 26  1  0  0  0  0
 25 27  1  0  0  0  0
 27 28  1  0  0  0  0
 27 29  2  0  0  0  0
 29 30  1  0  0  0  0
 29 31  1  0  0  0  0
 31 22  2  0  0  0  0
 31 32  1  0  0  0  0
 20 33  1  0  0  0  0
 33 34  1  0  0  0  0
 33 35  2  0  0  0  0
 35 36  1  0  0  0  0
 35 37  1  0  0  0  0
 37 17  2  0  0  0  0
 37 38  1  0  0  0  0
 11 39  2  0  0  0  0
  1 40  1  0  0  0  0
 40 41  1  0  0  0  0
 40 42  1  0  0  0  0
 40 43  1  0  0  0  0
  1 44  1  0  0  0  0
 44 45  1  0  0  0  0
 44 46  1  0  0  0  0
 44 47  1  0  0  0  0
M  END
> <ChemID>
100638

> <source_casrn>
52315-07-8|67375-30-8

> <CAS>
52315-07-8|67375-30-8

> <SMILES>
CC1(C)C(C1C=C(Cl)Cl)C(=O)OC(C#N)c1cccc(c1)Oc1ccccc1

> <NAME>
CYPERMETHRIN, alpha-Cypermethrin

> <preferred_name>
Cypermethrin

> <iupac>
cyano(3-phenoxyphenyl)methyl 3-(2,2-dichloroethenyl)-2,2-dimethylcyclopropanecarboxylate

> <MPID>
98520|98543

> <dsstox_substance_id>
DTXSID1023998|DTXSID7041201

> <Canonical_QSARr>
CC1(C)C(C1C=C(Cl)Cl)C(=O)OC(C#N)c1cccc(c1)Oc1ccccc1

> <InChI_Code_QSARr>
InChI=1S/C22H19Cl2NO3/c1-22(2)17(12-19(23)24)20(22)21(26)28-18(13-25)14-7-6-10-16(11-14)27-15-8-4-3-5-9-15/h3-12,17-18,20H,1-2H3

> <InChI Key_QSARr>
KAATUXNTWXVJKI-UHFFFAOYSA-N

> <Salt_Solvent>
?

> <LogBCF>
2.53

$$$$
100639
  -INDIGO-08031719362D

 22 23  0  0  0  0  0  0  0  0999 V2000
   -0.0001    0.0000    0.0000 C   0  0  0  0  0  0  0  0  0  0  0  0
    1.6001   -0.0000    0.0000 C   0  0  0  0  0  0  0  0  0  0  0  0
    2.4001   -1.3856    0.0000 C   0  0  0  0  0  0  0  0  0  0  0  0
    1.6001   -2.7713    0.0000 Cl  0  0  0  0  0  0  0  0  0  0  0  0
    4.0000   -1.3856    0.0000 C   0  0  0  0  0  0  0  0  0  0  0  0
    4.8000   -2.7713    0.0000 H   0  0  0  0  0  0  0  0  0  0  0  0
    4.8000    0.0000    0.0000 C   0  0  0  0  0  0  0  0  0  0  0  0
    6.4000    0.0000    0.0000 H   0  0  0  0  0  0  0  0  0  0  0  0
    4.0000    1.3856    0.0000 C   0  0  0  0  0  0  0  0  0  0  0  0
    4.8000    2.7713    0.0000 Cl  0  0  0  0  0  0  0  0  0  0  0  0
    2.4001    1.3856    0.0000 C   0  0  0  0  0  0  0  0  0  0  0  0
    1.6001    2.7713    0.0000 H   0  0  0  0  0  0  0  0  0  0  0  0
   -0.8001    1.3856    0.0000 C   0  0  0  0  0  0  0  0  0  0  0  0
   -0.0001    2.7713    0.0000 Cl  0  0  0  0  0  0  0  0  0  0  0  0
   -2.4000    1.3856    0.0000 C   0  0  0  0  0  0  0  0  0  0  0  0
   -3.2000    2.7713    0.0000 Cl  0  0  0  0  0  0  0  0  0  0  0  0
   -3.2000    0.0000    0.0000 C   0  0  0  0  0  0  0  0  0  0  0  0
   -4.8000   -0.0000    0.0000 H   0  0  0  0  0  0  0  0  0  0  0  0
   -2.4000   -1.3856    0.0000 C   0  0  0  0  0  0  0  0  0  0  0  0
   -3.2000   -2.7713    0.0000 Cl  0  0  0  0  0  0  0  0  0  0  0  0
   -0.8001   -1.3856    0.0000 C   0  0  0  0  0  0  0  0  0  0  0  0
   -0.0001   -2.7713    0.0000 Cl  0  0  0  0  0  0  0  0  0  0  0  0
  1  2  1  0  0  0  0
  2  3  1  0  0  0  0
  3  4  1  0  0  0  0
  3  5  2  0  0  0  0
  5  6  1  0  0  0  0
  5  7  1  0  0  0  0
  7  8  1  0  0  0  0
  7  9  2  0  0  0  0
  9 10  1  0  0  0  0
  9 11  1  0  0  0  0
 11  2  2  0  0  0  0
 11 12  1  0  0  0  0
  1 13  1  0  0  0  0
 13 14  1  0  0  0  0
 13 15  2  0  0  0  0
 15 16  1  0  0  0  0
 15 17  1  0  0  0  0
 17 18  1  0  0  0  0
 17 19  2  0  0  0  0
 19 20  1  0  0  0  0
 19 21  1  0  0  0  0
 21  1  2  0  0  0  0
 21 22  1  0  0  0  0
M  END
> <ChemID>
100639

> <source_casrn>
52663-63-5

> <CAS>
52663-63-5

> <SMILES>
Clc1cc(-c2c(Cl)c(Cl)cc(Cl)c2Cl)c(Cl)cc1

> <NAME>
2,2',3,5,5',6-HEXACHLOROBIPHENYL

> <preferred_name>
2,2',3,5,5',6-Hexachlorobiphenyl

> <iupac>
1,2,4,5-tetrachloro-3-(2,5-dichlorophenyl)benzene

> <MPID>
98521

> <dsstox_substance_id>
DTXSID2074160

> <Canonical_QSARr>
Clc1cc(-c2c(Cl)c(Cl)cc(Cl)c2Cl)c(Cl)cc1

> <InChI_Code_QSARr>
InChI=1S/C12H4Cl6/c13-5-1-2-7(14)6(3-5)10-11(17)8(15)4-9(16)12(10)18/h1-4H

> <InChI Key_QSARr>
UHCLFIWDCYOTOL-UHFFFAOYSA-N

> <Salt_Solvent>
?

> <LogBCF>
5.54

$$$$
100642
  -INDIGO-08031719362D

 16 16  0  0  0  0  0  0  0  0999 V2000
   -0.0000    2.7713    0.0000 Cl  0  0  0  0  0  0  0  0  0  0  0  0
   -0.8000    1.3856    0.0000 C   0  0  0  0  0  0  0  0  0  0  0  0
   -0.0000   -0.0000    0.0000 C   0  0  0  0  0  0  0  0  0  0  0  0
    1.6000   -0.0000    0.0000 O   0  0  0  0  0  0  0  0  0  0  0  0
    2.4001    1.3856    0.0000 C   0  0  0  0  0  0  0  0  0  0  0  0
    4.0000    1.3856    0.0000 H   0  0  0  0  0  0  0  0  0  0  0  0
    3.2000    2.7713    0.0000 H   0  0  0  0  0  0  0  0  0  0  0  0
    3.2000   -0.0000    0.0000 H   0  0  0  0  0  0  0  0  0  0  0  0
   -0.8000   -1.3856    0.0000 C   0  0  0  0  0  0  0  0  0  0  0  0
   -0.0000   -2.7713    0.0000 H   0  0  0  0  0  0  0  0  0  0  0  0
   -2.4000   -1.3856    0.0000 C   0  0  0  0  0  0  0  0  0  0  0  0
   -3.2001   -2.7713    0.0000 H   0  0  0  0  0  0  0  0  0  0  0  0
   -3.2001   -0.0000    0.0000 C   0  0  0  0  0  0  0  0  0  0  0  0
   -4.8000   -0.0000    0.0000 Cl  0  0  0  0  0  0  0  0  0  0  0  0
   -2.4000    1.3856    0.0000 C   0  0  0  0  0  0  0  0  0  0  0  0
   -3.2001    2.7713    0.0000 Cl  0  0  0  0  0  0  0  0  0  0  0  0
  1  2  1  0  0  0  0
  2  3  1  0  0  0  0
  3  4  1  0  0  0  0
  4  5  1  0  0  0  0
  5  6  1  0  0  0  0
  5  7  1  0  0  0  0
  5  8  1  0  0  0  0
  3  9  2  0  0  0  0
  9 10  1  0  0  0  0
  9 11  1  0  0  0  0
 11 12  1  0  0  0  0
 11 13  2  0  0  0  0
 13 14  1  0  0  0  0
 13 15  1  0  0  0  0
 15  2  2  0  0  0  0
 15 16  1  0  0  0  0
M  END
> <ChemID>
100642

> <source_casrn>
54135-80-7

> <CAS>
54135-80-7

> <SMILES>
COc1ccc(Cl)c(Cl)c1Cl

> <NAME>
1,2,3-TRICHLORO-4-METHOXYBENZENE

> <preferred_name>
2,3,4-Trichloroanisole

> <iupac>
1,2,3-TRICHLORO-4-METHOXYBENZENE

> <MPID>
98523

> <dsstox_substance_id>
DTXSID10202477

> <Canonical_QSARr>
COc1ccc(Cl)c(Cl)c1Cl

> <InChI_Code_QSARr>
InChI=1S/C7H5Cl3O/c1-11-5-3-2-4(8)6(9)7(5)10/h2-3H,1H3

> <InChI Key_QSARr>
FRQUNVLMWIYOLV-UHFFFAOYSA-N

> <Salt_Solvent>
?

> <LogBCF>
2.96

$$$$
100644
  -INDIGO-08031719362D

 16 16  0  0  0  0  0  0  0  0999 V2000
   -3.2001    2.7713    0.0000 Cl  0  0  0  0  0  0  0  0  0  0  0  0
   -2.4000    1.3856    0.0000 C   0  0  0  0  0  0  0  0  0  0  0  0
   -0.8000    1.3856    0.0000 C   0  0  0  0  0  0  0  0  0  0  0  0
   -0.0000    2.7713    0.0000 H   0  0  0  0  0  0  0  0  0  0  0  0
   -0.0000    0.0000    0.0000 C   0  0  0  0  0  0  0  0  0  0  0  0
    1.6000    0.0000    0.0000 O   0  0  0  0  0  0  0  0  0  0  0  0
    2.4001   -1.3856    0.0000 C   0  0  0  0  0  0  0  0  0  0  0  0
    4.0000   -1.3856    0.0000 H   0  0  0  0  0  0  0  0  0  0  0  0
    3.2000   -2.7713    0.0000 H   0  0  0  0  0  0  0  0  0  0  0  0
    3.2000    0.0000    0.0000 H   0  0  0  0  0  0  0  0  0  0  0  0
   -0.8000   -1.3856    0.0000 C   0  0  0  0  0  0  0  0  0  0  0  0
   -0.0000   -2.7713    0.0000 H   0  0  0  0  0  0  0  0  0  0  0  0
   -2.4000   -1.3856    0.0000 C   0  0  0  0  0  0  0  0  0  0  0  0
   -3.2001   -2.7713    0.0000 Cl  0  0  0  0  0  0  0  0  0  0  0  0
   -3.2001   -0.0000    0.0000 C   0  0  0  0  0  0  0  0  0  0  0  0
   -4.8000    0.0000    0.0000 Cl  0  0  0  0  0  0  0  0  0  0  0  0
  1  2  1  0  0  0  0
  2  3  1  0  0  0  0
  3  4  1  0  0  0  0
  3  5  2  0  0  0  0
  5  6  1  0  0  0  0
  6  7  1  0  0  0  0
  7  8  1  0  0  0  0
  7  9  1  0  0  0  0
  7 10  1  0  0  0  0
  5 11  1  0  0  0  0
 11 12  1  0  0  0  0
 11 13  2  0  0  0  0
 13 14  1  0  0  0  0
 13 15  1  0  0  0  0
 15  2  2  0  0  0  0
 15 16  1  0  0  0  0
M  END
> <ChemID>
100644

> <source_casrn>
54135-82-9

> <CAS>
54135-82-9

> <SMILES>
COc1cc(Cl)c(Cl)c(Cl)c1

> <NAME>
BENZENE, 1,2,3-TRICHLORO-5-METHOXY-

> <preferred_name>
3,4,5-Trichloroanisole

> <iupac>
1,2,3-TRICHLORO-5-METHOXYBENZENE

> <MPID>
98524

> <dsstox_substance_id>
DTXSID30202479

> <Canonical_QSARr>
COc1cc(Cl)c(Cl)c(Cl)c1

> <InChI_Code_QSARr>
InChI=1S/C7H5Cl3O/c1-11-4-2-5(8)7(10)6(9)3-4/h2-3H,1H3

> <InChI Key_QSARr>
GUCFBWGWRCILHN-UHFFFAOYSA-N

> <Salt_Solvent>
?

> <LogBCF>
3.09

$$$$
100645
  -INDIGO-08031719362D

 18 19  0  0  0  0  0  0  0  0999 V2000
   -1.3856    4.0000    0.0000 Cl  0  0  0  0  0  0  0  0  0  0  0  0
   -1.3856    2.4000    0.0000 C   0  0  0  0  0  0  0  0  0  0  0  0
    0.0001    1.6000    0.0000 C   0  0  0  0  0  0  0  0  0  0  0  0
    0.0001    0.0000    0.0000 C   0  0  0  0  0  0  0  0  0  0  0  0
    1.3856   -0.8000    0.0000 C   0  0  0  0  0  0  0  0  0  0  0  0
    1.3856   -2.4000    0.0000 H   0  0  0  0  0  0  0  0  0  0  0  0
    2.7713    0.0000    0.0000 C   0  0  0  0  0  0  0  0  0  0  0  0
    4.1569   -0.8000    0.0000 H   0  0  0  0  0  0  0  0  0  0  0  0
    2.7713    1.6000    0.0000 C   0  0  0  0  0  0  0  0  0  0  0  0
    4.1569    2.4000    0.0000 Cl  0  0  0  0  0  0  0  0  0  0  0  0
    1.3856    2.4000    0.0000 C   0  0  0  0  0  0  0  0  0  0  0  0
    1.3856    4.0000    0.0000 H   0  0  0  0  0  0  0  0  0  0  0  0
   -1.3856   -0.8000    0.0000 C   0  0  0  0  0  0  0  0  0  0  0  0
   -1.3856   -2.4000    0.0000 H   0  0  0  0  0  0  0  0  0  0  0  0
   -2.7713    0.0000    0.0000 C   0  0  0  0  0  0  0  0  0  0  0  0
   -4.1569   -0.8000    0.0000 Cl  0  0  0  0  0  0  0  0  0  0  0  0
   -2.7713    1.6000    0.0000 C   0  0  0  0  0  0  0  0  0  0  0  0
   -4.1569    2.4000    0.0000 H   0  0  0  0  0  0  0  0  0  0  0  0
  1  2  1  0  0  0  0
  2  3  1  0  0  0  0
  3  4  1  0  0  0  0
  4  5  2  0  0  0  0
  5  6  1  0  0  0  0
  5  7  1  0  0  0  0
  7  8  1  0  0  0  0
  7  9  2  0  0  0  0
  9 10  1  0  0  0  0
  9 11  1  0  0  0  0
 11  3  2  0  0  0  0
 11 12  1  0  0  0  0
  4 13  1  0  0  0  0
 13 14  1  0  0  0  0
 13 15  2  0  0  0  0
 15 16  1  0  0  0  0
 15 17  1  0  0  0  0
 17  2  2  0  0  0  0
 17 18  1  0  0  0  0
M  END
> <ChemID>
100645

> <source_casrn>
55720-37-1

> <CAS>
55720-37-1

> <SMILES>
Clc1cc2ccc(Cl)cc2c(Cl)c1

> <NAME>
1,3,7-TRICHLORONAPHTHALENE

> <preferred_name>
Naphthalene, 1,3,7-trichloro-

> <iupac>
1,3,7-Trichloronaphthalene

> <MPID>
98525

> <dsstox_substance_id>
DTXSID00204263

> <Canonical_QSARr>
Clc1cc2ccc(Cl)cc2c(Cl)c1

> <InChI_Code_QSARr>
InChI=1S/C10H5Cl3/c11-7-2-1-6-3-8(12)5-10(13)9(6)4-7/h1-5H

> <InChI Key_QSARr>
CFEUGIGSIREATC-UHFFFAOYSA-N

> <Salt_Solvent>
?

> <LogBCF>
4.43

$$$$
100647
  -INDIGO-08031719362D

 23 24  0  0  0  0  0  0  0  0999 V2000
   -3.6326    2.1735    0.0000 Cl  0  0  0  0  0  0  0  0  0  0  0  0
   -2.6042    0.9479    0.0000 C   0  0  0  0  0  0  0  0  0  0  0  0
   -1.0284    1.2257    0.0000 C   0  0  0  0  0  0  0  0  0  0  0  0
   -0.4813    2.7292    0.0000 H   0  0  0  0  0  0  0  0  0  0  0  0
    0.0000    0.0000    0.0000 C   0  0  0  0  0  0  0  0  0  0  0  0
    1.5756    0.2779    0.0000 O   0  0  0  0  0  0  0  0  0  0  0  0
    2.9614   -0.5221    0.0000 C   0  0  0  0  0  0  0  0  0  0  0  0
    2.9614   -2.1222    0.0000 C   0  0  0  0  0  0  0  0  0  0  0  0
    1.5756   -2.9222    0.0000 H   0  0  0  0  0  0  0  0  0  0  0  0
    4.3470   -2.9222    0.0000 C   0  0  0  0  0  0  0  0  0  0  0  0
    4.3470   -4.5222    0.0000 Cl  0  0  0  0  0  0  0  0  0  0  0  0
    5.7326   -2.1222    0.0000 C   0  0  0  0  0  0  0  0  0  0  0  0
    7.1183   -2.9222    0.0000 Cl  0  0  0  0  0  0  0  0  0  0  0  0
    5.7326   -0.5221    0.0000 C   0  0  0  0  0  0  0  0  0  0  0  0
    7.1183    0.2779    0.0000 H   0  0  0  0  0  0  0  0  0  0  0  0
    4.3470    0.2779    0.0000 C   0  0  0  0  0  0  0  0  0  0  0  0
    4.3470    1.8779    0.0000 H   0  0  0  0  0  0  0  0  0  0  0  0
   -0.5473   -1.5035    0.0000 C   0  0  0  0  0  0  0  0  0  0  0  0
    0.4812   -2.7292    0.0000 H   0  0  0  0  0  0  0  0  0  0  0  0
   -2.1229   -1.7813    0.0000 C   0  0  0  0  0  0  0  0  0  0  0  0
   -2.6702   -3.2849    0.0000 H   0  0  0  0  0  0  0  0  0  0  0  0
   -3.1513   -0.5556    0.0000 C   0  0  0  0  0  0  0  0  0  0  0  0
   -4.7271   -0.8335    0.0000 Cl  0  0  0  0  0  0  0  0  0  0  0  0
  1  2  1  0  0  0  0
  2  3  1  0  0  0  0
  3  4  1  0  0  0  0
  3  5  2  0  0  0  0
  5  6  1  0  0  0  0
  6  7  1  0  0  0  0
  7  8  1  0  0  0  0
  8  9  1  0  0  0  0
  8 10  2  0  0  0  0
 10 11  1  0  0  0  0
 10 12  1  0  0  0  0
 12 13  1  0  0  0  0
 12 14  2  0  0  0  0
 14 15  1  0  0  0  0
 14 16  1  0  0  0  0
 16  7  2  0  0  0  0
 16 17  1  0  0  0  0
  5 18  1  0  0  0  0
 18 19  1  0  0  0  0
 18 20  2  0  0  0  0
 20 21  1  0  0  0  0
 20 22  1  0  0  0  0
 22  2  2  0  0  0  0
 22 23  1  0  0  0  0
M  END
> <ChemID>
100647

> <source_casrn>
56348-72-2

> <CAS>
56348-72-2

> <SMILES>
Clc2c(ccc(c2)Oc1cc(c(cc1)Cl)Cl)Cl

> <NAME>
3,3',4,4'-TETRACHLOROBIPHENYL ETHER

> <preferred_name>
3,3',4,4'-Tetrachlorodiphenyl ether

> <iupac>
1,2-dichloro-4-(3,4-dichlorophenoxy)benzene

> <MPID>
98527

> <dsstox_substance_id>
DTXSID20204886

> <Canonical_QSARr>
Clc1ccc(cc1Cl)Oc1cc(Cl)c(Cl)cc1

> <InChI_Code_QSARr>
InChI=1S/C12H6Cl4O/c13-9-3-1-7(5-11(9)15)17-8-2-4-10(14)12(16)6-8/h1-6H

> <InChI Key_QSARr>
DHLVZXZRIZBPKG-UHFFFAOYSA-N

> <Salt_Solvent>
?

> <LogBCF>
4.51

$$$$
100648
  -INDIGO-08031719362D

 27 27  0  0  0  0  0  0  0  0999 V2000
    0.0000   -0.0000    0.0000 P   0  0  0  0  0  0  0  0  0  0  0  0
    0.0000    1.6000    0.0000 S   0  0  0  0  0  0  0  0  0  0  0  0
    1.3857    0.8000    0.0000 O   0  0  0  0  0  0  0  0  0  0  0  0
    2.7712   -0.0000    0.0000 C   0  0  0  0  0  0  0  0  0  0  0  0
    2.7712   -1.6000    0.0000 C   0  0  0  0  0  0  0  0  0  0  0  0
    1.3857   -2.4000    0.0000 Cl  0  0  0  0  0  0  0  0  0  0  0  0
    4.1569   -2.4000    0.0000 C   0  0  0  0  0  0  0  0  0  0  0  0
    4.1569   -4.0000    0.0000 H   0  0  0  0  0  0  0  0  0  0  0  0
    5.5426   -1.6000    0.0000 C   0  0  0  0  0  0  0  0  0  0  0  0
    6.9281   -2.4000    0.0000 C   0  0  0  0  0  0  0  0  0  0  0  0
    8.3138   -3.2000    0.0000 H   0  0  0  0  0  0  0  0  0  0  0  0
    8.3138   -1.6000    0.0000 H   0  0  0  0  0  0  0  0  0  0  0  0
    6.9281   -4.0000    0.0000 H   0  0  0  0  0  0  0  0  0  0  0  0
    5.5426   -0.0000    0.0000 C   0  0  0  0  0  0  0  0  0  0  0  0
    6.9281    0.8000    0.0000 H   0  0  0  0  0  0  0  0  0  0  0  0
    4.1569    0.8000    0.0000 C   0  0  0  0  0  0  0  0  0  0  0  0
    4.1569    2.4000    0.0000 Cl  0  0  0  0  0  0  0  0  0  0  0  0
   -1.3857    0.8000    0.0000 O   0  0  0  0  0  0  0  0  0  0  0  0
   -2.7712   -0.0000    0.0000 C   0  0  0  0  0  0  0  0  0  0  0  0
   -4.1569    0.8000    0.0000 H   0  0  0  0  0  0  0  0  0  0  0  0
   -4.1569   -0.8000    0.0000 H   0  0  0  0  0  0  0  0  0  0  0  0
   -2.7712    1.6000    0.0000 H   0  0  0  0  0  0  0  0  0  0  0  0
   -1.3857   -0.8000    0.0000 O   0  0  0  0  0  0  0  0  0  0  0  0
   -1.3857   -2.4000    0.0000 C   0  0  0  0  0  0  0  0  0  0  0  0
   -1.3857   -4.0000    0.0000 H   0  0  0  0  0  0  0  0  0  0  0  0
   -2.7712   -3.2000    0.0000 H   0  0  0  0  0  0  0  0  0  0  0  0
    0.0000   -3.2000    0.0000 H   0  0  0  0  0  0  0  0  0  0  0  0
  1  2  2  0  0  0  0
  1  3  1  0  0  0  0
  3  4  1  0  0  0  0
  4  5  1  0  0  0  0
  5  6  1  0  0  0  0
  5  7  2  0  0  0  0
  7  8  1  0  0  0  0
  7  9  1  0  0  0  0
  9 10  1  0  0  0  0
 10 11  1  0  0  0  0
 10 12  1  0  0  0  0
 10 13  1  0  0  0  0
  9 14  2  0  0  0  0
 14 15  1  0  0  0  0
 14 16  1  0  0  0  0
 16  4  2  0  0  0  0
 16 17  1  0  0  0  0
  1 18  1  0  0  0  0
 18 19  1  0  0  0  0
 19 20  1  0  0  0  0
 19 21  1  0  0  0  0
 19 22  1  0  0  0  0
  1 23  1  0  0  0  0
 23 24  1  0  0  0  0
 24 25  1  0  0  0  0
 24 26  1  0  0  0  0
 24 27  1  0  0  0  0
M  END
> <ChemID>
100648

> <source_casrn>
57018-04-9

> <CAS>
57018-04-9

> <SMILES>
Cc1cc(Cl)c(OP(=S)(OC)OC)c(Cl)c1

> <NAME>
TOLCLOFOS-METHYL

> <preferred_name>
Tolclofos-methyl

> <iupac>
O-(2,6-dichloro-4-methylphenyl) O,O-dimethyl phosphorothioate

> <MPID>
98528

> <dsstox_substance_id>
DTXSID0034776

> <Canonical_QSARr>
Cc1cc(Cl)c(OP(=S)(OC)OC)c(Cl)c1

> <InChI_Code_QSARr>
InChI=1S/C9H11Cl2O3PS/c1-6-4-7(10)9(8(11)5-6)14-15(16,12-2)13-3/h4-5H,1-3H3

> <InChI Key_QSARr>
OBZIQQJJIKNWNO-UHFFFAOYSA-N

> <Salt_Solvent>
?

> <LogBCF>
2.86

$$$$
100650
  -INDIGO-08031719362D

 17 17  0  0  0  0  0  0  0  0999 V2000
    0.8000    1.3856    0.0000 C   0  0  0  0  0  0  0  0  0  0  0  0
    0.0000    2.7713    0.0000 O   0  0  0  0  0  0  0  0  0  0  0  0
    0.8000    4.1569    0.0000 H   0  0  0  0  0  0  0  0  0  0  0  0
    0.0000    0.0000    0.0000 C   0  0  0  0  0  0  0  0  0  0  0  0
   -1.6000    0.0000    0.0000 O   0  0  0  0  0  0  0  0  0  0  0  0
   -2.4001   -1.3856    0.0000 C   0  0  0  0  0  0  0  0  0  0  0  0
   -4.0000   -1.3856    0.0000 H   0  0  0  0  0  0  0  0  0  0  0  0
   -3.2000   -2.7713    0.0000 H   0  0  0  0  0  0  0  0  0  0  0  0
   -3.2000    0.0000    0.0000 H   0  0  0  0  0  0  0  0  0  0  0  0
    0.8000   -1.3856    0.0000 C   0  0  0  0  0  0  0  0  0  0  0  0
    0.0000   -2.7713    0.0000 Cl  0  0  0  0  0  0  0  0  0  0  0  0
    2.4000   -1.3856    0.0000 C   0  0  0  0  0  0  0  0  0  0  0  0
    3.2001   -2.7713    0.0000 Cl  0  0  0  0  0  0  0  0  0  0  0  0
    3.2001    0.0000    0.0000 C   0  0  0  0  0  0  0  0  0  0  0  0
    4.8000    0.0000    0.0000 Cl  0  0  0  0  0  0  0  0  0  0  0  0
    2.4000    1.3856    0.0000 C   0  0  0  0  0  0  0  0  0  0  0  0
    3.2001    2.7713    0.0000 H   0  0  0  0  0  0  0  0  0  0  0  0
  1  2  1  0  0  0  0
  2  3  1  0  0  0  0
  1  4  1  0  0  0  0
  4  5  1  0  0  0  0
  5  6  1  0  0  0  0
  6  7  1  0  0  0  0
  6  8  1  0  0  0  0
  6  9  1  0  0  0  0
  4 10  2  0  0  0  0
 10 11  1  0  0  0  0
 10 12  1  0  0  0  0
 12 13  1  0  0  0  0
 12 14  2  0  0  0  0
 14 15  1  0  0  0  0
 14 16  1  0  0  0  0
 16  1  2  0  0  0  0
 16 17  1  0  0  0  0
M  END
> <ChemID>
100650

> <source_casrn>
57057-83-7

> <CAS>
57057-83-7

> <SMILES>
COc1c(O)cc(Cl)c(Cl)c1Cl

> <NAME>
3,4,5-TRICHLORO-2-METHOXYPHENOL

> <preferred_name>
3,4,5-Trichloro-2-methoxyphenol

> <iupac>
C7H5Cl3O2

> <MPID>
98529

> <dsstox_substance_id>
DTXSID7052232

> <Canonical_QSARr>
COc1c(O)cc(Cl)c(Cl)c1Cl

> <InChI_Code_QSARr>
InChI=1S/C7H5Cl3O2/c1-12-7-4(11)2-3(8)5(9)6(7)10/h2,11H,1H3

> <InChI Key_QSARr>
RKEHLKXRUVUBJN-UHFFFAOYSA-N

> <Salt_Solvent>
?

> <LogBCF>
2.41

$$$$
100652
  -INDIGO-08031719362D

 21 23  0  0  0  0  0  0  0  0999 V2000
    0.0000    0.0000    0.0000 C   0  0  0  0  0  0  0  0  0  0  0  0
    1.5651    0.3327    0.0000 C   0  0  0  0  0  0  0  0  0  0  0  0
    1.7322    1.9239    0.0000 C   0  0  0  0  0  0  0  0  0  0  0  0
    3.1939    2.5747    0.0000 C   0  0  0  0  0  0  0  0  0  0  0  0
    3.3612    4.1659    0.0000 H   0  0  0  0  0  0  0  0  0  0  0  0
    4.4883    1.6342    0.0000 C   0  0  0  0  0  0  0  0  0  0  0  0
    5.9501    2.2850    0.0000 Cl  0  0  0  0  0  0  0  0  0  0  0  0
    4.3212    0.0430    0.0000 C   0  0  0  0  0  0  0  0  0  0  0  0
    2.8595   -0.6078    0.0000 C   0  0  0  0  0  0  0  0  0  0  0  0
    2.6921   -2.1990    0.0000 H   0  0  0  0  0  0  0  0  0  0  0  0
    5.6156   -0.8974    0.0000 Cl  0  0  0  0  0  0  0  0  0  0  0  0
    0.2707    2.5747    0.0000 O   0  0  0  0  0  0  0  0  0  0  0  0
   -0.8000    1.3856    0.0000 C   0  0  0  0  0  0  0  0  0  0  0  0
   -2.4000    1.3856    0.0000 C   0  0  0  0  0  0  0  0  0  0  0  0
   -3.2000    2.7713    0.0000 Cl  0  0  0  0  0  0  0  0  0  0  0  0
   -3.2000    0.0000    0.0000 C   0  0  0  0  0  0  0  0  0  0  0  0
   -4.8000    0.0000    0.0000 Cl  0  0  0  0  0  0  0  0  0  0  0  0
   -2.4000   -1.3856    0.0000 C   0  0  0  0  0  0  0  0  0  0  0  0
   -3.2000   -2.7713    0.0000 H   0  0  0  0  0  0  0  0  0  0  0  0
   -0.8000   -1.3856    0.0000 C   0  0  0  0  0  0  0  0  0  0  0  0
    0.0000   -2.7713    0.0000 H   0  0  0  0  0  0  0  0  0  0  0  0
  1  2  1  0  0  0  0
  2  3  1  0  0  0  0
  3  4  2  0  0  0  0
  4  5  1  0  0  0  0
  4  6  1  0  0  0  0
  6  7  1  0  0  0  0
  6  8  2  0  0  0  0
  8  9  1  0  0  0  0
  9  2  2  0  0  0  0
  9 10  1  0  0  0  0
  8 11  1  0  0  0  0
  3 12  1  0  0  0  0
 12 13  1  0  0  0  0
 13  1  1  0  0  0  0
 13 14  2  0  0  0  0
 14 15  1  0  0  0  0
 14 16  1  0  0  0  0
 16 17  1  0  0  0  0
 16 18  2  0  0  0  0
 18 19  1  0  0  0  0
 18 20  1  0  0  0  0
 20  1  2  0  0  0  0
 20 21  1  0  0  0  0
M  END
> <ChemID>
100652

> <source_casrn>
57117-39-2

> <CAS>
57117-39-2

> <SMILES>
Clc1ccc2c(oc3cc(Cl)c(Cl)cc23)c1Cl

> <NAME>
DIBENZOFURAN, 2,3,6,7-TETRACHLORO-

> <preferred_name>
Dibenzofuran, 2,3,6,7-tetrachloro-

> <iupac>
2,3,6,7-TETRACHLORODIBENZOFURAN

> <MPID>
98531

> <dsstox_substance_id>
DTXSID3074945

> <Canonical_QSARr>
Clc1ccc2c(oc3cc(Cl)c(Cl)cc23)c1Cl

> <InChI_Code_QSARr>
InChI=1S/C12H4Cl4O/c13-7-2-1-5-6-3-8(14)9(15)4-10(6)17-12(5)11(7)16/h1-4H

> <InChI Key_QSARr>
MJCNKMDTLRSHNK-UHFFFAOYSA-N

> <Salt_Solvent>
?

> <LogBCF>
2.72

$$$$
100653
  -INDIGO-08031719362D

 21 23  0  0  0  0  0  0  0  0999 V2000
   -1.7322    1.9239    0.0000 C   0  0  0  0  0  0  0  0  0  0  0  0
   -3.1939    2.5747    0.0000 C   0  0  0  0  0  0  0  0  0  0  0  0
   -3.3612    4.1659    0.0000 H   0  0  0  0  0  0  0  0  0  0  0  0
   -4.4883    1.6342    0.0000 C   0  0  0  0  0  0  0  0  0  0  0  0
   -5.9501    2.2850    0.0000 Cl  0  0  0  0  0  0  0  0  0  0  0  0
   -4.3212    0.0430    0.0000 C   0  0  0  0  0  0  0  0  0  0  0  0
   -5.6156   -0.8974    0.0000 Cl  0  0  0  0  0  0  0  0  0  0  0  0
   -2.8595   -0.6078    0.0000 C   0  0  0  0  0  0  0  0  0  0  0  0
   -2.6921   -2.1990    0.0000 H   0  0  0  0  0  0  0  0  0  0  0  0
   -1.5651    0.3327    0.0000 C   0  0  0  0  0  0  0  0  0  0  0  0
    0.0000    0.0000    0.0000 C   0  0  0  0  0  0  0  0  0  0  0  0
    0.8000    1.3856    0.0000 C   0  0  0  0  0  0  0  0  0  0  0  0
    2.4000    1.3856    0.0000 C   0  0  0  0  0  0  0  0  0  0  0  0
    3.2000    2.7713    0.0000 H   0  0  0  0  0  0  0  0  0  0  0  0
    3.2000    0.0000    0.0000 C   0  0  0  0  0  0  0  0  0  0  0  0
    4.8000    0.0000    0.0000 Cl  0  0  0  0  0  0  0  0  0  0  0  0
    2.4000   -1.3856    0.0000 C   0  0  0  0  0  0  0  0  0  0  0  0
    3.2000   -2.7713    0.0000 Cl  0  0  0  0  0  0  0  0  0  0  0  0
    0.8000   -1.3856    0.0000 C   0  0  0  0  0  0  0  0  0  0  0  0
    0.0000   -2.7713    0.0000 Cl  0  0  0  0  0  0  0  0  0  0  0  0
   -0.2707    2.5747    0.0000 O   0  0  0  0  0  0  0  0  0  0  0  0
  1  2  1  0  0  0  0
  2  3  1  0  0  0  0
  2  4  2  0  0  0  0
  4  5  1  0  0  0  0
  4  6  1  0  0  0  0
  6  7  1  0  0  0  0
  6  8  2  0  0  0  0
  8  9  1  0  0  0  0
  8 10  1  0  0  0  0
 10  1  2  0  0  0  0
 10 11  1  0  0  0  0
 11 12  1  0  0  0  0
 12 13  2  0  0  0  0
 13 14  1  0  0  0  0
 13 15  1  0  0  0  0
 15 16  1  0  0  0  0
 15 17  2  0  0  0  0
 17 18  1  0  0  0  0
 17 19  1  0  0  0  0
 19 11  2  0  0  0  0
 19 20  1  0  0  0  0
 12 21  1  0  0  0  0
 21  1  1  0  0  0  0
M  END
> <ChemID>
100653

> <source_casrn>
57117-41-6

> <CAS>
57117-41-6

> <SMILES>
Clc1c(Cl)c2c(cc1Cl)oc1cc(Cl)c(Cl)cc12

> <NAME>
DIBENZOFURAN, 1,2,3,7,8-PENTACHLORO-

> <preferred_name>
1,2,3,7,8-Pentachlorodibenzofuran

> <iupac>
1,2,3,7,8-pentachlorodibenzo[b,d]furan

> <MPID>
98532

> <dsstox_substance_id>
DTXSID7052234

> <Canonical_QSARr>
Clc1c(Cl)c2c(cc1Cl)oc1cc(Cl)c(Cl)cc12

> <InChI_Code_QSARr>
InChI=1S/C12H3Cl5O/c13-5-1-4-8(2-6(5)14)18-9-3-7(15)11(16)12(17)10(4)9/h1-3H

> <InChI Key_QSARr>
SBMIVUVRFPGOEB-UHFFFAOYSA-N

> <Salt_Solvent>
?

> <LogBCF>
3.58

$$$$
100655
  -INDIGO-08031719362D

 21 23  0  0  0  0  0  0  0  0999 V2000
   -0.8000    1.3856    0.0000 C   0  0  0  0  0  0  0  0  0  0  0  0
    0.0000    2.7713    0.0000 H   0  0  0  0  0  0  0  0  0  0  0  0
    0.0000    0.0000    0.0000 C   0  0  0  0  0  0  0  0  0  0  0  0
    1.5651   -0.3327    0.0000 C   0  0  0  0  0  0  0  0  0  0  0  0
    1.7322   -1.9239    0.0000 C   0  0  0  0  0  0  0  0  0  0  0  0
    0.2707   -2.5747    0.0000 O   0  0  0  0  0  0  0  0  0  0  0  0
   -0.8000   -1.3856    0.0000 C   0  0  0  0  0  0  0  0  0  0  0  0
   -2.4000   -1.3856    0.0000 C   0  0  0  0  0  0  0  0  0  0  0  0
   -3.2000   -2.7713    0.0000 Cl  0  0  0  0  0  0  0  0  0  0  0  0
   -3.2000    0.0000    0.0000 C   0  0  0  0  0  0  0  0  0  0  0  0
   -4.8000    0.0000    0.0000 Cl  0  0  0  0  0  0  0  0  0  0  0  0
   -2.4000    1.3856    0.0000 C   0  0  0  0  0  0  0  0  0  0  0  0
   -3.2000    2.7713    0.0000 Cl  0  0  0  0  0  0  0  0  0  0  0  0
    3.1939   -2.5747    0.0000 C   0  0  0  0  0  0  0  0  0  0  0  0
    3.3612   -4.1659    0.0000 H   0  0  0  0  0  0  0  0  0  0  0  0
    4.4883   -1.6342    0.0000 C   0  0  0  0  0  0  0  0  0  0  0  0
    5.9501   -2.2850    0.0000 Cl  0  0  0  0  0  0  0  0  0  0  0  0
    4.3212   -0.0430    0.0000 C   0  0  0  0  0  0  0  0  0  0  0  0
    5.6156    0.8974    0.0000 Cl  0  0  0  0  0  0  0  0  0  0  0  0
    2.8595    0.6078    0.0000 C   0  0  0  0  0  0  0  0  0  0  0  0
    2.6921    2.1990    0.0000 Cl  0  0  0  0  0  0  0  0  0  0  0  0
  1  2  1  0  0  0  0
  1  3  1  0  0  0  0
  3  4  1  0  0  0  0
  4  5  1  0  0  0  0
  5  6  1  0  0  0  0
  6  7  1  0  0  0  0
  7  3  2  0  0  0  0
  7  8  1  0  0  0  0
  8  9  1  0  0  0  0
  8 10  2  0  0  0  0
 10 11  1  0  0  0  0
 10 12  1  0  0  0  0
 12  1  2  0  0  0  0
 12 13  1  0  0  0  0
  5 14  2  0  0  0  0
 14 15  1  0  0  0  0
 14 16  1  0  0  0  0
 16 17  1  0  0  0  0
 16 18  2  0  0  0  0
 18 19  1  0  0  0  0
 18 20  1  0  0  0  0
 20  4  2  0  0  0  0
 20 21  1  0  0  0  0
M  END
> <ChemID>
100655

> <source_casrn>
57117-44-9

> <CAS>
57117-44-9

> <SMILES>
Clc1cc2c(oc3cc(Cl)c(Cl)c(Cl)c23)c(Cl)c1Cl

> <NAME>
Dibenzofuran, 1,2,3,6,7,8-hexachloro-

> <preferred_name>
1,2,3,6,7,8-Hexachlorodibenzofuran

> <iupac>
1,2,3,6,7,8-HEXACHLORODIBENZOFURAN

> <MPID>
98533

> <dsstox_substance_id>
DTXSID2069155

> <Canonical_QSARr>
Clc1cc2c(oc3cc(Cl)c(Cl)c(Cl)c23)c(Cl)c1Cl

> <InChI_Code_QSARr>
InChI=1S/C12H2Cl6O/c13-4-1-3-7-6(2-5(14)8(15)10(7)17)19-12(3)11(18)9(4)16/h1-2H

> <InChI Key_QSARr>
JEYJJJXOFWNEHN-UHFFFAOYSA-N

> <Salt_Solvent>
?

> <LogBCF>
3.94

$$$$
100657
  -INDIGO-08031719362D

 22 24  0  0  0  0  0  0  0  0999 V2000
   -0.0001   -0.0000    0.0000 C   0  0  0  0  0  0  0  0  0  0  0  0
    1.3856    0.8000    0.0000 C   0  0  0  0  0  0  0  0  0  0  0  0
    1.3856    2.4000    0.0000 Cl  0  0  0  0  0  0  0  0  0  0  0  0
    2.7713   -0.0000    0.0000 C   0  0  0  0  0  0  0  0  0  0  0  0
    4.1569    0.8000    0.0000 Cl  0  0  0  0  0  0  0  0  0  0  0  0
    2.7713   -1.6000    0.0000 C   0  0  0  0  0  0  0  0  0  0  0  0
    4.1569   -2.4000    0.0000 Cl  0  0  0  0  0  0  0  0  0  0  0  0
    1.3856   -2.4000    0.0000 C   0  0  0  0  0  0  0  0  0  0  0  0
    1.3856   -4.0000    0.0000 H   0  0  0  0  0  0  0  0  0  0  0  0
   -0.0001   -1.6000    0.0000 C   0  0  0  0  0  0  0  0  0  0  0  0
   -1.3857   -2.4000    0.0000 O   0  0  0  0  0  0  0  0  0  0  0  0
   -2.7712   -1.6000    0.0000 C   0  0  0  0  0  0  0  0  0  0  0  0
   -4.1569   -2.4000    0.0000 C   0  0  0  0  0  0  0  0  0  0  0  0
   -5.5425   -1.6000    0.0000 C   0  0  0  0  0  0  0  0  0  0  0  0
   -5.5425   -0.0000    0.0000 C   0  0  0  0  0  0  0  0  0  0  0  0
   -4.1569    0.8000    0.0000 C   0  0  0  0  0  0  0  0  0  0  0  0
   -4.1569    2.4000    0.0000 H   0  0  0  0  0  0  0  0  0  0  0  0
   -2.7712   -0.0000    0.0000 C   0  0  0  0  0  0  0  0  0  0  0  0
   -1.3857    0.8000    0.0000 O   0  0  0  0  0  0  0  0  0  0  0  0
   -6.9282    0.8000    0.0000 Cl  0  0  0  0  0  0  0  0  0  0  0  0
   -6.9282   -2.4000    0.0000 Cl  0  0  0  0  0  0  0  0  0  0  0  0
   -4.1569   -4.0000    0.0000 Cl  0  0  0  0  0  0  0  0  0  0  0  0
  1  2  1  0  0  0  0
  2  3  1  0  0  0  0
  2  4  2  0  0  0  0
  4  5  1  0  0  0  0
  4  6  1  0  0  0  0
  6  7  1  0  0  0  0
  6  8  2  0  0  0  0
  8  9  1  0  0  0  0
  8 10  1  0  0  0  0
 10  1  2  0  0  0  0
 10 11  1  0  0  0  0
 11 12  1  0  0  0  0
 12 13  1  0  0  0  0
 13 14  2  0  0  0  0
 14 15  1  0  0  0  0
 15 16  2  0  0  0  0
 16 17  1  0  0  0  0
 16 18  1  0  0  0  0
 18 12  2  0  0  0  0
 18 19  1  0  0  0  0
 19  1  1  0  0  0  0
 15 20  1  0  0  0  0
 14 21  1  0  0  0  0
 13 22  1  0  0  0  0
M  END
> <ChemID>
100657

> <source_casrn>
57653-85-7

> <CAS>
57653-85-7

> <SMILES>
Clc1cc2Oc3c(cc(Cl)c(Cl)c3Cl)Oc2c(Cl)c1Cl

> <NAME>
1,2,3,6,7,8-HEXACHLORODIBENZO-P-DIOXIN

> <preferred_name>
1,2,3,6,7,8-Hexachlorodibenzo-p-dioxin

> <iupac>
1,2,3,6,7,8-hexachlorooxanthrene

> <MPID>
98535

> <dsstox_substance_id>
DTXSID0023824

> <Canonical_QSARr>
Clc1cc2Oc3c(cc(Cl)c(Cl)c3Cl)Oc2c(Cl)c1Cl

> <InChI_Code_QSARr>
InChI=1S/C12H2Cl6O2/c13-3-1-5-11(9(17)7(3)15)20-6-2-4(14)8(16)10(18)12(6)19-5/h1-2H

> <InChI Key_QSARr>
YCLUIPQDHHPDJJ-UHFFFAOYSA-N

> <Salt_Solvent>
?

> <LogBCF>
3.93

$$$$
100658
  -INDIGO-08031719362D

 22 23  0  0  0  0  0  0  0  0999 V2000
    0.0001   -0.0000    0.0000 C   0  0  0  0  0  0  0  0  0  0  0  0
    0.8001   -1.3856    0.0000 C   0  0  0  0  0  0  0  0  0  0  0  0
    0.0001   -2.7713    0.0000 Br  0  0  0  0  0  0  0  0  0  0  0  0
    2.4000   -1.3856    0.0000 C   0  0  0  0  0  0  0  0  0  0  0  0
    3.2000   -2.7713    0.0000 H   0  0  0  0  0  0  0  0  0  0  0  0
    3.2000   -0.0000    0.0000 C   0  0  0  0  0  0  0  0  0  0  0  0
    4.8000    0.0000    0.0000 Br  0  0  0  0  0  0  0  0  0  0  0  0
    2.4000    1.3856    0.0000 C   0  0  0  0  0  0  0  0  0  0  0  0
    3.2000    2.7713    0.0000 H   0  0  0  0  0  0  0  0  0  0  0  0
    0.8001    1.3856    0.0000 C   0  0  0  0  0  0  0  0  0  0  0  0
    0.0001    2.7713    0.0000 Br  0  0  0  0  0  0  0  0  0  0  0  0
   -1.6001    0.0000    0.0000 C   0  0  0  0  0  0  0  0  0  0  0  0
   -2.4001    1.3856    0.0000 C   0  0  0  0  0  0  0  0  0  0  0  0
   -1.6001    2.7713    0.0000 H   0  0  0  0  0  0  0  0  0  0  0  0
   -4.0000    1.3856    0.0000 C   0  0  0  0  0  0  0  0  0  0  0  0
   -4.8000    2.7713    0.0000 H   0  0  0  0  0  0  0  0  0  0  0  0
   -4.8000    0.0000    0.0000 C   0  0  0  0  0  0  0  0  0  0  0  0
   -6.4000    0.0000    0.0000 H   0  0  0  0  0  0  0  0  0  0  0  0
   -4.0000   -1.3856    0.0000 C   0  0  0  0  0  0  0  0  0  0  0  0
   -4.8000   -2.7713    0.0000 H   0  0  0  0  0  0  0  0  0  0  0  0
   -2.4001   -1.3856    0.0000 C   0  0  0  0  0  0  0  0  0  0  0  0
   -1.6001   -2.7713    0.0000 H   0  0  0  0  0  0  0  0  0  0  0  0
  1  2  1  0  0  0  0
  2  3  1  0  0  0  0
  2  4  2  0  0  0  0
  4  5  1  0  0  0  0
  4  6  1  0  0  0  0
  6  7  1  0  0  0  0
  6  8  2  0  0  0  0
  8  9  1  0  0  0  0
  8 10  1  0  0  0  0
 10  1  2  0  0  0  0
 10 11  1  0  0  0  0
  1 12  1  0  0  0  0
 12 13  1  0  0  0  0
 13 14  1  0  0  0  0
 13 15  2  0  0  0  0
 15 16  1  0  0  0  0
 15 17  1  0  0  0  0
 17 18  1  0  0  0  0
 17 19  2  0  0  0  0
 19 20  1  0  0  0  0
 19 21  1  0  0  0  0
 21 12  2  0  0  0  0
 21 22  1  0  0  0  0
M  END
> <ChemID>
100658

> <source_casrn>
59080-33-0

> <CAS>
59080-33-0

> <SMILES>
Brc1cc(Br)c(-c2ccccc2)c(Br)c1

> <NAME>
2,4,6-TRIBROMOBIPHENYL

> <preferred_name>
PBB 030

> <iupac>
1,3,5-tribromo-2-phenylbenzene

> <MPID>
98536

> <dsstox_substance_id>
DTXSID5074767

> <Canonical_QSARr>
Brc1cc(Br)c(-c2ccccc2)c(Br)c1

> <InChI_Code_QSARr>
InChI=1S/C12H7Br3/c13-9-6-10(14)12(11(15)7-9)8-4-2-1-3-5-8/h1-7H

> <InChI Key_QSARr>
YCLZBYQDXVJFII-UHFFFAOYSA-N

> <Salt_Solvent>
?

> <LogBCF>
3.87

$$$$
100660
  -INDIGO-08031719362D

 22 23  0  0  0  0  0  0  0  0999 V2000
   -0.0001    0.0000    0.0000 C   0  0  0  0  0  0  0  0  0  0  0  0
    1.6001   -0.0000    0.0000 C   0  0  0  0  0  0  0  0  0  0  0  0
    2.4001   -1.3856    0.0000 C   0  0  0  0  0  0  0  0  0  0  0  0
    1.6001   -2.7713    0.0000 Br  0  0  0  0  0  0  0  0  0  0  0  0
    4.0000   -1.3856    0.0000 C   0  0  0  0  0  0  0  0  0  0  0  0
    4.8000   -2.7713    0.0000 H   0  0  0  0  0  0  0  0  0  0  0  0
    4.8000    0.0000    0.0000 C   0  0  0  0  0  0  0  0  0  0  0  0
    6.4000    0.0000    0.0000 Br  0  0  0  0  0  0  0  0  0  0  0  0
    4.0000    1.3856    0.0000 C   0  0  0  0  0  0  0  0  0  0  0  0
    4.8000    2.7713    0.0000 H   0  0  0  0  0  0  0  0  0  0  0  0
    2.4001    1.3856    0.0000 C   0  0  0  0  0  0  0  0  0  0  0  0
    1.6001    2.7713    0.0000 Br  0  0  0  0  0  0  0  0  0  0  0  0
   -0.8001    1.3856    0.0000 C   0  0  0  0  0  0  0  0  0  0  0  0
   -0.0001    2.7713    0.0000 Br  0  0  0  0  0  0  0  0  0  0  0  0
   -2.4000    1.3856    0.0000 C   0  0  0  0  0  0  0  0  0  0  0  0
   -3.2000    2.7713    0.0000 H   0  0  0  0  0  0  0  0  0  0  0  0
   -3.2000    0.0000    0.0000 C   0  0  0  0  0  0  0  0  0  0  0  0
   -4.8000   -0.0000    0.0000 Br  0  0  0  0  0  0  0  0  0  0  0  0
   -2.4000   -1.3856    0.0000 C   0  0  0  0  0  0  0  0  0  0  0  0
   -3.2000   -2.7713    0.0000 H   0  0  0  0  0  0  0  0  0  0  0  0
   -0.8001   -1.3856    0.0000 C   0  0  0  0  0  0  0  0  0  0  0  0
   -0.0001   -2.7713    0.0000 Br  0  0  0  0  0  0  0  0  0  0  0  0
  1  2  1  0  0  0  0
  2  3  1  0  0  0  0
  3  4  1  0  0  0  0
  3  5  2  0  0  0  0
  5  6  1  0  0  0  0
  5  7  1  0  0  0  0
  7  8  1  0  0  0  0
  7  9  2  0  0  0  0
  9 10  1  0  0  0  0
  9 11  1  0  0  0  0
 11  2  2  0  0  0  0
 11 12  1  0  0  0  0
  1 13  1  0  0  0  0
 13 14  1  0  0  0  0
 13 15  2  0  0  0  0
 15 16  1  0  0  0  0
 15 17  1  0  0  0  0
 17 18  1  0  0  0  0
 17 19  2  0  0  0  0
 19 20  1  0  0  0  0
 19 21  1  0  0  0  0
 21  1  2  0  0  0  0
 21 22  1  0  0  0  0
M  END
> <ChemID>
100660

> <source_casrn>
59261-08-4

> <CAS>
59261-08-4

> <SMILES>
Brc1cc(Br)c(-c2c(Br)cc(Br)cc2Br)c(Br)c1

> <NAME>
2,2',4,4',6,6'-HEXABROMOBIPHENYL

> <preferred_name>
PBB 155

> <iupac>
1,3,5-tribromo-2-(2,4,6-tribromophenyl)benzene

> <MPID>
98537

> <dsstox_substance_id>
DTXSID4074772

> <Canonical_QSARr>
Brc1cc(Br)c(-c2c(Br)cc(Br)cc2Br)c(Br)c1

> <InChI_Code_QSARr>
InChI=1S/C12H4Br6/c13-5-1-7(15)11(8(16)2-5)12-9(17)3-6(14)4-10(12)18/h1-4H

> <InChI Key_QSARr>
LNFYSRMCCKKDEH-UHFFFAOYSA-N

> <Salt_Solvent>
?

> <LogBCF>
4.66

$$$$
100663
  -INDIGO-08031719362D

 60 59  0  0  0  0  0  0  0  0999 V2000
    0.0000   -0.0000    0.0000 Si  0  0  0  0  0  0  0  0  0  0  0  0
    0.7999    1.3856    0.0000 O   0  0  0  0  0  0  0  0  0  0  0  0
    0.2529    2.8891    0.0000 H   0  0  0  0  0  0  0  0  0  0  0  0
   -1.3855    0.8001    0.0000 C   0  0  0  0  0  0  0  0  0  0  0  0
   -1.9980    2.2783    0.0000 H   0  0  0  0  0  0  0  0  0  0  0  0
   -0.7733    2.2783    0.0000 H   0  0  0  0  0  0  0  0  0  0  0  0
   -2.9613    1.0779    0.0000 C   0  0  0  0  0  0  0  0  0  0  0  0
   -3.4423   -0.4481    0.0000 H   0  0  0  0  0  0  0  0  0  0  0  0
   -4.3806    0.3391    0.0000 H   0  0  0  0  0  0  0  0  0  0  0  0
   -3.5086    2.5814    0.0000 C   0  0  0  0  0  0  0  0  0  0  0  0
   -3.0275    4.1074    0.0000 H   0  0  0  0  0  0  0  0  0  0  0  0
   -2.0892    3.3201    0.0000 H   0  0  0  0  0  0  0  0  0  0  0  0
   -5.0843    2.8592    0.0000 C   0  0  0  0  0  0  0  0  0  0  0  0
   -5.5654    1.3332    0.0000 H   0  0  0  0  0  0  0  0  0  0  0  0
   -6.5034    2.1205    0.0000 H   0  0  0  0  0  0  0  0  0  0  0  0
   -5.6314    4.3627    0.0000 C   0  0  0  0  0  0  0  0  0  0  0  0
   -5.1503    5.8887    0.0000 H   0  0  0  0  0  0  0  0  0  0  0  0
   -4.2123    5.1015    0.0000 H   0  0  0  0  0  0  0  0  0  0  0  0
   -7.2071    4.6406    0.0000 C   0  0  0  0  0  0  0  0  0  0  0  0
   -8.7829    4.9184    0.0000 H   0  0  0  0  0  0  0  0  0  0  0  0
   -7.7545    6.1440    0.0000 H   0  0  0  0  0  0  0  0  0  0  0  0
   -8.2355    3.4149    0.0000 H   0  0  0  0  0  0  0  0  0  0  0  0
   -0.7999   -1.3857    0.0000 C   0  0  0  0  0  0  0  0  0  0  0  0
   -2.2781   -0.7732    0.0000 H   0  0  0  0  0  0  0  0  0  0  0  0
   -2.2781   -1.9979    0.0000 H   0  0  0  0  0  0  0  0  0  0  0  0
   -0.5221   -2.9614    0.0000 C   0  0  0  0  0  0  0  0  0  0  0  0
    0.6574   -4.0423    0.0000 H   0  0  0  0  0  0  0  0  0  0  0  0
    1.0764   -2.8916    0.0000 H   0  0  0  0  0  0  0  0  0  0  0  0
   -1.7479   -3.9899    0.0000 C   0  0  0  0  0  0  0  0  0  0  0  0
   -2.9274   -2.9088    0.0000 H   0  0  0  0  0  0  0  0  0  0  0  0
   -3.3464   -4.0595    0.0000 H   0  0  0  0  0  0  0  0  0  0  0  0
   -1.4701   -5.5654    0.0000 C   0  0  0  0  0  0  0  0  0  0  0  0
   -0.2903   -6.6465    0.0000 H   0  0  0  0  0  0  0  0  0  0  0  0
    0.1284   -5.4958    0.0000 H   0  0  0  0  0  0  0  0  0  0  0  0
   -2.6956   -6.5939    0.0000 C   0  0  0  0  0  0  0  0  0  0  0  0
   -3.8754   -5.5130    0.0000 H   0  0  0  0  0  0  0  0  0  0  0  0
   -4.2941   -6.6637    0.0000 H   0  0  0  0  0  0  0  0  0  0  0  0
   -2.4178   -8.1696    0.0000 C   0  0  0  0  0  0  0  0  0  0  0  0
   -2.1400   -9.7453    0.0000 H   0  0  0  0  0  0  0  0  0  0  0  0
   -3.6436   -9.1981    0.0000 H   0  0  0  0  0  0  0  0  0  0  0  0
   -0.9144   -8.7168    0.0000 H   0  0  0  0  0  0  0  0  0  0  0  0
    1.5757   -0.2779    0.0000 C   0  0  0  0  0  0  0  0  0  0  0  0
    1.5059   -1.8764    0.0000 H   0  0  0  0  0  0  0  0  0  0  0  0
    2.6565   -1.4574    0.0000 H   0  0  0  0  0  0  0  0  0  0  0  0
    2.6041    0.9477    0.0000 C   0  0  0  0  0  0  0  0  0  0  0  0
    2.6740    2.5462    0.0000 H   0  0  0  0  0  0  0  0  0  0  0  0
    1.5233    2.1275    0.0000 H   0  0  0  0  0  0  0  0  0  0  0  0
    4.1799    0.6701    0.0000 C   0  0  0  0  0  0  0  0  0  0  0  0
    4.1100   -0.9284    0.0000 H   0  0  0  0  0  0  0  0  0  0  0  0
    5.2607   -0.5097    0.0000 H   0  0  0  0  0  0  0  0  0  0  0  0
    5.2083    1.8957    0.0000 C   0  0  0  0  0  0  0  0  0  0  0  0
    5.2781    3.4942    0.0000 H   0  0  0  0  0  0  0  0  0  0  0  0
    4.1275    3.0753    0.0000 H   0  0  0  0  0  0  0  0  0  0  0  0
    6.7840    1.6179    0.0000 C   0  0  0  0  0  0  0  0  0  0  0  0
    6.7141    0.0194    0.0000 H   0  0  0  0  0  0  0  0  0  0  0  0
    7.8648    0.4381    0.0000 H   0  0  0  0  0  0  0  0  0  0  0  0
    7.8124    2.8435    0.0000 C   0  0  0  0  0  0  0  0  0  0  0  0
    8.8408    4.0691    0.0000 H   0  0  0  0  0  0  0  0  0  0  0  0
    9.3881    2.5656    0.0000 H   0  0  0  0  0  0  0  0  0  0  0  0
    7.2654    4.3470    0.0000 H   0  0  0  0  0  0  0  0  0  0  0  0
  1  2  1  0  0  0  0
  2  3  1  0  0  0  0
  1  4  1  0  0  0  0
  4  5  1  0  0  0  0
  4  6  1  0  0  0  0
  4  7  1  0  0  0  0
  7  8  1  0  0  0  0
  7  9  1  0  0  0  0
  7 10  1  0  0  0  0
 10 11  1  0  0  0  0
 10 12  1  0  0  0  0
 10 13  1  0  0  0  0
 13 14  1  0  0  0  0
 13 15  1  0  0  0  0
 13 16  1  0  0  0  0
 16 17  1  0  0  0  0
 16 18  1  0  0  0  0
 16 19  1  0  0  0  0
 19 20  1  0  0  0  0
 19 21  1  0  0  0  0
 19 22  1  0  0  0  0
  1 23  1  0  0  0  0
 23 24  1  0  0  0  0
 23 25  1  0  0  0  0
 23 26  1  0  0  0  0
 26 27  1  0  0  0  0
 26 28  1  0  0  0  0
 26 29  1  0  0  0  0
 29 30  1  0  0  0  0
 29 31  1  0  0  0  0
 29 32  1  0  0  0  0
 32 33  1  0  0  0  0
 32 34  1  0  0  0  0
 32 35  1  0  0  0  0
 35 36  1  0  0  0  0
 35 37  1  0  0  0  0
 35 38  1  0  0  0  0
 38 39  1  0  0  0  0
 38 40  1  0  0  0  0
 38 41  1  0  0  0  0
  1 42  1  0  0  0  0
 42 43  1  0  0  0  0
 42 44  1  0  0  0  0
 42 45  1  0  0  0  0
 45 46  1  0  0  0  0
 45 47  1  0  0  0  0
 45 48  1  0  0  0  0
 48 49  1  0  0  0  0
 48 50  1  0  0  0  0
 48 51  1  0  0  0  0
 51 52  1  0  0  0  0
 51 53  1  0  0  0  0
 51 54  1  0  0  0  0
 54 55  1  0  0  0  0
 54 56  1  0  0  0  0
 54 57  1  0  0  0  0
 57 58  1  0  0  0  0
 57 59  1  0  0  0  0
 57 60  1  0  0  0  0
M  END
> <ChemID>
100663

> <source_casrn>
60782-58-3

> <CAS>
60782-58-3

> <SMILES>
O[Si](CCCCCC)(CCCCCC)CCCCCC

> <NAME>
TRIHEXYLSILANOL

> <preferred_name>


> <iupac>


> <MPID>
98539

> <dsstox_substance_id>
DTXSID30878375

> <Canonical_QSARr>
CCCCCC[Si](O)(CCCCCC)CCCCCC

> <InChI_Code_QSARr>
InChI=1S/C18H40OSi/c1-4-7-10-13-16-20(19,17-14-11-8-5-2)18-15-12-9-6-3/h19H,4-18H2,1-3H3

> <InChI Key_QSARr>
NOVLNRUYLAGEMC-UHFFFAOYSA-N

> <Salt_Solvent>
?

> <LogBCF>
2.7

$$$$
100664
  -INDIGO-08031719362D

 21 23  0  0  0  0  0  0  0  0999 V2000
   -1.7322    1.9239    0.0000 C   0  0  0  0  0  0  0  0  0  0  0  0
   -3.1939    2.5747    0.0000 C   0  0  0  0  0  0  0  0  0  0  0  0
   -3.3612    4.1659    0.0000 Cl  0  0  0  0  0  0  0  0  0  0  0  0
   -4.4883    1.6342    0.0000 C   0  0  0  0  0  0  0  0  0  0  0  0
   -5.9501    2.2850    0.0000 Cl  0  0  0  0  0  0  0  0  0  0  0  0
   -4.3212    0.0430    0.0000 C   0  0  0  0  0  0  0  0  0  0  0  0
   -5.6156   -0.8974    0.0000 Cl  0  0  0  0  0  0  0  0  0  0  0  0
   -2.8595   -0.6078    0.0000 C   0  0  0  0  0  0  0  0  0  0  0  0
   -2.6921   -2.1990    0.0000 H   0  0  0  0  0  0  0  0  0  0  0  0
   -1.5651    0.3327    0.0000 C   0  0  0  0  0  0  0  0  0  0  0  0
    0.0000    0.0000    0.0000 C   0  0  0  0  0  0  0  0  0  0  0  0
    0.8000    1.3856    0.0000 C   0  0  0  0  0  0  0  0  0  0  0  0
    2.4000    1.3856    0.0000 C   0  0  0  0  0  0  0  0  0  0  0  0
    3.2000    2.7713    0.0000 Cl  0  0  0  0  0  0  0  0  0  0  0  0
    3.2000    0.0000    0.0000 C   0  0  0  0  0  0  0  0  0  0  0  0
    4.8000    0.0000    0.0000 Cl  0  0  0  0  0  0  0  0  0  0  0  0
    2.4000   -1.3856    0.0000 C   0  0  0  0  0  0  0  0  0  0  0  0
    3.2000   -2.7713    0.0000 Cl  0  0  0  0  0  0  0  0  0  0  0  0
    0.8000   -1.3856    0.0000 C   0  0  0  0  0  0  0  0  0  0  0  0
    0.0000   -2.7713    0.0000 H   0  0  0  0  0  0  0  0  0  0  0  0
   -0.2707    2.5747    0.0000 O   0  0  0  0  0  0  0  0  0  0  0  0
  1  2  1  0  0  0  0
  2  3  1  0  0  0  0
  2  4  2  0  0  0  0
  4  5  1  0  0  0  0
  4  6  1  0  0  0  0
  6  7  1  0  0  0  0
  6  8  2  0  0  0  0
  8  9  1  0  0  0  0
  8 10  1  0  0  0  0
 10  1  2  0  0  0  0
 10 11  1  0  0  0  0
 11 12  1  0  0  0  0
 12 13  2  0  0  0  0
 13 14  1  0  0  0  0
 13 15  1  0  0  0  0
 15 16  1  0  0  0  0
 15 17  2  0  0  0  0
 17 18  1  0  0  0  0
 17 19  1  0  0  0  0
 19 11  2  0  0  0  0
 19 20  1  0  0  0  0
 12 21  1  0  0  0  0
 21  1  1  0  0  0  0
M  END
> <ChemID>
100664

> <source_casrn>
60851-34-5

> <CAS>
60851-34-5

> <SMILES>
Clc1cc2c(oc3c2cc(Cl)c(Cl)c3Cl)c(Cl)c1Cl

> <NAME>
Dibenzofuran, 2,3,4,6,7,8-hexachloro-

> <preferred_name>
2,3,4,6,7,8-Hexachlorodibenzo[b,d]furan

> <iupac>
2,3,4,6,7,8-hexachlorodibenzo[b,d]furan

> <MPID>
98540

> <dsstox_substance_id>
DTXSID3052276

> <Canonical_QSARr>
Clc1cc2c(oc3c2cc(Cl)c(Cl)c3Cl)c(Cl)c1Cl

> <InChI_Code_QSARr>
InChI=1S/C12H2Cl6O/c13-5-1-3-4-2-6(14)8(16)10(18)12(4)19-11(3)9(17)7(5)15/h1-2H

> <InChI Key_QSARr>
XTAHLACQOVXINQ-UHFFFAOYSA-N

> <Salt_Solvent>
?

> <LogBCF>
3.98

$$$$
100665
  -INDIGO-08031719362D

 46 48  0  0  0  0  0  0  0  0999 V2000
   -0.0000   -0.0001    0.0000 C   0  0  0  0  0  0  0  0  0  0  0  0
   -0.8000   -1.3856    0.0000 C   0  0  0  0  0  0  0  0  0  0  0  0
    0.4258   -2.4141    0.0000 H   0  0  0  0  0  0  0  0  0  0  0  0
   -2.1858   -2.1857    0.0000 C   0  0  0  0  0  0  0  0  0  0  0  0
   -3.1444   -2.1354    0.0000 H   0  0  0  0  0  0  0  0  0  0  0  0
   -2.1858   -3.7857    0.0000 C   0  0  0  0  0  0  0  0  0  0  0  0
   -3.5712   -4.5856    0.0000 Cl  0  0  0  0  0  0  0  0  0  0  0  0
   -0.8000   -4.5856    0.0000 Cl  0  0  0  0  0  0  0  0  0  0  0  0
   -1.6000   -0.0001    0.0000 C   0  0  0  0  0  0  0  0  0  0  0  0
   -1.8780    1.5756    0.0000 H   0  0  0  0  0  0  0  0  0  0  0  0
   -3.1035   -0.5472    0.0000 C   0  0  0  0  0  0  0  0  0  0  0  0
   -4.3293    0.4812    0.0000 O   0  0  0  0  0  0  0  0  0  0  0  0
   -5.8325   -0.0660    0.0000 C   0  0  0  0  0  0  0  0  0  0  0  0
   -6.6923   -1.4154    0.0000 H   0  0  0  0  0  0  0  0  0  0  0  0
   -5.4863   -1.6281    0.0000 H   0  0  0  0  0  0  0  0  0  0  0  0
   -7.0584    0.9624    0.0000 C   0  0  0  0  0  0  0  0  0  0  0  0
   -8.5619    0.4153    0.0000 C   0  0  0  0  0  0  0  0  0  0  0  0
   -8.8396   -1.1604    0.0000 H   0  0  0  0  0  0  0  0  0  0  0  0
   -9.7874    1.4437    0.0000 C   0  0  0  0  0  0  0  0  0  0  0  0
  -11.2909    0.8965    0.0000 O   0  0  0  0  0  0  0  0  0  0  0  0
  -12.7945    1.4437    0.0000 C   0  0  0  0  0  0  0  0  0  0  0  0
  -13.0725    3.0193    0.0000 C   0  0  0  0  0  0  0  0  0  0  0  0
  -11.8467    4.0479    0.0000 H   0  0  0  0  0  0  0  0  0  0  0  0
  -14.5760    3.5666    0.0000 C   0  0  0  0  0  0  0  0  0  0  0  0
  -14.8537    5.1423    0.0000 H   0  0  0  0  0  0  0  0  0  0  0  0
  -15.8015    2.5381    0.0000 C   0  0  0  0  0  0  0  0  0  0  0  0
  -17.3051    3.0854    0.0000 H   0  0  0  0  0  0  0  0  0  0  0  0
  -15.5238    0.9624    0.0000 C   0  0  0  0  0  0  0  0  0  0  0  0
  -16.7493   -0.0660    0.0000 H   0  0  0  0  0  0  0  0  0  0  0  0
  -14.0203    0.4153    0.0000 C   0  0  0  0  0  0  0  0  0  0  0  0
  -13.7423   -1.1604    0.0000 H   0  0  0  0  0  0  0  0  0  0  0  0
   -9.5097    3.0193    0.0000 C   0  0  0  0  0  0  0  0  0  0  0  0
  -10.7352    4.0479    0.0000 H   0  0  0  0  0  0  0  0  0  0  0  0
   -8.0062    3.5666    0.0000 C   0  0  0  0  0  0  0  0  0  0  0  0
   -7.7285    5.1423    0.0000 H   0  0  0  0  0  0  0  0  0  0  0  0
   -6.7807    2.5381    0.0000 C   0  0  0  0  0  0  0  0  0  0  0  0
   -5.2771    3.0854    0.0000 H   0  0  0  0  0  0  0  0  0  0  0  0
   -3.5712   -1.3856    0.0000 O   0  0  0  0  0  0  0  0  0  0  0  0
    0.2780    1.5756    0.0000 C   0  0  0  0  0  0  0  0  0  0  0  0
    0.5557    3.1515    0.0000 H   0  0  0  0  0  0  0  0  0  0  0  0
    1.7812    2.1229    0.0000 H   0  0  0  0  0  0  0  0  0  0  0  0
   -0.9479    2.6042    0.0000 H   0  0  0  0  0  0  0  0  0  0  0  0
    1.5035   -0.5472    0.0000 C   0  0  0  0  0  0  0  0  0  0  0  0
    3.0070   -1.0945    0.0000 H   0  0  0  0  0  0  0  0  0  0  0  0
    2.7293    0.4812    0.0000 H   0  0  0  0  0  0  0  0  0  0  0  0
    1.7812   -2.1229    0.0000 H   0  0  0  0  0  0  0  0  0  0  0  0
  1  2  1  0  0  0  0
  2  3  1  0  0  0  0
  2  4  1  0  0  0  0
  4  5  1  0  0  0  0
  4  6  2  0  0  0  0
  6  7  1  0  0  0  0
  6  8  1  0  0  0  0
  2  9  1  0  0  0  0
  9  1  1  0  0  0  0
  9 10  1  0  0  0  0
  9 11  1  0  0  0  0
 11 12  1  0  0  0  0
 12 13  1  0  0  0  0
 13 14  1  0  0  0  0
 13 15  1  0  0  0  0
 13 16  1  0  0  0  0
 16 17  1  0  0  0  0
 17 18  1  0  0  0  0
 17 19  2  0  0  0  0
 19 20  1  0  0  0  0
 20 21  1  0  0  0  0
 21 22  1  0  0  0  0
 22 23  1  0  0  0  0
 22 24  2  0  0  0  0
 24 25  1  0  0  0  0
 24 26  1  0  0  0  0
 26 27  1  0  0  0  0
 26 28  2  0  0  0  0
 28 29  1  0  0  0  0
 28 30  1  0  0  0  0
 30 21  2  0  0  0  0
 30 31  1  0  0  0  0
 19 32  1  0  0  0  0
 32 33  1  0  0  0  0
 32 34  2  0  0  0  0
 34 35  1  0  0  0  0
 34 36  1  0  0  0  0
 36 16  2  0  0  0  0
 36 37  1  0  0  0  0
 11 38  2  0  0  0  0
  1 39  1  0  0  0  0
 39 40  1  0  0  0  0
 39 41  1  0  0  0  0
 39 42  1  0  0  0  0
  1 43  1  0  0  0  0
 43 44  1  0  0  0  0
 43 45  1  0  0  0  0
 43 46  1  0  0  0  0
M  END
> <ChemID>
100665

> <source_casrn>
61949-76-6

> <CAS>
61949-76-6

> <SMILES>
CC1(C)[C@@H]([C@@H]1C=C(Cl)Cl)C(=O)OCc1cccc(c1)Oc1ccccc1 |o1:3,4|

> <NAME>
CIS-PERMETHRIN

> <preferred_name>
(+/-)-cis-Permethrin

> <iupac>


> <MPID>
98541

> <dsstox_substance_id>
DTXSID0038338

> <Canonical_QSARr>
CC1(C)C(C1C=C(Cl)Cl)C(=O)OCc1cccc(c1)Oc1ccccc1

> <InChI_Code_QSARr>
InChI=1S/C21H20Cl2O3/c1-21(2)17(12-18(22)23)19(21)20(24)25-13-14-7-6-10-16(11-14)26-15-8-4-3-5-9-15/h3-12,17,19H,13H2,1-2H3

> <InChI Key_QSARr>
RLLPVAHGXHCWKJ-UHFFFAOYSA-N

> <Salt_Solvent>
?

> <LogBCF>
2.65

$$$$
100669
  -INDIGO-08031719362D

 21 23  0  0  0  0  0  0  0  0999 V2000
   -1.7322    1.9239    0.0000 C   0  0  0  0  0  0  0  0  0  0  0  0
   -3.1939    2.5747    0.0000 C   0  0  0  0  0  0  0  0  0  0  0  0
   -3.3612    4.1659    0.0000 Cl  0  0  0  0  0  0  0  0  0  0  0  0
   -4.4883    1.6342    0.0000 C   0  0  0  0  0  0  0  0  0  0  0  0
   -5.9501    2.2850    0.0000 Cl  0  0  0  0  0  0  0  0  0  0  0  0
   -4.3212    0.0430    0.0000 C   0  0  0  0  0  0  0  0  0  0  0  0
   -5.6156   -0.8974    0.0000 Cl  0  0  0  0  0  0  0  0  0  0  0  0
   -2.8595   -0.6078    0.0000 C   0  0  0  0  0  0  0  0  0  0  0  0
   -2.6921   -2.1990    0.0000 Cl  0  0  0  0  0  0  0  0  0  0  0  0
   -1.5651    0.3327    0.0000 C   0  0  0  0  0  0  0  0  0  0  0  0
    0.0000    0.0000    0.0000 C   0  0  0  0  0  0  0  0  0  0  0  0
    0.8000    1.3856    0.0000 C   0  0  0  0  0  0  0  0  0  0  0  0
    2.4000    1.3856    0.0000 C   0  0  0  0  0  0  0  0  0  0  0  0
    3.2000    2.7713    0.0000 Cl  0  0  0  0  0  0  0  0  0  0  0  0
    3.2000    0.0000    0.0000 C   0  0  0  0  0  0  0  0  0  0  0  0
    4.8000    0.0000    0.0000 Cl  0  0  0  0  0  0  0  0  0  0  0  0
    2.4000   -1.3856    0.0000 C   0  0  0  0  0  0  0  0  0  0  0  0
    3.2000   -2.7713    0.0000 Cl  0  0  0  0  0  0  0  0  0  0  0  0
    0.8000   -1.3856    0.0000 C   0  0  0  0  0  0  0  0  0  0  0  0
    0.0000   -2.7713    0.0000 H   0  0  0  0  0  0  0  0  0  0  0  0
   -0.2707    2.5747    0.0000 O   0  0  0  0  0  0  0  0  0  0  0  0
  1  2  1  0  0  0  0
  2  3  1  0  0  0  0
  2  4  2  0  0  0  0
  4  5  1  0  0  0  0
  4  6  1  0  0  0  0
  6  7  1  0  0  0  0
  6  8  2  0  0  0  0
  8  9  1  0  0  0  0
  8 10  1  0  0  0  0
 10  1  2  0  0  0  0
 10 11  1  0  0  0  0
 11 12  1  0  0  0  0
 12 13  2  0  0  0  0
 13 14  1  0  0  0  0
 13 15  1  0  0  0  0
 15 16  1  0  0  0  0
 15 17  2  0  0  0  0
 17 18  1  0  0  0  0
 17 19  1  0  0  0  0
 19 11  2  0  0  0  0
 19 20  1  0  0  0  0
 12 21  1  0  0  0  0
 21  1  1  0  0  0  0
M  END
> <ChemID>
100669

> <source_casrn>
67562-39-4

> <CAS>
67562-39-4

> <SMILES>
Clc1cc2c(oc3c2c(Cl)c(Cl)c(Cl)c3Cl)c(Cl)c1Cl

> <NAME>
DIBENZOFURAN, 1,2,3,4,6,7,8-HEPTACHLORO-

> <preferred_name>
1,2,3,4,6,7,8-Heptachlorodibenzo[b,d]furan

> <iupac>
1,2,3,4,6,7,8-heptachlorodibenzo[b,d]furan

> <MPID>
98544

> <dsstox_substance_id>
DTXSID8052350

> <Canonical_QSARr>
Clc1cc2c(oc3c2c(Cl)c(Cl)c(Cl)c3Cl)c(Cl)c1Cl

> <InChI_Code_QSARr>
InChI=1S/C12HCl7O/c13-3-1-2-4-6(15)7(16)8(17)10(19)12(4)20-11(2)9(18)5(3)14/h1H

> <InChI Key_QSARr>
WDMKCPIVJOGHBF-UHFFFAOYSA-N

> <Salt_Solvent>
?

> <LogBCF>
3.45

$$$$
100670
  -INDIGO-08031719362D

 38 39  0  0  0  0  0  0  0  0999 V2000
   -0.8001    1.3857    0.0000 C   0  0  0  0  0  0  0  0  0  0  0  0
   -0.0001    0.0001    0.0000 C   0  0  0  0  0  0  0  0  0  0  0  0
    0.8001   -1.3856    0.0000 H   0  0  0  0  0  0  0  0  0  0  0  0
   -1.3857   -0.8001    0.0000 C   0  0  0  0  0  0  0  0  0  0  0  0
   -2.7713   -1.6001    0.0000 H   0  0  0  0  0  0  0  0  0  0  0  0
   -2.7713    0.0001    0.0000 H   0  0  0  0  0  0  0  0  0  0  0  0
   -1.3857   -2.4000    0.0000 H   0  0  0  0  0  0  0  0  0  0  0  0
    1.3857    0.8000    0.0000 O   0  0  0  0  0  0  0  0  0  0  0  0
    2.7713    0.0001    0.0000 C   0  0  0  0  0  0  0  0  0  0  0  0
    2.7713   -1.6001    0.0000 C   0  0  0  0  0  0  0  0  0  0  0  0
    1.3857   -2.4000    0.0000 H   0  0  0  0  0  0  0  0  0  0  0  0
    4.1569   -2.4000    0.0000 C   0  0  0  0  0  0  0  0  0  0  0  0
    4.1569   -4.0000    0.0000 H   0  0  0  0  0  0  0  0  0  0  0  0
    5.5427   -1.6001    0.0000 C   0  0  0  0  0  0  0  0  0  0  0  0
    6.9283   -2.4000    0.0000 O   0  0  0  0  0  0  0  0  0  0  0  0
    8.3138   -1.6001    0.0000 C   0  0  0  0  0  0  0  0  0  0  0  0
    8.3138    0.0001    0.0000 N   0  0  0  0  0  0  0  0  0  0  0  0
    9.6994    0.8000    0.0000 C   0  0  0  0  0  0  0  0  0  0  0  0
    9.6994    2.4000    0.0000 H   0  0  0  0  0  0  0  0  0  0  0  0
   11.0850    0.0001    0.0000 C   0  0  0  0  0  0  0  0  0  0  0  0
   12.4708    0.8000    0.0000 C   0  0  0  0  0  0  0  0  0  0  0  0
   13.8564    1.6000    0.0000 F   0  0  0  0  0  0  0  0  0  0  0  0
   12.4708    2.4000    0.0000 F   0  0  0  0  0  0  0  0  0  0  0  0
   13.8564    0.0001    0.0000 F   0  0  0  0  0  0  0  0  0  0  0  0
   11.0850   -1.6001    0.0000 C   0  0  0  0  0  0  0  0  0  0  0  0
   12.4708   -2.4000    0.0000 H   0  0  0  0  0  0  0  0  0  0  0  0
    9.6994   -2.4000    0.0000 C   0  0  0  0  0  0  0  0  0  0  0  0
    9.6994   -4.0000    0.0000 Cl  0  0  0  0  0  0  0  0  0  0  0  0
    5.5424    0.0001    0.0000 C   0  0  0  0  0  0  0  0  0  0  0  0
    6.9283    0.8000    0.0000 H   0  0  0  0  0  0  0  0  0  0  0  0
    4.1569    0.8000    0.0000 C   0  0  0  0  0  0  0  0  0  0  0  0
    4.1569    2.4000    0.0000 H   0  0  0  0  0  0  0  0  0  0  0  0
   -0.0001    2.7713    0.0000 O   0  0  0  0  0  0  0  0  0  0  0  0
   -0.8001    4.1569    0.0000 C   0  0  0  0  0  0  0  0  0  0  0  0
   -1.6001    5.5426    0.0000 H   0  0  0  0  0  0  0  0  0  0  0  0
   -0.0001    5.5426    0.0000 H   0  0  0  0  0  0  0  0  0  0  0  0
   -2.4001    4.1569    0.0000 H   0  0  0  0  0  0  0  0  0  0  0  0
   -2.4001    1.3857    0.0000 O   0  0  0  0  0  0  0  0  0  0  0  0
  1  2  1  0  0  0  0
  2  3  1  0  0  0  0
  2  4  1  0  0  0  0
  4  5  1  0  0  0  0
  4  6  1  0  0  0  0
  4  7  1  0  0  0  0
  2  8  1  0  0  0  0
  8  9  1  0  0  0  0
  9 10  1  0  0  0  0
 10 11  1  0  0  0  0
 10 12  2  0  0  0  0
 12 13  1  0  0  0  0
 12 14  1  0  0  0  0
 14 15  1  0  0  0  0
 15 16  1  0  0  0  0
 16 17  1  0  0  0  0
 17 18  2  0  0  0  0
 18 19  1  0  0  0  0
 18 20  1  0  0  0  0
 20 21  1  0  0  0  0
 21 22  1  0  0  0  0
 21 23  1  0  0  0  0
 21 24  1  0  0  0  0
 20 25  2  0  0  0  0
 25 26  1  0  0  0  0
 25 27  1  0  0  0  0
 27 16  2  0  0  0  0
 27 28  1  0  0  0  0
 14 29  2  0  0  0  0
 29 30  1  0  0  0  0
 29 31  1  0  0  0  0
 31  9  2  0  0  0  0
 31 32  1  0  0  0  0
  1 33  1  0  0  0  0
 33 34  1  0  0  0  0
 34 35  1  0  0  0  0
 34 36  1  0  0  0  0
 34 37  1  0  0  0  0
  1 38  2  0  0  0  0
M  END
> <ChemID>
100670

> <source_casrn>
69806-40-2

> <CAS>
69806-40-2

> <SMILES>
COC(=O)C(C)Oc1ccc(cc1)Oc1[n]cc(cc1Cl)C(F)(F)F

> <NAME>
HALOXYFOP-METHYL

> <preferred_name>
Haloxyfop-methyl

> <iupac>
methyl 2-(4-{[3-chloro-5-(trifluoromethyl)pyridin-2-yl]oxy}phenoxy)propanoate

> <MPID>
98545

> <dsstox_substance_id>
DTXSID6024123

> <Canonical_QSARr>
COC(=O)C(C)Oc1ccc(cc1)Oc1[n]cc(cc1Cl)C(F)(F)F

> <InChI_Code_QSARr>
InChI=1S/C16H13ClF3NO4/c1-9(15(22)23-2)24-11-3-5-12(6-4-11)25-14-13(17)7-10(8-21-14)16(18,19)20/h3-9H,1-2H3

> <InChI Key_QSARr>
MFSWTRQUCLNFOM-UHFFFAOYSA-N

> <Salt_Solvent>
?

> <LogBCF>
1.23

$$$$
100671
  -INDIGO-08031719362D

 21 23  0  0  0  0  0  0  0  0999 V2000
   -0.2707    2.5747    0.0000 O   0  0  0  0  0  0  0  0  0  0  0  0
   -1.7322    1.9239    0.0000 C   0  0  0  0  0  0  0  0  0  0  0  0
   -1.5651    0.3327    0.0000 C   0  0  0  0  0  0  0  0  0  0  0  0
   -2.8595   -0.6078    0.0000 C   0  0  0  0  0  0  0  0  0  0  0  0
   -4.3212    0.0430    0.0000 C   0  0  0  0  0  0  0  0  0  0  0  0
   -4.4883    1.6342    0.0000 C   0  0  0  0  0  0  0  0  0  0  0  0
   -3.1939    2.5747    0.0000 C   0  0  0  0  0  0  0  0  0  0  0  0
   -3.3612    4.1659    0.0000 Cl  0  0  0  0  0  0  0  0  0  0  0  0
   -5.9501    2.2850    0.0000 Cl  0  0  0  0  0  0  0  0  0  0  0  0
   -5.6156   -0.8974    0.0000 Cl  0  0  0  0  0  0  0  0  0  0  0  0
   -2.6921   -2.1990    0.0000 Cl  0  0  0  0  0  0  0  0  0  0  0  0
    0.0000    0.0000    0.0000 C   0  0  0  0  0  0  0  0  0  0  0  0
    0.8000    1.3856    0.0000 C   0  0  0  0  0  0  0  0  0  0  0  0
    2.4000    1.3856    0.0000 C   0  0  0  0  0  0  0  0  0  0  0  0
    3.2000    2.7713    0.0000 H   0  0  0  0  0  0  0  0  0  0  0  0
    3.2000    0.0000    0.0000 C   0  0  0  0  0  0  0  0  0  0  0  0
    2.4000   -1.3856    0.0000 C   0  0  0  0  0  0  0  0  0  0  0  0
    0.8000   -1.3856    0.0000 C   0  0  0  0  0  0  0  0  0  0  0  0
    0.0000   -2.7713    0.0000 H   0  0  0  0  0  0  0  0  0  0  0  0
    3.2000   -2.7713    0.0000 Cl  0  0  0  0  0  0  0  0  0  0  0  0
    4.8000    0.0000    0.0000 Cl  0  0  0  0  0  0  0  0  0  0  0  0
  1  2  1  0  0  0  0
  2  3  1  0  0  0  0
  3  4  2  0  0  0  0
  4  5  1  0  0  0  0
  5  6  2  0  0  0  0
  6  7  1  0  0  0  0
  7  2  2  0  0  0  0
  7  8  1  0  0  0  0
  6  9  1  0  0  0  0
  5 10  1  0  0  0  0
  4 11  1  0  0  0  0
  3 12  1  0  0  0  0
 12 13  1  0  0  0  0
 13  1  1  0  0  0  0
 13 14  2  0  0  0  0
 14 15  1  0  0  0  0
 14 16  1  0  0  0  0
 16 17  2  0  0  0  0
 17 18  1  0  0  0  0
 18 12  2  0  0  0  0
 18 19  1  0  0  0  0
 17 20  1  0  0  0  0
 16 21  1  0  0  0  0
M  END
> <ChemID>
100671

> <source_casrn>
70648-26-9

> <CAS>
70648-26-9

> <SMILES>
Clc1cc2c3c(oc2cc1Cl)c(Cl)c(Cl)c(Cl)c3Cl

> <NAME>
Dibenzofuran, 1,2,3,4,7,8-hexachloro-

> <preferred_name>
1,2,3,4,7,8-Hexachlorodibenzofuran

> <iupac>
1,2,3,4,7,8-hexachlorodibenzo[b,d]furan

> <MPID>
98546

> <dsstox_substance_id>
DTXSID6029915

> <Canonical_QSARr>
Clc1cc2c3c(oc2cc1Cl)c(Cl)c(Cl)c(Cl)c3Cl

> <InChI_Code_QSARr>
InChI=1S/C12H2Cl6O/c13-4-1-3-6(2-5(4)14)19-12-7(3)8(15)9(16)10(17)11(12)18/h1-2H

> <InChI Key_QSARr>
LVYBAQIVPKCOEE-UHFFFAOYSA-N

> <Salt_Solvent>
?

> <LogBCF>
3.9

$$$$
100673
  -INDIGO-08031719362D

 21 23  0  0  0  0  0  0  0  0999 V2000
    0.0000    0.0000    0.0000 C   0  0  0  0  0  0  0  0  0  0  0  0
    1.5651    0.3327    0.0000 C   0  0  0  0  0  0  0  0  0  0  0  0
    1.7322    1.9239    0.0000 C   0  0  0  0  0  0  0  0  0  0  0  0
    3.1939    2.5747    0.0000 C   0  0  0  0  0  0  0  0  0  0  0  0
    4.4883    1.6342    0.0000 C   0  0  0  0  0  0  0  0  0  0  0  0
    5.9501    2.2850    0.0000 Cl  0  0  0  0  0  0  0  0  0  0  0  0
    4.3212    0.0430    0.0000 C   0  0  0  0  0  0  0  0  0  0  0  0
    5.6156   -0.8974    0.0000 H   0  0  0  0  0  0  0  0  0  0  0  0
    2.8595   -0.6078    0.0000 C   0  0  0  0  0  0  0  0  0  0  0  0
    2.6921   -2.1990    0.0000 H   0  0  0  0  0  0  0  0  0  0  0  0
    3.3612    4.1659    0.0000 Cl  0  0  0  0  0  0  0  0  0  0  0  0
    0.2707    2.5747    0.0000 O   0  0  0  0  0  0  0  0  0  0  0  0
   -0.8000    1.3856    0.0000 C   0  0  0  0  0  0  0  0  0  0  0  0
   -2.4000    1.3856    0.0000 C   0  0  0  0  0  0  0  0  0  0  0  0
   -3.2000    2.7713    0.0000 Cl  0  0  0  0  0  0  0  0  0  0  0  0
   -3.2000    0.0000    0.0000 C   0  0  0  0  0  0  0  0  0  0  0  0
   -4.8000    0.0000    0.0000 Cl  0  0  0  0  0  0  0  0  0  0  0  0
   -2.4000   -1.3856    0.0000 C   0  0  0  0  0  0  0  0  0  0  0  0
   -3.2000   -2.7713    0.0000 Cl  0  0  0  0  0  0  0  0  0  0  0  0
   -0.8000   -1.3856    0.0000 C   0  0  0  0  0  0  0  0  0  0  0  0
    0.0000   -2.7713    0.0000 Cl  0  0  0  0  0  0  0  0  0  0  0  0
  1  2  1  0  0  0  0
  2  3  1  0  0  0  0
  3  4  2  0  0  0  0
  4  5  1  0  0  0  0
  5  6  1  0  0  0  0
  5  7  2  0  0  0  0
  7  8  1  0  0  0  0
  7  9  1  0  0  0  0
  9  2  2  0  0  0  0
  9 10  1  0  0  0  0
  4 11  1  0  0  0  0
  3 12  1  0  0  0  0
 12 13  1  0  0  0  0
 13  1  1  0  0  0  0
 13 14  2  0  0  0  0
 14 15  1  0  0  0  0
 14 16  1  0  0  0  0
 16 17  1  0  0  0  0
 16 18  2  0  0  0  0
 18 19  1  0  0  0  0
 18 20  1  0  0  0  0
 20  1  2  0  0  0  0
 20 21  1  0  0  0  0
M  END
> <ChemID>
100673

> <source_casrn>
79060-60-9

> <CAS>
79060-60-9

> <SMILES>
Clc1ccc2c(oc3c2c(Cl)c(Cl)c(Cl)c3Cl)c1Cl

> <NAME>
1,2,3,4,6,7-HEXACHLORODIBENZOFURAN

> <preferred_name>
Dibenzofuran, 1,2,3,4,6,7-hexachloro-

> <iupac>
1,2,3,4,6,7-HEXACHLORODIBENZOFURAN

> <MPID>
98548

> <dsstox_substance_id>
DTXSID1075270

> <Canonical_QSARr>
Clc1ccc2c(oc3c2c(Cl)c(Cl)c(Cl)c3Cl)c1Cl

> <InChI_Code_QSARr>
InChI=1S/C12H2Cl6O/c13-4-2-1-3-5-7(15)8(16)9(17)10(18)12(5)19-11(3)6(4)14/h1-2H

> <InChI Key_QSARr>
SNWFMKXFMVHBKD-UHFFFAOYSA-N

> <Salt_Solvent>
?

> <LogBCF>
2.78

$$$$
100675
  -INDIGO-08031719362D

 21 23  0  0  0  0  0  0  0  0999 V2000
    0.0000    0.0000    0.0000 C   0  0  0  0  0  0  0  0  0  0  0  0
    1.5651    0.3327    0.0000 C   0  0  0  0  0  0  0  0  0  0  0  0
    1.7322    1.9239    0.0000 C   0  0  0  0  0  0  0  0  0  0  0  0
    3.1939    2.5747    0.0000 C   0  0  0  0  0  0  0  0  0  0  0  0
    3.3612    4.1659    0.0000 H   0  0  0  0  0  0  0  0  0  0  0  0
    4.4883    1.6342    0.0000 C   0  0  0  0  0  0  0  0  0  0  0  0
    5.9501    2.2850    0.0000 Cl  0  0  0  0  0  0  0  0  0  0  0  0
    4.3212    0.0430    0.0000 C   0  0  0  0  0  0  0  0  0  0  0  0
    2.8595   -0.6078    0.0000 C   0  0  0  0  0  0  0  0  0  0  0  0
    2.6921   -2.1990    0.0000 Cl  0  0  0  0  0  0  0  0  0  0  0  0
    5.6156   -0.8974    0.0000 Cl  0  0  0  0  0  0  0  0  0  0  0  0
    0.2707    2.5747    0.0000 O   0  0  0  0  0  0  0  0  0  0  0  0
   -0.8000    1.3856    0.0000 C   0  0  0  0  0  0  0  0  0  0  0  0
   -2.4000    1.3856    0.0000 C   0  0  0  0  0  0  0  0  0  0  0  0
   -3.2000    2.7713    0.0000 Cl  0  0  0  0  0  0  0  0  0  0  0  0
   -3.2000    0.0000    0.0000 C   0  0  0  0  0  0  0  0  0  0  0  0
   -4.8000    0.0000    0.0000 Cl  0  0  0  0  0  0  0  0  0  0  0  0
   -2.4000   -1.3856    0.0000 C   0  0  0  0  0  0  0  0  0  0  0  0
   -3.2000   -2.7713    0.0000 H   0  0  0  0  0  0  0  0  0  0  0  0
   -0.8000   -1.3856    0.0000 C   0  0  0  0  0  0  0  0  0  0  0  0
    0.0000   -2.7713    0.0000 Cl  0  0  0  0  0  0  0  0  0  0  0  0
  1  2  1  0  0  0  0
  2  3  1  0  0  0  0
  3  4  2  0  0  0  0
  4  5  1  0  0  0  0
  4  6  1  0  0  0  0
  6  7  1  0  0  0  0
  6  8  2  0  0  0  0
  8  9  1  0  0  0  0
  9  2  2  0  0  0  0
  9 10  1  0  0  0  0
  8 11  1  0  0  0  0
  3 12  1  0  0  0  0
 12 13  1  0  0  0  0
 13  1  1  0  0  0  0
 13 14  2  0  0  0  0
 14 15  1  0  0  0  0
 14 16  1  0  0  0  0
 16 17  1  0  0  0  0
 16 18  2  0  0  0  0
 18 19  1  0  0  0  0
 18 20  1  0  0  0  0
 20  1  2  0  0  0  0
 20 21  1  0  0  0  0
M  END
> <ChemID>
100675

> <source_casrn>
92341-06-5

> <CAS>
92341-06-5

> <SMILES>
Clc1cc2oc3c(c2c(Cl)c1Cl)c(Cl)cc(Cl)c3Cl

> <NAME>
1,2,3,6,7,9-HEXACHLORODIBENZOFURAN

> <preferred_name>
Dibenzofuran, 1,2,3,6,7,9-hexachloro-

> <iupac>
1,2,3,6,7,9-HEXACHLORODIBENZOFURAN

> <MPID>
98549

> <dsstox_substance_id>
DTXSID6075275

> <Canonical_QSARr>
Clc1cc2oc3c(c2c(Cl)c1Cl)c(Cl)cc(Cl)c3Cl

> <InChI_Code_QSARr>
InChI=1S/C12H2Cl6O/c13-3-1-4(14)10(17)12-7(3)8-6(19-12)2-5(15)9(16)11(8)18/h1-2H

> <InChI Key_QSARr>
JZVOLXQREJNTTL-UHFFFAOYSA-N

> <Salt_Solvent>
?

> <LogBCF>
3.2

$$$$
100676
  -INDIGO-08031719362D

 47 48  0  0  0  0  0  0  0  0999 V2000
  -11.4318    0.4761    0.0000 N   0  0  0  0  0  0  0  0  0  0  0  0
   -9.8667    0.8088    0.0000 N   0  0  0  0  0  0  0  0  0  0  0  0
   -8.6777   -0.2618    0.0000 C   0  0  0  0  0  0  0  0  0  0  0  0
   -9.0104   -1.8269    0.0000 H   0  0  0  0  0  0  0  0  0  0  0  0
   -7.4888   -1.3324    0.0000 H   0  0  0  0  0  0  0  0  0  0  0  0
  -10.1994   -0.7562    0.0000 H   0  0  0  0  0  0  0  0  0  0  0  0
   -9.6996    2.4000    0.0000 C   0  0  0  0  0  0  0  0  0  0  0  0
   -8.3139    3.2000    0.0000 C   0  0  0  0  0  0  0  0  0  0  0  0
   -8.3139    4.8000    0.0000 O   0  0  0  0  0  0  0  0  0  0  0  0
   -6.9282    2.4000    0.0000 N   0  0  0  0  0  0  0  0  0  0  0  0
   -6.9282    0.8000    0.0000 H   0  0  0  0  0  0  0  0  0  0  0  0
   -5.5425    3.2000    0.0000 C   0  0  0  0  0  0  0  0  0  0  0  0
   -6.1547    4.6782    0.0000 H   0  0  0  0  0  0  0  0  0  0  0  0
   -4.9303    4.6782    0.0000 H   0  0  0  0  0  0  0  0  0  0  0  0
   -4.1568    2.4000    0.0000 C   0  0  0  0  0  0  0  0  0  0  0  0
   -4.1568    0.8000    0.0000 C   0  0  0  0  0  0  0  0  0  0  0  0
   -5.5425   -0.0000    0.0000 H   0  0  0  0  0  0  0  0  0  0  0  0
   -2.7714   -0.0000    0.0000 C   0  0  0  0  0  0  0  0  0  0  0  0
   -2.7714   -1.6001    0.0000 H   0  0  0  0  0  0  0  0  0  0  0  0
   -1.3857    0.8000    0.0000 C   0  0  0  0  0  0  0  0  0  0  0  0
    0.0000   -0.0000    0.0000 C   0  0  0  0  0  0  0  0  0  0  0  0
    1.3857   -0.8000    0.0000 C   0  0  0  0  0  0  0  0  0  0  0  0
    2.7714   -1.6001    0.0000 H   0  0  0  0  0  0  0  0  0  0  0  0
    1.6635   -2.3757    0.0000 H   0  0  0  0  0  0  0  0  0  0  0  0
    2.8891   -0.2528    0.0000 H   0  0  0  0  0  0  0  0  0  0  0  0
   -0.7999   -1.3857    0.0000 C   0  0  0  0  0  0  0  0  0  0  0  0
   -1.8285   -2.6113    0.0000 H   0  0  0  0  0  0  0  0  0  0  0  0
   -0.2528   -2.8891    0.0000 H   0  0  0  0  0  0  0  0  0  0  0  0
    0.7758   -1.6635    0.0000 H   0  0  0  0  0  0  0  0  0  0  0  0
    0.7999    1.3856    0.0000 C   0  0  0  0  0  0  0  0  0  0  0  0
    1.3472    2.8892    0.0000 H   0  0  0  0  0  0  0  0  0  0  0  0
    2.3756    1.6634    0.0000 H   0  0  0  0  0  0  0  0  0  0  0  0
    1.8285    0.1600    0.0000 H   0  0  0  0  0  0  0  0  0  0  0  0
   -1.3857    2.4000    0.0000 C   0  0  0  0  0  0  0  0  0  0  0  0
    0.0000    3.2000    0.0000 H   0  0  0  0  0  0  0  0  0  0  0  0
   -2.7714    3.2000    0.0000 C   0  0  0  0  0  0  0  0  0  0  0  0
   -2.7714    4.8000    0.0000 H   0  0  0  0  0  0  0  0  0  0  0  0
  -11.1610    3.0507    0.0000 C   0  0  0  0  0  0  0  0  0  0  0  0
  -11.4937    4.6158    0.0000 Cl  0  0  0  0  0  0  0  0  0  0  0  0
  -12.2317    1.8617    0.0000 C   0  0  0  0  0  0  0  0  0  0  0  0
  -13.8229    2.0290    0.0000 C   0  0  0  0  0  0  0  0  0  0  0  0
  -14.9837    3.1304    0.0000 H   0  0  0  0  0  0  0  0  0  0  0  0
  -13.8649    3.6285    0.0000 H   0  0  0  0  0  0  0  0  0  0  0  0
  -14.7634    0.7346    0.0000 C   0  0  0  0  0  0  0  0  0  0  0  0
  -16.3547    0.9019    0.0000 H   0  0  0  0  0  0  0  0  0  0  0  0
  -15.7040   -0.5598    0.0000 H   0  0  0  0  0  0  0  0  0  0  0  0
  -14.1127   -0.7271    0.0000 H   0  0  0  0  0  0  0  0  0  0  0  0
  1  2  1  0  0  0  0
  2  3  1  0  0  0  0
  3  4  1  0  0  0  0
  3  5  1  0  0  0  0
  3  6  1  0  0  0  0
  2  7  1  0  0  0  0
  7  8  1  0  0  0  0
  8  9  2  0  0  0  0
  8 10  1  0  0  0  0
 10 11  1  0  0  0  0
 10 12  1  0  0  0  0
 12 13  1  0  0  0  0
 12 14  1  0  0  0  0
 12 15  1  0  0  0  0
 15 16  1  0  0  0  0
 16 17  1  0  0  0  0
 16 18  2  0  0  0  0
 18 19  1  0  0  0  0
 18 20  1  0  0  0  0
 20 21  1  0  0  0  0
 21 22  1  0  0  0  0
 22 23  1  0  0  0  0
 22 24  1  0  0  0  0
 22 25  1  0  0  0  0
 21 26  1  0  0  0  0
 26 27  1  0  0  0  0
 26 28  1  0  0  0  0
 26 29  1  0  0  0  0
 21 30  1  0  0  0  0
 30 31  1  0  0  0  0
 30 32  1  0  0  0  0
 30 33  1  0  0  0  0
 20 34  2  0  0  0  0
 34 35  1  0  0  0  0
 34 36  1  0  0  0  0
 36 15  2  0  0  0  0
 36 37  1  0  0  0  0
  7 38  2  0  0  0  0
 38 39  1  0  0  0  0
 38 40  1  0  0  0  0
 40  1  2  0  0  0  0
 40 41  1  0  0  0  0
 41 42  1  0  0  0  0
 41 43  1  0  0  0  0
 41 44  1  0  0  0  0
 44 45  1  0  0  0  0
 44 46  1  0  0  0  0
 44 47  1  0  0  0  0
M  END
> <ChemID>
100676

> <source_casrn>
119168-77-3

> <CAS>
119168-77-3

> <SMILES>
CCc1[n][n](C)c(C(=O)NCc2ccc(cc2)C(C)(C)C)c1Cl

> <NAME>
Tebufenpyrad

> <preferred_name>
Tebufenpyrad

> <iupac>
N-(4-tert-butylbenzyl)-4-chloro-3-ethyl-1-methyl-1H-pyrazole-5-carboxamide

> <MPID>
98550

> <dsstox_substance_id>
DTXSID0034223

> <Canonical_QSARr>
CCc1[n][n](C)c(C(=O)NCc2ccc(cc2)C(C)(C)C)c1Cl

> <InChI_Code_QSARr>
InChI=1S/C18H24ClN3O/c1-6-14-15(19)16(22(5)21-14)17(23)20-11-12-7-9-13(10-8-12)18(2,3)4/h7-10H,6,11H2,1-5H3,(H,20,23)

> <InChI Key_QSARr>
ZZYSLNWGKKDOML-UHFFFAOYSA-N

> <Salt_Solvent>
?

> <LogBCF>
1.15

$$$$
200703
  -INDIGO-08031719362D

 22 23  0  0  0  0  0  0  0  0999 V2000
   -0.0001    0.0000    0.0000 C   0  0  0  0  0  0  0  0  0  0  0  0
    1.6001   -0.0000    0.0000 C   0  0  0  0  0  0  0  0  0  0  0  0
    2.4001   -1.3856    0.0000 C   0  0  0  0  0  0  0  0  0  0  0  0
    1.6001   -2.7713    0.0000 Br  0  0  0  0  0  0  0  0  0  0  0  0
    4.0000   -1.3856    0.0000 C   0  0  0  0  0  0  0  0  0  0  0  0
    4.8000   -2.7713    0.0000 Br  0  0  0  0  0  0  0  0  0  0  0  0
    4.8000    0.0000    0.0000 C   0  0  0  0  0  0  0  0  0  0  0  0
    6.4000    0.0000    0.0000 Br  0  0  0  0  0  0  0  0  0  0  0  0
    4.0000    1.3856    0.0000 C   0  0  0  0  0  0  0  0  0  0  0  0
    4.8000    2.7713    0.0000 Br  0  0  0  0  0  0  0  0  0  0  0  0
    2.4001    1.3856    0.0000 C   0  0  0  0  0  0  0  0  0  0  0  0
    1.6001    2.7713    0.0000 Br  0  0  0  0  0  0  0  0  0  0  0  0
   -0.8001    1.3856    0.0000 C   0  0  0  0  0  0  0  0  0  0  0  0
   -0.0001    2.7713    0.0000 Br  0  0  0  0  0  0  0  0  0  0  0  0
   -2.4000    1.3856    0.0000 C   0  0  0  0  0  0  0  0  0  0  0  0
   -3.2000    2.7713    0.0000 Br  0  0  0  0  0  0  0  0  0  0  0  0
   -3.2000    0.0000    0.0000 C   0  0  0  0  0  0  0  0  0  0  0  0
   -4.8000   -0.0000    0.0000 Br  0  0  0  0  0  0  0  0  0  0  0  0
   -2.4000   -1.3856    0.0000 C   0  0  0  0  0  0  0  0  0  0  0  0
   -3.2000   -2.7713    0.0000 Br  0  0  0  0  0  0  0  0  0  0  0  0
   -0.8001   -1.3856    0.0000 C   0  0  0  0  0  0  0  0  0  0  0  0
   -0.0001   -2.7713    0.0000 Br  0  0  0  0  0  0  0  0  0  0  0  0
  1  2  1  0  0  0  0
  2  3  1  0  0  0  0
  3  4  1  0  0  0  0
  3  5  2  0  0  0  0
  5  6  1  0  0  0  0
  5  7  1  0  0  0  0
  7  8  1  0  0  0  0
  7  9  2  0  0  0  0
  9 10  1  0  0  0  0
  9 11  1  0  0  0  0
 11  2  2  0  0  0  0
 11 12  1  0  0  0  0
  1 13  1  0  0  0  0
 13 14  1  0  0  0  0
 13 15  2  0  0  0  0
 15 16  1  0  0  0  0
 15 17  1  0  0  0  0
 17 18  1  0  0  0  0
 17 19  2  0  0  0  0
 19 20  1  0  0  0  0
 19 21  1  0  0  0  0
 21  1  2  0  0  0  0
 21 22  1  0  0  0  0
M  END
> <ChemID>
200703

> <source_casrn>
13654-09-6

> <CAS>
13654-09-6

> <SMILES>


> <NAME>
1,1'-Biphenyl, 2,2',3,3',4,4',5,5',6,6'-decabromo-

> <preferred_name>
1,1'-Biphenyl, 2,2',3,3',4,4',5,5',6,6'-decabromo-

> <iupac>
1,2,3,4,5-pentabromo-6-(2,3,4,5,6-pentabromophenyl)benzene

> <MPID>
98551

> <dsstox_substance_id>
DTXSID9065572

> <Canonical_QSARr>
Brc1c(-c2c(Br)c(Br)c(Br)c(Br)c2Br)c(Br)c(Br)c(Br)c1Br

> <InChI_Code_QSARr>
InChI=1S/C12Br10/c13-3-1(4(14)8(18)11(21)7(3)17)2-5(15)9(19)12(22)10(20)6(2)16

> <InChI Key_QSARr>
AQPHBYQUCKHJLT-UHFFFAOYSA-N

> <Salt_Solvent>


> <LogBCF>
5.19

$$$$
200706
  -INDIGO-08031719362D

 23 24  0  0  0  0  0  0  0  0999 V2000
    0.0000    0.0000    0.0000 C   0  0  0  0  0  0  0  0  0  0  0  0
   -0.5473   -1.5035    0.0000 C   0  0  0  0  0  0  0  0  0  0  0  0
    0.4812   -2.7292    0.0000 Br  0  0  0  0  0  0  0  0  0  0  0  0
   -2.1229   -1.7813    0.0000 C   0  0  0  0  0  0  0  0  0  0  0  0
   -2.6702   -3.2849    0.0000 Br  0  0  0  0  0  0  0  0  0  0  0  0
   -3.1513   -0.5556    0.0000 C   0  0  0  0  0  0  0  0  0  0  0  0
   -4.7271   -0.8335    0.0000 Br  0  0  0  0  0  0  0  0  0  0  0  0
   -2.6042    0.9479    0.0000 C   0  0  0  0  0  0  0  0  0  0  0  0
   -3.6326    2.1735    0.0000 Br  0  0  0  0  0  0  0  0  0  0  0  0
   -1.0284    1.2257    0.0000 C   0  0  0  0  0  0  0  0  0  0  0  0
   -0.4813    2.7292    0.0000 Br  0  0  0  0  0  0  0  0  0  0  0  0
    1.5756    0.2779    0.0000 O   0  0  0  0  0  0  0  0  0  0  0  0
    2.9614   -0.5221    0.0000 C   0  0  0  0  0  0  0  0  0  0  0  0
    2.9614   -2.1222    0.0000 C   0  0  0  0  0  0  0  0  0  0  0  0
    1.5756   -2.9222    0.0000 Br  0  0  0  0  0  0  0  0  0  0  0  0
    4.3470   -2.9222    0.0000 C   0  0  0  0  0  0  0  0  0  0  0  0
    4.3470   -4.5222    0.0000 Br  0  0  0  0  0  0  0  0  0  0  0  0
    5.7326   -2.1222    0.0000 C   0  0  0  0  0  0  0  0  0  0  0  0
    7.1183   -2.9222    0.0000 Br  0  0  0  0  0  0  0  0  0  0  0  0
    5.7326   -0.5221    0.0000 C   0  0  0  0  0  0  0  0  0  0  0  0
    7.1183    0.2779    0.0000 H   0  0  0  0  0  0  0  0  0  0  0  0
    4.3470    0.2779    0.0000 C   0  0  0  0  0  0  0  0  0  0  0  0
    4.3470    1.8779    0.0000 Br  0  0  0  0  0  0  0  0  0  0  0  0
  1  2  1  0  0  0  0
  2  3  1  0  0  0  0
  2  4  2  0  0  0  0
  4  5  1  0  0  0  0
  4  6  1  0  0  0  0
  6  7  1  0  0  0  0
  6  8  2  0  0  0  0
  8  9  1  0  0  0  0
  8 10  1  0  0  0  0
 10  1  2  0  0  0  0
 10 11  1  0  0  0  0
  1 12  1  0  0  0  0
 12 13  1  0  0  0  0
 13 14  1  0  0  0  0
 14 15  1  0  0  0  0
 14 16  2  0  0  0  0
 16 17  1  0  0  0  0
 16 18  1  0  0  0  0
 18 19  1  0  0  0  0
 18 20  2  0  0  0  0
 20 21  1  0  0  0  0
 20 22  1  0  0  0  0
 22 13  2  0  0  0  0
 22 23  1  0  0  0  0
M  END
> <ChemID>
200706

> <source_casrn>
437701-79-6

> <CAS>
437701-79-6

> <SMILES>


> <NAME>
BDE-207

> <preferred_name>
BDE No 207 solution

> <iupac>
C12HBr9O

> <MPID>
98553

> <dsstox_substance_id>
DTXSID30451985

> <Canonical_QSARr>
Brc1cc(Br)c(Br)c(Br)c1Oc1c(Br)c(Br)c(Br)c(Br)c1Br

> <InChI_Code_QSARr>
InChI=1S/C12HBr9O/c13-2-1-3(14)11(8(19)4(2)15)22-12-9(20)6(17)5(16)7(18)10(12)21/h1H

> <InChI Key_QSARr>
IEEVDIAVLGLVOW-UHFFFAOYSA-N

> <Salt_Solvent>


> <LogBCF>
5.75

$$$$
200707
  -INDIGO-08031719362D

 23 24  0  0  0  0  0  0  0  0999 V2000
    0.0000    0.0000    0.0000 C   0  0  0  0  0  0  0  0  0  0  0  0
   -0.5473   -1.5035    0.0000 C   0  0  0  0  0  0  0  0  0  0  0  0
    0.4812   -2.7292    0.0000 Br  0  0  0  0  0  0  0  0  0  0  0  0
   -2.1229   -1.7813    0.0000 C   0  0  0  0  0  0  0  0  0  0  0  0
   -2.6702   -3.2849    0.0000 H   0  0  0  0  0  0  0  0  0  0  0  0
   -3.1513   -0.5556    0.0000 C   0  0  0  0  0  0  0  0  0  0  0  0
   -4.7271   -0.8335    0.0000 Br  0  0  0  0  0  0  0  0  0  0  0  0
   -2.6042    0.9479    0.0000 C   0  0  0  0  0  0  0  0  0  0  0  0
   -3.6326    2.1735    0.0000 Br  0  0  0  0  0  0  0  0  0  0  0  0
   -1.0284    1.2257    0.0000 C   0  0  0  0  0  0  0  0  0  0  0  0
   -0.4813    2.7292    0.0000 Br  0  0  0  0  0  0  0  0  0  0  0  0
    1.5756    0.2779    0.0000 O   0  0  0  0  0  0  0  0  0  0  0  0
    2.9614   -0.5221    0.0000 C   0  0  0  0  0  0  0  0  0  0  0  0
    2.9614   -2.1222    0.0000 C   0  0  0  0  0  0  0  0  0  0  0  0
    1.5756   -2.9222    0.0000 Br  0  0  0  0  0  0  0  0  0  0  0  0
    4.3470   -2.9222    0.0000 C   0  0  0  0  0  0  0  0  0  0  0  0
    4.3470   -4.5222    0.0000 Br  0  0  0  0  0  0  0  0  0  0  0  0
    5.7326   -2.1222    0.0000 C   0  0  0  0  0  0  0  0  0  0  0  0
    7.1183   -2.9222    0.0000 Br  0  0  0  0  0  0  0  0  0  0  0  0
    5.7326   -0.5221    0.0000 C   0  0  0  0  0  0  0  0  0  0  0  0
    7.1183    0.2779    0.0000 H   0  0  0  0  0  0  0  0  0  0  0  0
    4.3470    0.2779    0.0000 C   0  0  0  0  0  0  0  0  0  0  0  0
    4.3470    1.8779    0.0000 Br  0  0  0  0  0  0  0  0  0  0  0  0
  1  2  1  0  0  0  0
  2  3  1  0  0  0  0
  2  4  2  0  0  0  0
  4  5  1  0  0  0  0
  4  6  1  0  0  0  0
  6  7  1  0  0  0  0
  6  8  2  0  0  0  0
  8  9  1  0  0  0  0
  8 10  1  0  0  0  0
 10  1  2  0  0  0  0
 10 11  1  0  0  0  0
  1 12  1  0  0  0  0
 12 13  1  0  0  0  0
 13 14  1  0  0  0  0
 14 15  1  0  0  0  0
 14 16  2  0  0  0  0
 16 17  1  0  0  0  0
 16 18  1  0  0  0  0
 18 19  1  0  0  0  0
 18 20  2  0  0  0  0
 20 21  1  0  0  0  0
 20 22  1  0  0  0  0
 22 13  2  0  0  0  0
 22 23  1  0  0  0  0
M  END
> <ChemID>
200707

> <source_casrn>
117964-21-3

> <CAS>
117964-21-3

> <SMILES>


> <NAME>
BDE-197

> <preferred_name>
PBDE 197

> <iupac>
1,2,3,5-tetrabromo-4-(2,3,4,6-tetrabromophenoxy)benzene

> <MPID>
98554

> <dsstox_substance_id>
DTXSID9074775

> <Canonical_QSARr>
Brc1cc(Br)c(Br)c(Br)c1Oc1c(Br)c(Br)c(Br)cc1Br

> <InChI_Code_QSARr>
InChI=1S/C12H2Br8O/c13-3-1-5(15)11(9(19)7(3)17)21-12-6(16)2-4(14)8(18)10(12)20/h1-2H

> <InChI Key_QSARr>
AAFUUKPTSPVXJH-UHFFFAOYSA-N

> <Salt_Solvent>


> <LogBCF>
5.3

$$$$
200708
  -INDIGO-08031719362D

 23 24  0  0  0  0  0  0  0  0999 V2000
    0.0000    0.0000    0.0000 C   0  0  0  0  0  0  0  0  0  0  0  0
   -0.5473   -1.5035    0.0000 C   0  0  0  0  0  0  0  0  0  0  0  0
    0.4812   -2.7292    0.0000 H   0  0  0  0  0  0  0  0  0  0  0  0
   -2.1229   -1.7813    0.0000 C   0  0  0  0  0  0  0  0  0  0  0  0
   -2.6702   -3.2849    0.0000 Br  0  0  0  0  0  0  0  0  0  0  0  0
   -3.1513   -0.5556    0.0000 C   0  0  0  0  0  0  0  0  0  0  0  0
   -4.7271   -0.8335    0.0000 Br  0  0  0  0  0  0  0  0  0  0  0  0
   -2.6042    0.9479    0.0000 C   0  0  0  0  0  0  0  0  0  0  0  0
   -3.6326    2.1735    0.0000 H   0  0  0  0  0  0  0  0  0  0  0  0
   -1.0284    1.2257    0.0000 C   0  0  0  0  0  0  0  0  0  0  0  0
   -0.4813    2.7292    0.0000 Br  0  0  0  0  0  0  0  0  0  0  0  0
    1.5756    0.2779    0.0000 O   0  0  0  0  0  0  0  0  0  0  0  0
    2.9614   -0.5221    0.0000 C   0  0  0  0  0  0  0  0  0  0  0  0
    2.9614   -2.1222    0.0000 C   0  0  0  0  0  0  0  0  0  0  0  0
    1.5756   -2.9222    0.0000 Br  0  0  0  0  0  0  0  0  0  0  0  0
    4.3470   -2.9222    0.0000 C   0  0  0  0  0  0  0  0  0  0  0  0
    4.3470   -4.5222    0.0000 H   0  0  0  0  0  0  0  0  0  0  0  0
    5.7326   -2.1222    0.0000 C   0  0  0  0  0  0  0  0  0  0  0  0
    7.1183   -2.9222    0.0000 Br  0  0  0  0  0  0  0  0  0  0  0  0
    5.7326   -0.5221    0.0000 C   0  0  0  0  0  0  0  0  0  0  0  0
    7.1183    0.2779    0.0000 Br  0  0  0  0  0  0  0  0  0  0  0  0
    4.3470    0.2779    0.0000 C   0  0  0  0  0  0  0  0  0  0  0  0
    4.3470    1.8779    0.0000 H   0  0  0  0  0  0  0  0  0  0  0  0
  1  2  1  0  0  0  0
  2  3  1  0  0  0  0
  2  4  2  0  0  0  0
  4  5  1  0  0  0  0
  4  6  1  0  0  0  0
  6  7  1  0  0  0  0
  6  8  2  0  0  0  0
  8  9  1  0  0  0  0
  8 10  1  0  0  0  0
 10  1  2  0  0  0  0
 10 11  1  0  0  0  0
  1 12  1  0  0  0  0
 12 13  1  0  0  0  0
 13 14  1  0  0  0  0
 14 15  1  0  0  0  0
 14 16  2  0  0  0  0
 16 17  1  0  0  0  0
 16 18  1  0  0  0  0
 18 19  1  0  0  0  0
 18 20  2  0  0  0  0
 20 21  1  0  0  0  0
 20 22  1  0  0  0  0
 22 13  2  0  0  0  0
 22 23  1  0  0  0  0
M  END
> <ChemID>
200708

> <source_casrn>
68631-49-2

> <CAS>
68631-49-2

> <SMILES>


> <NAME>
BDE-153

> <preferred_name>
2,2',4,4',5,5'-Hexabromodiphenyl ether

> <iupac>
bis(2,4,5-tribromophenyl) ether

> <MPID>
98555

> <dsstox_substance_id>
DTXSID4030047

> <Canonical_QSARr>
Brc1cc(Br)c(Br)cc1Oc1cc(Br)c(Br)cc1Br

> <InChI_Code_QSARr>
InChI=1S/C12H4Br6O/c13-5-1-9(17)11(3-7(5)15)19-12-4-8(16)6(14)2-10(12)18/h1-4H

> <InChI Key_QSARr>
RZXIRSKYBISPGF-UHFFFAOYSA-N

> <Salt_Solvent>


> <LogBCF>
6.13

$$$$
200710
  -INDIGO-08031719362D

 23 24  0  0  0  0  0  0  0  0999 V2000
    0.0000    0.0000    0.0000 C   0  0  0  0  0  0  0  0  0  0  0  0
   -0.5473   -1.5035    0.0000 C   0  0  0  0  0  0  0  0  0  0  0  0
    0.4812   -2.7292    0.0000 H   0  0  0  0  0  0  0  0  0  0  0  0
   -2.1229   -1.7813    0.0000 C   0  0  0  0  0  0  0  0  0  0  0  0
   -2.6702   -3.2849    0.0000 H   0  0  0  0  0  0  0  0  0  0  0  0
   -3.1513   -0.5556    0.0000 C   0  0  0  0  0  0  0  0  0  0  0  0
   -4.7271   -0.8335    0.0000 Br  0  0  0  0  0  0  0  0  0  0  0  0
   -2.6042    0.9479    0.0000 C   0  0  0  0  0  0  0  0  0  0  0  0
   -3.6326    2.1735    0.0000 Br  0  0  0  0  0  0  0  0  0  0  0  0
   -1.0284    1.2257    0.0000 C   0  0  0  0  0  0  0  0  0  0  0  0
   -0.4813    2.7292    0.0000 H   0  0  0  0  0  0  0  0  0  0  0  0
    1.5756    0.2779    0.0000 O   0  0  0  0  0  0  0  0  0  0  0  0
    2.9614   -0.5221    0.0000 C   0  0  0  0  0  0  0  0  0  0  0  0
    2.9614   -2.1222    0.0000 C   0  0  0  0  0  0  0  0  0  0  0  0
    1.5756   -2.9222    0.0000 Br  0  0  0  0  0  0  0  0  0  0  0  0
    4.3470   -2.9222    0.0000 C   0  0  0  0  0  0  0  0  0  0  0  0
    4.3470   -4.5222    0.0000 H   0  0  0  0  0  0  0  0  0  0  0  0
    5.7326   -2.1222    0.0000 C   0  0  0  0  0  0  0  0  0  0  0  0
    7.1183   -2.9222    0.0000 Br  0  0  0  0  0  0  0  0  0  0  0  0
    5.7326   -0.5221    0.0000 C   0  0  0  0  0  0  0  0  0  0  0  0
    7.1183    0.2779    0.0000 H   0  0  0  0  0  0  0  0  0  0  0  0
    4.3470    0.2779    0.0000 C   0  0  0  0  0  0  0  0  0  0  0  0
    4.3470    1.8779    0.0000 Br  0  0  0  0  0  0  0  0  0  0  0  0
  1  2  1  0  0  0  0
  2  3  1  0  0  0  0
  2  4  2  0  0  0  0
  4  5  1  0  0  0  0
  4  6  1  0  0  0  0
  6  7  1  0  0  0  0
  6  8  2  0  0  0  0
  8  9  1  0  0  0  0
  8 10  1  0  0  0  0
 10  1  2  0  0  0  0
 10 11  1  0  0  0  0
  1 12  1  0  0  0  0
 12 13  1  0  0  0  0
 13 14  1  0  0  0  0
 14 15  1  0  0  0  0
 14 16  2  0  0  0  0
 16 17  1  0  0  0  0
 16 18  1  0  0  0  0
 18 19  1  0  0  0  0
 18 20  2  0  0  0  0
 20 21  1  0  0  0  0
 20 22  1  0  0  0  0
 22 13  2  0  0  0  0
 22 23  1  0  0  0  0
M  END
> <ChemID>
200710

> <source_casrn>
189084-66-0

> <CAS>
189084-66-0

> <SMILES>


> <NAME>
BDE-119

> <preferred_name>


> <iupac>


> <MPID>
98558

> <dsstox_substance_id>
DTXSID50873928

> <Canonical_QSARr>
Brc1cc(Br)c(Oc2cc(Br)c(Br)cc2)c(Br)c1

> <InChI_Code_QSARr>
InChI=1S/C12H5Br5O/c13-6-3-10(16)12(11(17)4-6)18-7-1-2-8(14)9(15)5-7/h1-5H

> <InChI Key_QSARr>
KXEOYBYEJCRPGB-UHFFFAOYSA-N

> <Salt_Solvent>


> <LogBCF>
6.29

$$$$
200711
  -INDIGO-08031719362D

 23 24  0  0  0  0  0  0  0  0999 V2000
    0.0000    0.0000    0.0000 C   0  0  0  0  0  0  0  0  0  0  0  0
   -0.5473   -1.5035    0.0000 C   0  0  0  0  0  0  0  0  0  0  0  0
    0.4812   -2.7292    0.0000 H   0  0  0  0  0  0  0  0  0  0  0  0
   -2.1229   -1.7813    0.0000 C   0  0  0  0  0  0  0  0  0  0  0  0
   -2.6702   -3.2849    0.0000 Br  0  0  0  0  0  0  0  0  0  0  0  0
   -3.1513   -0.5556    0.0000 C   0  0  0  0  0  0  0  0  0  0  0  0
   -4.7271   -0.8335    0.0000 Br  0  0  0  0  0  0  0  0  0  0  0  0
   -2.6042    0.9479    0.0000 C   0  0  0  0  0  0  0  0  0  0  0  0
   -3.6326    2.1735    0.0000 H   0  0  0  0  0  0  0  0  0  0  0  0
   -1.0284    1.2257    0.0000 C   0  0  0  0  0  0  0  0  0  0  0  0
   -0.4813    2.7292    0.0000 Br  0  0  0  0  0  0  0  0  0  0  0  0
    1.5756    0.2779    0.0000 O   0  0  0  0  0  0  0  0  0  0  0  0
    2.9614   -0.5221    0.0000 C   0  0  0  0  0  0  0  0  0  0  0  0
    2.9614   -2.1222    0.0000 C   0  0  0  0  0  0  0  0  0  0  0  0
    1.5756   -2.9222    0.0000 Br  0  0  0  0  0  0  0  0  0  0  0  0
    4.3470   -2.9222    0.0000 C   0  0  0  0  0  0  0  0  0  0  0  0
    4.3470   -4.5222    0.0000 H   0  0  0  0  0  0  0  0  0  0  0  0
    5.7326   -2.1222    0.0000 C   0  0  0  0  0  0  0  0  0  0  0  0
    7.1183   -2.9222    0.0000 Br  0  0  0  0  0  0  0  0  0  0  0  0
    5.7326   -0.5221    0.0000 C   0  0  0  0  0  0  0  0  0  0  0  0
    7.1183    0.2779    0.0000 H   0  0  0  0  0  0  0  0  0  0  0  0
    4.3470    0.2779    0.0000 C   0  0  0  0  0  0  0  0  0  0  0  0
    4.3470    1.8779    0.0000 Br  0  0  0  0  0  0  0  0  0  0  0  0
  1  2  1  0  0  0  0
  2  3  1  0  0  0  0
  2  4  2  0  0  0  0
  4  5  1  0  0  0  0
  4  6  1  0  0  0  0
  6  7  1  0  0  0  0
  6  8  2  0  0  0  0
  8  9  1  0  0  0  0
  8 10  1  0  0  0  0
 10  1  2  0  0  0  0
 10 11  1  0  0  0  0
  1 12  1  0  0  0  0
 12 13  1  0  0  0  0
 13 14  1  0  0  0  0
 14 15  1  0  0  0  0
 14 16  2  0  0  0  0
 16 17  1  0  0  0  0
 16 18  1  0  0  0  0
 18 19  1  0  0  0  0
 18 20  2  0  0  0  0
 20 21  1  0  0  0  0
 20 22  1  0  0  0  0
 22 13  2  0  0  0  0
 22 23  1  0  0  0  0
M  END
> <ChemID>
200711

> <source_casrn>
207122-15-4

> <CAS>
207122-15-4

> <SMILES>


> <NAME>
BDE-154

> <preferred_name>
2,2',4,4',5,6'-Hexabromodiphenyl ether (BDE 154)

> <iupac>
2,4,5-tribromophenyl 2,4,6-tribromophenyl ether

> <MPID>
98559

> <dsstox_substance_id>
DTXSID3052692

> <Canonical_QSARr>
Brc1cc(Br)c(Oc2cc(Br)c(Br)cc2Br)c(Br)c1

> <InChI_Code_QSARr>
InChI=1S/C12H4Br6O/c13-5-1-9(17)12(10(18)2-5)19-11-4-7(15)6(14)3-8(11)16/h1-4H

> <InChI Key_QSARr>
VHNPZYZQKWIWOD-UHFFFAOYSA-N

> <Salt_Solvent>


> <LogBCF>
6.15

$$$$
200712
  -INDIGO-08031719362D

 23 24  0  0  0  0  0  0  0  0999 V2000
    0.0000    0.0000    0.0000 C   0  0  0  0  0  0  0  0  0  0  0  0
   -0.5473   -1.5035    0.0000 C   0  0  0  0  0  0  0  0  0  0  0  0
    0.4812   -2.7292    0.0000 H   0  0  0  0  0  0  0  0  0  0  0  0
   -2.1229   -1.7813    0.0000 C   0  0  0  0  0  0  0  0  0  0  0  0
   -2.6702   -3.2849    0.0000 H   0  0  0  0  0  0  0  0  0  0  0  0
   -3.1513   -0.5556    0.0000 C   0  0  0  0  0  0  0  0  0  0  0  0
   -4.7271   -0.8335    0.0000 Br  0  0  0  0  0  0  0  0  0  0  0  0
   -2.6042    0.9479    0.0000 C   0  0  0  0  0  0  0  0  0  0  0  0
   -3.6326    2.1735    0.0000 H   0  0  0  0  0  0  0  0  0  0  0  0
   -1.0284    1.2257    0.0000 C   0  0  0  0  0  0  0  0  0  0  0  0
   -0.4813    2.7292    0.0000 Br  0  0  0  0  0  0  0  0  0  0  0  0
    1.5756    0.2779    0.0000 O   0  0  0  0  0  0  0  0  0  0  0  0
    2.9614   -0.5221    0.0000 C   0  0  0  0  0  0  0  0  0  0  0  0
    2.9614   -2.1222    0.0000 C   0  0  0  0  0  0  0  0  0  0  0  0
    1.5756   -2.9222    0.0000 Br  0  0  0  0  0  0  0  0  0  0  0  0
    4.3470   -2.9222    0.0000 C   0  0  0  0  0  0  0  0  0  0  0  0
    4.3470   -4.5222    0.0000 H   0  0  0  0  0  0  0  0  0  0  0  0
    5.7326   -2.1222    0.0000 C   0  0  0  0  0  0  0  0  0  0  0  0
    7.1183   -2.9222    0.0000 Br  0  0  0  0  0  0  0  0  0  0  0  0
    5.7326   -0.5221    0.0000 C   0  0  0  0  0  0  0  0  0  0  0  0
    7.1183    0.2779    0.0000 H   0  0  0  0  0  0  0  0  0  0  0  0
    4.3470    0.2779    0.0000 C   0  0  0  0  0  0  0  0  0  0  0  0
    4.3470    1.8779    0.0000 Br  0  0  0  0  0  0  0  0  0  0  0  0
  1  2  1  0  0  0  0
  2  3  1  0  0  0  0
  2  4  2  0  0  0  0
  4  5  1  0  0  0  0
  4  6  1  0  0  0  0
  6  7  1  0  0  0  0
  6  8  2  0  0  0  0
  8  9  1  0  0  0  0
  8 10  1  0  0  0  0
 10  1  2  0  0  0  0
 10 11  1  0  0  0  0
  1 12  1  0  0  0  0
 12 13  1  0  0  0  0
 13 14  1  0  0  0  0
 14 15  1  0  0  0  0
 14 16  2  0  0  0  0
 16 17  1  0  0  0  0
 16 18  1  0  0  0  0
 18 19  1  0  0  0  0
 18 20  2  0  0  0  0
 20 21  1  0  0  0  0
 20 22  1  0  0  0  0
 22 13  2  0  0  0  0
 22 23  1  0  0  0  0
M  END
> <ChemID>
200712

> <source_casrn>
189084-64-8

> <CAS>
189084-64-8

> <SMILES>


> <NAME>
BDE-100

> <preferred_name>
2,2',4,4',6-Pentabromodiphenyl ether

> <iupac>
C12H5Br5O

> <MPID>
98560

> <dsstox_substance_id>
DTXSID4052689

> <Canonical_QSARr>
Brc1cc(Br)c(Oc2ccc(Br)cc2Br)c(Br)c1

> <InChI_Code_QSARr>
InChI=1S/C12H5Br5O/c13-6-1-2-11(8(15)3-6)18-12-9(16)4-7(14)5-10(12)17/h1-5H

> <InChI Key_QSARr>
NSKIRYMHNFTRLR-UHFFFAOYSA-N

> <Salt_Solvent>


> <LogBCF>
6.36

$$$$
200714
  -INDIGO-08031719362D

 23 24  0  0  0  0  0  0  0  0999 V2000
    0.0000    0.0000    0.0000 C   0  0  0  0  0  0  0  0  0  0  0  0
   -0.5473   -1.5035    0.0000 C   0  0  0  0  0  0  0  0  0  0  0  0
    0.4812   -2.7292    0.0000 H   0  0  0  0  0  0  0  0  0  0  0  0
   -2.1229   -1.7813    0.0000 C   0  0  0  0  0  0  0  0  0  0  0  0
   -2.6702   -3.2849    0.0000 H   0  0  0  0  0  0  0  0  0  0  0  0
   -3.1513   -0.5556    0.0000 C   0  0  0  0  0  0  0  0  0  0  0  0
   -4.7271   -0.8335    0.0000 Br  0  0  0  0  0  0  0  0  0  0  0  0
   -2.6042    0.9479    0.0000 C   0  0  0  0  0  0  0  0  0  0  0  0
   -3.6326    2.1735    0.0000 H   0  0  0  0  0  0  0  0  0  0  0  0
   -1.0284    1.2257    0.0000 C   0  0  0  0  0  0  0  0  0  0  0  0
   -0.4813    2.7292    0.0000 Br  0  0  0  0  0  0  0  0  0  0  0  0
    1.5756    0.2779    0.0000 O   0  0  0  0  0  0  0  0  0  0  0  0
    2.9614   -0.5221    0.0000 C   0  0  0  0  0  0  0  0  0  0  0  0
    2.9614   -2.1222    0.0000 C   0  0  0  0  0  0  0  0  0  0  0  0
    1.5756   -2.9222    0.0000 H   0  0  0  0  0  0  0  0  0  0  0  0
    4.3470   -2.9222    0.0000 C   0  0  0  0  0  0  0  0  0  0  0  0
    4.3470   -4.5222    0.0000 Br  0  0  0  0  0  0  0  0  0  0  0  0
    5.7326   -2.1222    0.0000 C   0  0  0  0  0  0  0  0  0  0  0  0
    7.1183   -2.9222    0.0000 Br  0  0  0  0  0  0  0  0  0  0  0  0
    5.7326   -0.5221    0.0000 C   0  0  0  0  0  0  0  0  0  0  0  0
    7.1183    0.2779    0.0000 H   0  0  0  0  0  0  0  0  0  0  0  0
    4.3470    0.2779    0.0000 C   0  0  0  0  0  0  0  0  0  0  0  0
    4.3470    1.8779    0.0000 H   0  0  0  0  0  0  0  0  0  0  0  0
  1  2  1  0  0  0  0
  2  3  1  0  0  0  0
  2  4  2  0  0  0  0
  4  5  1  0  0  0  0
  4  6  1  0  0  0  0
  6  7  1  0  0  0  0
  6  8  2  0  0  0  0
  8  9  1  0  0  0  0
  8 10  1  0  0  0  0
 10  1  2  0  0  0  0
 10 11  1  0  0  0  0
  1 12  1  0  0  0  0
 12 13  1  0  0  0  0
 13 14  1  0  0  0  0
 14 15  1  0  0  0  0
 14 16  2  0  0  0  0
 16 17  1  0  0  0  0
 16 18  1  0  0  0  0
 18 19  1  0  0  0  0
 18 20  2  0  0  0  0
 20 21  1  0  0  0  0
 20 22  1  0  0  0  0
 22 13  2  0  0  0  0
 22 23  1  0  0  0  0
M  END
> <ChemID>
200714

> <source_casrn>
189084-61-5

> <CAS>
189084-61-5

> <SMILES>


> <NAME>
BDE-66

> <preferred_name>
2,3',4,4'-Tetrabromodiphenyl ether (BDE 66)

> <iupac>
1,2-dibromo-4-(2,4-dibromophenoxy)benzene

> <MPID>
98562

> <dsstox_substance_id>
DTXSID9052688

> <Canonical_QSARr>
Brc1cc(Br)c(cc1)Oc1cc(Br)c(Br)cc1

> <InChI_Code_QSARr>
InChI=1S/C12H6Br4O/c13-7-1-4-12(11(16)5-7)17-8-2-3-9(14)10(15)6-8/h1-6H

> <InChI Key_QSARr>
DHUMTYRHKMCVAG-UHFFFAOYSA-N

> <Salt_Solvent>


> <LogBCF>
6.05

$$$$
200715
  -INDIGO-08031719362D

 23 24  0  0  0  0  0  0  0  0999 V2000
    0.0000    0.0000    0.0000 C   0  0  0  0  0  0  0  0  0  0  0  0
   -0.5473   -1.5035    0.0000 C   0  0  0  0  0  0  0  0  0  0  0  0
    0.4812   -2.7292    0.0000 H   0  0  0  0  0  0  0  0  0  0  0  0
   -2.1229   -1.7813    0.0000 C   0  0  0  0  0  0  0  0  0  0  0  0
   -2.6702   -3.2849    0.0000 H   0  0  0  0  0  0  0  0  0  0  0  0
   -3.1513   -0.5556    0.0000 C   0  0  0  0  0  0  0  0  0  0  0  0
   -4.7271   -0.8335    0.0000 Br  0  0  0  0  0  0  0  0  0  0  0  0
   -2.6042    0.9479    0.0000 C   0  0  0  0  0  0  0  0  0  0  0  0
   -3.6326    2.1735    0.0000 H   0  0  0  0  0  0  0  0  0  0  0  0
   -1.0284    1.2257    0.0000 C   0  0  0  0  0  0  0  0  0  0  0  0
   -0.4813    2.7292    0.0000 Br  0  0  0  0  0  0  0  0  0  0  0  0
    1.5756    0.2779    0.0000 O   0  0  0  0  0  0  0  0  0  0  0  0
    2.9614   -0.5221    0.0000 C   0  0  0  0  0  0  0  0  0  0  0  0
    2.9614   -2.1222    0.0000 C   0  0  0  0  0  0  0  0  0  0  0  0
    1.5756   -2.9222    0.0000 Br  0  0  0  0  0  0  0  0  0  0  0  0
    4.3470   -2.9222    0.0000 C   0  0  0  0  0  0  0  0  0  0  0  0
    4.3470   -4.5222    0.0000 H   0  0  0  0  0  0  0  0  0  0  0  0
    5.7326   -2.1222    0.0000 C   0  0  0  0  0  0  0  0  0  0  0  0
    7.1183   -2.9222    0.0000 Br  0  0  0  0  0  0  0  0  0  0  0  0
    5.7326   -0.5221    0.0000 C   0  0  0  0  0  0  0  0  0  0  0  0
    7.1183    0.2779    0.0000 Br  0  0  0  0  0  0  0  0  0  0  0  0
    4.3470    0.2779    0.0000 C   0  0  0  0  0  0  0  0  0  0  0  0
    4.3470    1.8779    0.0000 H   0  0  0  0  0  0  0  0  0  0  0  0
  1  2  1  0  0  0  0
  2  3  1  0  0  0  0
  2  4  2  0  0  0  0
  4  5  1  0  0  0  0
  4  6  1  0  0  0  0
  6  7  1  0  0  0  0
  6  8  2  0  0  0  0
  8  9  1  0  0  0  0
  8 10  1  0  0  0  0
 10  1  2  0  0  0  0
 10 11  1  0  0  0  0
  1 12  1  0  0  0  0
 12 13  1  0  0  0  0
 13 14  1  0  0  0  0
 14 15  1  0  0  0  0
 14 16  2  0  0  0  0
 16 17  1  0  0  0  0
 16 18  1  0  0  0  0
 18 19  1  0  0  0  0
 18 20  2  0  0  0  0
 20 21  1  0  0  0  0
 20 22  1  0  0  0  0
 22 13  2  0  0  0  0
 22 23  1  0  0  0  0
M  END
> <ChemID>
200715

> <source_casrn>
32534-81-9

> <CAS>
60348-60-9

> <SMILES>


> <NAME>
BDE-99

> <preferred_name>


> <iupac>


> <MPID>
98563

> <dsstox_substance_id>
DTXSID9030048

> <Canonical_QSARr>
Brc1cc(Br)c(cc1)Oc1cc(Br)c(Br)cc1Br

> <InChI_Code_QSARr>
InChI=1S/C12H5Br5O/c13-6-1-2-11(9(16)3-6)18-12-5-8(15)7(14)4-10(12)17/h1-5H

> <InChI Key_QSARr>
WHPVYXDFIXRKLN-UHFFFAOYSA-N

> <Salt_Solvent>


> <LogBCF>
6.01

$$$$
200716
  -INDIGO-08031719362D

 23 24  0  0  0  0  0  0  0  0999 V2000
    0.0000    0.0000    0.0000 C   0  0  0  0  0  0  0  0  0  0  0  0
   -0.5473   -1.5035    0.0000 C   0  0  0  0  0  0  0  0  0  0  0  0
    0.4812   -2.7292    0.0000 H   0  0  0  0  0  0  0  0  0  0  0  0
   -2.1229   -1.7813    0.0000 C   0  0  0  0  0  0  0  0  0  0  0  0
   -2.6702   -3.2849    0.0000 H   0  0  0  0  0  0  0  0  0  0  0  0
   -3.1513   -0.5556    0.0000 C   0  0  0  0  0  0  0  0  0  0  0  0
   -4.7271   -0.8335    0.0000 Br  0  0  0  0  0  0  0  0  0  0  0  0
   -2.6042    0.9479    0.0000 C   0  0  0  0  0  0  0  0  0  0  0  0
   -3.6326    2.1735    0.0000 H   0  0  0  0  0  0  0  0  0  0  0  0
   -1.0284    1.2257    0.0000 C   0  0  0  0  0  0  0  0  0  0  0  0
   -0.4813    2.7292    0.0000 Br  0  0  0  0  0  0  0  0  0  0  0  0
    1.5756    0.2779    0.0000 O   0  0  0  0  0  0  0  0  0  0  0  0
    2.9614   -0.5221    0.0000 C   0  0  0  0  0  0  0  0  0  0  0  0
    2.9614   -2.1222    0.0000 C   0  0  0  0  0  0  0  0  0  0  0  0
    1.5756   -2.9222    0.0000 Br  0  0  0  0  0  0  0  0  0  0  0  0
    4.3470   -2.9222    0.0000 C   0  0  0  0  0  0  0  0  0  0  0  0
    4.3470   -4.5222    0.0000 H   0  0  0  0  0  0  0  0  0  0  0  0
    5.7326   -2.1222    0.0000 C   0  0  0  0  0  0  0  0  0  0  0  0
    7.1183   -2.9222    0.0000 Br  0  0  0  0  0  0  0  0  0  0  0  0
    5.7326   -0.5221    0.0000 C   0  0  0  0  0  0  0  0  0  0  0  0
    7.1183    0.2779    0.0000 H   0  0  0  0  0  0  0  0  0  0  0  0
    4.3470    0.2779    0.0000 C   0  0  0  0  0  0  0  0  0  0  0  0
    4.3470    1.8779    0.0000 H   0  0  0  0  0  0  0  0  0  0  0  0
  1  2  1  0  0  0  0
  2  3  1  0  0  0  0
  2  4  2  0  0  0  0
  4  5  1  0  0  0  0
  4  6  1  0  0  0  0
  6  7  1  0  0  0  0
  6  8  2  0  0  0  0
  8  9  1  0  0  0  0
  8 10  1  0  0  0  0
 10  1  2  0  0  0  0
 10 11  1  0  0  0  0
  1 12  1  0  0  0  0
 12 13  1  0  0  0  0
 13 14  1  0  0  0  0
 14 15  1  0  0  0  0
 14 16  2  0  0  0  0
 16 17  1  0  0  0  0
 16 18  1  0  0  0  0
 18 19  1  0  0  0  0
 18 20  2  0  0  0  0
 20 21  1  0  0  0  0
 20 22  1  0  0  0  0
 22 13  2  0  0  0  0
 22 23  1  0  0  0  0
M  END
> <ChemID>
200716

> <source_casrn>
5436-43-1

> <CAS>
5436-43-1

> <SMILES>


> <NAME>
BDE-47

> <preferred_name>
2,2'4,4'-Tetrabromodiphenyl ether

> <iupac>
bis(2,4-dibromophenyl) ether

> <MPID>
98564

> <dsstox_substance_id>
DTXSID3030056

> <Canonical_QSARr>
Brc1cc(Br)c(cc1)Oc1ccc(Br)cc1Br

> <InChI_Code_QSARr>
InChI=1S/C12H6Br4O/c13-7-1-3-11(9(15)5-7)17-12-4-2-8(14)6-10(12)16/h1-6H

> <InChI Key_QSARr>
XYBSIYMGXVUVGY-UHFFFAOYSA-N

> <Salt_Solvent>


> <LogBCF>
5.84

$$$$
200718
  -INDIGO-08031719362D

 23 24  0  0  0  0  0  0  0  0999 V2000
    0.0000    0.0000    0.0000 C   0  0  0  0  0  0  0  0  0  0  0  0
   -0.5473   -1.5035    0.0000 C   0  0  0  0  0  0  0  0  0  0  0  0
    0.4812   -2.7292    0.0000 Br  0  0  0  0  0  0  0  0  0  0  0  0
   -2.1229   -1.7813    0.0000 C   0  0  0  0  0  0  0  0  0  0  0  0
   -2.6702   -3.2849    0.0000 Br  0  0  0  0  0  0  0  0  0  0  0  0
   -3.1513   -0.5556    0.0000 C   0  0  0  0  0  0  0  0  0  0  0  0
   -4.7271   -0.8335    0.0000 Br  0  0  0  0  0  0  0  0  0  0  0  0
   -2.6042    0.9479    0.0000 C   0  0  0  0  0  0  0  0  0  0  0  0
   -3.6326    2.1735    0.0000 Br  0  0  0  0  0  0  0  0  0  0  0  0
   -1.0284    1.2257    0.0000 C   0  0  0  0  0  0  0  0  0  0  0  0
   -0.4813    2.7292    0.0000 Br  0  0  0  0  0  0  0  0  0  0  0  0
    1.5756    0.2779    0.0000 O   0  0  0  0  0  0  0  0  0  0  0  0
    2.9614   -0.5221    0.0000 C   0  0  0  0  0  0  0  0  0  0  0  0
    2.9614   -2.1222    0.0000 C   0  0  0  0  0  0  0  0  0  0  0  0
    1.5756   -2.9222    0.0000 Br  0  0  0  0  0  0  0  0  0  0  0  0
    4.3470   -2.9222    0.0000 C   0  0  0  0  0  0  0  0  0  0  0  0
    4.3470   -4.5222    0.0000 Br  0  0  0  0  0  0  0  0  0  0  0  0
    5.7326   -2.1222    0.0000 C   0  0  0  0  0  0  0  0  0  0  0  0
    7.1183   -2.9222    0.0000 H   0  0  0  0  0  0  0  0  0  0  0  0
    5.7326   -0.5221    0.0000 C   0  0  0  0  0  0  0  0  0  0  0  0
    7.1183    0.2779    0.0000 Br  0  0  0  0  0  0  0  0  0  0  0  0
    4.3470    0.2779    0.0000 C   0  0  0  0  0  0  0  0  0  0  0  0
    4.3470    1.8779    0.0000 H   0  0  0  0  0  0  0  0  0  0  0  0
  1  2  1  0  0  0  0
  2  3  1  0  0  0  0
  2  4  2  0  0  0  0
  4  5  1  0  0  0  0
  4  6  1  0  0  0  0
  6  7  1  0  0  0  0
  6  8  2  0  0  0  0
  8  9  1  0  0  0  0
  8 10  1  0  0  0  0
 10  1  2  0  0  0  0
 10 11  1  0  0  0  0
  1 12  1  0  0  0  0
 12 13  1  0  0  0  0
 13 14  1  0  0  0  0
 14 15  1  0  0  0  0
 14 16  2  0  0  0  0
 16 17  1  0  0  0  0
 16 18  1  0  0  0  0
 18 19  1  0  0  0  0
 18 20  2  0  0  0  0
 20 21  1  0  0  0  0
 20 22  1  0  0  0  0
 22 13  2  0  0  0  0
 22 23  1  0  0  0  0
M  END
> <ChemID>
200718

> <source_casrn>
32536-52-0

> <CAS>
446255-54-5

> <SMILES>


> <NAME>
BDE-198

> <preferred_name>


> <iupac>


> <MPID>
98556|98557|98566|98567

> <dsstox_substance_id>
DTXSID00196255

> <Canonical_QSARr>
Brc1cc(Oc2c(Br)c(Br)c(Br)c(Br)c2Br)c(Br)c(Br)c1

> <InChI_Code_QSARr>
InChI=1S/C12H2Br8O/c13-3-1-4(14)6(15)5(2-3)21-12-10(19)8(17)7(16)9(18)11(12)20/h1-2H

> <InChI Key_QSARr>
IBKRHVDFFHQOSC-UHFFFAOYSA-N

> <Salt_Solvent>


> <LogBCF>
5.68

$$$$
200719
  -INDIGO-08031719362D

 23 24  0  0  0  0  0  0  0  0999 V2000
    0.0000    0.0000    0.0000 C   0  0  0  0  0  0  0  0  0  0  0  0
   -0.5473   -1.5035    0.0000 C   0  0  0  0  0  0  0  0  0  0  0  0
    0.4812   -2.7292    0.0000 Br  0  0  0  0  0  0  0  0  0  0  0  0
   -2.1229   -1.7813    0.0000 C   0  0  0  0  0  0  0  0  0  0  0  0
   -2.6702   -3.2849    0.0000 Br  0  0  0  0  0  0  0  0  0  0  0  0
   -3.1513   -0.5556    0.0000 C   0  0  0  0  0  0  0  0  0  0  0  0
   -4.7271   -0.8335    0.0000 Br  0  0  0  0  0  0  0  0  0  0  0  0
   -2.6042    0.9479    0.0000 C   0  0  0  0  0  0  0  0  0  0  0  0
   -3.6326    2.1735    0.0000 Br  0  0  0  0  0  0  0  0  0  0  0  0
   -1.0284    1.2257    0.0000 C   0  0  0  0  0  0  0  0  0  0  0  0
   -0.4813    2.7292    0.0000 Br  0  0  0  0  0  0  0  0  0  0  0  0
    1.5756    0.2779    0.0000 O   0  0  0  0  0  0  0  0  0  0  0  0
    2.9614   -0.5221    0.0000 C   0  0  0  0  0  0  0  0  0  0  0  0
    2.9614   -2.1222    0.0000 C   0  0  0  0  0  0  0  0  0  0  0  0
    1.5756   -2.9222    0.0000 Br  0  0  0  0  0  0  0  0  0  0  0  0
    4.3470   -2.9222    0.0000 C   0  0  0  0  0  0  0  0  0  0  0  0
    4.3470   -4.5222    0.0000 Br  0  0  0  0  0  0  0  0  0  0  0  0
    5.7326   -2.1222    0.0000 C   0  0  0  0  0  0  0  0  0  0  0  0
    7.1183   -2.9222    0.0000 Br  0  0  0  0  0  0  0  0  0  0  0  0
    5.7326   -0.5221    0.0000 C   0  0  0  0  0  0  0  0  0  0  0  0
    7.1183    0.2779    0.0000 Br  0  0  0  0  0  0  0  0  0  0  0  0
    4.3470    0.2779    0.0000 C   0  0  0  0  0  0  0  0  0  0  0  0
    4.3470    1.8779    0.0000 H   0  0  0  0  0  0  0  0  0  0  0  0
  1  2  1  0  0  0  0
  2  3  1  0  0  0  0
  2  4  2  0  0  0  0
  4  5  1  0  0  0  0
  4  6  1  0  0  0  0
  6  7  1  0  0  0  0
  6  8  2  0  0  0  0
  8  9  1  0  0  0  0
  8 10  1  0  0  0  0
 10  1  2  0  0  0  0
 10 11  1  0  0  0  0
  1 12  1  0  0  0  0
 12 13  1  0  0  0  0
 13 14  1  0  0  0  0
 14 15  1  0  0  0  0
 14 16  2  0  0  0  0
 16 17  1  0  0  0  0
 16 18  1  0  0  0  0
 18 19  1  0  0  0  0
 18 20  2  0  0  0  0
 20 21  1  0  0  0  0
 20 22  1  0  0  0  0
 22 13  2  0  0  0  0
 22 23  1  0  0  0  0
M  END
> <ChemID>
200719

> <source_casrn>
63936-56-1

> <CAS>
63936-56-1

> <SMILES>


> <NAME>
BDE-206

> <preferred_name>
Nonabromodiphenyl ether

> <iupac>
pentabromophenyl 2,3,4,5-tetrabromophenyl ether

> <MPID>
98568

> <dsstox_substance_id>
DTXSID3024233

> <Canonical_QSARr>
Brc1cc(Oc2c(Br)c(Br)c(Br)c(Br)c2Br)c(Br)c(Br)c1Br

> <InChI_Code_QSARr>
InChI=1S/C12HBr9O/c13-2-1-3(5(15)6(16)4(2)14)22-12-10(20)8(18)7(17)9(19)11(12)21/h1H

> <InChI Key_QSARr>
CYRHBNRLQMLULE-UHFFFAOYSA-N

> <Salt_Solvent>


> <LogBCF>
5.44

$$$$
200720
  -INDIGO-08031719362D

 23 24  0  0  0  0  0  0  0  0999 V2000
    0.0000    0.0000    0.0000 C   0  0  0  0  0  0  0  0  0  0  0  0
   -0.5473   -1.5035    0.0000 C   0  0  0  0  0  0  0  0  0  0  0  0
    0.4812   -2.7292    0.0000 Br  0  0  0  0  0  0  0  0  0  0  0  0
   -2.1229   -1.7813    0.0000 C   0  0  0  0  0  0  0  0  0  0  0  0
   -2.6702   -3.2849    0.0000 Br  0  0  0  0  0  0  0  0  0  0  0  0
   -3.1513   -0.5556    0.0000 C   0  0  0  0  0  0  0  0  0  0  0  0
   -4.7271   -0.8335    0.0000 Br  0  0  0  0  0  0  0  0  0  0  0  0
   -2.6042    0.9479    0.0000 C   0  0  0  0  0  0  0  0  0  0  0  0
   -3.6326    2.1735    0.0000 Br  0  0  0  0  0  0  0  0  0  0  0  0
   -1.0284    1.2257    0.0000 C   0  0  0  0  0  0  0  0  0  0  0  0
   -0.4813    2.7292    0.0000 Br  0  0  0  0  0  0  0  0  0  0  0  0
    1.5756    0.2779    0.0000 O   0  0  0  0  0  0  0  0  0  0  0  0
    2.9614   -0.5221    0.0000 C   0  0  0  0  0  0  0  0  0  0  0  0
    2.9614   -2.1222    0.0000 C   0  0  0  0  0  0  0  0  0  0  0  0
    1.5756   -2.9222    0.0000 Br  0  0  0  0  0  0  0  0  0  0  0  0
    4.3470   -2.9222    0.0000 C   0  0  0  0  0  0  0  0  0  0  0  0
    4.3470   -4.5222    0.0000 H   0  0  0  0  0  0  0  0  0  0  0  0
    5.7326   -2.1222    0.0000 C   0  0  0  0  0  0  0  0  0  0  0  0
    7.1183   -2.9222    0.0000 Br  0  0  0  0  0  0  0  0  0  0  0  0
    5.7326   -0.5221    0.0000 C   0  0  0  0  0  0  0  0  0  0  0  0
    7.1183    0.2779    0.0000 Br  0  0  0  0  0  0  0  0  0  0  0  0
    4.3470    0.2779    0.0000 C   0  0  0  0  0  0  0  0  0  0  0  0
    4.3470    1.8779    0.0000 H   0  0  0  0  0  0  0  0  0  0  0  0
  1  2  1  0  0  0  0
  2  3  1  0  0  0  0
  2  4  2  0  0  0  0
  4  5  1  0  0  0  0
  4  6  1  0  0  0  0
  6  7  1  0  0  0  0
  6  8  2  0  0  0  0
  8  9  1  0  0  0  0
  8 10  1  0  0  0  0
 10  1  2  0  0  0  0
 10 11  1  0  0  0  0
  1 12  1  0  0  0  0
 12 13  1  0  0  0  0
 13 14  1  0  0  0  0
 14 15  1  0  0  0  0
 14 16  2  0  0  0  0
 16 17  1  0  0  0  0
 16 18  1  0  0  0  0
 18 19  1  0  0  0  0
 18 20  2  0  0  0  0
 20 21  1  0  0  0  0
 20 22  1  0  0  0  0
 22 13  2  0  0  0  0
 22 23  1  0  0  0  0
M  END
> <ChemID>
200720

> <source_casrn>
337513-72-1

> <CAS>
337513-72-1

> <SMILES>


> <NAME>
BDE-203

> <preferred_name>
Benzene, 1,2,3,4,5-pentabromo-6-(2,4,5-tribromophenoxy)-

> <iupac>
1,2,3,4,5-pentabromo-6-(2,4,5-tribromophenoxy)benzene

> <MPID>
98569

> <dsstox_substance_id>
DTXSID7074749

> <Canonical_QSARr>
Brc1cc(Oc2c(Br)c(Br)c(Br)c(Br)c2Br)c(Br)cc1Br

> <InChI_Code_QSARr>
InChI=1S/C12H2Br8O/c13-3-1-5(15)6(2-4(3)14)21-12-10(19)8(17)7(16)9(18)11(12)20/h1-2H

> <InChI Key_QSARr>
RTUZOQFRIPIWPS-UHFFFAOYSA-N

> <Salt_Solvent>


> <LogBCF>
5.93

$$$$
200722
  -INDIGO-08031719362D

 23 24  0  0  0  0  0  0  0  0999 V2000
    0.0000    0.0000    0.0000 C   0  0  0  0  0  0  0  0  0  0  0  0
   -0.5473   -1.5035    0.0000 C   0  0  0  0  0  0  0  0  0  0  0  0
    0.4812   -2.7292    0.0000 H   0  0  0  0  0  0  0  0  0  0  0  0
   -2.1229   -1.7813    0.0000 C   0  0  0  0  0  0  0  0  0  0  0  0
   -2.6702   -3.2849    0.0000 H   0  0  0  0  0  0  0  0  0  0  0  0
   -3.1513   -0.5556    0.0000 C   0  0  0  0  0  0  0  0  0  0  0  0
   -4.7271   -0.8335    0.0000 Br  0  0  0  0  0  0  0  0  0  0  0  0
   -2.6042    0.9479    0.0000 C   0  0  0  0  0  0  0  0  0  0  0  0
   -3.6326    2.1735    0.0000 Br  0  0  0  0  0  0  0  0  0  0  0  0
   -1.0284    1.2257    0.0000 C   0  0  0  0  0  0  0  0  0  0  0  0
   -0.4813    2.7292    0.0000 H   0  0  0  0  0  0  0  0  0  0  0  0
    1.5756    0.2779    0.0000 O   0  0  0  0  0  0  0  0  0  0  0  0
    2.9614   -0.5221    0.0000 C   0  0  0  0  0  0  0  0  0  0  0  0
    2.9614   -2.1222    0.0000 C   0  0  0  0  0  0  0  0  0  0  0  0
    1.5756   -2.9222    0.0000 H   0  0  0  0  0  0  0  0  0  0  0  0
    4.3470   -2.9222    0.0000 C   0  0  0  0  0  0  0  0  0  0  0  0
    4.3470   -4.5222    0.0000 Br  0  0  0  0  0  0  0  0  0  0  0  0
    5.7326   -2.1222    0.0000 C   0  0  0  0  0  0  0  0  0  0  0  0
    7.1183   -2.9222    0.0000 Br  0  0  0  0  0  0  0  0  0  0  0  0
    5.7326   -0.5221    0.0000 C   0  0  0  0  0  0  0  0  0  0  0  0
    7.1183    0.2779    0.0000 H   0  0  0  0  0  0  0  0  0  0  0  0
    4.3470    0.2779    0.0000 C   0  0  0  0  0  0  0  0  0  0  0  0
    4.3470    1.8779    0.0000 H   0  0  0  0  0  0  0  0  0  0  0  0
  1  2  1  0  0  0  0
  2  3  1  0  0  0  0
  2  4  2  0  0  0  0
  4  5  1  0  0  0  0
  4  6  1  0  0  0  0
  6  7  1  0  0  0  0
  6  8  2  0  0  0  0
  8  9  1  0  0  0  0
  8 10  1  0  0  0  0
 10  1  2  0  0  0  0
 10 11  1  0  0  0  0
  1 12  1  0  0  0  0
 12 13  1  0  0  0  0
 13 14  1  0  0  0  0
 14 15  1  0  0  0  0
 14 16  2  0  0  0  0
 16 17  1  0  0  0  0
 16 18  1  0  0  0  0
 18 19  1  0  0  0  0
 18 20  2  0  0  0  0
 20 21  1  0  0  0  0
 20 22  1  0  0  0  0
 22 13  2  0  0  0  0
 22 23  1  0  0  0  0
M  END
> <ChemID>
200722

> <source_casrn>
93703-48-1

> <CAS>
93703-48-1

> <SMILES>


> <NAME>
BDE-77

> <preferred_name>


> <iupac>


> <MPID>
98571

> <dsstox_substance_id>
DTXSID80877030

> <Canonical_QSARr>
Brc1ccc(cc1Br)Oc1cc(Br)c(Br)cc1

> <InChI_Code_QSARr>
InChI=1S/C12H6Br4O/c13-9-3-1-7(5-11(9)15)17-8-2-4-10(14)12(16)6-8/h1-6H

> <InChI Key_QSARr>
RYGLOWMCGZHYRQ-UHFFFAOYSA-N

> <Salt_Solvent>


> <LogBCF>
6.29

$$$$
