100001
  -INDIGO-08031722222D

 28 29  0  0  0  0  0  0  0  0999 V2000
   -1.3856    0.8000    0.0000 Cl  0  0  0  0  0  0  0  0  0  0  0  0
    0.0001    1.6001    0.0000 C   0  0  0  0  0  0  0  0  0  0  0  0
    0.0001    0.0000    0.0000 C   0  0  0  0  0  0  0  0  0  0  0  0
    0.0001   -1.6000    0.0000 H   0  0  0  0  0  0  0  0  0  0  0  0
   -1.5034   -0.5472    0.0000 C   0  0  0  0  0  0  0  0  0  0  0  0
   -2.7292    0.4813    0.0000 C   0  0  0  0  0  0  0  0  0  0  0  0
   -2.4513    2.0569    0.0000 H   0  0  0  0  0  0  0  0  0  0  0  0
   -4.2327   -0.0660    0.0000 C   0  0  0  0  0  0  0  0  0  0  0  0
   -5.4584    0.9624    0.0000 H   0  0  0  0  0  0  0  0  0  0  0  0
   -4.5106   -1.6416    0.0000 C   0  0  0  0  0  0  0  0  0  0  0  0
   -6.0140   -2.1889    0.0000 Cl  0  0  0  0  0  0  0  0  0  0  0  0
   -3.2848   -2.6701    0.0000 C   0  0  0  0  0  0  0  0  0  0  0  0
   -3.5627   -4.2459    0.0000 H   0  0  0  0  0  0  0  0  0  0  0  0
   -1.7813   -2.1229    0.0000 C   0  0  0  0  0  0  0  0  0  0  0  0
   -0.5557   -3.1514    0.0000 H   0  0  0  0  0  0  0  0  0  0  0  0
    1.5999    0.0000    0.0000 C   0  0  0  0  0  0  0  0  0  0  0  0
    2.4001    1.3857    0.0000 C   0  0  0  0  0  0  0  0  0  0  0  0
    1.5999    2.7713    0.0000 H   0  0  0  0  0  0  0  0  0  0  0  0
    4.0000    1.3857    0.0000 C   0  0  0  0  0  0  0  0  0  0  0  0
    4.7999    2.7713    0.0000 H   0  0  0  0  0  0  0  0  0  0  0  0
    4.7999    0.0000    0.0000 C   0  0  0  0  0  0  0  0  0  0  0  0
    6.4000    0.0000    0.0000 Cl  0  0  0  0  0  0  0  0  0  0  0  0
    4.0000   -1.3857    0.0000 C   0  0  0  0  0  0  0  0  0  0  0  0
    4.7999   -2.7712    0.0000 H   0  0  0  0  0  0  0  0  0  0  0  0
    2.4001   -1.3857    0.0000 C   0  0  0  0  0  0  0  0  0  0  0  0
    1.5999   -2.7712    0.0000 H   0  0  0  0  0  0  0  0  0  0  0  0
    0.0001    3.2000    0.0000 Cl  0  0  0  0  0  0  0  0  0  0  0  0
   -1.3856    2.4000    0.0000 Cl  0  0  0  0  0  0  0  0  0  0  0  0
  1  2  1  0  0  0  0
  2  3  1  0  0  0  0
  3  4  1  0  0  0  0
  3  5  1  0  0  0  0
  5  6  1  0  0  0  0
  6  7  1  0  0  0  0
  6  8  2  0  0  0  0
  8  9  1  0  0  0  0
  8 10  1  0  0  0  0
 10 11  1  0  0  0  0
 10 12  2  0  0  0  0
 12 13  1  0  0  0  0
 12 14  1  0  0  0  0
 14  5  2  0  0  0  0
 14 15  1  0  0  0  0
  3 16  1  0  0  0  0
 16 17  1  0  0  0  0
 17 18  1  0  0  0  0
 17 19  2  0  0  0  0
 19 20  1  0  0  0  0
 19 21  1  0  0  0  0
 21 22  1  0  0  0  0
 21 23  2  0  0  0  0
 23 24  1  0  0  0  0
 23 25  1  0  0  0  0
 25 16  2  0  0  0  0
 25 26  1  0  0  0  0
  2 27  1  0  0  0  0
  2 28  1  0  0  0  0
M  END
> <ChemID>
100001

> <source_casrn>
50-29-3

> <CAS>
50-29-3

> <SMILES>
ClC(Cl)(Cl)C(c1ccc(Cl)cc1)c1ccc(Cl)cc1

> <NAME>
p,p'-DDT

> <preferred_name>
p,p'-DDT

> <iupac>
1,1'-(2,2,2-trichloroethane-1,1-diyl)bis(4-chlorobenzene)

> <MPID>
101638

> <dsstox_substance_id>
DTXSID4020375

> <Canonical_QSARr>
ClC(Cl)(Cl)C(c1ccc(Cl)cc1)c1ccc(Cl)cc1

> <InChI_Code_QSARr>
InChI=1S/C14H9Cl5/c15-11-5-1-9(2-6-11)13(14(17,18)19)10-3-7-12(16)8-4-10/h1-8,13H

> <InChI Key_QSARr>
YVGGHNCTFXOJCH-UHFFFAOYSA-N

> <LogKmHL>
1.93

$$$$
100002
  -INDIGO-08031722222D

 32 36  0  0  0  0  0  0  0  0999 V2000
    0.0000    2.7712    0.0000 C   0  0  0  0  0  0  0  0  0  0  0  0
    0.8000    4.1569    0.0000 H   0  0  0  0  0  0  0  0  0  0  0  0
   -1.6000    2.7712    0.0000 C   0  0  0  0  0  0  0  0  0  0  0  0
   -2.4000    4.1569    0.0000 H   0  0  0  0  0  0  0  0  0  0  0  0
   -2.4000    1.3856    0.0000 C   0  0  0  0  0  0  0  0  0  0  0  0
   -1.6000    0.0001    0.0000 C   0  0  0  0  0  0  0  0  0  0  0  0
   -2.4000   -1.3856    0.0000 C   0  0  0  0  0  0  0  0  0  0  0  0
   -4.0000   -1.3856    0.0000 C   0  0  0  0  0  0  0  0  0  0  0  0
   -4.8000   -2.7712    0.0000 H   0  0  0  0  0  0  0  0  0  0  0  0
   -4.8000    0.0001    0.0000 C   0  0  0  0  0  0  0  0  0  0  0  0
   -6.4000    0.0001    0.0000 H   0  0  0  0  0  0  0  0  0  0  0  0
   -4.0000    1.3856    0.0000 C   0  0  0  0  0  0  0  0  0  0  0  0
   -4.8000    2.7713    0.0000 H   0  0  0  0  0  0  0  0  0  0  0  0
   -1.6000   -2.7712    0.0000 C   0  0  0  0  0  0  0  0  0  0  0  0
   -2.4000   -4.1569    0.0000 H   0  0  0  0  0  0  0  0  0  0  0  0
    0.0000   -2.7712    0.0000 C   0  0  0  0  0  0  0  0  0  0  0  0
    0.8000   -4.1569    0.0000 H   0  0  0  0  0  0  0  0  0  0  0  0
    0.8000   -1.3856    0.0000 C   0  0  0  0  0  0  0  0  0  0  0  0
    0.0000   -0.0001    0.0000 C   0  0  0  0  0  0  0  0  0  0  0  0
    0.8000    1.3856    0.0000 C   0  0  0  0  0  0  0  0  0  0  0  0
    2.4000    1.3856    0.0000 C   0  0  0  0  0  0  0  0  0  0  0  0
    3.2000    0.0001    0.0000 C   0  0  0  0  0  0  0  0  0  0  0  0
    2.4000   -1.3856    0.0000 C   0  0  0  0  0  0  0  0  0  0  0  0
    3.2000   -2.7713    0.0000 H   0  0  0  0  0  0  0  0  0  0  0  0
    4.8000    0.0001    0.0000 C   0  0  0  0  0  0  0  0  0  0  0  0
    5.6000   -1.3856    0.0000 H   0  0  0  0  0  0  0  0  0  0  0  0
    5.6000    1.3856    0.0000 C   0  0  0  0  0  0  0  0  0  0  0  0
    7.2000    1.3856    0.0000 H   0  0  0  0  0  0  0  0  0  0  0  0
    4.8000    2.7712    0.0000 C   0  0  0  0  0  0  0  0  0  0  0  0
    5.6000    4.1569    0.0000 H   0  0  0  0  0  0  0  0  0  0  0  0
    3.2000    2.7712    0.0000 C   0  0  0  0  0  0  0  0  0  0  0  0
    2.4000    4.1569    0.0000 H   0  0  0  0  0  0  0  0  0  0  0  0
  1  2  1  0  0  0  0
  1  3  2  0  0  0  0
  3  4  1  0  0  0  0
  3  5  1  0  0  0  0
  5  6  1  0  0  0  0
  6  7  2  0  0  0  0
  7  8  1  0  0  0  0
  8  9  1  0  0  0  0
  8 10  2  0  0  0  0
 10 11  1  0  0  0  0
 10 12  1  0  0  0  0
 12  5  2  0  0  0  0
 12 13  1  0  0  0  0
  7 14  1  0  0  0  0
 14 15  1  0  0  0  0
 14 16  2  0  0  0  0
 16 17  1  0  0  0  0
 16 18  1  0  0  0  0
 18 19  2  0  0  0  0
 19  6  1  0  0  0  0
 19 20  1  0  0  0  0
 20  1  1  0  0  0  0
 20 21  2  0  0  0  0
 21 22  1  0  0  0  0
 22 23  2  0  0  0  0
 23 18  1  0  0  0  0
 23 24  1  0  0  0  0
 22 25  1  0  0  0  0
 25 26  1  0  0  0  0
 25 27  2  0  0  0  0
 27 28  1  0  0  0  0
 27 29  1  0  0  0  0
 29 30  1  0  0  0  0
 29 31  2  0  0  0  0
 31 21  1  0  0  0  0
 31 32  1  0  0  0  0
M  END
> <ChemID>
100002

> <source_casrn>
50-32-8

> <CAS>
50-32-8

> <SMILES>
c1c2ccccc2c2ccc3cccc4ccc1c2c34

> <NAME>
Benzo[a]pyrene

> <preferred_name>
Benzo(a)pyrene

> <iupac>
benzo[pqr]tetraphene

> <MPID>
101639

> <dsstox_substance_id>
DTXSID2020139

> <Canonical_QSARr>
c1c2ccccc2c2ccc3cccc4ccc1c2c34

> <InChI_Code_QSARr>
InChI=1S/C20H12/c1-2-7-17-15(4-1)12-16-9-8-13-5-3-6-14-10-11-18(17)20(16)19(13)14/h1-12H

> <InChI Key_QSARr>
FMMWHPNWAFZXNH-UHFFFAOYSA-N

> <LogKmHL>
0.05

$$$$
100003
  -INDIGO-08031722222D

 28 29  0  0  0  0  0  0  0  0999 V2000
   -1.3856    0.8000    0.0000 Cl  0  0  0  0  0  0  0  0  0  0  0  0
    0.0001    1.6001    0.0000 C   0  0  0  0  0  0  0  0  0  0  0  0
    0.0001    3.2000    0.0000 H   0  0  0  0  0  0  0  0  0  0  0  0
    0.0001    0.0000    0.0000 C   0  0  0  0  0  0  0  0  0  0  0  0
    0.0001   -1.6000    0.0000 H   0  0  0  0  0  0  0  0  0  0  0  0
   -1.5034   -0.5472    0.0000 C   0  0  0  0  0  0  0  0  0  0  0  0
   -2.7292    0.4813    0.0000 C   0  0  0  0  0  0  0  0  0  0  0  0
   -2.4513    2.0569    0.0000 Cl  0  0  0  0  0  0  0  0  0  0  0  0
   -4.2327   -0.0660    0.0000 C   0  0  0  0  0  0  0  0  0  0  0  0
   -5.4584    0.9624    0.0000 H   0  0  0  0  0  0  0  0  0  0  0  0
   -4.5106   -1.6416    0.0000 C   0  0  0  0  0  0  0  0  0  0  0  0
   -6.0140   -2.1889    0.0000 H   0  0  0  0  0  0  0  0  0  0  0  0
   -3.2848   -2.6701    0.0000 C   0  0  0  0  0  0  0  0  0  0  0  0
   -3.5627   -4.2459    0.0000 H   0  0  0  0  0  0  0  0  0  0  0  0
   -1.7813   -2.1229    0.0000 C   0  0  0  0  0  0  0  0  0  0  0  0
   -0.5557   -3.1514    0.0000 H   0  0  0  0  0  0  0  0  0  0  0  0
    1.5999    0.0000    0.0000 C   0  0  0  0  0  0  0  0  0  0  0  0
    2.4001    1.3857    0.0000 C   0  0  0  0  0  0  0  0  0  0  0  0
    1.5999    2.7713    0.0000 H   0  0  0  0  0  0  0  0  0  0  0  0
    4.0000    1.3857    0.0000 C   0  0  0  0  0  0  0  0  0  0  0  0
    4.7999    2.7713    0.0000 H   0  0  0  0  0  0  0  0  0  0  0  0
    4.7999    0.0000    0.0000 C   0  0  0  0  0  0  0  0  0  0  0  0
    6.4000    0.0000    0.0000 Cl  0  0  0  0  0  0  0  0  0  0  0  0
    4.0000   -1.3857    0.0000 C   0  0  0  0  0  0  0  0  0  0  0  0
    4.7999   -2.7712    0.0000 H   0  0  0  0  0  0  0  0  0  0  0  0
    2.4001   -1.3857    0.0000 C   0  0  0  0  0  0  0  0  0  0  0  0
    1.5999   -2.7712    0.0000 H   0  0  0  0  0  0  0  0  0  0  0  0
   -1.3856    2.4000    0.0000 Cl  0  0  0  0  0  0  0  0  0  0  0  0
  1  2  1  0  0  0  0
  2  3  1  0  0  0  0
  2  4  1  0  0  0  0
  4  5  1  0  0  0  0
  4  6  1  0  0  0  0
  6  7  1  0  0  0  0
  7  8  1  0  0  0  0
  7  9  2  0  0  0  0
  9 10  1  0  0  0  0
  9 11  1  0  0  0  0
 11 12  1  0  0  0  0
 11 13  2  0  0  0  0
 13 14  1  0  0  0  0
 13 15  1  0  0  0  0
 15  6  2  0  0  0  0
 15 16  1  0  0  0  0
  4 17  1  0  0  0  0
 17 18  1  0  0  0  0
 18 19  1  0  0  0  0
 18 20  2  0  0  0  0
 20 21  1  0  0  0  0
 20 22  1  0  0  0  0
 22 23  1  0  0  0  0
 22 24  2  0  0  0  0
 24 25  1  0  0  0  0
 24 26  1  0  0  0  0
 26 17  2  0  0  0  0
 26 27  1  0  0  0  0
  2 28  1  0  0  0  0
M  END
> <ChemID>
100003

> <source_casrn>
53-19-0

> <CAS>
53-19-0

> <SMILES>
ClC(Cl)C(c1ccccc1Cl)c1ccc(Cl)cc1

> <NAME>
o,p'-DDD

> <preferred_name>
o,p'-DDD

> <iupac>
1-chloro-2-[2,2-dichloro-1-(4-chlorophenyl)ethyl]benzene

> <MPID>
101640

> <dsstox_substance_id>
DTXSID9020372

> <Canonical_QSARr>
ClC(Cl)C(c1ccccc1Cl)c1ccc(Cl)cc1

> <InChI_Code_QSARr>
InChI=1S/C14H10Cl4/c15-10-7-5-9(6-8-10)13(14(17)18)11-3-1-2-4-12(11)16/h1-8,13-14H

> <InChI Key_QSARr>
JWBOIMRXGHLCPP-UHFFFAOYSA-N

> <LogKmHL>
1.65

$$$$
100005
  -INDIGO-08031722222D

 31 31  0  0  0  0  0  0  0  0999 V2000
   -5.5426    1.5999    0.0000 S   0  0  0  0  0  0  0  0  0  0  0  0
   -5.5426   -0.0001    0.0000 P   0  0  0  0  0  0  0  0  0  0  0  0
   -4.1569    0.8000    0.0000 O   0  0  0  0  0  0  0  0  0  0  0  0
   -2.7713    0.0001    0.0000 C   0  0  0  0  0  0  0  0  0  0  0  0
   -1.3856    0.8000    0.0000 C   0  0  0  0  0  0  0  0  0  0  0  0
   -1.3856    2.4000    0.0000 H   0  0  0  0  0  0  0  0  0  0  0  0
    0.0001    0.0001    0.0000 C   0  0  0  0  0  0  0  0  0  0  0  0
    1.3856    0.8000    0.0000 C   0  0  0  0  0  0  0  0  0  0  0  0
    2.7713    1.6001    0.0000 H   0  0  0  0  0  0  0  0  0  0  0  0
    1.3856    2.4000    0.0000 H   0  0  0  0  0  0  0  0  0  0  0  0
    2.7713    0.0001    0.0000 H   0  0  0  0  0  0  0  0  0  0  0  0
    0.0001   -1.5999    0.0000 C   0  0  0  0  0  0  0  0  0  0  0  0
    1.3856   -2.4000    0.0000 S   0  0  0  0  0  0  0  0  0  0  0  0
    1.3856   -4.0000    0.0000 C   0  0  0  0  0  0  0  0  0  0  0  0
    2.7713   -4.7999    0.0000 H   0  0  0  0  0  0  0  0  0  0  0  0
    1.3856   -5.6000    0.0000 H   0  0  0  0  0  0  0  0  0  0  0  0
    2.7713   -3.2001    0.0000 H   0  0  0  0  0  0  0  0  0  0  0  0
   -1.3856   -2.4000    0.0000 C   0  0  0  0  0  0  0  0  0  0  0  0
   -1.3856   -4.0000    0.0000 H   0  0  0  0  0  0  0  0  0  0  0  0
   -2.7713   -1.6001    0.0000 C   0  0  0  0  0  0  0  0  0  0  0  0
   -4.1569   -2.4000    0.0000 H   0  0  0  0  0  0  0  0  0  0  0  0
   -6.9283    0.8000    0.0000 O   0  0  0  0  0  0  0  0  0  0  0  0
   -8.3138   -0.0001    0.0000 C   0  0  0  0  0  0  0  0  0  0  0  0
   -9.6995    0.8000    0.0000 H   0  0  0  0  0  0  0  0  0  0  0  0
   -9.6995   -0.8000    0.0000 H   0  0  0  0  0  0  0  0  0  0  0  0
   -8.3138    1.5999    0.0000 H   0  0  0  0  0  0  0  0  0  0  0  0
   -6.9283   -0.8000    0.0000 O   0  0  0  0  0  0  0  0  0  0  0  0
   -6.9283   -2.4000    0.0000 C   0  0  0  0  0  0  0  0  0  0  0  0
   -6.9283   -4.0000    0.0000 H   0  0  0  0  0  0  0  0  0  0  0  0
   -8.3138   -3.2001    0.0000 H   0  0  0  0  0  0  0  0  0  0  0  0
   -5.5426   -3.2001    0.0000 H   0  0  0  0  0  0  0  0  0  0  0  0
  1  2  2  0  0  0  0
  2  3  1  0  0  0  0
  3  4  1  0  0  0  0
  4  5  1  0  0  0  0
  5  6  1  0  0  0  0
  5  7  2  0  0  0  0
  7  8  1  0  0  0  0
  8  9  1  0  0  0  0
  8 10  1  0  0  0  0
  8 11  1  0  0  0  0
  7 12  1  0  0  0  0
 12 13  1  0  0  0  0
 13 14  1  0  0  0  0
 14 15  1  0  0  0  0
 14 16  1  0  0  0  0
 14 17  1  0  0  0  0
 12 18  2  0  0  0  0
 18 19  1  0  0  0  0
 18 20  1  0  0  0  0
 20  4  2  0  0  0  0
 20 21  1  0  0  0  0
  2 22  1  0  0  0  0
 22 23  1  0  0  0  0
 23 24  1  0  0  0  0
 23 25  1  0  0  0  0
 23 26  1  0  0  0  0
  2 27  1  0  0  0  0
 27 28  1  0  0  0  0
 28 29  1  0  0  0  0
 28 30  1  0  0  0  0
 28 31  1  0  0  0  0
M  END
> <ChemID>
100005

> <source_casrn>
55-38-9

> <CAS>
55-38-9

> <SMILES>
Cc1cc(ccc1SC)OP(=S)(OC)OC

> <NAME>
Fenthion

> <preferred_name>
Fenthion

> <iupac>
O,O-dimethyl O-[3-methyl-4-(methylsulfanyl)phenyl] phosphorothioate

> <MPID>
101642

> <dsstox_substance_id>
DTXSID8020620

> <Canonical_QSARr>
Cc1cc(ccc1SC)OP(=S)(OC)OC

> <InChI_Code_QSARr>
InChI=1S/C10H15O3PS2/c1-8-7-9(5-6-10(8)16-4)13-14(15,11-2)12-3/h5-7H,1-4H3

> <InChI Key_QSARr>
PNVJTZOFSHSLTO-UHFFFAOYSA-N

> <LogKmHL>
-0.36

$$$$
100006
  -INDIGO-08031722222D

  5  4  0  0  0  0  0  0  0  0999 V2000
   -0.8000   -1.3856    0.0000 Cl  0  0  0  0  0  0  0  0  0  0  0  0
    0.0000    0.0000    0.0000 C   0  0  0  0  0  0  0  0  0  0  0  0
    0.8000    1.3856    0.0000 Cl  0  0  0  0  0  0  0  0  0  0  0  0
   -1.3856    0.8000    0.0000 Cl  0  0  0  0  0  0  0  0  0  0  0  0
    1.3856   -0.8000    0.0000 Cl  0  0  0  0  0  0  0  0  0  0  0  0
  1  2  1  0  0  0  0
  2  3  1  0  0  0  0
  2  4  1  0  0  0  0
  2  5  1  0  0  0  0
M  END
> <ChemID>
100006

> <source_casrn>
56-23-5

> <CAS>
56-23-5

> <SMILES>
ClC(Cl)(Cl)Cl

> <NAME>
Methane, tetrachloro-

> <preferred_name>
Carbon tetrachloride

> <iupac>
tetrachloromethane

> <MPID>
101643

> <dsstox_substance_id>
DTXSID8020250

> <Canonical_QSARr>
ClC(Cl)(Cl)Cl

> <InChI_Code_QSARr>
InChI=1S/CCl4/c2-1(3,4)5

> <InChI Key_QSARr>
VZGDMQKNWNREIO-UHFFFAOYSA-N

> <LogKmHL>
-1.19

$$$$
100007
  -INDIGO-08031722222D

 32 32  0  0  0  0  0  0  0  0999 V2000
    0.0000    1.6000    0.0000 S   0  0  0  0  0  0  0  0  0  0  0  0
    0.0000    0.0000    0.0000 P   0  0  0  0  0  0  0  0  0  0  0  0
    1.3857    0.8000    0.0000 O   0  0  0  0  0  0  0  0  0  0  0  0
    2.7713    0.0000    0.0000 C   0  0  0  0  0  0  0  0  0  0  0  0
    2.7713   -1.6000    0.0000 C   0  0  0  0  0  0  0  0  0  0  0  0
    1.3857   -2.4000    0.0000 H   0  0  0  0  0  0  0  0  0  0  0  0
    4.1570   -2.4000    0.0000 C   0  0  0  0  0  0  0  0  0  0  0  0
    4.1570   -4.0000    0.0000 H   0  0  0  0  0  0  0  0  0  0  0  0
    5.5426   -1.6000    0.0000 C   0  0  0  0  0  0  0  0  0  0  0  0
    6.9283   -2.4000    0.0000 N   0  0  0  0  0  0  0  0  0  0  0  0
    8.3138   -1.6000    0.0000 O   0  0  0  0  0  0  0  0  0  0  0  0
    6.9283   -4.0000    0.0000 O   0  0  0  0  0  0  0  0  0  0  0  0
    5.5426    0.0000    0.0000 C   0  0  0  0  0  0  0  0  0  0  0  0
    6.9283    0.8000    0.0000 H   0  0  0  0  0  0  0  0  0  0  0  0
    4.1570    0.8000    0.0000 C   0  0  0  0  0  0  0  0  0  0  0  0
    4.1570    2.4000    0.0000 H   0  0  0  0  0  0  0  0  0  0  0  0
   -1.3855    0.8000    0.0000 O   0  0  0  0  0  0  0  0  0  0  0  0
   -2.7713    0.0000    0.0000 C   0  0  0  0  0  0  0  0  0  0  0  0
   -2.1590   -1.4782    0.0000 H   0  0  0  0  0  0  0  0  0  0  0  0
   -3.3836   -1.4782    0.0000 H   0  0  0  0  0  0  0  0  0  0  0  0
   -4.1568    0.8000    0.0000 C   0  0  0  0  0  0  0  0  0  0  0  0
   -5.5426    1.6000    0.0000 H   0  0  0  0  0  0  0  0  0  0  0  0
   -5.5426    0.0000    0.0000 H   0  0  0  0  0  0  0  0  0  0  0  0
   -4.1568    2.4000    0.0000 H   0  0  0  0  0  0  0  0  0  0  0  0
   -1.3855   -0.8000    0.0000 O   0  0  0  0  0  0  0  0  0  0  0  0
   -1.3855   -2.4000    0.0000 C   0  0  0  0  0  0  0  0  0  0  0  0
    0.2007   -2.6089    0.0000 H   0  0  0  0  0  0  0  0  0  0  0  0
   -0.4117   -3.6694    0.0000 H   0  0  0  0  0  0  0  0  0  0  0  0
   -2.7713   -3.2000    0.0000 C   0  0  0  0  0  0  0  0  0  0  0  0
   -4.1568   -4.0000    0.0000 H   0  0  0  0  0  0  0  0  0  0  0  0
   -2.7713   -4.8000    0.0000 H   0  0  0  0  0  0  0  0  0  0  0  0
   -4.1568   -2.4000    0.0000 H   0  0  0  0  0  0  0  0  0  0  0  0
  1  2  2  0  0  0  0
  2  3  1  0  0  0  0
  3  4  1  0  0  0  0
  4  5  1  0  0  0  0
  5  6  1  0  0  0  0
  5  7  2  0  0  0  0
  7  8  1  0  0  0  0
  7  9  1  0  0  0  0
  9 10  1  0  0  0  0
 10 11  2  0  0  0  0
 10 12  1  0  0  0  0
  9 13  2  0  0  0  0
 13 14  1  0  0  0  0
 13 15  1  0  0  0  0
 15  4  2  0  0  0  0
 15 16  1  0  0  0  0
  2 17  1  0  0  0  0
 17 18  1  0  0  0  0
 18 19  1  0  0  0  0
 18 20  1  0  0  0  0
 18 21  1  0  0  0  0
 21 22  1  0  0  0  0
 21 23  1  0  0  0  0
 21 24  1  0  0  0  0
  2 25  1  0  0  0  0
 25 26  1  0  0  0  0
 26 27  1  0  0  0  0
 26 28  1  0  0  0  0
 26 29  1  0  0  0  0
 29 30  1  0  0  0  0
 29 31  1  0  0  0  0
 29 32  1  0  0  0  0
M  CHG  2  10   1  12  -1
M  END
> <ChemID>
100007

> <source_casrn>
56-38-2

> <CAS>
56-38-2

> <SMILES>
CCOP(=S)(Oc1ccc(cc1)[N+]([O-])=O)OCC

> <NAME>
Parathion

> <preferred_name>
Parathion

> <iupac>
O,O-diethyl O-(4-nitrophenyl) phosphorothioate

> <MPID>
101644

> <dsstox_substance_id>
DTXSID7021100

> <Canonical_QSARr>
CCOP(=S)(Oc1ccc(cc1)[N+]([O-])=O)OCC

> <InChI_Code_QSARr>
InChI=1S/C10H14NO5PS/c1-3-14-17(18,15-4-2)16-10-7-5-9(6-8-10)11(12)13/h5-8H,3-4H2,1-2H3

> <InChI Key_QSARr>
LCCNCVORNKJIRZ-UHFFFAOYSA-N

> <LogKmHL>
-0.41

$$$$
100009
  -INDIGO-08031722222D

 24 26  0  0  0  0  0  0  0  0999 V2000
    2.2420   -1.2944    0.0000 C   0  0  0  0  0  0  0  0  0  0  0  0
    3.6277   -0.4944    0.0000 H   0  0  0  0  0  0  0  0  0  0  0  0
    1.0530   -2.3650    0.0000 C   0  0  0  0  0  0  0  0  0  0  0  0
    2.2420   -3.4356    0.0000 H   0  0  0  0  0  0  0  0  0  0  0  0
    0.1125   -3.6595    0.0000 H   0  0  0  0  0  0  0  0  0  0  0  0
   -0.3327   -1.5651    0.0000 C   0  0  0  0  0  0  0  0  0  0  0  0
   -0.6653   -3.1301    0.0000 H   0  0  0  0  0  0  0  0  0  0  0  0
    0.0000    0.0000    0.0000 C   0  0  0  0  0  0  0  0  0  0  0  0
    0.3327    1.5651    0.0000 H   0  0  0  0  0  0  0  0  0  0  0  0
   -1.3856    0.8000    0.0000 C   0  0  0  0  0  0  0  0  0  0  0  0
   -2.9769    0.6327    0.0000 C   0  0  0  0  0  0  0  0  0  0  0  0
   -4.0475    1.8218    0.0000 Cl  0  0  0  0  0  0  0  0  0  0  0  0
   -3.3096   -0.9322    0.0000 C   0  0  0  0  0  0  0  0  0  0  0  0
   -4.7712   -1.5831    0.0000 Cl  0  0  0  0  0  0  0  0  0  0  0  0
   -1.9239   -1.7323    0.0000 C   0  0  0  0  0  0  0  0  0  0  0  0
   -2.2566   -3.2974    0.0000 Cl  0  0  0  0  0  0  0  0  0  0  0  0
   -2.5747   -0.2706    0.0000 C   0  0  0  0  0  0  0  0  0  0  0  0
   -4.1504   -0.5484    0.0000 Cl  0  0  0  0  0  0  0  0  0  0  0  0
   -3.9011    0.6241    0.0000 Cl  0  0  0  0  0  0  0  0  0  0  0  0
   -1.0529    2.3650    0.0000 Cl  0  0  0  0  0  0  0  0  0  0  0  0
    1.5912    0.1672    0.0000 C   0  0  0  0  0  0  0  0  0  0  0  0
    1.2585    1.7323    0.0000 H   0  0  0  0  0  0  0  0  0  0  0  0
    3.1130    0.6617    0.0000 Cl  0  0  0  0  0  0  0  0  0  0  0  0
    3.1824   -2.5889    0.0000 Cl  0  0  0  0  0  0  0  0  0  0  0  0
  1  2  1  0  0  0  0
  1  3  1  0  0  0  0
  3  4  1  0  0  0  0
  3  5  1  0  0  0  0
  3  6  1  0  0  0  0
  6  7  1  0  0  0  0
  6  8  1  0  0  0  0
  8  9  1  0  0  0  0
  8 10  1  0  0  0  0
 10 11  1  0  0  0  0
 11 12  1  0  0  0  0
 11 13  2  0  0  0  0
 13 14  1  0  0  0  0
 13 15  1  0  0  0  0
 15  6  1  0  0  0  0
 15 16  1  0  0  0  0
 15 17  1  0  0  0  0
 17 10  1  0  0  0  0
 17 18  1  0  0  0  0
 17 19  1  0  0  0  0
 10 20  1  0  0  0  0
  8 21  1  0  0  0  0
 21  1  1  0  0  0  0
 21 22  1  0  0  0  0
 21 23  1  0  0  0  0
  1 24  1  0  0  0  0
M  END
> <ChemID>
100009

> <source_casrn>
57-74-9|5103-71-9|5103-74-2|12789-03-6

> <CAS>
57-74-9

> <SMILES>
ClC1CC2C(C1Cl)C3(Cl)C(=C(Cl)C2(Cl)C3(Cl)Cl)Cl

> <NAME>
1,2,4,5,6,7,8,8-Octachloro-2,3,3a,4,7,7a-hexahyd, Alpha (cis) Chlordane, Chlordane (trans), Chlordane (technical)

> <preferred_name>
Chlordane

> <iupac>
C10H6Cl8

> <MPID>
101646|101999|102000|102016

> <dsstox_substance_id>
DTXSID7020267

> <Canonical_QSARr>
ClC1(Cl)C2(Cl)C3CC(Cl)C(Cl)C3C1(Cl)C(Cl)=C2Cl

> <InChI_Code_QSARr>
InChI=1S/C10H6Cl8/c11-3-1-2-4(5(3)12)9(16)7(14)6(13)8(2,15)10(9,17)18/h2-5H,1H2

> <InChI Key_QSARr>
BIWJNBZANLAXMG-UHFFFAOYSA-N

> <LogKmHL>
2.2575

$$$$
100010
  -INDIGO-08031722222D

 18 18  0  0  0  0  0  0  0  0999 V2000
    0.0000    0.0000    0.0000 C   0  0  0  0  0  0  0  0  0  0  0  0
    1.5757   -0.2778    0.0000 H   0  0  0  0  0  0  0  0  0  0  0  0
   -1.3856    0.8000    0.0000 C   0  0  0  0  0  0  0  0  0  0  0  0
   -0.3571    2.0257    0.0000 H   0  0  0  0  0  0  0  0  0  0  0  0
   -2.4141    2.0257    0.0000 Cl  0  0  0  0  0  0  0  0  0  0  0  0
   -2.7713    0.0000    0.0000 C   0  0  0  0  0  0  0  0  0  0  0  0
   -3.3185    1.5035    0.0000 H   0  0  0  0  0  0  0  0  0  0  0  0
   -4.3470   -0.2778    0.0000 Cl  0  0  0  0  0  0  0  0  0  0  0  0
   -2.7713   -1.6000    0.0000 C   0  0  0  0  0  0  0  0  0  0  0  0
   -4.3470   -1.3222    0.0000 H   0  0  0  0  0  0  0  0  0  0  0  0
   -3.3185   -3.1035    0.0000 Cl  0  0  0  0  0  0  0  0  0  0  0  0
   -1.3856   -2.4000    0.0000 C   0  0  0  0  0  0  0  0  0  0  0  0
   -2.4141   -3.6257    0.0000 H   0  0  0  0  0  0  0  0  0  0  0  0
   -0.3571   -3.6257    0.0000 Cl  0  0  0  0  0  0  0  0  0  0  0  0
    0.0000   -1.6000    0.0000 C   0  0  0  0  0  0  0  0  0  0  0  0
    0.5472   -3.1035    0.0000 H   0  0  0  0  0  0  0  0  0  0  0  0
    1.5757   -1.3222    0.0000 Cl  0  0  0  0  0  0  0  0  0  0  0  0
    0.5472    1.5035    0.0000 Cl  0  0  0  0  0  0  0  0  0  0  0  0
  1  2  1  0  0  0  0
  1  3  1  0  0  0  0
  3  4  1  0  0  0  0
  3  5  1  0  0  0  0
  3  6  1  0  0  0  0
  6  7  1  0  0  0  0
  6  8  1  0  0  0  0
  6  9  1  0  0  0  0
  9 10  1  0  0  0  0
  9 11  1  0  0  0  0
  9 12  1  0  0  0  0
 12 13  1  0  0  0  0
 12 14  1  0  0  0  0
 12 15  1  0  0  0  0
 15  1  1  0  0  0  0
 15 16  1  0  0  0  0
 15 17  1  0  0  0  0
  1 18  1  0  0  0  0
M  END
> <ChemID>
100010

> <source_casrn>
58-89-9|319-84-6|319-85-7|319-86-8

> <CAS>
58-89-9|319-84-6|319-85-7|319-86-8

> <SMILES>
C(C(C(C(C1Cl)Cl)Cl)Cl)(C1Cl)Cl

> <NAME>
Cyclohexane, 1,2,3,4,5,6-hexachloro-, (1a,2a,3B,, (1 alpha,2 alpha,3 beta,4 alpha,5 beta,6 beta)1,, (1alpha,2beta,3alpha,4beta,5alpha,6beta)-1,2,3,4, (1alpha,2alpha,3alpha,4beta,5alpha,6beta)-1,2,3,

> <preferred_name>
Lindane

> <iupac>


> <MPID>
101647|101859|101860|101861

> <dsstox_substance_id>
DTXSID2020686|DTXSID2020684|DTXSID7020685|DTXSID5024134

> <Canonical_QSARr>
ClC1C(Cl)C(Cl)C(Cl)C(Cl)C1Cl

> <InChI_Code_QSARr>
InChI=1S/C6H6Cl6/c7-1-2(8)4(10)6(12)5(11)3(1)9/h1-6H

> <InChI Key_QSARr>
JLYXXMFPNIAWKQ-UHFFFAOYSA-N

> <LogKmHL>
1.4924999999999997

$$$$
100011
  -INDIGO-08031722222D

 16 16  0  0  0  0  0  0  0  0999 V2000
    3.2000    2.7713    0.0000 O   0  0  0  0  0  0  0  0  0  0  0  0
    4.8000    2.7713    0.0000 H   0  0  0  0  0  0  0  0  0  0  0  0
    2.4001    1.3856    0.0000 C   0  0  0  0  0  0  0  0  0  0  0  0
    0.7999    1.3856    0.0000 C   0  0  0  0  0  0  0  0  0  0  0  0
    0.0000    2.7713    0.0000 H   0  0  0  0  0  0  0  0  0  0  0  0
    0.0000    0.0000    0.0000 C   0  0  0  0  0  0  0  0  0  0  0  0
   -1.6000    0.0000    0.0000 C   0  0  0  0  0  0  0  0  0  0  0  0
   -3.2000    0.0000    0.0000 H   0  0  0  0  0  0  0  0  0  0  0  0
   -2.4001   -1.3856    0.0000 H   0  0  0  0  0  0  0  0  0  0  0  0
   -2.4001    1.3856    0.0000 H   0  0  0  0  0  0  0  0  0  0  0  0
    0.8001   -1.3856    0.0000 C   0  0  0  0  0  0  0  0  0  0  0  0
    0.0000   -2.7713    0.0000 Cl  0  0  0  0  0  0  0  0  0  0  0  0
    2.4001   -1.3856    0.0000 C   0  0  0  0  0  0  0  0  0  0  0  0
    3.2000   -2.7713    0.0000 H   0  0  0  0  0  0  0  0  0  0  0  0
    3.2000   -0.0000    0.0000 C   0  0  0  0  0  0  0  0  0  0  0  0
    4.8000    0.0000    0.0000 H   0  0  0  0  0  0  0  0  0  0  0  0
  1  2  1  0  0  0  0
  1  3  1  0  0  0  0
  3  4  1  0  0  0  0
  4  5  1  0  0  0  0
  4  6  2  0  0  0  0
  6  7  1  0  0  0  0
  7  8  1  0  0  0  0
  7  9  1  0  0  0  0
  7 10  1  0  0  0  0
  6 11  1  0  0  0  0
 11 12  1  0  0  0  0
 11 13  2  0  0  0  0
 13 14  1  0  0  0  0
 13 15  1  0  0  0  0
 15  3  2  0  0  0  0
 15 16  1  0  0  0  0
M  END
> <ChemID>
100011

> <source_casrn>
59-50-7

> <CAS>
59-50-7

> <SMILES>
Cc1cc(O)ccc1Cl

> <NAME>
Phenol, 4-chloro-3-methyl-

> <preferred_name>
4-Chloro-3-methylphenol

> <iupac>
4-chloro-3-methylphenol

> <MPID>
101648

> <dsstox_substance_id>
DTXSID4021717

> <Canonical_QSARr>
Cc1cc(O)ccc1Cl

> <InChI_Code_QSARr>
InChI=1S/C7H7ClO/c1-5-4-6(9)2-3-7(5)8/h2-4,9H,1H3

> <InChI Key_QSARr>
CFKMVGJGLGKFKI-UHFFFAOYSA-N

> <LogKmHL>
-1.28

$$$$
100013
  -INDIGO-08031722222D

 24 23  0  0  0  0  0  0  0  0999 V2000
    0.0000   -1.5999    0.0000 S   0  0  0  0  0  0  0  0  0  0  0  0
    0.0000    0.0001    0.0000 P   0  0  0  0  0  0  0  0  0  0  0  0
    1.3857    0.8000    0.0000 S   0  0  0  0  0  0  0  0  0  0  0  0
    2.7714    0.0001    0.0000 C   0  0  0  0  0  0  0  0  0  0  0  0
    3.3835   -1.4782    0.0000 H   0  0  0  0  0  0  0  0  0  0  0  0
    2.1590   -1.4782    0.0000 H   0  0  0  0  0  0  0  0  0  0  0  0
    4.1569    0.8000    0.0000 C   0  0  0  0  0  0  0  0  0  0  0  0
    4.1569    2.4000    0.0000 O   0  0  0  0  0  0  0  0  0  0  0  0
    5.5425    0.0001    0.0000 N   0  0  0  0  0  0  0  0  0  0  0  0
    5.5425   -1.5999    0.0000 H   0  0  0  0  0  0  0  0  0  0  0  0
    6.9282    0.8000    0.0000 C   0  0  0  0  0  0  0  0  0  0  0  0
    8.3138    1.6001    0.0000 H   0  0  0  0  0  0  0  0  0  0  0  0
    8.3138    0.0001    0.0000 H   0  0  0  0  0  0  0  0  0  0  0  0
    6.9282    2.4000    0.0000 H   0  0  0  0  0  0  0  0  0  0  0  0
   -1.3856   -0.8000    0.0000 O   0  0  0  0  0  0  0  0  0  0  0  0
   -1.3856   -2.4000    0.0000 C   0  0  0  0  0  0  0  0  0  0  0  0
   -1.3856   -4.0000    0.0000 H   0  0  0  0  0  0  0  0  0  0  0  0
   -2.7713   -3.2001    0.0000 H   0  0  0  0  0  0  0  0  0  0  0  0
    0.0000   -3.2001    0.0000 H   0  0  0  0  0  0  0  0  0  0  0  0
   -1.3856    0.8000    0.0000 O   0  0  0  0  0  0  0  0  0  0  0  0
   -1.3856    2.4000    0.0000 C   0  0  0  0  0  0  0  0  0  0  0  0
   -1.3856    4.0000    0.0000 H   0  0  0  0  0  0  0  0  0  0  0  0
   -2.7713    3.2001    0.0000 H   0  0  0  0  0  0  0  0  0  0  0  0
    0.0000    3.2001    0.0000 H   0  0  0  0  0  0  0  0  0  0  0  0
  1  2  2  0  0  0  0
  2  3  1  0  0  0  0
  3  4  1  0  0  0  0
  4  5  1  0  0  0  0
  4  6  1  0  0  0  0
  4  7  1  0  0  0  0
  7  8  2  0  0  0  0
  7  9  1  0  0  0  0
  9 10  1  0  0  0  0
  9 11  1  0  0  0  0
 11 12  1  0  0  0  0
 11 13  1  0  0  0  0
 11 14  1  0  0  0  0
  2 15  1  0  0  0  0
 15 16  1  0  0  0  0
 16 17  1  0  0  0  0
 16 18  1  0  0  0  0
 16 19  1  0  0  0  0
  2 20  1  0  0  0  0
 20 21  1  0  0  0  0
 21 22  1  0  0  0  0
 21 23  1  0  0  0  0
 21 24  1  0  0  0  0
M  END
> <ChemID>
100013

> <source_casrn>
60-51-5

> <CAS>
60-51-5

> <SMILES>
CNC(=O)CSP(=S)(OC)OC

> <NAME>
Dimethoate

> <preferred_name>
Dimethoate

> <iupac>
O,O-dimethyl S-[2-(methylamino)-2-oxoethyl] phosphorodithioate

> <MPID>
101650

> <dsstox_substance_id>
DTXSID7020479

> <Canonical_QSARr>
CNC(=O)CSP(=S)(OC)OC

> <InChI_Code_QSARr>
InChI=1S/C5H12NO3PS2/c1-6-5(7)4-12-10(11,8-2)9-3/h4H2,1-3H3,(H,6,7)

> <InChI Key_QSARr>
MCWXGJITAZMZEV-UHFFFAOYSA-N

> <LogKmHL>
-1.01

$$$$
100014
  -INDIGO-08031722222D

 27 31  0  0  0  0  0  0  0  0999 V2000
    3.1939    1.2731    0.0000 C   0  0  0  0  0  0  0  0  0  0  0  0
    3.9940    2.6588    0.0000 H   0  0  0  0  0  0  0  0  0  0  0  0
    4.4884    0.3326    0.0000 O   0  0  0  0  0  0  0  0  0  0  0  0
    3.0267   -0.3182    0.0000 C   0  0  0  0  0  0  0  0  0  0  0  0
    3.5211   -1.8398    0.0000 H   0  0  0  0  0  0  0  0  0  0  0  0
    1.4617   -0.6508    0.0000 C   0  0  0  0  0  0  0  0  0  0  0  0
    1.2944   -2.2420    0.0000 H   0  0  0  0  0  0  0  0  0  0  0  0
    0.0001    0.0000    0.0000 C   0  0  0  0  0  0  0  0  0  0  0  0
   -0.1673   -1.5912    0.0000 H   0  0  0  0  0  0  0  0  0  0  0  0
    0.1672    1.5912    0.0000 C   0  0  0  0  0  0  0  0  0  0  0  0
    0.3344    3.1825    0.0000 H   0  0  0  0  0  0  0  0  0  0  0  0
    1.7323    1.9239    0.0000 C   0  0  0  0  0  0  0  0  0  0  0  0
    1.8996    3.5151    0.0000 H   0  0  0  0  0  0  0  0  0  0  0  0
    2.5322    0.5382    0.0000 C   0  0  0  0  0  0  0  0  0  0  0  0
    3.7931   -0.4468    0.0000 H   0  0  0  0  0  0  0  0  0  0  0  0
    3.9704    1.2396    0.0000 H   0  0  0  0  0  0  0  0  0  0  0  0
   -1.2944    2.2420    0.0000 C   0  0  0  0  0  0  0  0  0  0  0  0
   -2.8594    1.9094    0.0000 C   0  0  0  0  0  0  0  0  0  0  0  0
   -3.0267    0.3182    0.0000 C   0  0  0  0  0  0  0  0  0  0  0  0
   -4.4123   -0.4819    0.0000 Cl  0  0  0  0  0  0  0  0  0  0  0  0
   -1.5651   -0.3326    0.0000 C   0  0  0  0  0  0  0  0  0  0  0  0
   -2.3651    1.0530    0.0000 C   0  0  0  0  0  0  0  0  0  0  0  0
   -3.7778    1.8042    0.0000 Cl  0  0  0  0  0  0  0  0  0  0  0  0
   -3.8031    0.3516    0.0000 Cl  0  0  0  0  0  0  0  0  0  0  0  0
   -1.7323   -1.9239    0.0000 Cl  0  0  0  0  0  0  0  0  0  0  0  0
   -4.0485    2.9799    0.0000 Cl  0  0  0  0  0  0  0  0  0  0  0  0
   -1.1272    3.8332    0.0000 Cl  0  0  0  0  0  0  0  0  0  0  0  0
  1  2  1  0  0  0  0
  1  3  1  0  0  0  0
  3  4  1  0  0  0  0
  4  1  1  0  0  0  0
  4  5  1  0  0  0  0
  4  6  1  0  0  0  0
  6  7  1  0  0  0  0
  6  8  1  0  0  0  0
  8  9  1  0  0  0  0
  8 10  1  0  0  0  0
 10 11  1  0  0  0  0
 10 12  1  0  0  0  0
 12  1  1  0  0  0  0
 12 13  1  0  0  0  0
 12 14  1  0  0  0  0
 14  6  1  0  0  0  0
 14 15  1  0  0  0  0
 14 16  1  0  0  0  0
 10 17  1  0  0  0  0
 17 18  1  0  0  0  0
 18 19  2  0  0  0  0
 19 20  1  0  0  0  0
 19 21  1  0  0  0  0
 21  8  1  0  0  0  0
 21 22  1  0  0  0  0
 22 17  1  0  0  0  0
 22 23  1  0  0  0  0
 22 24  1  0  0  0  0
 21 25  1  0  0  0  0
 18 26  1  0  0  0  0
 17 27  1  0  0  0  0
M  END
> <ChemID>
100014

> <source_casrn>
60-57-1|72-20-8

> <CAS>
60-57-1|72-20-8

> <SMILES>
ClC1(Cl)[C@@]2(Cl)[C@@H]3[C@@H]4C[C@@H]([C@H]5O[C@H]54)[C@@H]3[C@]1(Cl)C(Cl)=C2Cl |o1:3,5,6,8,9,11,12,13|

> <NAME>
Dieldrin, Endrin

> <preferred_name>
Dieldrin

> <iupac>


> <MPID>
101651|101658

> <dsstox_substance_id>
DTXSID9020453|DTXSID6020561

> <Canonical_QSARr>
ClC1(Cl)C2(Cl)C3C4CC(C5OC54)C3C1(Cl)C(Cl)=C2Cl

> <InChI_Code_QSARr>
InChI=1S/C12H8Cl6O/c13-8-9(14)11(16)5-3-1-2(6-7(3)19-6)4(5)10(8,15)12(11,17)18/h2-7H,1H2

> <InChI Key_QSARr>
DFBKLUNHFCTMDC-UHFFFAOYSA-N

> <LogKmHL>
1.645

$$$$
100015
  -INDIGO-08031722222D

 26 26  0  0  0  0  0  0  0  0999 V2000
    4.1570    0.8000    0.0000 C   0  0  0  0  0  0  0  0  0  0  0  0
    5.5426    1.6000    0.0000 H   0  0  0  0  0  0  0  0  0  0  0  0
    5.5426   -0.0000    0.0000 H   0  0  0  0  0  0  0  0  0  0  0  0
    4.1570    2.4000    0.0000 H   0  0  0  0  0  0  0  0  0  0  0  0
    2.7713   -0.0000    0.0000 C   0  0  0  0  0  0  0  0  0  0  0  0
    2.7713   -1.6000    0.0000 O   0  0  0  0  0  0  0  0  0  0  0  0
    1.3857    0.8000    0.0000 N   0  0  0  0  0  0  0  0  0  0  0  0
    1.3857    2.4000    0.0000 H   0  0  0  0  0  0  0  0  0  0  0  0
    0.0000   -0.0000    0.0000 C   0  0  0  0  0  0  0  0  0  0  0  0
    0.0000   -1.6000    0.0000 C   0  0  0  0  0  0  0  0  0  0  0  0
    1.3857   -2.4000    0.0000 H   0  0  0  0  0  0  0  0  0  0  0  0
   -1.3855   -2.4000    0.0000 C   0  0  0  0  0  0  0  0  0  0  0  0
   -1.3855   -4.0000    0.0000 H   0  0  0  0  0  0  0  0  0  0  0  0
   -2.7713   -1.6000    0.0000 C   0  0  0  0  0  0  0  0  0  0  0  0
   -4.1568   -2.4000    0.0000 O   0  0  0  0  0  0  0  0  0  0  0  0
   -5.5426   -1.6000    0.0000 C   0  0  0  0  0  0  0  0  0  0  0  0
   -4.9302   -0.1218    0.0000 H   0  0  0  0  0  0  0  0  0  0  0  0
   -6.1549   -0.1218    0.0000 H   0  0  0  0  0  0  0  0  0  0  0  0
   -6.9281   -2.4000    0.0000 C   0  0  0  0  0  0  0  0  0  0  0  0
   -8.3138   -3.2000    0.0000 H   0  0  0  0  0  0  0  0  0  0  0  0
   -8.3138   -1.6000    0.0000 H   0  0  0  0  0  0  0  0  0  0  0  0
   -6.9281   -4.0000    0.0000 H   0  0  0  0  0  0  0  0  0  0  0  0
   -2.7713   -0.0000    0.0000 C   0  0  0  0  0  0  0  0  0  0  0  0
   -4.1568    0.8000    0.0000 H   0  0  0  0  0  0  0  0  0  0  0  0
   -1.3855    0.8000    0.0000 C   0  0  0  0  0  0  0  0  0  0  0  0
   -1.3855    2.4000    0.0000 H   0  0  0  0  0  0  0  0  0  0  0  0
  1  2  1  0  0  0  0
  1  3  1  0  0  0  0
  1  4  1  0  0  0  0
  1  5  1  0  0  0  0
  5  6  2  0  0  0  0
  5  7  1  0  0  0  0
  7  8  1  0  0  0  0
  7  9  1  0  0  0  0
  9 10  1  0  0  0  0
 10 11  1  0  0  0  0
 10 12  2  0  0  0  0
 12 13  1  0  0  0  0
 12 14  1  0  0  0  0
 14 15  1  0  0  0  0
 15 16  1  0  0  0  0
 16 17  1  0  0  0  0
 16 18  1  0  0  0  0
 16 19  1  0  0  0  0
 19 20  1  0  0  0  0
 19 21  1  0  0  0  0
 19 22  1  0  0  0  0
 14 23  2  0  0  0  0
 23 24  1  0  0  0  0
 23 25  1  0  0  0  0
 25  9  2  0  0  0  0
 25 26  1  0  0  0  0
M  END
> <ChemID>
100015

> <source_casrn>
62-44-2

> <CAS>
62-44-2

> <SMILES>
CC(=O)Nc1ccc(cc1)OCC

> <NAME>
Acetamide, N-(4-ethoxyphenyl)-

> <preferred_name>
Phenacetin

> <iupac>
N-(4-ethoxyphenyl)acetamide

> <MPID>
101652

> <dsstox_substance_id>
DTXSID1021116

> <Canonical_QSARr>
CC(=O)Nc1ccc(cc1)OCC

> <InChI_Code_QSARr>
InChI=1S/C10H13NO2/c1-3-13-10-6-4-9(5-7-10)11-8(2)12/h4-7H,3H2,1-2H3,(H,11,12)

> <InChI Key_QSARr>
CPJSUEIXXCENMM-UHFFFAOYSA-N

> <LogKmHL>
-0.55

$$$$
100017
  -INDIGO-08031722222D

 26 27  0  0  0  0  0  0  0  0999 V2000
   -4.8000    0.0001    0.0000 O   0  0  0  0  0  0  0  0  0  0  0  0
   -3.9999    1.3856    0.0000 C   0  0  0  0  0  0  0  0  0  0  0  0
   -2.3999    1.3856    0.0000 O   0  0  0  0  0  0  0  0  0  0  0  0
   -1.5999    0.0001    0.0000 C   0  0  0  0  0  0  0  0  0  0  0  0
   -0.0001    0.0001    0.0000 C   0  0  0  0  0  0  0  0  0  0  0  0
    0.7999   -1.3856    0.0000 C   0  0  0  0  0  0  0  0  0  0  0  0
    2.4000   -1.3856    0.0000 C   0  0  0  0  0  0  0  0  0  0  0  0
    3.2000   -2.7712    0.0000 H   0  0  0  0  0  0  0  0  0  0  0  0
    3.2000    0.0001    0.0000 C   0  0  0  0  0  0  0  0  0  0  0  0
    4.8000    0.0001    0.0000 H   0  0  0  0  0  0  0  0  0  0  0  0
    2.4000    1.3856    0.0000 C   0  0  0  0  0  0  0  0  0  0  0  0
    3.2000    2.7712    0.0000 H   0  0  0  0  0  0  0  0  0  0  0  0
    0.7999    1.3856    0.0000 C   0  0  0  0  0  0  0  0  0  0  0  0
   -0.0001    2.7713    0.0000 H   0  0  0  0  0  0  0  0  0  0  0  0
   -0.0001   -2.7712    0.0000 C   0  0  0  0  0  0  0  0  0  0  0  0
    0.7999   -4.1569    0.0000 H   0  0  0  0  0  0  0  0  0  0  0  0
   -1.5999   -2.7712    0.0000 C   0  0  0  0  0  0  0  0  0  0  0  0
   -2.3999   -4.1569    0.0000 H   0  0  0  0  0  0  0  0  0  0  0  0
   -2.3999   -1.3856    0.0000 C   0  0  0  0  0  0  0  0  0  0  0  0
   -3.9999   -1.3856    0.0000 H   0  0  0  0  0  0  0  0  0  0  0  0
   -4.8000    2.7713    0.0000 N   0  0  0  0  0  0  0  0  0  0  0  0
   -3.9999    4.1569    0.0000 H   0  0  0  0  0  0  0  0  0  0  0  0
   -6.4000    2.7713    0.0000 C   0  0  0  0  0  0  0  0  0  0  0  0
   -8.0000    2.7713    0.0000 H   0  0  0  0  0  0  0  0  0  0  0  0
   -7.2000    4.1569    0.0000 H   0  0  0  0  0  0  0  0  0  0  0  0
   -7.2000    1.3856    0.0000 H   0  0  0  0  0  0  0  0  0  0  0  0
  1  2  2  0  0  0  0
  2  3  1  0  0  0  0
  3  4  1  0  0  0  0
  4  5  1  0  0  0  0
  5  6  1  0  0  0  0
  6  7  2  0  0  0  0
  7  8  1  0  0  0  0
  7  9  1  0  0  0  0
  9 10  1  0  0  0  0
  9 11  2  0  0  0  0
 11 12  1  0  0  0  0
 11 13  1  0  0  0  0
 13  5  2  0  0  0  0
 13 14  1  0  0  0  0
  6 15  1  0  0  0  0
 15 16  1  0  0  0  0
 15 17  2  0  0  0  0
 17 18  1  0  0  0  0
 17 19  1  0  0  0  0
 19  4  2  0  0  0  0
 19 20  1  0  0  0  0
  2 21  1  0  0  0  0
 21 22  1  0  0  0  0
 21 23  1  0  0  0  0
 23 24  1  0  0  0  0
 23 25  1  0  0  0  0
 23 26  1  0  0  0  0
M  END
> <ChemID>
100017

> <source_casrn>
63-25-2

> <CAS>
63-25-2

> <SMILES>
CNC(=O)Oc1cccc2ccccc21

> <NAME>
1-naphthalenol, methylcarbamate

> <preferred_name>
Carbaryl

> <iupac>
naphthalen-1-yl methylcarbamate

> <MPID>
101654

> <dsstox_substance_id>
DTXSID9020247

> <Canonical_QSARr>
CNC(=O)Oc1cccc2ccccc21

> <InChI_Code_QSARr>
InChI=1S/C12H11NO2/c1-13-12(14)15-11-8-4-6-9-5-2-3-7-10(9)11/h2-8H,1H3,(H,13,14)

> <InChI Key_QSARr>
CVXBEEMKQHEXEN-UHFFFAOYSA-N

> <LogKmHL>
-1.18

$$$$
100018
  -INDIGO-08031722222D

  5  4  0  0  0  0  0  0  0  0999 V2000
   -0.8000   -1.3856    0.0000 Cl  0  0  0  0  0  0  0  0  0  0  0  0
    0.0000    0.0000    0.0000 C   0  0  0  0  0  0  0  0  0  0  0  0
    0.8000    1.3856    0.0000 H   0  0  0  0  0  0  0  0  0  0  0  0
   -1.3856    0.8000    0.0000 Cl  0  0  0  0  0  0  0  0  0  0  0  0
    1.3856   -0.8000    0.0000 Cl  0  0  0  0  0  0  0  0  0  0  0  0
  1  2  1  0  0  0  0
  2  3  1  0  0  0  0
  2  4  1  0  0  0  0
  2  5  1  0  0  0  0
M  END
> <ChemID>
100018

> <source_casrn>
67-66-3

> <CAS>
67-66-3

> <SMILES>
ClC(Cl)Cl

> <NAME>
Methane, trichloro-

> <preferred_name>
Chloroform

> <iupac>
trichloromethane

> <MPID>
101655

> <dsstox_substance_id>
DTXSID1020306

> <Canonical_QSARr>
ClC(Cl)Cl

> <InChI_Code_QSARr>
InChI=1S/CHCl3/c2-1(3)4/h1H

> <InChI Key_QSARr>
HEDRZPFGACZZDS-UHFFFAOYSA-N

> <LogKmHL>
-0.76

$$$$
100019
  -INDIGO-08031722222D

  8  7  0  0  0  0  0  0  0  0999 V2000
   -0.8000    1.3856    0.0000 Cl  0  0  0  0  0  0  0  0  0  0  0  0
    0.0000    0.0000    0.0000 C   0  0  0  0  0  0  0  0  0  0  0  0
    1.6000    0.0000    0.0000 C   0  0  0  0  0  0  0  0  0  0  0  0
    3.2000    0.0000    0.0000 Cl  0  0  0  0  0  0  0  0  0  0  0  0
    2.4000   -1.3856    0.0000 Cl  0  0  0  0  0  0  0  0  0  0  0  0
    2.4000    1.3856    0.0000 Cl  0  0  0  0  0  0  0  0  0  0  0  0
   -1.6000   -0.0000    0.0000 Cl  0  0  0  0  0  0  0  0  0  0  0  0
   -0.8000   -1.3856    0.0000 Cl  0  0  0  0  0  0  0  0  0  0  0  0
  1  2  1  0  0  0  0
  2  3  1  0  0  0  0
  3  4  1  0  0  0  0
  3  5  1  0  0  0  0
  3  6  1  0  0  0  0
  2  7  1  0  0  0  0
  2  8  1  0  0  0  0
M  END
> <ChemID>
100019

> <source_casrn>
67-72-1

> <CAS>
67-72-1

> <SMILES>
ClC(Cl)(Cl)C(Cl)(Cl)Cl

> <NAME>
Ethane, hexachloro-

> <preferred_name>
Hexachloroethane

> <iupac>
hexachloroethane

> <MPID>
101656

> <dsstox_substance_id>
DTXSID7020689

> <Canonical_QSARr>
ClC(Cl)(Cl)C(Cl)(Cl)Cl

> <InChI_Code_QSARr>
InChI=1S/C2Cl6/c3-1(4,5)2(6,7)8

> <InChI Key_QSARr>
VHHHONWQHHHLTI-UHFFFAOYSA-N

> <LogKmHL>
0.76

$$$$
100022
  -INDIGO-08031722222D

 28 29  0  0  0  0  0  0  0  0999 V2000
   -1.3856    0.8000    0.0000 Cl  0  0  0  0  0  0  0  0  0  0  0  0
    0.0001    1.6001    0.0000 C   0  0  0  0  0  0  0  0  0  0  0  0
    0.0001    3.2000    0.0000 H   0  0  0  0  0  0  0  0  0  0  0  0
    0.0001    0.0000    0.0000 C   0  0  0  0  0  0  0  0  0  0  0  0
    0.0001   -1.6000    0.0000 H   0  0  0  0  0  0  0  0  0  0  0  0
   -1.5034   -0.5472    0.0000 C   0  0  0  0  0  0  0  0  0  0  0  0
   -2.7292    0.4813    0.0000 C   0  0  0  0  0  0  0  0  0  0  0  0
   -2.4513    2.0569    0.0000 H   0  0  0  0  0  0  0  0  0  0  0  0
   -4.2327   -0.0660    0.0000 C   0  0  0  0  0  0  0  0  0  0  0  0
   -5.4584    0.9624    0.0000 H   0  0  0  0  0  0  0  0  0  0  0  0
   -4.5106   -1.6416    0.0000 C   0  0  0  0  0  0  0  0  0  0  0  0
   -6.0140   -2.1889    0.0000 Cl  0  0  0  0  0  0  0  0  0  0  0  0
   -3.2848   -2.6701    0.0000 C   0  0  0  0  0  0  0  0  0  0  0  0
   -3.5627   -4.2459    0.0000 H   0  0  0  0  0  0  0  0  0  0  0  0
   -1.7813   -2.1229    0.0000 C   0  0  0  0  0  0  0  0  0  0  0  0
   -0.5557   -3.1514    0.0000 H   0  0  0  0  0  0  0  0  0  0  0  0
    1.5999    0.0000    0.0000 C   0  0  0  0  0  0  0  0  0  0  0  0
    2.4001    1.3857    0.0000 C   0  0  0  0  0  0  0  0  0  0  0  0
    1.5999    2.7713    0.0000 H   0  0  0  0  0  0  0  0  0  0  0  0
    4.0000    1.3857    0.0000 C   0  0  0  0  0  0  0  0  0  0  0  0
    4.7999    2.7713    0.0000 H   0  0  0  0  0  0  0  0  0  0  0  0
    4.7999    0.0000    0.0000 C   0  0  0  0  0  0  0  0  0  0  0  0
    6.4000    0.0000    0.0000 Cl  0  0  0  0  0  0  0  0  0  0  0  0
    4.0000   -1.3857    0.0000 C   0  0  0  0  0  0  0  0  0  0  0  0
    4.7999   -2.7712    0.0000 H   0  0  0  0  0  0  0  0  0  0  0  0
    2.4001   -1.3857    0.0000 C   0  0  0  0  0  0  0  0  0  0  0  0
    1.5999   -2.7712    0.0000 H   0  0  0  0  0  0  0  0  0  0  0  0
   -1.3856    2.4000    0.0000 Cl  0  0  0  0  0  0  0  0  0  0  0  0
  1  2  1  0  0  0  0
  2  3  1  0  0  0  0
  2  4  1  0  0  0  0
  4  5  1  0  0  0  0
  4  6  1  0  0  0  0
  6  7  1  0  0  0  0
  7  8  1  0  0  0  0
  7  9  2  0  0  0  0
  9 10  1  0  0  0  0
  9 11  1  0  0  0  0
 11 12  1  0  0  0  0
 11 13  2  0  0  0  0
 13 14  1  0  0  0  0
 13 15  1  0  0  0  0
 15  6  2  0  0  0  0
 15 16  1  0  0  0  0
  4 17  1  0  0  0  0
 17 18  1  0  0  0  0
 18 19  1  0  0  0  0
 18 20  2  0  0  0  0
 20 21  1  0  0  0  0
 20 22  1  0  0  0  0
 22 23  1  0  0  0  0
 22 24  2  0  0  0  0
 24 25  1  0  0  0  0
 24 26  1  0  0  0  0
 26 17  2  0  0  0  0
 26 27  1  0  0  0  0
  2 28  1  0  0  0  0
M  END
> <ChemID>
100022

> <source_casrn>
72-54-8

> <CAS>
72-54-8

> <SMILES>
ClC(Cl)C(c1ccc(Cl)cc1)c1ccc(Cl)cc1

> <NAME>
p,p'-DDD

> <preferred_name>
p,p'-DDD

> <iupac>
1,1'-(2,2-dichloroethane-1,1-diyl)bis(4-chlorobenzene)

> <MPID>
101659

> <dsstox_substance_id>
DTXSID4020373

> <Canonical_QSARr>
ClC(Cl)C(c1ccc(Cl)cc1)c1ccc(Cl)cc1

> <InChI_Code_QSARr>
InChI=1S/C14H10Cl4/c15-11-5-1-9(2-6-11)13(14(17)18)10-3-7-12(16)8-4-10/h1-8,13-14H

> <InChI Key_QSARr>
AHJKRLASYNVKDZ-UHFFFAOYSA-N

> <LogKmHL>
2.44

$$$$
100023
  -INDIGO-08031722222D

 26 27  0  0  0  0  0  0  0  0999 V2000
   -1.7814    2.1230    0.0000 Cl  0  0  0  0  0  0  0  0  0  0  0  0
   -0.2779    1.5757    0.0000 C   0  0  0  0  0  0  0  0  0  0  0  0
    0.0001   -0.0000    0.0000 C   0  0  0  0  0  0  0  0  0  0  0  0
    1.5757   -0.2779    0.0000 C   0  0  0  0  0  0  0  0  0  0  0  0
    2.1230   -1.7814    0.0000 C   0  0  0  0  0  0  0  0  0  0  0  0
    1.0945   -3.0070    0.0000 H   0  0  0  0  0  0  0  0  0  0  0  0
    3.6986   -2.0592    0.0000 C   0  0  0  0  0  0  0  0  0  0  0  0
    4.2459   -3.5626    0.0000 H   0  0  0  0  0  0  0  0  0  0  0  0
    4.7270   -0.8335    0.0000 C   0  0  0  0  0  0  0  0  0  0  0  0
    6.3028   -1.1113    0.0000 Cl  0  0  0  0  0  0  0  0  0  0  0  0
    4.1799    0.6700    0.0000 C   0  0  0  0  0  0  0  0  0  0  0  0
    5.2083    1.8957    0.0000 H   0  0  0  0  0  0  0  0  0  0  0  0
    2.6041    0.9479    0.0000 C   0  0  0  0  0  0  0  0  0  0  0  0
    2.0570    2.4513    0.0000 H   0  0  0  0  0  0  0  0  0  0  0  0
   -1.3857   -0.8001    0.0000 C   0  0  0  0  0  0  0  0  0  0  0  0
   -1.3857   -2.4000    0.0000 C   0  0  0  0  0  0  0  0  0  0  0  0
    0.0001   -3.2000    0.0000 H   0  0  0  0  0  0  0  0  0  0  0  0
   -2.7713   -3.2000    0.0000 C   0  0  0  0  0  0  0  0  0  0  0  0
   -2.7713   -4.8000    0.0000 H   0  0  0  0  0  0  0  0  0  0  0  0
   -4.1569   -2.4000    0.0000 C   0  0  0  0  0  0  0  0  0  0  0  0
   -5.5426   -3.2000    0.0000 Cl  0  0  0  0  0  0  0  0  0  0  0  0
   -4.1569   -0.8001    0.0000 C   0  0  0  0  0  0  0  0  0  0  0  0
   -5.5426   -0.0000    0.0000 H   0  0  0  0  0  0  0  0  0  0  0  0
   -2.7713   -0.0000    0.0000 C   0  0  0  0  0  0  0  0  0  0  0  0
   -2.7713    1.6000    0.0000 H   0  0  0  0  0  0  0  0  0  0  0  0
    0.9477    2.6042    0.0000 Cl  0  0  0  0  0  0  0  0  0  0  0  0
  1  2  1  0  0  0  0
  2  3  2  0  0  0  0
  3  4  1  0  0  0  0
  4  5  1  0  0  0  0
  5  6  1  0  0  0  0
  5  7  2  0  0  0  0
  7  8  1  0  0  0  0
  7  9  1  0  0  0  0
  9 10  1  0  0  0  0
  9 11  2  0  0  0  0
 11 12  1  0  0  0  0
 11 13  1  0  0  0  0
 13  4  2  0  0  0  0
 13 14  1  0  0  0  0
  3 15  1  0  0  0  0
 15 16  1  0  0  0  0
 16 17  1  0  0  0  0
 16 18  2  0  0  0  0
 18 19  1  0  0  0  0
 18 20  1  0  0  0  0
 20 21  1  0  0  0  0
 20 22  2  0  0  0  0
 22 23  1  0  0  0  0
 22 24  1  0  0  0  0
 24 15  2  0  0  0  0
 24 25  1  0  0  0  0
  2 26  1  0  0  0  0
M  END
> <ChemID>
100023

> <source_casrn>
72-55-9

> <CAS>
72-55-9

> <SMILES>
ClC(Cl)=C(c1ccc(Cl)cc1)c1ccc(Cl)cc1

> <NAME>
DDE

> <preferred_name>
p,p'-DDE

> <iupac>
1,1'-(2,2-dichloroethene-1,1-diyl)bis(4-chlorobenzene)

> <MPID>
101660

> <dsstox_substance_id>
DTXSID9020374

> <Canonical_QSARr>
ClC(Cl)=C(c1ccc(Cl)cc1)c1ccc(Cl)cc1

> <InChI_Code_QSARr>
InChI=1S/C14H8Cl4/c15-11-5-1-9(2-6-11)13(14(17)18)10-3-7-12(16)8-4-10/h1-8H

> <InChI Key_QSARr>
UCNVFOCBFJOQAL-UHFFFAOYSA-N

> <LogKmHL>
1.71

$$$$
100024
  -INDIGO-08031722222D

  5  4  0  0  0  0  0  0  0  0999 V2000
   -0.8000   -1.3856    0.0000 Cl  0  0  0  0  0  0  0  0  0  0  0  0
    0.0000    0.0000    0.0000 C   0  0  0  0  0  0  0  0  0  0  0  0
    0.8000    1.3856    0.0000 H   0  0  0  0  0  0  0  0  0  0  0  0
   -1.3856    0.8000    0.0000 H   0  0  0  0  0  0  0  0  0  0  0  0
    1.3856   -0.8000    0.0000 Br  0  0  0  0  0  0  0  0  0  0  0  0
  1  2  1  0  0  0  0
  2  3  1  0  0  0  0
  2  4  1  0  0  0  0
  2  5  1  0  0  0  0
M  END
> <ChemID>
100024

> <source_casrn>
74-97-5

> <CAS>
74-97-5

> <SMILES>
ClCBr

> <NAME>
Methane, bromochloro-

> <preferred_name>
Bromochloromethane

> <iupac>
bromo(chloro)methane

> <MPID>
101661

> <dsstox_substance_id>
DTXSID4021503

> <Canonical_QSARr>
ClCBr

> <InChI_Code_QSARr>
InChI=1S/CH2BrCl/c2-1-3/h1H2

> <InChI Key_QSARr>
JPOXNPPZZKNXOV-UHFFFAOYSA-N

> <LogKmHL>
-0.74

$$$$
100026
  -INDIGO-08031722222D

  5  4  0  0  0  0  0  0  0  0999 V2000
    0.0000    0.0000    0.0000 C   0  0  0  0  0  0  0  0  0  0  0  0
    0.8000    1.3856    0.0000 H   0  0  0  0  0  0  0  0  0  0  0  0
   -1.3856    0.8000    0.0000 Br  0  0  0  0  0  0  0  0  0  0  0  0
    1.3856   -0.8000    0.0000 Br  0  0  0  0  0  0  0  0  0  0  0  0
   -0.8000   -1.3856    0.0000 Br  0  0  0  0  0  0  0  0  0  0  0  0
  1  2  1  0  0  0  0
  1  3  1  0  0  0  0
  1  4  1  0  0  0  0
  1  5  1  0  0  0  0
M  END
> <ChemID>
100026

> <source_casrn>
75-25-2

> <CAS>
75-25-2

> <SMILES>
BrC(Br)Br

> <NAME>
Methane, tribromo-

> <preferred_name>
Bromoform

> <iupac>
tribromomethane

> <MPID>
101663

> <dsstox_substance_id>
DTXSID1021374

> <Canonical_QSARr>
BrC(Br)Br

> <InChI_Code_QSARr>
InChI=1S/CHBr3/c2-1(3)4/h1H

> <InChI Key_QSARr>
DIKBFYAXUHHXCS-UHFFFAOYSA-N

> <LogKmHL>
-0.7

$$$$
100027
  -INDIGO-08031722222D

  6  5  0  0  0  0  0  0  0  0999 V2000
   -0.0000    0.0000    0.0000 C   0  0  0  0  0  0  0  0  0  0  0  0
    0.8000    1.3856    0.0000 H   0  0  0  0  0  0  0  0  0  0  0  0
    0.8000   -1.3856    0.0000 H   0  0  0  0  0  0  0  0  0  0  0  0
   -1.6000    0.0000    0.0000 C   0  0  0  0  0  0  0  0  0  0  0  0
   -2.4000    1.3856    0.0000 Cl  0  0  0  0  0  0  0  0  0  0  0  0
   -2.4000   -1.3856    0.0000 Cl  0  0  0  0  0  0  0  0  0  0  0  0
  1  2  1  0  0  0  0
  1  3  1  0  0  0  0
  1  4  2  0  0  0  0
  4  5  1  0  0  0  0
  4  6  1  0  0  0  0
M  END
> <ChemID>
100027

> <source_casrn>
75-35-4

> <CAS>
75-35-4

> <SMILES>
C=C(Cl)Cl

> <NAME>
Ethene, 1,1-dichloro-

> <preferred_name>
1,1-Dichloroethylene

> <iupac>
1,1-dichloroethene

> <MPID>
101664

> <dsstox_substance_id>
DTXSID8021438

> <Canonical_QSARr>
C=C(Cl)Cl

> <InChI_Code_QSARr>
InChI=1S/C2H2Cl2/c1-2(3)4/h1H2

> <InChI Key_QSARr>
LGXVIGDEPROXKC-UHFFFAOYSA-N

> <LogKmHL>
-0.72

$$$$
100028
  -INDIGO-08031722222D

 15 14  0  0  0  0  0  0  0  0999 V2000
    0.0000    0.0000    0.0000 C   0  0  0  0  0  0  0  0  0  0  0  0
    0.8000    1.3856    0.0000 C   0  0  0  0  0  0  0  0  0  0  0  0
    1.6000    2.7713    0.0000 H   0  0  0  0  0  0  0  0  0  0  0  0
    2.4000    1.3856    0.0000 H   0  0  0  0  0  0  0  0  0  0  0  0
    0.0000    2.7713    0.0000 H   0  0  0  0  0  0  0  0  0  0  0  0
   -1.3856    0.8000    0.0000 C   0  0  0  0  0  0  0  0  0  0  0  0
   -2.7713    1.6000    0.0000 H   0  0  0  0  0  0  0  0  0  0  0  0
   -2.7713    0.0000    0.0000 H   0  0  0  0  0  0  0  0  0  0  0  0
   -1.3856    2.4000    0.0000 H   0  0  0  0  0  0  0  0  0  0  0  0
   -0.8000   -1.3856    0.0000 C   0  0  0  0  0  0  0  0  0  0  0  0
   -1.6000   -2.7713    0.0000 H   0  0  0  0  0  0  0  0  0  0  0  0
    0.0000   -2.7713    0.0000 H   0  0  0  0  0  0  0  0  0  0  0  0
   -2.4000   -1.3856    0.0000 H   0  0  0  0  0  0  0  0  0  0  0  0
    1.3856   -0.8000    0.0000 O   0  0  0  0  0  0  0  0  0  0  0  0
    1.3856   -2.4000    0.0000 H   0  0  0  0  0  0  0  0  0  0  0  0
  1  2  1  0  0  0  0
  2  3  1  0  0  0  0
  2  4  1  0  0  0  0
  2  5  1  0  0  0  0
  1  6  1  0  0  0  0
  6  7  1  0  0  0  0
  6  8  1  0  0  0  0
  6  9  1  0  0  0  0
  1 10  1  0  0  0  0
 10 11  1  0  0  0  0
 10 12  1  0  0  0  0
 10 13  1  0  0  0  0
  1 14  1  0  0  0  0
 14 15  1  0  0  0  0
M  END
> <ChemID>
100028

> <source_casrn>
75-65-0

> <CAS>
75-65-0

> <SMILES>
CC(C)(C)O

> <NAME>
2-Propanol, 2-methyl-

> <preferred_name>
tert-Butyl alcohol

> <iupac>
2-methylpropan-2-ol

> <MPID>
101665

> <dsstox_substance_id>
DTXSID8020204

> <Canonical_QSARr>
CC(C)(C)O

> <InChI_Code_QSARr>
InChI=1S/C4H10O/c1-4(2,3)5/h5H,1-3H3

> <InChI Key_QSARr>
DKGAVHZHDRPRBM-UHFFFAOYSA-N

> <LogKmHL>
-1.13

$$$$
100030
  -INDIGO-08031722222D

 35 37  0  0  0  0  0  0  0  0999 V2000
   -0.0001   -0.0000    0.0000 C   0  0  0  0  0  0  0  0  0  0  0  0
    1.5999   -0.0000    0.0000 C   0  0  0  0  0  0  0  0  0  0  0  0
    2.3999    1.3856    0.0000 C   0  0  0  0  0  0  0  0  0  0  0  0
    1.5999    2.7712    0.0000 H   0  0  0  0  0  0  0  0  0  0  0  0
    4.0000    1.3856    0.0000 C   0  0  0  0  0  0  0  0  0  0  0  0
    4.8000    2.7712    0.0000 H   0  0  0  0  0  0  0  0  0  0  0  0
    4.8000   -0.0000    0.0000 C   0  0  0  0  0  0  0  0  0  0  0  0
    6.4000   -0.0000    0.0000 H   0  0  0  0  0  0  0  0  0  0  0  0
    4.0000   -1.3857    0.0000 C   0  0  0  0  0  0  0  0  0  0  0  0
    4.8000   -2.7713    0.0000 H   0  0  0  0  0  0  0  0  0  0  0  0
    2.3999   -1.3857    0.0000 C   0  0  0  0  0  0  0  0  0  0  0  0
    1.5999   -2.7713    0.0000 H   0  0  0  0  0  0  0  0  0  0  0  0
    0.2778    1.5756    0.0000 C   0  0  0  0  0  0  0  0  0  0  0  0
   -0.7507    2.8014    0.0000 C   0  0  0  0  0  0  0  0  0  0  0  0
   -1.5999    2.7712    0.0000 H   0  0  0  0  0  0  0  0  0  0  0  0
   -0.2034    4.3048    0.0000 C   0  0  0  0  0  0  0  0  0  0  0  0
   -1.2318    5.5306    0.0000 H   0  0  0  0  0  0  0  0  0  0  0  0
    1.3724    4.5827    0.0000 C   0  0  0  0  0  0  0  0  0  0  0  0
    1.9195    6.0862    0.0000 H   0  0  0  0  0  0  0  0  0  0  0  0
    2.4007    3.3570    0.0000 C   0  0  0  0  0  0  0  0  0  0  0  0
    3.9765    3.6349    0.0000 H   0  0  0  0  0  0  0  0  0  0  0  0
    1.8534    1.8535    0.0000 C   0  0  0  0  0  0  0  0  0  0  0  0
    2.8820    0.6279    0.0000 H   0  0  0  0  0  0  0  0  0  0  0  0
   -1.5999   -0.0000    0.0000 C   0  0  0  0  0  0  0  0  0  0  0  0
   -2.3999    1.3856    0.0000 C   0  0  0  0  0  0  0  0  0  0  0  0
   -2.3451    2.2338    0.0000 H   0  0  0  0  0  0  0  0  0  0  0  0
   -4.0000    1.3856    0.0000 C   0  0  0  0  0  0  0  0  0  0  0  0
   -4.8000    2.7712    0.0000 H   0  0  0  0  0  0  0  0  0  0  0  0
   -4.8000   -0.0000    0.0000 C   0  0  0  0  0  0  0  0  0  0  0  0
   -6.4000   -0.0000    0.0000 H   0  0  0  0  0  0  0  0  0  0  0  0
   -4.0000   -1.3857    0.0000 C   0  0  0  0  0  0  0  0  0  0  0  0
   -4.8000   -2.7713    0.0000 H   0  0  0  0  0  0  0  0  0  0  0  0
   -2.3999   -1.3857    0.0000 C   0  0  0  0  0  0  0  0  0  0  0  0
   -1.5999   -2.7713    0.0000 H   0  0  0  0  0  0  0  0  0  0  0  0
   -0.0001   -1.6000    0.0000 Cl  0  0  0  0  0  0  0  0  0  0  0  0
  1  2  1  0  0  0  0
  2  3  1  0  0  0  0
  3  4  1  0  0  0  0
  3  5  2  0  0  0  0
  5  6  1  0  0  0  0
  5  7  1  0  0  0  0
  7  8  1  0  0  0  0
  7  9  2  0  0  0  0
  9 10  1  0  0  0  0
  9 11  1  0  0  0  0
 11  2  2  0  0  0  0
 11 12  1  0  0  0  0
  1 13  1  0  0  0  0
 13 14  1  0  0  0  0
 14 15  1  0  0  0  0
 14 16  2  0  0  0  0
 16 17  1  0  0  0  0
 16 18  1  0  0  0  0
 18 19  1  0  0  0  0
 18 20  2  0  0  0  0
 20 21  1  0  0  0  0
 20 22  1  0  0  0  0
 22 13  2  0  0  0  0
 22 23  1  0  0  0  0
  1 24  1  0  0  0  0
 24 25  1  0  0  0  0
 25 26  1  0  0  0  0
 25 27  2  0  0  0  0
 27 28  1  0  0  0  0
 27 29  1  0  0  0  0
 29 30  1  0  0  0  0
 29 31  2  0  0  0  0
 31 32  1  0  0  0  0
 31 33  1  0  0  0  0
 33 24  2  0  0  0  0
 33 34  1  0  0  0  0
  1 35  1  0  0  0  0
M  END
> <ChemID>
100030

> <source_casrn>
76-83-5

> <CAS>
76-83-5

> <SMILES>
c(cccc1)(c1)C(c(cccc2)c2)(c(cccc3)c3)Cl

> <NAME>
Benzene, 1,1,1-(chloromethylidyne)tris-

> <preferred_name>
Trityl chloride

> <iupac>
1,1',1''-(chloromethanetriyl)tribenzene

> <MPID>
101667

> <dsstox_substance_id>
DTXSID3052511

> <Canonical_QSARr>
ClC(c1ccccc1)(c1ccccc1)c1ccccc1

> <InChI_Code_QSARr>
InChI=1S/C19H15Cl/c20-19(16-10-4-1-5-11-16,17-12-6-2-7-13-17)18-14-8-3-9-15-18/h1-15H

> <InChI Key_QSARr>
JBWKIWSBJXDJDT-UHFFFAOYSA-N

> <LogKmHL>
-0.15

$$$$
100031
  -INDIGO-08031722222D

 47 49  0  0  0  0  0  0  0  0999 V2000
    4.0001    1.3857    0.0000 P   0  0  0  0  0  0  0  0  0  0  0  0
    5.6001    1.3857    0.0000 O   0  0  0  0  0  0  0  0  0  0  0  0
    6.8257    0.3572    0.0000 C   0  0  0  0  0  0  0  0  0  0  0  0
    8.3291    0.9045    0.0000 C   0  0  0  0  0  0  0  0  0  0  0  0
    8.6070    2.4801    0.0000 C   0  0  0  0  0  0  0  0  0  0  0  0
   10.1106    3.0274    0.0000 H   0  0  0  0  0  0  0  0  0  0  0  0
    9.8328    1.4517    0.0000 H   0  0  0  0  0  0  0  0  0  0  0  0
    7.1035    1.9328    0.0000 H   0  0  0  0  0  0  0  0  0  0  0  0
    9.5549   -0.1241    0.0000 C   0  0  0  0  0  0  0  0  0  0  0  0
   11.0584    0.4232    0.0000 H   0  0  0  0  0  0  0  0  0  0  0  0
    9.2771   -1.6997    0.0000 C   0  0  0  0  0  0  0  0  0  0  0  0
   10.5027   -2.7282    0.0000 H   0  0  0  0  0  0  0  0  0  0  0  0
    7.7736   -2.2470    0.0000 C   0  0  0  0  0  0  0  0  0  0  0  0
    7.4958   -3.8226    0.0000 H   0  0  0  0  0  0  0  0  0  0  0  0
    6.5478   -1.2184    0.0000 C   0  0  0  0  0  0  0  0  0  0  0  0
    5.0444   -1.7657    0.0000 H   0  0  0  0  0  0  0  0  0  0  0  0
    4.8000    2.7712    0.0000 O   0  0  0  0  0  0  0  0  0  0  0  0
    4.0001    4.1569    0.0000 C   0  0  0  0  0  0  0  0  0  0  0  0
    4.8000    5.5426    0.0000 C   0  0  0  0  0  0  0  0  0  0  0  0
    6.3999    5.5426    0.0000 C   0  0  0  0  0  0  0  0  0  0  0  0
    7.9999    5.5426    0.0000 H   0  0  0  0  0  0  0  0  0  0  0  0
    7.2000    6.9281    0.0000 H   0  0  0  0  0  0  0  0  0  0  0  0
    7.2000    4.1569    0.0000 H   0  0  0  0  0  0  0  0  0  0  0  0
    4.0001    6.9281    0.0000 C   0  0  0  0  0  0  0  0  0  0  0  0
    4.8000    8.3138    0.0000 H   0  0  0  0  0  0  0  0  0  0  0  0
    2.3999    6.9281    0.0000 C   0  0  0  0  0  0  0  0  0  0  0  0
    1.6000    8.3138    0.0000 H   0  0  0  0  0  0  0  0  0  0  0  0
    1.6000    5.5426    0.0000 C   0  0  0  0  0  0  0  0  0  0  0  0
    0.0001    5.5426    0.0000 H   0  0  0  0  0  0  0  0  0  0  0  0
    2.3999    4.1569    0.0000 C   0  0  0  0  0  0  0  0  0  0  0  0
    1.6000    2.7712    0.0000 H   0  0  0  0  0  0  0  0  0  0  0  0
    2.3999    1.3857    0.0000 O   0  0  0  0  0  0  0  0  0  0  0  0
    1.6000    0.0000    0.0000 C   0  0  0  0  0  0  0  0  0  0  0  0
    0.0001    0.0000    0.0000 C   0  0  0  0  0  0  0  0  0  0  0  0
   -0.8000    1.3857    0.0000 C   0  0  0  0  0  0  0  0  0  0  0  0
   -1.5999    2.7712    0.0000 H   0  0  0  0  0  0  0  0  0  0  0  0
   -2.4000    1.3857    0.0000 H   0  0  0  0  0  0  0  0  0  0  0  0
    0.0001    2.7712    0.0000 H   0  0  0  0  0  0  0  0  0  0  0  0
   -0.8000   -1.3857    0.0000 C   0  0  0  0  0  0  0  0  0  0  0  0
   -2.4000   -1.3857    0.0000 H   0  0  0  0  0  0  0  0  0  0  0  0
    0.0001   -2.7712    0.0000 C   0  0  0  0  0  0  0  0  0  0  0  0
   -0.8000   -4.1569    0.0000 H   0  0  0  0  0  0  0  0  0  0  0  0
    1.6000   -2.7712    0.0000 C   0  0  0  0  0  0  0  0  0  0  0  0
    2.3999   -4.1569    0.0000 H   0  0  0  0  0  0  0  0  0  0  0  0
    2.3999   -1.3857    0.0000 C   0  0  0  0  0  0  0  0  0  0  0  0
    4.0001   -1.3857    0.0000 H   0  0  0  0  0  0  0  0  0  0  0  0
    3.2000    2.7712    0.0000 O   0  0  0  0  0  0  0  0  0  0  0  0
  1  2  1  0  0  0  0
  2  3  1  0  0  0  0
  3  4  1  0  0  0  0
  4  5  1  0  0  0  0
  5  6  1  0  0  0  0
  5  7  1  0  0  0  0
  5  8  1  0  0  0  0
  4  9  2  0  0  0  0
  9 10  1  0  0  0  0
  9 11  1  0  0  0  0
 11 12  1  0  0  0  0
 11 13  2  0  0  0  0
 13 14  1  0  0  0  0
 13 15  1  0  0  0  0
 15  3  2  0  0  0  0
 15 16  1  0  0  0  0
  1 17  1  0  0  0  0
 17 18  1  0  0  0  0
 18 19  1  0  0  0  0
 19 20  1  0  0  0  0
 20 21  1  0  0  0  0
 20 22  1  0  0  0  0
 20 23  1  0  0  0  0
 19 24  2  0  0  0  0
 24 25  1  0  0  0  0
 24 26  1  0  0  0  0
 26 27  1  0  0  0  0
 26 28  2  0  0  0  0
 28 29  1  0  0  0  0
 28 30  1  0  0  0  0
 30 18  2  0  0  0  0
 30 31  1  0  0  0  0
  1 32  1  0  0  0  0
 32 33  1  0  0  0  0
 33 34  1  0  0  0  0
 34 35  1  0  0  0  0
 35 36  1  0  0  0  0
 35 37  1  0  0  0  0
 35 38  1  0  0  0  0
 34 39  2  0  0  0  0
 39 40  1  0  0  0  0
 39 41  1  0  0  0  0
 41 42  1  0  0  0  0
 41 43  2  0  0  0  0
 43 44  1  0  0  0  0
 43 45  1  0  0  0  0
 45 33  2  0  0  0  0
 45 46  1  0  0  0  0
  1 47  2  0  0  0  0
M  END
> <ChemID>
100031

> <source_casrn>
78-30-8

> <CAS>
78-30-8

> <SMILES>
O=P(Oc(c(ccc1)C)c1)(Oc(c(ccc2)C)c2)Oc(c(ccc3)C)c3

> <NAME>
Phosphoric acid, tris(2-methylphenyl) ester

> <preferred_name>
Tri-o-cresyl phosphate

> <iupac>
tris(2-methylphenyl) phosphate

> <MPID>
101668

> <dsstox_substance_id>
DTXSID6032192

> <Canonical_QSARr>
Cc1ccccc1OP(=O)(Oc1ccccc1C)Oc1ccccc1C

> <InChI_Code_QSARr>
InChI=1S/C21H21O4P/c1-16-10-4-7-13-19(16)23-26(22,24-20-14-8-5-11-17(20)2)25-21-15-9-6-12-18(21)3/h4-15H,1-3H3

> <InChI Key_QSARr>
YSMRWXYRXBRSND-UHFFFAOYSA-N

> <LogKmHL>
0.5

$$$$
100032
  -INDIGO-08031722222D

 26 25  0  0  0  0  0  0  0  0999 V2000
    0.8001   -1.3856    0.0000 O   0  0  0  0  0  0  0  0  0  0  0  0
    0.0001    0.0000    0.0000 P   0  0  0  0  0  0  0  0  0  0  0  0
    1.6001    0.0000    0.0000 O   0  0  0  0  0  0  0  0  0  0  0  0
    2.4000   -1.3856    0.0000 C   0  0  0  0  0  0  0  0  0  0  0  0
    1.1306   -2.3596    0.0000 H   0  0  0  0  0  0  0  0  0  0  0  0
    2.1912   -2.9720    0.0000 H   0  0  0  0  0  0  0  0  0  0  0  0
    4.0000   -1.3856    0.0000 C   0  0  0  0  0  0  0  0  0  0  0  0
    5.6000   -1.3856    0.0000 H   0  0  0  0  0  0  0  0  0  0  0  0
    4.8000   -2.7712    0.0000 H   0  0  0  0  0  0  0  0  0  0  0  0
    4.8000    0.0000    0.0000 H   0  0  0  0  0  0  0  0  0  0  0  0
    0.8001    1.3857    0.0000 O   0  0  0  0  0  0  0  0  0  0  0  0
    0.0001    2.7713    0.0000 C   0  0  0  0  0  0  0  0  0  0  0  0
   -1.4782    3.3836    0.0000 H   0  0  0  0  0  0  0  0  0  0  0  0
   -1.4782    2.1590    0.0000 H   0  0  0  0  0  0  0  0  0  0  0  0
    0.8001    4.1569    0.0000 C   0  0  0  0  0  0  0  0  0  0  0  0
    1.6001    5.5426    0.0000 H   0  0  0  0  0  0  0  0  0  0  0  0
    0.0001    5.5426    0.0000 H   0  0  0  0  0  0  0  0  0  0  0  0
    2.4000    4.1569    0.0000 H   0  0  0  0  0  0  0  0  0  0  0  0
   -1.6001    0.0000    0.0000 O   0  0  0  0  0  0  0  0  0  0  0  0
   -2.4000   -1.3856    0.0000 C   0  0  0  0  0  0  0  0  0  0  0  0
   -2.1912   -2.9720    0.0000 H   0  0  0  0  0  0  0  0  0  0  0  0
   -1.1306   -2.3596    0.0000 H   0  0  0  0  0  0  0  0  0  0  0  0
   -4.0000   -1.3856    0.0000 C   0  0  0  0  0  0  0  0  0  0  0  0
   -5.6000   -1.3856    0.0000 H   0  0  0  0  0  0  0  0  0  0  0  0
   -4.8000   -2.7712    0.0000 H   0  0  0  0  0  0  0  0  0  0  0  0
   -4.8000    0.0000    0.0000 H   0  0  0  0  0  0  0  0  0  0  0  0
  1  2  2  0  0  0  0
  2  3  1  0  0  0  0
  3  4  1  0  0  0  0
  4  5  1  0  0  0  0
  4  6  1  0  0  0  0
  4  7  1  0  0  0  0
  7  8  1  0  0  0  0
  7  9  1  0  0  0  0
  7 10  1  0  0  0  0
  2 11  1  0  0  0  0
 11 12  1  0  0  0  0
 12 13  1  0  0  0  0
 12 14  1  0  0  0  0
 12 15  1  0  0  0  0
 15 16  1  0  0  0  0
 15 17  1  0  0  0  0
 15 18  1  0  0  0  0
  2 19  1  0  0  0  0
 19 20  1  0  0  0  0
 20 21  1  0  0  0  0
 20 22  1  0  0  0  0
 20 23  1  0  0  0  0
 23 24  1  0  0  0  0
 23 25  1  0  0  0  0
 23 26  1  0  0  0  0
M  END
> <ChemID>
100032

> <source_casrn>
78-40-0

> <CAS>
78-40-0

> <SMILES>
CCOP(=O)(OCC)OCC

> <NAME>
Phosphoric acid, triethyl ester

> <preferred_name>
Triethyl phosphate

> <iupac>
triethyl phosphate

> <MPID>
101669

> <dsstox_substance_id>
DTXSID8026228

> <Canonical_QSARr>
CCOP(=O)(OCC)OCC

> <InChI_Code_QSARr>
InChI=1S/C6H15O4P/c1-4-8-11(7,9-5-2)10-6-3/h4-6H2,1-3H3

> <InChI Key_QSARr>
DQWPFSLDHJDLRL-UHFFFAOYSA-N

> <LogKmHL>
-1.09

$$$$
100034
  -INDIGO-08031722222D

 24 24  0  0  0  0  0  0  0  0999 V2000
    1.5756   -0.2778    0.0000 C   0  0  0  0  0  0  0  0  0  0  0  0
    3.1514   -0.5557    0.0000 H   0  0  0  0  0  0  0  0  0  0  0  0
    2.6042    0.9478    0.0000 H   0  0  0  0  0  0  0  0  0  0  0  0
    2.6042   -1.5035    0.0000 H   0  0  0  0  0  0  0  0  0  0  0  0
    0.0000    0.0000    0.0000 C   0  0  0  0  0  0  0  0  0  0  0  0
   -1.3856    0.8000    0.0000 C   0  0  0  0  0  0  0  0  0  0  0  0
   -0.3572    2.0257    0.0000 H   0  0  0  0  0  0  0  0  0  0  0  0
   -2.4141    2.0257    0.0000 H   0  0  0  0  0  0  0  0  0  0  0  0
   -2.7713    0.0000    0.0000 C   0  0  0  0  0  0  0  0  0  0  0  0
   -4.1569    0.8000    0.0000 C   0  0  0  0  0  0  0  0  0  0  0  0
   -5.5426    1.6001    0.0000 H   0  0  0  0  0  0  0  0  0  0  0  0
   -5.5426    0.0000    0.0000 H   0  0  0  0  0  0  0  0  0  0  0  0
   -4.1569    2.4000    0.0000 H   0  0  0  0  0  0  0  0  0  0  0  0
   -2.7713   -1.6000    0.0000 C   0  0  0  0  0  0  0  0  0  0  0  0
   -4.1569   -2.4000    0.0000 H   0  0  0  0  0  0  0  0  0  0  0  0
   -1.3856   -2.4000    0.0000 C   0  0  0  0  0  0  0  0  0  0  0  0
   -1.3856   -4.0000    0.0000 O   0  0  0  0  0  0  0  0  0  0  0  0
    0.0000   -1.6000    0.0000 C   0  0  0  0  0  0  0  0  0  0  0  0
    0.5472   -3.1035    0.0000 H   0  0  0  0  0  0  0  0  0  0  0  0
    1.5756   -1.3222    0.0000 H   0  0  0  0  0  0  0  0  0  0  0  0
    0.5472    1.5035    0.0000 C   0  0  0  0  0  0  0  0  0  0  0  0
    1.0945    3.0070    0.0000 H   0  0  0  0  0  0  0  0  0  0  0  0
    2.1229    1.7814    0.0000 H   0  0  0  0  0  0  0  0  0  0  0  0
    0.0000    3.0070    0.0000 H   0  0  0  0  0  0  0  0  0  0  0  0
  1  2  1  0  0  0  0
  1  3  1  0  0  0  0
  1  4  1  0  0  0  0
  1  5  1  0  0  0  0
  5  6  1  0  0  0  0
  6  7  1  0  0  0  0
  6  8  1  0  0  0  0
  6  9  1  0  0  0  0
  9 10  1  0  0  0  0
 10 11  1  0  0  0  0
 10 12  1  0  0  0  0
 10 13  1  0  0  0  0
  9 14  2  0  0  0  0
 14 15  1  0  0  0  0
 14 16  1  0  0  0  0
 16 17  2  0  0  0  0
 16 18  1  0  0  0  0
 18  5  1  0  0  0  0
 18 19  1  0  0  0  0
 18 20  1  0  0  0  0
  5 21  1  0  0  0  0
 21 22  1  0  0  0  0
 21 23  1  0  0  0  0
 21 24  1  0  0  0  0
M  END
> <ChemID>
100034

> <source_casrn>
78-59-1

> <CAS>
78-59-1

> <SMILES>
CC1CC(C)(C)CC(=O)C=1

> <NAME>
2-Cyclohexen-1-one, 3,5,5-trimethyl-

> <preferred_name>
Isophorone

> <iupac>
3,5,5-trimethylcyclohex-2-en-1-one

> <MPID>
101671

> <dsstox_substance_id>
DTXSID8020759

> <Canonical_QSARr>
CC1CC(C)(C)CC(=O)C=1

> <InChI_Code_QSARr>
InChI=1S/C9H14O/c1-7-4-8(10)6-9(2,3)5-7/h4H,5-6H2,1-3H3

> <InChI Key_QSARr>
HJOVHMDZYOCNQW-UHFFFAOYSA-N

> <LogKmHL>
-1.29

$$$$
100035
  -INDIGO-08031722222D

 54 53  0  0  0  0  0  0  0  0999 V2000
    0.0001   -0.0000    0.0000 C   0  0  0  0  0  0  0  0  0  0  0  0
    0.8001    1.3857    0.0000 C   0  0  0  0  0  0  0  0  0  0  0  0
    1.6001    2.7713    0.0000 H   0  0  0  0  0  0  0  0  0  0  0  0
    0.0001    2.7713    0.0000 H   0  0  0  0  0  0  0  0  0  0  0  0
    2.4001    1.3857    0.0000 H   0  0  0  0  0  0  0  0  0  0  0  0
   -1.2258    1.0285    0.0000 C   0  0  0  0  0  0  0  0  0  0  0  0
   -2.4514    2.0569    0.0000 H   0  0  0  0  0  0  0  0  0  0  0  0
   -2.7292    0.4812    0.0000 H   0  0  0  0  0  0  0  0  0  0  0  0
   -0.9478    2.6041    0.0000 H   0  0  0  0  0  0  0  0  0  0  0  0
    1.3856   -0.8000    0.0000 O   0  0  0  0  0  0  0  0  0  0  0  0
    2.7713   -0.0000    0.0000 O   0  0  0  0  0  0  0  0  0  0  0  0
    4.2747   -0.5472    0.0000 C   0  0  0  0  0  0  0  0  0  0  0  0
    5.7784   -1.0945    0.0000 C   0  0  0  0  0  0  0  0  0  0  0  0
    7.2818   -1.6417    0.0000 H   0  0  0  0  0  0  0  0  0  0  0  0
    7.0040   -0.0661    0.0000 H   0  0  0  0  0  0  0  0  0  0  0  0
    6.0562   -2.6702    0.0000 H   0  0  0  0  0  0  0  0  0  0  0  0
    4.8219    0.9563    0.0000 C   0  0  0  0  0  0  0  0  0  0  0  0
    5.3692    2.4597    0.0000 H   0  0  0  0  0  0  0  0  0  0  0  0
    6.3977    1.2342    0.0000 H   0  0  0  0  0  0  0  0  0  0  0  0
    3.7936    2.1820    0.0000 H   0  0  0  0  0  0  0  0  0  0  0  0
    3.7275   -2.0508    0.0000 C   0  0  0  0  0  0  0  0  0  0  0  0
    4.7561   -3.2765    0.0000 H   0  0  0  0  0  0  0  0  0  0  0  0
    2.1517   -2.3286    0.0000 H   0  0  0  0  0  0  0  0  0  0  0  0
    3.1803   -3.5542    0.0000 H   0  0  0  0  0  0  0  0  0  0  0  0
   -0.5471   -1.5036    0.0000 C   0  0  0  0  0  0  0  0  0  0  0  0
    0.9787   -1.9846    0.0000 H   0  0  0  0  0  0  0  0  0  0  0  0
    0.1914   -2.9227    0.0000 H   0  0  0  0  0  0  0  0  0  0  0  0
   -2.0508   -2.0508    0.0000 C   0  0  0  0  0  0  0  0  0  0  0  0
   -3.3201   -1.0768    0.0000 H   0  0  0  0  0  0  0  0  0  0  0  0
   -2.2596   -0.4645    0.0000 H   0  0  0  0  0  0  0  0  0  0  0  0
   -2.8508   -3.4364    0.0000 C   0  0  0  0  0  0  0  0  0  0  0  0
   -3.6508   -4.8221    0.0000 C   0  0  0  0  0  0  0  0  0  0  0  0
   -4.4508   -6.2077    0.0000 H   0  0  0  0  0  0  0  0  0  0  0  0
   -2.8508   -6.2077    0.0000 H   0  0  0  0  0  0  0  0  0  0  0  0
   -5.2508   -4.8221    0.0000 H   0  0  0  0  0  0  0  0  0  0  0  0
   -1.6251   -4.4649    0.0000 C   0  0  0  0  0  0  0  0  0  0  0  0
   -0.3995   -5.4933    0.0000 H   0  0  0  0  0  0  0  0  0  0  0  0
   -1.9029   -6.0405    0.0000 H   0  0  0  0  0  0  0  0  0  0  0  0
   -0.1215   -3.9175    0.0000 H   0  0  0  0  0  0  0  0  0  0  0  0
   -4.2365   -2.6364    0.0000 O   0  0  0  0  0  0  0  0  0  0  0  0
   -5.6220   -3.4364    0.0000 O   0  0  0  0  0  0  0  0  0  0  0  0
   -7.0077   -2.6364    0.0000 C   0  0  0  0  0  0  0  0  0  0  0  0
   -8.3932   -1.8364    0.0000 C   0  0  0  0  0  0  0  0  0  0  0  0
   -9.7789   -1.0364    0.0000 H   0  0  0  0  0  0  0  0  0  0  0  0
   -8.3932   -0.2364    0.0000 H   0  0  0  0  0  0  0  0  0  0  0  0
   -9.7789   -2.6364    0.0000 H   0  0  0  0  0  0  0  0  0  0  0  0
   -6.2077   -1.2508    0.0000 C   0  0  0  0  0  0  0  0  0  0  0  0
   -5.4077    0.1349    0.0000 H   0  0  0  0  0  0  0  0  0  0  0  0
   -7.0077    0.1349    0.0000 H   0  0  0  0  0  0  0  0  0  0  0  0
   -4.6077   -1.2508    0.0000 H   0  0  0  0  0  0  0  0  0  0  0  0
   -7.8077   -4.0221    0.0000 C   0  0  0  0  0  0  0  0  0  0  0  0
   -7.0077   -5.4077    0.0000 H   0  0  0  0  0  0  0  0  0  0  0  0
   -9.4077   -4.0221    0.0000 H   0  0  0  0  0  0  0  0  0  0  0  0
   -8.6077   -5.4077    0.0000 H   0  0  0  0  0  0  0  0  0  0  0  0
  1  2  1  0  0  0  0
  2  3  1  0  0  0  0
  2  4  1  0  0  0  0
  2  5  1  0  0  0  0
  1  6  1  0  0  0  0
  6  7  1  0  0  0  0
  6  8  1  0  0  0  0
  6  9  1  0  0  0  0
  1 10  1  0  0  0  0
 10 11  1  0  0  0  0
 11 12  1  0  0  0  0
 12 13  1  0  0  0  0
 13 14  1  0  0  0  0
 13 15  1  0  0  0  0
 13 16  1  0  0  0  0
 12 17  1  0  0  0  0
 17 18  1  0  0  0  0
 17 19  1  0  0  0  0
 17 20  1  0  0  0  0
 12 21  1  0  0  0  0
 21 22  1  0  0  0  0
 21 23  1  0  0  0  0
 21 24  1  0  0  0  0
  1 25  1  0  0  0  0
 25 26  1  0  0  0  0
 25 27  1  0  0  0  0
 25 28  1  0  0  0  0
 28 29  1  0  0  0  0
 28 30  1  0  0  0  0
 28 31  1  0  0  0  0
 31 32  1  0  0  0  0
 32 33  1  0  0  0  0
 32 34  1  0  0  0  0
 32 35  1  0  0  0  0
 31 36  1  0  0  0  0
 36 37  1  0  0  0  0
 36 38  1  0  0  0  0
 36 39  1  0  0  0  0
 31 40  1  0  0  0  0
 40 41  1  0  0  0  0
 41 42  1  0  0  0  0
 42 43  1  0  0  0  0
 43 44  1  0  0  0  0
 43 45  1  0  0  0  0
 43 46  1  0  0  0  0
 42 47  1  0  0  0  0
 47 48  1  0  0  0  0
 47 49  1  0  0  0  0
 47 50  1  0  0  0  0
 42 51  1  0  0  0  0
 51 52  1  0  0  0  0
 51 53  1  0  0  0  0
 51 54  1  0  0  0  0
M  END
> <ChemID>
100035

> <source_casrn>
78-63-7

> <CAS>
78-63-7

> <SMILES>
CC(C)(C)OOC(C)(C)CCC(C)(C)OOC(C)(C)C

> <NAME>
2,5-dimethyl-2,5-bis(tert-butylperoxy)hexane

> <preferred_name>
2,5-Dimethyl-2,5-di-(tert-butylperoxy)hexane

> <iupac>
2,5-bis(tert-butylperoxy)-2,5-dimethylhexane

> <MPID>
101672

> <dsstox_substance_id>
DTXSID9025110

> <Canonical_QSARr>
CC(C)(C)OOC(C)(C)CCC(C)(C)OOC(C)(C)C

> <InChI_Code_QSARr>
InChI=1S/C16H34O4/c1-13(2,3)17-19-15(7,8)11-12-16(9,10)20-18-14(4,5)6/h11-12H2,1-10H3

> <InChI Key_QSARr>
DMWVYCCGCQPJEA-UHFFFAOYSA-N

> <LogKmHL>
0.77

$$$$
100036
  -INDIGO-08031722222D

 13 12  0  0  0  0  0  0  0  0999 V2000
    1.3856    0.8000    0.0000 C   0  0  0  0  0  0  0  0  0  0  0  0
    2.7713    1.6000    0.0000 H   0  0  0  0  0  0  0  0  0  0  0  0
    2.7713    0.0000    0.0000 H   0  0  0  0  0  0  0  0  0  0  0  0
    1.3856    2.4000    0.0000 H   0  0  0  0  0  0  0  0  0  0  0  0
    0.0000    0.0000    0.0000 C   0  0  0  0  0  0  0  0  0  0  0  0
    0.0000   -1.6000    0.0000 C   0  0  0  0  0  0  0  0  0  0  0  0
   -1.3856   -2.4000    0.0000 H   0  0  0  0  0  0  0  0  0  0  0  0
    1.3856   -2.4000    0.0000 H   0  0  0  0  0  0  0  0  0  0  0  0
   -1.3856    0.8000    0.0000 C   0  0  0  0  0  0  0  0  0  0  0  0
   -1.3856    2.4000    0.0000 H   0  0  0  0  0  0  0  0  0  0  0  0
   -2.7713   -0.0000    0.0000 C   0  0  0  0  0  0  0  0  0  0  0  0
   -4.1569    0.8000    0.0000 H   0  0  0  0  0  0  0  0  0  0  0  0
   -2.7713   -1.6000    0.0000 H   0  0  0  0  0  0  0  0  0  0  0  0
  1  2  1  0  0  0  0
  1  3  1  0  0  0  0
  1  4  1  0  0  0  0
  1  5  1  0  0  0  0
  5  6  2  0  0  0  0
  6  7  1  0  0  0  0
  6  8  1  0  0  0  0
  5  9  1  0  0  0  0
  9 10  1  0  0  0  0
  9 11  2  0  0  0  0
 11 12  1  0  0  0  0
 11 13  1  0  0  0  0
M  END
> <ChemID>
100036

> <source_casrn>
78-79-5

> <CAS>
78-79-5

> <SMILES>
CC(=C)C=C

> <NAME>
1,3-Butadiene, 2-methyl-

> <preferred_name>
Isoprene

> <iupac>
2-methylbuta-1,3-diene

> <MPID>
101673

> <dsstox_substance_id>
DTXSID2020761

> <Canonical_QSARr>
CC(=C)C=C

> <InChI_Code_QSARr>
InChI=1S/C5H8/c1-4-5(2)3/h4H,1-2H2,3H3

> <InChI Key_QSARr>
RRHGJUQNOFWUDK-UHFFFAOYSA-N

> <LogKmHL>
-0.61

$$$$
100038
  -INDIGO-08031722222D

  8  7  0  0  0  0  0  0  0  0999 V2000
    0.8000    1.3856    0.0000 Cl  0  0  0  0  0  0  0  0  0  0  0  0
    0.0000    0.0000    0.0000 C   0  0  0  0  0  0  0  0  0  0  0  0
    1.6000   -0.0000    0.0000 H   0  0  0  0  0  0  0  0  0  0  0  0
   -1.6000    0.0000    0.0000 C   0  0  0  0  0  0  0  0  0  0  0  0
   -3.2000    0.0000    0.0000 H   0  0  0  0  0  0  0  0  0  0  0  0
   -2.4000   -1.3856    0.0000 H   0  0  0  0  0  0  0  0  0  0  0  0
   -2.4000    1.3856    0.0000 Cl  0  0  0  0  0  0  0  0  0  0  0  0
    0.8000   -1.3856    0.0000 Cl  0  0  0  0  0  0  0  0  0  0  0  0
  1  2  1  0  0  0  0
  2  3  1  0  0  0  0
  2  4  1  0  0  0  0
  4  5  1  0  0  0  0
  4  6  1  0  0  0  0
  4  7  1  0  0  0  0
  2  8  1  0  0  0  0
M  END
> <ChemID>
100038

> <source_casrn>
79-00-5

> <CAS>
79-00-5

> <SMILES>
ClCC(Cl)Cl

> <NAME>
Ethane, 1,1,2-trichloro-

> <preferred_name>
1,1,2-Trichloroethane

> <iupac>
1,1,2-trichloroethane

> <MPID>
101675

> <dsstox_substance_id>
DTXSID5021380

> <Canonical_QSARr>
ClCC(Cl)Cl

> <InChI_Code_QSARr>
InChI=1S/C2H3Cl3/c3-1-2(4)5/h2H,1H2

> <InChI Key_QSARr>
UBOXGVDOUJQMTN-UHFFFAOYSA-N

> <LogKmHL>
-1.01

$$$$
100039
  -INDIGO-08031722222D

  6  5  0  0  0  0  0  0  0  0999 V2000
   -0.8000   -1.3856    0.0000 Cl  0  0  0  0  0  0  0  0  0  0  0  0
    0.0000    0.0000    0.0000 C   0  0  0  0  0  0  0  0  0  0  0  0
    1.6000    0.0000    0.0000 C   0  0  0  0  0  0  0  0  0  0  0  0
    2.4000    1.3856    0.0000 H   0  0  0  0  0  0  0  0  0  0  0  0
    2.4000   -1.3856    0.0000 Cl  0  0  0  0  0  0  0  0  0  0  0  0
   -0.8000    1.3856    0.0000 Cl  0  0  0  0  0  0  0  0  0  0  0  0
  1  2  1  0  0  0  0
  2  3  2  0  0  0  0
  3  4  1  0  0  0  0
  3  5  1  0  0  0  0
  2  6  1  0  0  0  0
M  END
> <ChemID>
100039

> <source_casrn>
79-01-6

> <CAS>
79-01-6

> <SMILES>
ClC=C(Cl)Cl

> <NAME>
Ethene, trichloro-

> <preferred_name>
Trichloroethylene

> <iupac>
1,1,2-trichloroethene

> <MPID>
101676

> <dsstox_substance_id>
DTXSID0021383

> <Canonical_QSARr>
ClC=C(Cl)Cl

> <InChI_Code_QSARr>
InChI=1S/C2HCl3/c3-1-2(4)5/h1H

> <InChI Key_QSARr>
XSTXAVWGXDQKEL-UHFFFAOYSA-N

> <LogKmHL>
-0.41

$$$$
100040
  -INDIGO-08031722222D

  8  7  0  0  0  0  0  0  0  0999 V2000
    0.8000    1.3856    0.0000 Cl  0  0  0  0  0  0  0  0  0  0  0  0
    0.0000    0.0000    0.0000 C   0  0  0  0  0  0  0  0  0  0  0  0
    1.6000   -0.0000    0.0000 H   0  0  0  0  0  0  0  0  0  0  0  0
   -1.6000    0.0000    0.0000 C   0  0  0  0  0  0  0  0  0  0  0  0
   -3.2000    0.0000    0.0000 H   0  0  0  0  0  0  0  0  0  0  0  0
   -2.4000   -1.3856    0.0000 Cl  0  0  0  0  0  0  0  0  0  0  0  0
   -2.4000    1.3856    0.0000 Cl  0  0  0  0  0  0  0  0  0  0  0  0
    0.8000   -1.3856    0.0000 Cl  0  0  0  0  0  0  0  0  0  0  0  0
  1  2  1  0  0  0  0
  2  3  1  0  0  0  0
  2  4  1  0  0  0  0
  4  5  1  0  0  0  0
  4  6  1  0  0  0  0
  4  7  1  0  0  0  0
  2  8  1  0  0  0  0
M  END
> <ChemID>
100040

> <source_casrn>
79-34-5

> <CAS>
79-34-5

> <SMILES>
ClC(Cl)C(Cl)Cl

> <NAME>
Ethane, 1,1,2,2-tetrachloro-

> <preferred_name>
1,1,2,2-Tetrachloroethane

> <iupac>
1,1,2,2-tetrachloroethane

> <MPID>
101677

> <dsstox_substance_id>
DTXSID7021318

> <Canonical_QSARr>
ClC(Cl)C(Cl)Cl

> <InChI_Code_QSARr>
InChI=1S/C2H2Cl4/c3-1(4)2(5)6/h1-2H

> <InChI Key_QSARr>
QPFMBZIOSGYJDE-UHFFFAOYSA-N

> <LogKmHL>
-0.67

$$$$
100042
  -INDIGO-08031722222D

 26 27  0  0  0  0  0  0  0  0999 V2000
    1.1108   -2.3805    0.0000 C   0  0  0  0  0  0  0  0  0  0  0  0
    1.9794   -3.7242    0.0000 H   0  0  0  0  0  0  0  0  0  0  0  0
   -0.2412   -3.2361    0.0000 H   0  0  0  0  0  0  0  0  0  0  0  0
    2.4829   -1.4746    0.0000 C   0  0  0  0  0  0  0  0  0  0  0  0
    3.3282   -2.8330    0.0000 H   0  0  0  0  0  0  0  0  0  0  0  0
    3.8635   -0.6660    0.0000 H   0  0  0  0  0  0  0  0  0  0  0  0
    1.7072   -0.0645    0.0000 C   0  0  0  0  0  0  0  0  0  0  0  0
    3.2968    0.1174    0.0000 H   0  0  0  0  0  0  0  0  0  0  0  0
    2.1205    1.3999    0.0000 C   0  0  0  0  0  0  0  0  0  0  0  0
    3.7053    1.6190    0.0000 H   0  0  0  0  0  0  0  0  0  0  0  0
    1.9184    2.3156    0.0000 H   0  0  0  0  0  0  0  0  0  0  0  0
    0.3466   -1.1466    0.0000 C   0  0  0  0  0  0  0  0  0  0  0  0
   -0.5484   -2.4729    0.0000 H   0  0  0  0  0  0  0  0  0  0  0  0
   -1.2301   -0.8745    0.0000 C   0  0  0  0  0  0  0  0  0  0  0  0
   -0.0000    0.0000    0.0000 C   0  0  0  0  0  0  0  0  0  0  0  0
    0.5378    1.5069    0.0000 C   0  0  0  0  0  0  0  0  0  0  0  0
   -0.4984    2.7261    0.0000 H   0  0  0  0  0  0  0  0  0  0  0  0
    0.8057    3.0843    0.0000 H   0  0  0  0  0  0  0  0  0  0  0  0
    1.0862    2.2675    0.0000 H   0  0  0  0  0  0  0  0  0  0  0  0
   -1.2758    0.9655    0.0000 C   0  0  0  0  0  0  0  0  0  0  0  0
   -2.5517    1.9310    0.0000 H   0  0  0  0  0  0  0  0  0  0  0  0
   -2.7499    0.3434    0.0000 H   0  0  0  0  0  0  0  0  0  0  0  0
   -1.3564    2.5635    0.0000 H   0  0  0  0  0  0  0  0  0  0  0  0
   -2.7904   -1.2291    0.0000 C   0  0  0  0  0  0  0  0  0  0  0  0
   -3.2634   -2.7576    0.0000 H   0  0  0  0  0  0  0  0  0  0  0  0
   -3.8776   -0.0553    0.0000 H   0  0  0  0  0  0  0  0  0  0  0  0
  1  2  1  0  0  0  0
  1  3  1  0  0  0  0
  1  4  1  0  0  0  0
  4  5  1  0  0  0  0
  4  6  1  0  0  0  0
  4  7  1  0  0  0  0
  7  8  1  0  0  0  0
  7  9  1  0  0  0  0
  9 10  1  0  0  0  0
  9 11  1  0  0  0  0
  9 12  1  0  0  0  0
 12  1  1  0  0  0  0
 12 13  1  0  0  0  0
 12 14  1  0  0  0  0
 14 15  1  0  0  0  0
 15  7  1  0  0  0  0
 15 16  1  0  0  0  0
 16 17  1  0  0  0  0
 16 18  1  0  0  0  0
 16 19  1  0  0  0  0
 15 20  1  0  0  0  0
 20 21  1  0  0  0  0
 20 22  1  0  0  0  0
 20 23  1  0  0  0  0
 14 24  2  0  0  0  0
 24 25  1  0  0  0  0
 24 26  1  0  0  0  0
M  END
> <ChemID>
100042

> <source_casrn>
79-92-5

> <CAS>
79-92-5

> <SMILES>
CC1(C)C2CC(CC2)C1=C

> <NAME>
Bicyclo[2.2.1]heptane, 2,2-dimethyl-3-methylene-

> <preferred_name>
Camphene

> <iupac>
C10H16

> <MPID>
101679

> <dsstox_substance_id>
DTXSID8026488

> <Canonical_QSARr>
CC1(C)C2CC(CC2)C1=C

> <InChI_Code_QSARr>
InChI=1S/C10H16/c1-7-8-4-5-9(6-8)10(7,2)3/h8-9H,1,4-6H2,2-3H3

> <InChI Key_QSARr>
CRPUJAZIXJMDBK-UHFFFAOYSA-N

> <LogKmHL>
0.96

$$$$
100043
  -INDIGO-08031722222D

 33 34  0  0  0  0  0  0  0  0999 V2000
    0.0001   -1.6000    0.0000 C   0  0  0  0  0  0  0  0  0  0  0  0
    0.0001   -3.2000    0.0000 H   0  0  0  0  0  0  0  0  0  0  0  0
    1.3857   -2.4000    0.0000 H   0  0  0  0  0  0  0  0  0  0  0  0
   -1.5035   -1.0528    0.0000 H   0  0  0  0  0  0  0  0  0  0  0  0
    0.0001    0.0000    0.0000 C   0  0  0  0  0  0  0  0  0  0  0  0
    1.5757   -0.2778    0.0000 C   0  0  0  0  0  0  0  0  0  0  0  0
    2.6041    0.9479    0.0000 C   0  0  0  0  0  0  0  0  0  0  0  0
    2.0569    2.4513    0.0000 H   0  0  0  0  0  0  0  0  0  0  0  0
    4.1797    0.6700    0.0000 C   0  0  0  0  0  0  0  0  0  0  0  0
    5.2084    1.8957    0.0000 H   0  0  0  0  0  0  0  0  0  0  0  0
    4.7270   -0.8335    0.0000 C   0  0  0  0  0  0  0  0  0  0  0  0
    6.3028   -1.1114    0.0000 O   0  0  0  0  0  0  0  0  0  0  0  0
    7.3312    0.1143    0.0000 H   0  0  0  0  0  0  0  0  0  0  0  0
    3.6986   -2.0591    0.0000 C   0  0  0  0  0  0  0  0  0  0  0  0
    4.2458   -3.5627    0.0000 H   0  0  0  0  0  0  0  0  0  0  0  0
    2.1230   -1.7814    0.0000 C   0  0  0  0  0  0  0  0  0  0  0  0
    1.8451   -3.3571    0.0000 H   0  0  0  0  0  0  0  0  0  0  0  0
   -1.5999    0.0000    0.0000 C   0  0  0  0  0  0  0  0  0  0  0  0
   -2.3999    1.3857    0.0000 C   0  0  0  0  0  0  0  0  0  0  0  0
   -1.5999    2.7713    0.0000 H   0  0  0  0  0  0  0  0  0  0  0  0
   -4.0000    1.3857    0.0000 C   0  0  0  0  0  0  0  0  0  0  0  0
   -4.8000    2.7713    0.0000 H   0  0  0  0  0  0  0  0  0  0  0  0
   -4.8000    0.0000    0.0000 C   0  0  0  0  0  0  0  0  0  0  0  0
   -6.4000    0.0000    0.0000 O   0  0  0  0  0  0  0  0  0  0  0  0
   -7.2000    1.3857    0.0000 H   0  0  0  0  0  0  0  0  0  0  0  0
   -4.0000   -1.3856    0.0000 C   0  0  0  0  0  0  0  0  0  0  0  0
   -4.8000   -2.7713    0.0000 H   0  0  0  0  0  0  0  0  0  0  0  0
   -2.3999   -1.3856    0.0000 C   0  0  0  0  0  0  0  0  0  0  0  0
   -1.5999   -2.7713    0.0000 H   0  0  0  0  0  0  0  0  0  0  0  0
   -0.2777    1.5757    0.0000 C   0  0  0  0  0  0  0  0  0  0  0  0
   -0.5556    3.1514    0.0000 H   0  0  0  0  0  0  0  0  0  0  0  0
    0.9478    2.6042    0.0000 H   0  0  0  0  0  0  0  0  0  0  0  0
    1.2256    1.0284    0.0000 H   0  0  0  0  0  0  0  0  0  0  0  0
  1  2  1  0  0  0  0
  1  3  1  0  0  0  0
  1  4  1  0  0  0  0
  1  5  1  0  0  0  0
  5  6  1  0  0  0  0
  6  7  1  0  0  0  0
  7  8  1  0  0  0  0
  7  9  2  0  0  0  0
  9 10  1  0  0  0  0
  9 11  1  0  0  0  0
 11 12  1  0  0  0  0
 12 13  1  0  0  0  0
 11 14  2  0  0  0  0
 14 15  1  0  0  0  0
 14 16  1  0  0  0  0
 16  6  2  0  0  0  0
 16 17  1  0  0  0  0
  5 18  1  0  0  0  0
 18 19  1  0  0  0  0
 19 20  1  0  0  0  0
 19 21  2  0  0  0  0
 21 22  1  0  0  0  0
 21 23  1  0  0  0  0
 23 24  1  0  0  0  0
 24 25  1  0  0  0  0
 23 26  2  0  0  0  0
 26 27  1  0  0  0  0
 26 28  1  0  0  0  0
 28 18  2  0  0  0  0
 28 29  1  0  0  0  0
  5 30  1  0  0  0  0
 30 31  1  0  0  0  0
 30 32  1  0  0  0  0
 30 33  1  0  0  0  0
M  END
> <ChemID>
100043

> <source_casrn>
80-05-7

> <CAS>
80-05-7

> <SMILES>
Oc(ccc(c1)C(c(ccc(O)c2)c2)(C)C)c1

> <NAME>
Phenol, 4,4 -(1-methylethylidene)bis-

> <preferred_name>
Bisphenol A

> <iupac>
4,4'-propane-2,2-diyldiphenol

> <MPID>
101680

> <dsstox_substance_id>
DTXSID7020182

> <Canonical_QSARr>
CC(C)(c1ccc(O)cc1)c1ccc(O)cc1

> <InChI_Code_QSARr>
InChI=1S/C15H16O2/c1-15(2,11-3-7-13(16)8-4-11)12-5-9-14(17)10-6-12/h3-10,16-17H,1-2H3

> <InChI Key_QSARr>
IISBACLAFKSPIT-UHFFFAOYSA-N

> <LogKmHL>
0.27

$$$$
100044
  -INDIGO-08031722222D

 42 43  0  0  0  0  0  0  0  0999 V2000
    1.5035   -0.5472    0.0000 O   0  0  0  0  0  0  0  0  0  0  0  0
    2.7293    0.4812    0.0000 O   0  0  0  0  0  0  0  0  0  0  0  0
    4.2327   -0.0661    0.0000 C   0  0  0  0  0  0  0  0  0  0  0  0
    5.7363   -0.6132    0.0000 C   0  0  0  0  0  0  0  0  0  0  0  0
    6.2834   -2.1167    0.0000 C   0  0  0  0  0  0  0  0  0  0  0  0
    5.4834   -3.5023    0.0000 H   0  0  0  0  0  0  0  0  0  0  0  0
    7.8592   -2.3946    0.0000 C   0  0  0  0  0  0  0  0  0  0  0  0
    8.4063   -3.8981    0.0000 H   0  0  0  0  0  0  0  0  0  0  0  0
    8.8877   -1.1690    0.0000 C   0  0  0  0  0  0  0  0  0  0  0  0
   10.4633   -1.4467    0.0000 H   0  0  0  0  0  0  0  0  0  0  0  0
    8.3404    0.3346    0.0000 C   0  0  0  0  0  0  0  0  0  0  0  0
    9.3689    1.5602    0.0000 H   0  0  0  0  0  0  0  0  0  0  0  0
    6.7645    0.6125    0.0000 C   0  0  0  0  0  0  0  0  0  0  0  0
    6.2175    2.1160    0.0000 H   0  0  0  0  0  0  0  0  0  0  0  0
    3.6853   -1.5695    0.0000 C   0  0  0  0  0  0  0  0  0  0  0  0
    3.1383   -3.0730    0.0000 H   0  0  0  0  0  0  0  0  0  0  0  0
    4.7138   -2.7952    0.0000 H   0  0  0  0  0  0  0  0  0  0  0  0
    2.1098   -1.8473    0.0000 H   0  0  0  0  0  0  0  0  0  0  0  0
    4.7800    1.4375    0.0000 C   0  0  0  0  0  0  0  0  0  0  0  0
    3.7515    2.6631    0.0000 H   0  0  0  0  0  0  0  0  0  0  0  0
    5.3271    2.9410    0.0000 H   0  0  0  0  0  0  0  0  0  0  0  0
    3.1799    1.4375    0.0000 H   0  0  0  0  0  0  0  0  0  0  0  0
   -0.0001   -0.0000    0.0000 C   0  0  0  0  0  0  0  0  0  0  0  0
   -0.7999   -1.3856    0.0000 C   0  0  0  0  0  0  0  0  0  0  0  0
   -0.0001   -2.7712    0.0000 C   0  0  0  0  0  0  0  0  0  0  0  0
    1.5999   -2.7712    0.0000 H   0  0  0  0  0  0  0  0  0  0  0  0
   -0.7999   -4.1570    0.0000 C   0  0  0  0  0  0  0  0  0  0  0  0
   -0.0001   -5.5426    0.0000 H   0  0  0  0  0  0  0  0  0  0  0  0
   -2.3999   -4.1570    0.0000 C   0  0  0  0  0  0  0  0  0  0  0  0
   -3.2000   -5.5426    0.0000 H   0  0  0  0  0  0  0  0  0  0  0  0
   -3.2000   -2.7712    0.0000 C   0  0  0  0  0  0  0  0  0  0  0  0
   -4.8000   -2.7712    0.0000 H   0  0  0  0  0  0  0  0  0  0  0  0
   -2.3999   -1.3856    0.0000 C   0  0  0  0  0  0  0  0  0  0  0  0
   -3.2000   -0.0000    0.0000 H   0  0  0  0  0  0  0  0  0  0  0  0
    0.5472    1.5035    0.0000 C   0  0  0  0  0  0  0  0  0  0  0  0
    1.0945    3.0070    0.0000 H   0  0  0  0  0  0  0  0  0  0  0  0
    2.1230    1.7814    0.0000 H   0  0  0  0  0  0  0  0  0  0  0  0
   -0.2528    2.8892    0.0000 H   0  0  0  0  0  0  0  0  0  0  0  0
   -1.5035    0.5472    0.0000 C   0  0  0  0  0  0  0  0  0  0  0  0
   -3.0071    1.0945    0.0000 H   0  0  0  0  0  0  0  0  0  0  0  0
   -1.7813    2.1229    0.0000 H   0  0  0  0  0  0  0  0  0  0  0  0
   -0.4750    1.7729    0.0000 H   0  0  0  0  0  0  0  0  0  0  0  0
  1  2  1  0  0  0  0
  2  3  1  0  0  0  0
  3  4  1  0  0  0  0
  4  5  1  0  0  0  0
  5  6  1  0  0  0  0
  5  7  2  0  0  0  0
  7  8  1  0  0  0  0
  7  9  1  0  0  0  0
  9 10  1  0  0  0  0
  9 11  2  0  0  0  0
 11 12  1  0  0  0  0
 11 13  1  0  0  0  0
 13  4  2  0  0  0  0
 13 14  1  0  0  0  0
  3 15  1  0  0  0  0
 15 16  1  0  0  0  0
 15 17  1  0  0  0  0
 15 18  1  0  0  0  0
  3 19  1  0  0  0  0
 19 20  1  0  0  0  0
 19 21  1  0  0  0  0
 19 22  1  0  0  0  0
  1 23  1  0  0  0  0
 23 24  1  0  0  0  0
 24 25  1  0  0  0  0
 25 26  1  0  0  0  0
 25 27  2  0  0  0  0
 27 28  1  0  0  0  0
 27 29  1  0  0  0  0
 29 30  1  0  0  0  0
 29 31  2  0  0  0  0
 31 32  1  0  0  0  0
 31 33  1  0  0  0  0
 33 24  2  0  0  0  0
 33 34  1  0  0  0  0
 23 35  1  0  0  0  0
 35 36  1  0  0  0  0
 35 37  1  0  0  0  0
 35 38  1  0  0  0  0
 23 39  1  0  0  0  0
 39 40  1  0  0  0  0
 39 41  1  0  0  0  0
 39 42  1  0  0  0  0
M  END
> <ChemID>
100044

> <source_casrn>
80-43-3

> <CAS>
80-43-3

> <SMILES>
CC(C)(OOC(C)(C)c1ccccc1)c1ccccc1

> <NAME>
Peroxide, bis(1-methyl-1-phenylethyl)

> <preferred_name>
Dicumyl peroxide

> <iupac>
bis(2-phenylpropan-2-yl) peroxide

> <MPID>
101681

> <dsstox_substance_id>
DTXSID1025017

> <Canonical_QSARr>
CC(C)(OOC(C)(C)c1ccccc1)c1ccccc1

> <InChI_Code_QSARr>
InChI=1S/C18H22O2/c1-17(2,15-11-7-5-8-12-15)19-20-18(3,4)16-13-9-6-10-14-16/h5-14H,1-4H3

> <InChI Key_QSARr>
XMNIXWIUMCBBBL-UHFFFAOYSA-N

> <LogKmHL>
-0.01

$$$$
100047
  -INDIGO-08031722222D

 24 26  0  0  0  0  0  0  0  0999 V2000
    0.0001   -0.0000    0.0000 C   0  0  0  0  0  0  0  0  0  0  0  0
   -1.3856    0.8000    0.0000 C   0  0  0  0  0  0  0  0  0  0  0  0
   -1.3856    2.4000    0.0000 Cl  0  0  0  0  0  0  0  0  0  0  0  0
   -2.7713   -0.0000    0.0000 C   0  0  0  0  0  0  0  0  0  0  0  0
   -4.1569    0.8000    0.0000 H   0  0  0  0  0  0  0  0  0  0  0  0
   -2.7713   -1.6000    0.0000 C   0  0  0  0  0  0  0  0  0  0  0  0
   -4.1569   -2.4000    0.0000 H   0  0  0  0  0  0  0  0  0  0  0  0
   -1.3856   -2.4000    0.0000 C   0  0  0  0  0  0  0  0  0  0  0  0
   -1.3856   -4.0000    0.0000 H   0  0  0  0  0  0  0  0  0  0  0  0
    0.0001   -1.6000    0.0000 C   0  0  0  0  0  0  0  0  0  0  0  0
    1.3857   -2.4000    0.0000 C   0  0  0  0  0  0  0  0  0  0  0  0
    1.3857   -4.0000    0.0000 O   0  0  0  0  0  0  0  0  0  0  0  0
    2.7712   -1.6000    0.0000 C   0  0  0  0  0  0  0  0  0  0  0  0
    2.7712   -0.0000    0.0000 C   0  0  0  0  0  0  0  0  0  0  0  0
    4.1569    0.8000    0.0000 C   0  0  0  0  0  0  0  0  0  0  0  0
    4.1569    2.4000    0.0000 H   0  0  0  0  0  0  0  0  0  0  0  0
    5.5425   -0.0000    0.0000 C   0  0  0  0  0  0  0  0  0  0  0  0
    6.9282    0.8000    0.0000 H   0  0  0  0  0  0  0  0  0  0  0  0
    5.5425   -1.6000    0.0000 C   0  0  0  0  0  0  0  0  0  0  0  0
    6.9282   -2.4000    0.0000 H   0  0  0  0  0  0  0  0  0  0  0  0
    4.1569   -2.4000    0.0000 C   0  0  0  0  0  0  0  0  0  0  0  0
    4.1569   -4.0000    0.0000 H   0  0  0  0  0  0  0  0  0  0  0  0
    1.3857    0.8000    0.0000 C   0  0  0  0  0  0  0  0  0  0  0  0
    1.3856    2.4000    0.0000 O   0  0  0  0  0  0  0  0  0  0  0  0
  1  2  1  0  0  0  0
  2  3  1  0  0  0  0
  2  4  2  0  0  0  0
  4  5  1  0  0  0  0
  4  6  1  0  0  0  0
  6  7  1  0  0  0  0
  6  8  2  0  0  0  0
  8  9  1  0  0  0  0
  8 10  1  0  0  0  0
 10  1  2  0  0  0  0
 10 11  1  0  0  0  0
 11 12  2  0  0  0  0
 11 13  1  0  0  0  0
 13 14  1  0  0  0  0
 14 15  2  0  0  0  0
 15 16  1  0  0  0  0
 15 17  1  0  0  0  0
 17 18  1  0  0  0  0
 17 19  2  0  0  0  0
 19 20  1  0  0  0  0
 19 21  1  0  0  0  0
 21 13  2  0  0  0  0
 21 22  1  0  0  0  0
 14 23  1  0  0  0  0
 23  1  1  0  0  0  0
 23 24  2  0  0  0  0
M  END
> <ChemID>
100047

> <source_casrn>
82-44-0

> <CAS>
82-44-0

> <SMILES>
O=C1c2cccc(Cl)c2C(=O)c2ccccc12

> <NAME>
1-chloroanthraquinone

> <preferred_name>
1-Chloroanthraquinone

> <iupac>
1-chloro-9,10-anthraquinone

> <MPID>
101683

> <dsstox_substance_id>
DTXSID7052571

> <Canonical_QSARr>
O=C1c2cccc(Cl)c2C(=O)c2ccccc12

> <InChI_Code_QSARr>
InChI=1S/C14H7ClO2/c15-11-7-3-6-10-12(11)14(17)9-5-2-1-4-8(9)13(10)16/h1-7H

> <InChI Key_QSARr>
BOCJQSFSGAZAPQ-UHFFFAOYSA-N

> <LogKmHL>
-0.23

$$$$
100048
  -INDIGO-08031722222D

 26 28  0  0  0  0  0  0  0  0999 V2000
    0.0001   -0.0000    0.0000 C   0  0  0  0  0  0  0  0  0  0  0  0
   -1.3856    0.8000    0.0000 C   0  0  0  0  0  0  0  0  0  0  0  0
   -1.3856    2.4000    0.0000 N   0  0  0  0  0  0  0  0  0  0  0  0
   -2.7713    3.2000    0.0000 H   0  0  0  0  0  0  0  0  0  0  0  0
    0.0001    3.2000    0.0000 H   0  0  0  0  0  0  0  0  0  0  0  0
   -2.7713   -0.0000    0.0000 C   0  0  0  0  0  0  0  0  0  0  0  0
   -4.1569    0.8000    0.0000 H   0  0  0  0  0  0  0  0  0  0  0  0
   -2.7713   -1.6000    0.0000 C   0  0  0  0  0  0  0  0  0  0  0  0
   -4.1569   -2.4000    0.0000 H   0  0  0  0  0  0  0  0  0  0  0  0
   -1.3856   -2.4000    0.0000 C   0  0  0  0  0  0  0  0  0  0  0  0
   -1.3856   -4.0000    0.0000 H   0  0  0  0  0  0  0  0  0  0  0  0
    0.0001   -1.6000    0.0000 C   0  0  0  0  0  0  0  0  0  0  0  0
    1.3857   -2.4000    0.0000 C   0  0  0  0  0  0  0  0  0  0  0  0
    1.3857   -4.0000    0.0000 O   0  0  0  0  0  0  0  0  0  0  0  0
    2.7712   -1.6000    0.0000 C   0  0  0  0  0  0  0  0  0  0  0  0
    2.7712   -0.0000    0.0000 C   0  0  0  0  0  0  0  0  0  0  0  0
    4.1569    0.8000    0.0000 C   0  0  0  0  0  0  0  0  0  0  0  0
    4.1569    2.4000    0.0000 H   0  0  0  0  0  0  0  0  0  0  0  0
    5.5425   -0.0000    0.0000 C   0  0  0  0  0  0  0  0  0  0  0  0
    6.9282    0.8000    0.0000 H   0  0  0  0  0  0  0  0  0  0  0  0
    5.5425   -1.6000    0.0000 C   0  0  0  0  0  0  0  0  0  0  0  0
    6.9282   -2.4000    0.0000 H   0  0  0  0  0  0  0  0  0  0  0  0
    4.1569   -2.4000    0.0000 C   0  0  0  0  0  0  0  0  0  0  0  0
    4.1569   -4.0000    0.0000 H   0  0  0  0  0  0  0  0  0  0  0  0
    1.3857    0.8000    0.0000 C   0  0  0  0  0  0  0  0  0  0  0  0
    1.3856    2.4000    0.0000 O   0  0  0  0  0  0  0  0  0  0  0  0
  1  2  1  0  0  0  0
  2  3  1  0  0  0  0
  3  4  1  0  0  0  0
  3  5  1  0  0  0  0
  2  6  2  0  0  0  0
  6  7  1  0  0  0  0
  6  8  1  0  0  0  0
  8  9  1  0  0  0  0
  8 10  2  0  0  0  0
 10 11  1  0  0  0  0
 10 12  1  0  0  0  0
 12  1  2  0  0  0  0
 12 13  1  0  0  0  0
 13 14  2  0  0  0  0
 13 15  1  0  0  0  0
 15 16  1  0  0  0  0
 16 17  2  0  0  0  0
 17 18  1  0  0  0  0
 17 19  1  0  0  0  0
 19 20  1  0  0  0  0
 19 21  2  0  0  0  0
 21 22  1  0  0  0  0
 21 23  1  0  0  0  0
 23 15  2  0  0  0  0
 23 24  1  0  0  0  0
 16 25  1  0  0  0  0
 25  1  1  0  0  0  0
 25 26  2  0  0  0  0
M  END
> <ChemID>
100048

> <source_casrn>
82-45-1

> <CAS>
82-45-1

> <SMILES>
Nc1cccc2c1C(=O)c1ccccc1C2=O

> <NAME>
9,10-Anthracenedione, 1-amino-

> <preferred_name>
1-Aminoanthraquinone

> <iupac>
1-amino-9,10-anthraquinone

> <MPID>
101684

> <dsstox_substance_id>
DTXSID2052572

> <Canonical_QSARr>
Nc1cccc2c1C(=O)c1ccccc1C2=O

> <InChI_Code_QSARr>
InChI=1S/C14H9NO2/c15-11-7-3-6-10-12(11)14(17)9-5-2-1-4-8(9)13(10)16/h1-7H,15H2

> <InChI Key_QSARr>
KHUFHLFHOQVFGB-UHFFFAOYSA-N

> <LogKmHL>
-0.59

$$$$
100049
  -INDIGO-08031722222D

 14 14  0  0  0  0  0  0  0  0999 V2000
    0.0000    2.7713    0.0000 Cl  0  0  0  0  0  0  0  0  0  0  0  0
   -0.8000    1.3856    0.0000 C   0  0  0  0  0  0  0  0  0  0  0  0
    0.0000   -0.0000    0.0000 C   0  0  0  0  0  0  0  0  0  0  0  0
    1.6000   -0.0000    0.0000 N   0  0  0  0  0  0  0  0  0  0  0  0
    2.4000    1.3856    0.0000 O   0  0  0  0  0  0  0  0  0  0  0  0
    2.4000   -1.3856    0.0000 O   0  0  0  0  0  0  0  0  0  0  0  0
   -0.8000   -1.3856    0.0000 C   0  0  0  0  0  0  0  0  0  0  0  0
    0.0000   -2.7713    0.0000 Cl  0  0  0  0  0  0  0  0  0  0  0  0
   -2.4000   -1.3856    0.0000 C   0  0  0  0  0  0  0  0  0  0  0  0
   -3.2000   -2.7713    0.0000 Cl  0  0  0  0  0  0  0  0  0  0  0  0
   -3.2000   -0.0000    0.0000 C   0  0  0  0  0  0  0  0  0  0  0  0
   -4.8000   -0.0000    0.0000 Cl  0  0  0  0  0  0  0  0  0  0  0  0
   -2.4000    1.3856    0.0000 C   0  0  0  0  0  0  0  0  0  0  0  0
   -3.2000    2.7713    0.0000 Cl  0  0  0  0  0  0  0  0  0  0  0  0
  1  2  1  0  0  0  0
  2  3  1  0  0  0  0
  3  4  1  0  0  0  0
  4  5  2  0  0  0  0
  4  6  1  0  0  0  0
  3  7  2  0  0  0  0
  7  8  1  0  0  0  0
  7  9  1  0  0  0  0
  9 10  1  0  0  0  0
  9 11  2  0  0  0  0
 11 12  1  0  0  0  0
 11 13  1  0  0  0  0
 13  2  2  0  0  0  0
 13 14  1  0  0  0  0
M  CHG  2   4   1   6  -1
M  END
> <ChemID>
100049

> <source_casrn>
82-68-8

> <CAS>
82-68-8

> <SMILES>
[O-][N+](=O)c1c(Cl)c(Cl)c(Cl)c(Cl)c1Cl

> <NAME>
Pentachloronitrobenzene

> <preferred_name>
Pentachloronitrobenzene

> <iupac>
1,2,3,4,5-pentachloro-6-nitrobenzene

> <MPID>
101685

> <dsstox_substance_id>
DTXSID2021105

> <Canonical_QSARr>
[O-][N+](=O)c1c(Cl)c(Cl)c(Cl)c(Cl)c1Cl

> <InChI_Code_QSARr>
InChI=1S/C6Cl5NO2/c7-1-2(8)4(10)6(12(13)14)5(11)3(1)9

> <InChI Key_QSARr>
LKPLKUMXSAEKID-UHFFFAOYSA-N

> <LogKmHL>
-0.17

$$$$
100051
  -INDIGO-08031722222D

 32 34  0  0  0  0  0  0  0  0999 V2000
    0.0001   -0.0001    0.0000 C   0  0  0  0  0  0  0  0  0  0  0  0
    1.5999   -0.0001    0.0000 C   0  0  0  0  0  0  0  0  0  0  0  0
    2.6284    1.2256    0.0000 C   0  0  0  0  0  0  0  0  0  0  0  0
    4.2042    0.9479    0.0000 C   0  0  0  0  0  0  0  0  0  0  0  0
    4.7514   -0.5557    0.0000 H   0  0  0  0  0  0  0  0  0  0  0  0
    5.2327    2.1734    0.0000 C   0  0  0  0  0  0  0  0  0  0  0  0
    6.8083    1.8957    0.0000 H   0  0  0  0  0  0  0  0  0  0  0  0
    4.6853    3.6770    0.0000 C   0  0  0  0  0  0  0  0  0  0  0  0
    5.7138    4.9027    0.0000 H   0  0  0  0  0  0  0  0  0  0  0  0
    3.1097    3.9549    0.0000 C   0  0  0  0  0  0  0  0  0  0  0  0
    2.5624    5.4584    0.0000 H   0  0  0  0  0  0  0  0  0  0  0  0
    2.0812    2.7292    0.0000 C   0  0  0  0  0  0  0  0  0  0  0  0
    0.6956    3.5291    0.0000 H   0  0  0  0  0  0  0  0  0  0  0  0
    2.3999   -1.3857    0.0000 C   0  0  0  0  0  0  0  0  0  0  0  0
    3.9999   -1.3857    0.0000 H   0  0  0  0  0  0  0  0  0  0  0  0
    1.5999   -2.7713    0.0000 C   0  0  0  0  0  0  0  0  0  0  0  0
    2.3999   -4.1569    0.0000 H   0  0  0  0  0  0  0  0  0  0  0  0
    0.0001   -2.7713    0.0000 C   0  0  0  0  0  0  0  0  0  0  0  0
   -0.7999   -4.1569    0.0000 H   0  0  0  0  0  0  0  0  0  0  0  0
   -0.7999   -1.3857    0.0000 C   0  0  0  0  0  0  0  0  0  0  0  0
   -2.3999   -1.3857    0.0000 H   0  0  0  0  0  0  0  0  0  0  0  0
   -1.0284    1.2256    0.0000 C   0  0  0  0  0  0  0  0  0  0  0  0
   -2.6042    0.9479    0.0000 C   0  0  0  0  0  0  0  0  0  0  0  0
   -3.1514   -0.5557    0.0000 H   0  0  0  0  0  0  0  0  0  0  0  0
   -3.6327    2.1734    0.0000 C   0  0  0  0  0  0  0  0  0  0  0  0
   -5.2083    1.8957    0.0000 H   0  0  0  0  0  0  0  0  0  0  0  0
   -3.0853    3.6770    0.0000 C   0  0  0  0  0  0  0  0  0  0  0  0
   -4.1138    4.9027    0.0000 H   0  0  0  0  0  0  0  0  0  0  0  0
   -1.5097    3.9549    0.0000 C   0  0  0  0  0  0  0  0  0  0  0  0
   -0.9624    5.4584    0.0000 H   0  0  0  0  0  0  0  0  0  0  0  0
   -0.4812    2.7292    0.0000 C   0  0  0  0  0  0  0  0  0  0  0  0
    1.0944    2.4513    0.0000 H   0  0  0  0  0  0  0  0  0  0  0  0
  1  2  1  0  0  0  0
  2  3  1  0  0  0  0
  3  4  1  0  0  0  0
  4  5  1  0  0  0  0
  4  6  2  0  0  0  0
  6  7  1  0  0  0  0
  6  8  1  0  0  0  0
  8  9  1  0  0  0  0
  8 10  2  0  0  0  0
 10 11  1  0  0  0  0
 10 12  1  0  0  0  0
 12  3  2  0  0  0  0
 12 13  1  0  0  0  0
  2 14  2  0  0  0  0
 14 15  1  0  0  0  0
 14 16  1  0  0  0  0
 16 17  1  0  0  0  0
 16 18  2  0  0  0  0
 18 19  1  0  0  0  0
 18 20  1  0  0  0  0
 20  1  2  0  0  0  0
 20 21  1  0  0  0  0
  1 22  1  0  0  0  0
 22 23  1  0  0  0  0
 23 24  1  0  0  0  0
 23 25  2  0  0  0  0
 25 26  1  0  0  0  0
 25 27  1  0  0  0  0
 27 28  1  0  0  0  0
 27 29  2  0  0  0  0
 29 30  1  0  0  0  0
 29 31  1  0  0  0  0
 31 22  2  0  0  0  0
 31 32  1  0  0  0  0
M  END
> <ChemID>
100051

> <source_casrn>
84-15-1

> <CAS>
84-15-1

> <SMILES>
c1ccccc1-c1ccccc1-c1ccccc1

> <NAME>
o-Terphenyl

> <preferred_name>
o-Terphenyl

> <iupac>
1,1':2',1''-terphenyl

> <MPID>
101687

> <dsstox_substance_id>
DTXSID1049697

> <Canonical_QSARr>
c1ccccc1-c1ccccc1-c1ccccc1

> <InChI_Code_QSARr>
InChI=1S/C18H14/c1-3-9-15(10-4-1)17-13-7-8-14-18(17)16-11-5-2-6-12-16/h1-14H

> <InChI Key_QSARr>
OIAQMFOKAXHPNH-UHFFFAOYSA-N

> <LogKmHL>
0.86

$$$$
100052
  -INDIGO-08031722222D

 42 42  0  0  0  0  0  0  0  0999 V2000
   -4.8000    5.5426    0.0000 C   0  0  0  0  0  0  0  0  0  0  0  0
   -3.9999    6.9282    0.0000 H   0  0  0  0  0  0  0  0  0  0  0  0
   -6.4000    5.5426    0.0000 C   0  0  0  0  0  0  0  0  0  0  0  0
   -7.2001    6.9282    0.0000 H   0  0  0  0  0  0  0  0  0  0  0  0
   -7.2001    4.1569    0.0000 C   0  0  0  0  0  0  0  0  0  0  0  0
   -8.8000    4.1569    0.0000 H   0  0  0  0  0  0  0  0  0  0  0  0
   -6.4000    2.7713    0.0000 C   0  0  0  0  0  0  0  0  0  0  0  0
   -7.2001    1.3856    0.0000 C   0  0  0  0  0  0  0  0  0  0  0  0
   -6.4000   -0.0000    0.0000 O   0  0  0  0  0  0  0  0  0  0  0  0
   -8.8000    1.3856    0.0000 O   0  0  0  0  0  0  0  0  0  0  0  0
   -9.6001   -0.0000    0.0000 C   0  0  0  0  0  0  0  0  0  0  0  0
   -8.3307   -0.9739    0.0000 H   0  0  0  0  0  0  0  0  0  0  0  0
   -9.3912   -1.5864    0.0000 H   0  0  0  0  0  0  0  0  0  0  0  0
  -11.2000   -0.0000    0.0000 C   0  0  0  0  0  0  0  0  0  0  0  0
  -12.4695    0.9741    0.0000 H   0  0  0  0  0  0  0  0  0  0  0  0
  -11.4089    1.5863    0.0000 H   0  0  0  0  0  0  0  0  0  0  0  0
  -12.0001   -1.3856    0.0000 C   0  0  0  0  0  0  0  0  0  0  0  0
  -10.7307   -2.3597    0.0000 H   0  0  0  0  0  0  0  0  0  0  0  0
  -11.7913   -2.9720    0.0000 H   0  0  0  0  0  0  0  0  0  0  0  0
  -13.6001   -1.3856    0.0000 C   0  0  0  0  0  0  0  0  0  0  0  0
  -15.2000   -1.3856    0.0000 H   0  0  0  0  0  0  0  0  0  0  0  0
  -14.3999   -2.7713    0.0000 H   0  0  0  0  0  0  0  0  0  0  0  0
  -14.3999   -0.0000    0.0000 H   0  0  0  0  0  0  0  0  0  0  0  0
   -4.8000    2.7713    0.0000 C   0  0  0  0  0  0  0  0  0  0  0  0
   -3.9999    1.3856    0.0000 C   0  0  0  0  0  0  0  0  0  0  0  0
   -4.8000   -0.0000    0.0000 O   0  0  0  0  0  0  0  0  0  0  0  0
   -2.4000    1.3856    0.0000 O   0  0  0  0  0  0  0  0  0  0  0  0
   -1.5999   -0.0000    0.0000 C   0  0  0  0  0  0  0  0  0  0  0  0
   -1.8088   -1.5864    0.0000 H   0  0  0  0  0  0  0  0  0  0  0  0
   -2.8693   -0.9739    0.0000 H   0  0  0  0  0  0  0  0  0  0  0  0
    0.0000   -0.0000    0.0000 C   0  0  0  0  0  0  0  0  0  0  0  0
    0.2089    1.5863    0.0000 H   0  0  0  0  0  0  0  0  0  0  0  0
    1.2695    0.9741    0.0000 H   0  0  0  0  0  0  0  0  0  0  0  0
    0.8001   -1.3856    0.0000 C   0  0  0  0  0  0  0  0  0  0  0  0
    0.5913   -2.9720    0.0000 H   0  0  0  0  0  0  0  0  0  0  0  0
   -0.4693   -2.3597    0.0000 H   0  0  0  0  0  0  0  0  0  0  0  0
    2.4001   -1.3856    0.0000 C   0  0  0  0  0  0  0  0  0  0  0  0
    4.0000   -1.3856    0.0000 H   0  0  0  0  0  0  0  0  0  0  0  0
    3.1999   -2.7713    0.0000 H   0  0  0  0  0  0  0  0  0  0  0  0
    3.1999   -0.0000    0.0000 H   0  0  0  0  0  0  0  0  0  0  0  0
   -3.9999    4.1569    0.0000 C   0  0  0  0  0  0  0  0  0  0  0  0
   -2.4000    4.1569    0.0000 H   0  0  0  0  0  0  0  0  0  0  0  0
  1  2  1  0  0  0  0
  1  3  1  0  0  0  0
  3  4  1  0  0  0  0
  3  5  2  0  0  0  0
  5  6  1  0  0  0  0
  5  7  1  0  0  0  0
  7  8  1  0  0  0  0
  8  9  2  0  0  0  0
  8 10  1  0  0  0  0
 10 11  1  0  0  0  0
 11 12  1  0  0  0  0
 11 13  1  0  0  0  0
 11 14  1  0  0  0  0
 14 15  1  0  0  0  0
 14 16  1  0  0  0  0
 14 17  1  0  0  0  0
 17 18  1  0  0  0  0
 17 19  1  0  0  0  0
 17 20  1  0  0  0  0
 20 21  1  0  0  0  0
 20 22  1  0  0  0  0
 20 23  1  0  0  0  0
  7 24  2  0  0  0  0
 24 25  1  0  0  0  0
 25 26  2  0  0  0  0
 25 27  1  0  0  0  0
 27 28  1  0  0  0  0
 28 29  1  0  0  0  0
 28 30  1  0  0  0  0
 28 31  1  0  0  0  0
 31 32  1  0  0  0  0
 31 33  1  0  0  0  0
 31 34  1  0  0  0  0
 34 35  1  0  0  0  0
 34 36  1  0  0  0  0
 34 37  1  0  0  0  0
 37 38  1  0  0  0  0
 37 39  1  0  0  0  0
 37 40  1  0  0  0  0
 24 41  1  0  0  0  0
 41  1  2  0  0  0  0
 41 42  1  0  0  0  0
M  END
> <ChemID>
100052

> <source_casrn>
84-74-2

> <CAS>
84-74-2

> <SMILES>
CCCCOC(=O)c1ccccc1C(=O)OCCCC

> <NAME>
1,2-Benzenedicarboxylic acid, dibutyl ester

> <preferred_name>
Dibutyl phthalate

> <iupac>
dibutyl benzene-1,2-dicarboxylate

> <MPID>
101688

> <dsstox_substance_id>
DTXSID2021781

> <Canonical_QSARr>
CCCCOC(=O)c1ccccc1C(=O)OCCCC

> <InChI_Code_QSARr>
InChI=1S/C16H22O4/c1-3-5-11-19-15(17)13-9-7-8-10-14(13)16(18)20-12-6-4-2/h7-10H,3-6,11-12H2,1-2H3

> <InChI Key_QSARr>
DOIRQSBPFJWKBE-UHFFFAOYSA-N

> <LogKmHL>
-0.4

$$$$
100053
  -INDIGO-08031722222D

 24 26  0  0  0  0  0  0  0  0999 V2000
   -0.0001    0.0000    0.0000 C   0  0  0  0  0  0  0  0  0  0  0  0
    1.6001    0.0000    0.0000 C   0  0  0  0  0  0  0  0  0  0  0  0
    2.4001   -1.3856    0.0000 C   0  0  0  0  0  0  0  0  0  0  0  0
    4.0000   -1.3856    0.0000 C   0  0  0  0  0  0  0  0  0  0  0  0
    4.8000   -2.7713    0.0000 H   0  0  0  0  0  0  0  0  0  0  0  0
    4.8000    0.0000    0.0000 C   0  0  0  0  0  0  0  0  0  0  0  0
    6.4000    0.0000    0.0000 H   0  0  0  0  0  0  0  0  0  0  0  0
    4.0000    1.3856    0.0000 C   0  0  0  0  0  0  0  0  0  0  0  0
    4.8000    2.7713    0.0000 H   0  0  0  0  0  0  0  0  0  0  0  0
    2.4001    1.3856    0.0000 C   0  0  0  0  0  0  0  0  0  0  0  0
    1.6001    2.7713    0.0000 H   0  0  0  0  0  0  0  0  0  0  0  0
    1.6001   -2.7713    0.0000 C   0  0  0  0  0  0  0  0  0  0  0  0
    2.4001   -4.1569    0.0000 H   0  0  0  0  0  0  0  0  0  0  0  0
   -0.0001   -2.7713    0.0000 C   0  0  0  0  0  0  0  0  0  0  0  0
   -0.8001   -4.1569    0.0000 H   0  0  0  0  0  0  0  0  0  0  0  0
   -0.8001   -1.3856    0.0000 C   0  0  0  0  0  0  0  0  0  0  0  0
   -2.4000   -1.3856    0.0000 C   0  0  0  0  0  0  0  0  0  0  0  0
   -3.2000   -2.7713    0.0000 H   0  0  0  0  0  0  0  0  0  0  0  0
   -3.2000    0.0000    0.0000 C   0  0  0  0  0  0  0  0  0  0  0  0
   -4.8000    0.0000    0.0000 H   0  0  0  0  0  0  0  0  0  0  0  0
   -2.4000    1.3856    0.0000 C   0  0  0  0  0  0  0  0  0  0  0  0
   -3.2000    2.7713    0.0000 H   0  0  0  0  0  0  0  0  0  0  0  0
   -0.8001    1.3856    0.0000 C   0  0  0  0  0  0  0  0  0  0  0  0
   -0.0001    2.7713    0.0000 H   0  0  0  0  0  0  0  0  0  0  0  0
  1  2  1  0  0  0  0
  2  3  1  0  0  0  0
  3  4  2  0  0  0  0
  4  5  1  0  0  0  0
  4  6  1  0  0  0  0
  6  7  1  0  0  0  0
  6  8  2  0  0  0  0
  8  9  1  0  0  0  0
  8 10  1  0  0  0  0
 10  2  2  0  0  0  0
 10 11  1  0  0  0  0
  3 12  1  0  0  0  0
 12 13  1  0  0  0  0
 12 14  2  0  0  0  0
 14 15  1  0  0  0  0
 14 16  1  0  0  0  0
 16  1  1  0  0  0  0
 16 17  2  0  0  0  0
 17 18  1  0  0  0  0
 17 19  1  0  0  0  0
 19 20  1  0  0  0  0
 19 21  2  0  0  0  0
 21 22  1  0  0  0  0
 21 23  1  0  0  0  0
 23  1  2  0  0  0  0
 23 24  1  0  0  0  0
M  END
> <ChemID>
100053

> <source_casrn>
85-01-8

> <CAS>
85-01-8

> <SMILES>
c1cc2ccccc2c2ccccc21

> <NAME>
Phenanthrene

> <preferred_name>
Phenanthrene

> <iupac>
phenanthrenato

> <MPID>
101689

> <dsstox_substance_id>
DTXSID6024254

> <Canonical_QSARr>
c1cc2ccccc2c2ccccc21

> <InChI_Code_QSARr>
InChI=1S/C14H10/c1-3-7-13-11(5-1)9-10-12-6-2-4-8-14(12)13/h1-10H

> <InChI Key_QSARr>
YNPNZTXNASCQKK-UHFFFAOYSA-N

> <LogKmHL>
0.7

$$$$
100055
  -INDIGO-08031722222D

 43 44  0  0  0  0  0  0  0  0999 V2000
   -4.7999   -2.7713    0.0000 C   0  0  0  0  0  0  0  0  0  0  0  0
   -4.0000   -1.3856    0.0000 C   0  0  0  0  0  0  0  0  0  0  0  0
   -2.3999   -1.3856    0.0000 O   0  0  0  0  0  0  0  0  0  0  0  0
   -1.6001    0.0000    0.0000 C   0  0  0  0  0  0  0  0  0  0  0  0
   -2.8693    0.9739    0.0000 H   0  0  0  0  0  0  0  0  0  0  0  0
   -1.8088    1.5864    0.0000 H   0  0  0  0  0  0  0  0  0  0  0  0
    0.0000    0.0000    0.0000 C   0  0  0  0  0  0  0  0  0  0  0  0
    1.2692   -0.9741    0.0000 H   0  0  0  0  0  0  0  0  0  0  0  0
    0.2087   -1.5863    0.0000 H   0  0  0  0  0  0  0  0  0  0  0  0
    0.7999    1.3856    0.0000 C   0  0  0  0  0  0  0  0  0  0  0  0
   -0.4694    2.3597    0.0000 H   0  0  0  0  0  0  0  0  0  0  0  0
    0.5911    2.9720    0.0000 H   0  0  0  0  0  0  0  0  0  0  0  0
    2.3999    1.3856    0.0000 C   0  0  0  0  0  0  0  0  0  0  0  0
    4.0000    1.3856    0.0000 H   0  0  0  0  0  0  0  0  0  0  0  0
    3.2001    2.7713    0.0000 H   0  0  0  0  0  0  0  0  0  0  0  0
    3.2001    0.0000    0.0000 H   0  0  0  0  0  0  0  0  0  0  0  0
   -4.7999    0.0000    0.0000 O   0  0  0  0  0  0  0  0  0  0  0  0
   -6.3999   -2.7713    0.0000 C   0  0  0  0  0  0  0  0  0  0  0  0
   -7.2001   -1.3856    0.0000 C   0  0  0  0  0  0  0  0  0  0  0  0
   -8.7999   -1.3856    0.0000 O   0  0  0  0  0  0  0  0  0  0  0  0
   -9.6001    0.0000    0.0000 C   0  0  0  0  0  0  0  0  0  0  0  0
   -9.3910    1.5864    0.0000 H   0  0  0  0  0  0  0  0  0  0  0  0
   -8.3305    0.9739    0.0000 H   0  0  0  0  0  0  0  0  0  0  0  0
  -11.2001    0.0000    0.0000 C   0  0  0  0  0  0  0  0  0  0  0  0
  -12.0000    1.3856    0.0000 C   0  0  0  0  0  0  0  0  0  0  0  0
  -11.2001    2.7713    0.0000 H   0  0  0  0  0  0  0  0  0  0  0  0
  -13.6001    1.3856    0.0000 C   0  0  0  0  0  0  0  0  0  0  0  0
  -14.3999    2.7713    0.0000 H   0  0  0  0  0  0  0  0  0  0  0  0
  -14.3999    0.0000    0.0000 C   0  0  0  0  0  0  0  0  0  0  0  0
  -16.0000    0.0000    0.0000 H   0  0  0  0  0  0  0  0  0  0  0  0
  -13.6001   -1.3856    0.0000 C   0  0  0  0  0  0  0  0  0  0  0  0
  -14.3999   -2.7713    0.0000 H   0  0  0  0  0  0  0  0  0  0  0  0
  -12.0000   -1.3856    0.0000 C   0  0  0  0  0  0  0  0  0  0  0  0
  -11.2001   -2.7713    0.0000 H   0  0  0  0  0  0  0  0  0  0  0  0
   -6.3999    0.0000    0.0000 O   0  0  0  0  0  0  0  0  0  0  0  0
   -7.2001   -4.1569    0.0000 C   0  0  0  0  0  0  0  0  0  0  0  0
   -8.7999   -4.1569    0.0000 H   0  0  0  0  0  0  0  0  0  0  0  0
   -6.3999   -5.5426    0.0000 C   0  0  0  0  0  0  0  0  0  0  0  0
   -7.2001   -6.9282    0.0000 H   0  0  0  0  0  0  0  0  0  0  0  0
   -4.7999   -5.5426    0.0000 C   0  0  0  0  0  0  0  0  0  0  0  0
   -4.0000   -6.9282    0.0000 H   0  0  0  0  0  0  0  0  0  0  0  0
   -4.0000   -4.1569    0.0000 C   0  0  0  0  0  0  0  0  0  0  0  0
   -2.3999   -4.1569    0.0000 H   0  0  0  0  0  0  0  0  0  0  0  0
  1  2  1  0  0  0  0
  2  3  1  0  0  0  0
  3  4  1  0  0  0  0
  4  5  1  0  0  0  0
  4  6  1  0  0  0  0
  4  7  1  0  0  0  0
  7  8  1  0  0  0  0
  7  9  1  0  0  0  0
  7 10  1  0  0  0  0
 10 11  1  0  0  0  0
 10 12  1  0  0  0  0
 10 13  1  0  0  0  0
 13 14  1  0  0  0  0
 13 15  1  0  0  0  0
 13 16  1  0  0  0  0
  2 17  2  0  0  0  0
  1 18  1  0  0  0  0
 18 19  1  0  0  0  0
 19 20  1  0  0  0  0
 20 21  1  0  0  0  0
 21 22  1  0  0  0  0
 21 23  1  0  0  0  0
 21 24  1  0  0  0  0
 24 25  1  0  0  0  0
 25 26  1  0  0  0  0
 25 27  2  0  0  0  0
 27 28  1  0  0  0  0
 27 29  1  0  0  0  0
 29 30  1  0  0  0  0
 29 31  2  0  0  0  0
 31 32  1  0  0  0  0
 31 33  1  0  0  0  0
 33 24  2  0  0  0  0
 33 34  1  0  0  0  0
 19 35  2  0  0  0  0
 18 36  2  0  0  0  0
 36 37  1  0  0  0  0
 36 38  1  0  0  0  0
 38 39  1  0  0  0  0
 38 40  2  0  0  0  0
 40 41  1  0  0  0  0
 40 42  1  0  0  0  0
 42  1  2  0  0  0  0
 42 43  1  0  0  0  0
M  END
> <ChemID>
100055

> <source_casrn>
85-68-7

> <CAS>
85-68-7

> <SMILES>
O=C(OCc(cccc1)c1)c(c(ccc2)C(=O)OCCCC)c2

> <NAME>
1,2-Benzenedicarboxylic acid, butyl phenylmethyl

> <preferred_name>
Butyl benzyl phthalate

> <iupac>
benzyl butyl benzene-1,2-dicarboxylate

> <MPID>
101691

> <dsstox_substance_id>
DTXSID3020205

> <Canonical_QSARr>
CCCCOC(=O)c1ccccc1C(=O)OCc1ccccc1

> <InChI_Code_QSARr>
InChI=1S/C19H20O4/c1-2-3-13-22-18(20)16-11-7-8-12-17(16)19(21)23-14-15-9-5-4-6-10-15/h4-12H,2-3,13-14H2,1H3

> <InChI Key_QSARr>
IRIAEXORFWYRCZ-UHFFFAOYSA-N

> <LogKmHL>
-1.03

$$$$
100056
  -INDIGO-08031722222D

 25 26  0  0  0  0  0  0  0  0999 V2000
    1.8669    3.5292    0.0000 O   0  0  0  0  0  0  0  0  0  0  0  0
    0.8384    2.3036    0.0000 N   0  0  0  0  0  0  0  0  0  0  0  0
    1.3857    0.8000    0.0000 N   0  0  0  0  0  0  0  0  0  0  0  0
    2.9613    0.5222    0.0000 C   0  0  0  0  0  0  0  0  0  0  0  0
    3.5086   -0.9813    0.0000 C   0  0  0  0  0  0  0  0  0  0  0  0
    2.4802   -2.2071    0.0000 H   0  0  0  0  0  0  0  0  0  0  0  0
    5.0842   -1.2592    0.0000 C   0  0  0  0  0  0  0  0  0  0  0  0
    5.6315   -2.7627    0.0000 H   0  0  0  0  0  0  0  0  0  0  0  0
    6.1126   -0.0335    0.0000 C   0  0  0  0  0  0  0  0  0  0  0  0
    7.6884   -0.3113    0.0000 H   0  0  0  0  0  0  0  0  0  0  0  0
    5.5655    1.4700    0.0000 C   0  0  0  0  0  0  0  0  0  0  0  0
    6.5940    2.6957    0.0000 H   0  0  0  0  0  0  0  0  0  0  0  0
    3.9898    1.7478    0.0000 C   0  0  0  0  0  0  0  0  0  0  0  0
    3.4426    3.2514    0.0000 H   0  0  0  0  0  0  0  0  0  0  0  0
   -0.0001    0.0001    0.0000 C   0  0  0  0  0  0  0  0  0  0  0  0
   -0.0001   -1.6000    0.0000 C   0  0  0  0  0  0  0  0  0  0  0  0
    1.3857   -2.4000    0.0000 H   0  0  0  0  0  0  0  0  0  0  0  0
   -1.3857   -2.4000    0.0000 C   0  0  0  0  0  0  0  0  0  0  0  0
   -1.3857   -4.0000    0.0000 H   0  0  0  0  0  0  0  0  0  0  0  0
   -2.7713   -1.6000    0.0000 C   0  0  0  0  0  0  0  0  0  0  0  0
   -4.1569   -2.4000    0.0000 H   0  0  0  0  0  0  0  0  0  0  0  0
   -2.7713    0.0001    0.0000 C   0  0  0  0  0  0  0  0  0  0  0  0
   -4.1569    0.8000    0.0000 H   0  0  0  0  0  0  0  0  0  0  0  0
   -1.3857    0.8000    0.0000 C   0  0  0  0  0  0  0  0  0  0  0  0
   -1.3857    2.3999    0.0000 H   0  0  0  0  0  0  0  0  0  0  0  0
  1  2  2  0  0  0  0
  2  3  1  0  0  0  0
  3  4  1  0  0  0  0
  4  5  1  0  0  0  0
  5  6  1  0  0  0  0
  5  7  2  0  0  0  0
  7  8  1  0  0  0  0
  7  9  1  0  0  0  0
  9 10  1  0  0  0  0
  9 11  2  0  0  0  0
 11 12  1  0  0  0  0
 11 13  1  0  0  0  0
 13  4  2  0  0  0  0
 13 14  1  0  0  0  0
  3 15  1  0  0  0  0
 15 16  1  0  0  0  0
 16 17  1  0  0  0  0
 16 18  2  0  0  0  0
 18 19  1  0  0  0  0
 18 20  1  0  0  0  0
 20 21  1  0  0  0  0
 20 22  2  0  0  0  0
 22 23  1  0  0  0  0
 22 24  1  0  0  0  0
 24 15  2  0  0  0  0
 24 25  1  0  0  0  0
M  END
> <ChemID>
100056

> <source_casrn>
86-30-6

> <CAS>
86-30-6

> <SMILES>
O=NN(c1ccccc1)c1ccccc1

> <NAME>
Benzenamine, N-nitroso-N-phenyl-

> <preferred_name>
N-Nitrosodiphenylamine

> <iupac>
N-nitroso-N-phenylaniline

> <MPID>
101692

> <dsstox_substance_id>
DTXSID6021030

> <Canonical_QSARr>
O=NN(c1ccccc1)c1ccccc1

> <InChI_Code_QSARr>
InChI=1S/C12H10N2O/c15-13-14(11-7-3-1-4-8-11)12-9-5-2-6-10-12/h1-10H

> <InChI Key_QSARr>
UBUCNCOMADRQHX-UHFFFAOYSA-N

> <LogKmHL>
-0.91

$$$$
100057
  -INDIGO-08031722222D

 23 25  0  0  0  0  0  0  0  0999 V2000
   -0.2706   -2.5747    0.0000 C   0  0  0  0  0  0  0  0  0  0  0  0
    1.2945   -2.2420    0.0000 C   0  0  0  0  0  0  0  0  0  0  0  0
    1.4616   -0.6508    0.0000 C   0  0  0  0  0  0  0  0  0  0  0  0
    2.9233    0.0000    0.0000 C   0  0  0  0  0  0  0  0  0  0  0  0
    3.0906    1.5912    0.0000 H   0  0  0  0  0  0  0  0  0  0  0  0
    4.2177   -0.9405    0.0000 C   0  0  0  0  0  0  0  0  0  0  0  0
    5.6794   -0.2897    0.0000 H   0  0  0  0  0  0  0  0  0  0  0  0
    4.0506   -2.5317    0.0000 C   0  0  0  0  0  0  0  0  0  0  0  0
    5.3450   -3.4721    0.0000 H   0  0  0  0  0  0  0  0  0  0  0  0
    2.5889   -3.1825    0.0000 C   0  0  0  0  0  0  0  0  0  0  0  0
    2.4215   -4.7737    0.0000 H   0  0  0  0  0  0  0  0  0  0  0  0
    0.0001    0.0000    0.0000 C   0  0  0  0  0  0  0  0  0  0  0  0
    0.8001    1.3857    0.0000 H   0  0  0  0  0  0  0  0  0  0  0  0
   -1.2944    0.9404    0.0000 H   0  0  0  0  0  0  0  0  0  0  0  0
   -1.0706   -1.1890    0.0000 C   0  0  0  0  0  0  0  0  0  0  0  0
   -2.6706   -1.1890    0.0000 C   0  0  0  0  0  0  0  0  0  0  0  0
   -3.4706    0.1966    0.0000 H   0  0  0  0  0  0  0  0  0  0  0  0
   -3.4706   -2.5747    0.0000 C   0  0  0  0  0  0  0  0  0  0  0  0
   -5.0706   -2.5747    0.0000 H   0  0  0  0  0  0  0  0  0  0  0  0
   -2.6706   -3.9603    0.0000 C   0  0  0  0  0  0  0  0  0  0  0  0
   -3.4706   -5.3460    0.0000 H   0  0  0  0  0  0  0  0  0  0  0  0
   -1.0706   -3.9603    0.0000 C   0  0  0  0  0  0  0  0  0  0  0  0
   -0.2706   -5.3460    0.0000 H   0  0  0  0  0  0  0  0  0  0  0  0
  1  2  1  0  0  0  0
  2  3  1  0  0  0  0
  3  4  2  0  0  0  0
  4  5  1  0  0  0  0
  4  6  1  0  0  0  0
  6  7  1  0  0  0  0
  6  8  2  0  0  0  0
  8  9  1  0  0  0  0
  8 10  1  0  0  0  0
 10  2  2  0  0  0  0
 10 11  1  0  0  0  0
  3 12  1  0  0  0  0
 12 13  1  0  0  0  0
 12 14  1  0  0  0  0
 12 15  1  0  0  0  0
 15  1  1  0  0  0  0
 15 16  2  0  0  0  0
 16 17  1  0  0  0  0
 16 18  1  0  0  0  0
 18 19  1  0  0  0  0
 18 20  2  0  0  0  0
 20 21  1  0  0  0  0
 20 22  1  0  0  0  0
 22  1  2  0  0  0  0
 22 23  1  0  0  0  0
M  END
> <ChemID>
100057

> <source_casrn>
86-73-7

> <CAS>
86-73-7

> <SMILES>
C1c2ccccc2-c2ccccc21

> <NAME>
9H-fluorene

> <preferred_name>
Fluorene

> <iupac>
9H-fluorene

> <MPID>
101693

> <dsstox_substance_id>
DTXSID8024105

> <Canonical_QSARr>
C1c2ccccc2-c2ccccc21

> <InChI_Code_QSARr>
InChI=1S/C13H10/c1-3-7-12-10(5-1)9-11-6-2-4-8-13(11)12/h1-8H,9H2

> <InChI Key_QSARr>
NIHNNTQXNPWCJQ-UHFFFAOYSA-N

> <LogKmHL>
0.7

$$$$
100059
  -INDIGO-08031722222D

 12 12  0  0  0  0  0  0  0  0999 V2000
    0.8000    1.3856    0.0000 Cl  0  0  0  0  0  0  0  0  0  0  0  0
   -0.0000   -0.0000    0.0000 C   0  0  0  0  0  0  0  0  0  0  0  0
    0.8000   -1.3857    0.0000 C   0  0  0  0  0  0  0  0  0  0  0  0
    2.4000   -1.3857    0.0000 Cl  0  0  0  0  0  0  0  0  0  0  0  0
   -0.0000   -2.7713    0.0000 C   0  0  0  0  0  0  0  0  0  0  0  0
    0.8000   -4.1569    0.0000 H   0  0  0  0  0  0  0  0  0  0  0  0
   -1.6000   -2.7713    0.0000 C   0  0  0  0  0  0  0  0  0  0  0  0
   -2.4000   -4.1569    0.0000 H   0  0  0  0  0  0  0  0  0  0  0  0
   -2.4000   -1.3856    0.0000 C   0  0  0  0  0  0  0  0  0  0  0  0
   -4.0000   -1.3856    0.0000 H   0  0  0  0  0  0  0  0  0  0  0  0
   -1.6000   -0.0000    0.0000 C   0  0  0  0  0  0  0  0  0  0  0  0
   -2.4000    1.3856    0.0000 Cl  0  0  0  0  0  0  0  0  0  0  0  0
  1  2  1  0  0  0  0
  2  3  1  0  0  0  0
  3  4  1  0  0  0  0
  3  5  2  0  0  0  0
  5  6  1  0  0  0  0
  5  7  1  0  0  0  0
  7  8  1  0  0  0  0
  7  9  2  0  0  0  0
  9 10  1  0  0  0  0
  9 11  1  0  0  0  0
 11  2  2  0  0  0  0
 11 12  1  0  0  0  0
M  END
> <ChemID>
100059

> <source_casrn>
87-61-6

> <CAS>
87-61-6

> <SMILES>
Clc1c(Cl)cccc1Cl

> <NAME>
Benzene, 1,2,3-trichloro-

> <preferred_name>
1,2,3-Trichlorobenzene

> <iupac>
C6H3Cl3

> <MPID>
101695

> <dsstox_substance_id>
DTXSID8026193

> <Canonical_QSARr>
Clc1c(Cl)cccc1Cl

> <InChI_Code_QSARr>
InChI=1S/C6H3Cl3/c7-4-2-1-3-5(8)6(4)9/h1-3H

> <InChI Key_QSARr>
RELMFMZEBKVZJC-UHFFFAOYSA-N

> <LogKmHL>
0.92

$$$$
100060
  -INDIGO-08031722222D

 10  9  0  0  0  0  0  0  0  0999 V2000
    0.0000    1.6000    0.0000 Cl  0  0  0  0  0  0  0  0  0  0  0  0
    0.0000    0.0000    0.0000 C   0  0  0  0  0  0  0  0  0  0  0  0
    1.3856   -0.8000    0.0000 C   0  0  0  0  0  0  0  0  0  0  0  0
    2.7713    0.0000    0.0000 Cl  0  0  0  0  0  0  0  0  0  0  0  0
    1.3856   -2.4000    0.0000 Cl  0  0  0  0  0  0  0  0  0  0  0  0
   -1.3856   -0.8000    0.0000 C   0  0  0  0  0  0  0  0  0  0  0  0
   -2.7713    0.0000    0.0000 C   0  0  0  0  0  0  0  0  0  0  0  0
   -4.1569   -0.8000    0.0000 Cl  0  0  0  0  0  0  0  0  0  0  0  0
   -2.7713    1.6000    0.0000 Cl  0  0  0  0  0  0  0  0  0  0  0  0
   -1.3856   -2.4000    0.0000 Cl  0  0  0  0  0  0  0  0  0  0  0  0
  1  2  1  0  0  0  0
  2  3  2  0  0  0  0
  3  4  1  0  0  0  0
  3  5  1  0  0  0  0
  2  6  1  0  0  0  0
  6  7  2  0  0  0  0
  7  8  1  0  0  0  0
  7  9  1  0  0  0  0
  6 10  1  0  0  0  0
M  END
> <ChemID>
100060

> <source_casrn>
87-68-3

> <CAS>
87-68-3

> <SMILES>
ClC(Cl)=C(Cl)C(Cl)=C(Cl)Cl

> <NAME>
1,3-Butadiene, 1,1,2,3,4,4-hexachloro-

> <preferred_name>
Hexachloro-1,3-butadiene

> <iupac>
1,1,2,3,4,4-hexachlorobuta-1,3-diene

> <MPID>
101696

> <dsstox_substance_id>
DTXSID7020683

> <Canonical_QSARr>
ClC(Cl)=C(Cl)C(Cl)=C(Cl)Cl

> <InChI_Code_QSARr>
InChI=1S/C4Cl6/c5-1(3(7)8)2(6)4(9)10

> <InChI Key_QSARr>
RWNKSTSCBHKHTB-UHFFFAOYSA-N

> <LogKmHL>
2.07

$$$$
100061
  -INDIGO-08031722222D

 12 12  0  0  0  0  0  0  0  0999 V2000
    0.8000    1.3856    0.0000 Br  0  0  0  0  0  0  0  0  0  0  0  0
   -0.0000   -0.0000    0.0000 C   0  0  0  0  0  0  0  0  0  0  0  0
    0.8000   -1.3857    0.0000 C   0  0  0  0  0  0  0  0  0  0  0  0
    2.4000   -1.3857    0.0000 Br  0  0  0  0  0  0  0  0  0  0  0  0
   -0.0000   -2.7713    0.0000 C   0  0  0  0  0  0  0  0  0  0  0  0
    0.8000   -4.1569    0.0000 Br  0  0  0  0  0  0  0  0  0  0  0  0
   -1.6000   -2.7713    0.0000 C   0  0  0  0  0  0  0  0  0  0  0  0
   -2.4000   -4.1569    0.0000 Br  0  0  0  0  0  0  0  0  0  0  0  0
   -2.4000   -1.3856    0.0000 C   0  0  0  0  0  0  0  0  0  0  0  0
   -4.0000   -1.3856    0.0000 Br  0  0  0  0  0  0  0  0  0  0  0  0
   -1.6000   -0.0000    0.0000 C   0  0  0  0  0  0  0  0  0  0  0  0
   -2.4000    1.3856    0.0000 Br  0  0  0  0  0  0  0  0  0  0  0  0
  1  2  1  0  0  0  0
  2  3  1  0  0  0  0
  3  4  1  0  0  0  0
  3  5  2  0  0  0  0
  5  6  1  0  0  0  0
  5  7  1  0  0  0  0
  7  8  1  0  0  0  0
  7  9  2  0  0  0  0
  9 10  1  0  0  0  0
  9 11  1  0  0  0  0
 11  2  2  0  0  0  0
 11 12  1  0  0  0  0
M  END
> <ChemID>
100061

> <source_casrn>
87-82-1

> <CAS>
87-82-1

> <SMILES>
Brc1c(Br)c(Br)c(Br)c(Br)c1Br

> <NAME>
Hexabromobenzene

> <preferred_name>
Hexabromobenzene

> <iupac>
hexabromobenzene

> <MPID>
101697

> <dsstox_substance_id>
DTXSID1024128

> <Canonical_QSARr>
Brc1c(Br)c(Br)c(Br)c(Br)c1Br

> <InChI_Code_QSARr>
InChI=1S/C6Br6/c7-1-2(8)4(10)6(12)5(11)3(1)9

> <InChI Key_QSARr>
CAYGQBVSOZLICD-UHFFFAOYSA-N

> <LogKmHL>
0.43

$$$$
100063
  -INDIGO-08031722222D

 18 18  0  0  0  0  0  0  0  0999 V2000
    0.5472    1.5035    0.0000 Br  0  0  0  0  0  0  0  0  0  0  0  0
    0.0000    0.0000    0.0000 C   0  0  0  0  0  0  0  0  0  0  0  0
    1.5757   -0.2778    0.0000 H   0  0  0  0  0  0  0  0  0  0  0  0
   -1.3856    0.8000    0.0000 C   0  0  0  0  0  0  0  0  0  0  0  0
   -0.3571    2.0257    0.0000 H   0  0  0  0  0  0  0  0  0  0  0  0
   -2.4141    2.0257    0.0000 Br  0  0  0  0  0  0  0  0  0  0  0  0
   -2.7713    0.0000    0.0000 C   0  0  0  0  0  0  0  0  0  0  0  0
   -3.3185    1.5035    0.0000 H   0  0  0  0  0  0  0  0  0  0  0  0
   -4.3470   -0.2778    0.0000 Br  0  0  0  0  0  0  0  0  0  0  0  0
   -2.7713   -1.6000    0.0000 C   0  0  0  0  0  0  0  0  0  0  0  0
   -4.3470   -1.3222    0.0000 H   0  0  0  0  0  0  0  0  0  0  0  0
   -3.3185   -3.1035    0.0000 Cl  0  0  0  0  0  0  0  0  0  0  0  0
   -1.3856   -2.4000    0.0000 C   0  0  0  0  0  0  0  0  0  0  0  0
   -2.4141   -3.6257    0.0000 H   0  0  0  0  0  0  0  0  0  0  0  0
   -0.3571   -3.6257    0.0000 Br  0  0  0  0  0  0  0  0  0  0  0  0
    0.0000   -1.6000    0.0000 C   0  0  0  0  0  0  0  0  0  0  0  0
    0.5472   -3.1035    0.0000 H   0  0  0  0  0  0  0  0  0  0  0  0
    1.5757   -1.3222    0.0000 Br  0  0  0  0  0  0  0  0  0  0  0  0
  1  2  1  0  0  0  0
  2  3  1  0  0  0  0
  2  4  1  0  0  0  0
  4  5  1  0  0  0  0
  4  6  1  0  0  0  0
  4  7  1  0  0  0  0
  7  8  1  0  0  0  0
  7  9  1  0  0  0  0
  7 10  1  0  0  0  0
 10 11  1  0  0  0  0
 10 12  1  0  0  0  0
 10 13  1  0  0  0  0
 13 14  1  0  0  0  0
 13 15  1  0  0  0  0
 13 16  1  0  0  0  0
 16  2  1  0  0  0  0
 16 17  1  0  0  0  0
 16 18  1  0  0  0  0
M  END
> <ChemID>
100063

> <source_casrn>
87-84-3

> <CAS>
87-84-3

> <SMILES>
ClC1C(Br)C(Br)C(Br)C(Br)C1Br

> <NAME>
Cyclohexane, 1,2,3,4,5-pentabromo-6-chloro-

> <preferred_name>
Pentabromochlorocyclohexane

> <iupac>
1,2,3,4,5-pentabromo-6-chlorocyclohexane

> <MPID>
101699

> <dsstox_substance_id>
DTXSID4025828

> <Canonical_QSARr>
ClC1C(Br)C(Br)C(Br)C(Br)C1Br

> <InChI_Code_QSARr>
InChI=1S/C6H6Br5Cl/c7-1-2(8)4(10)6(12)5(11)3(1)9/h1-6H

> <InChI Key_QSARr>
UZOSVZSBPTTWIG-UHFFFAOYSA-N

> <LogKmHL>
-0.31

$$$$
100064
  -INDIGO-08031722222D

 13 13  0  0  0  0  0  0  0  0999 V2000
    0.8000    1.3856    0.0000 O   0  0  0  0  0  0  0  0  0  0  0  0
    2.4000    1.3856    0.0000 H   0  0  0  0  0  0  0  0  0  0  0  0
   -0.0000   -0.0000    0.0000 C   0  0  0  0  0  0  0  0  0  0  0  0
    0.8000   -1.3857    0.0000 C   0  0  0  0  0  0  0  0  0  0  0  0
    2.4000   -1.3857    0.0000 Cl  0  0  0  0  0  0  0  0  0  0  0  0
   -0.0000   -2.7713    0.0000 C   0  0  0  0  0  0  0  0  0  0  0  0
    0.8000   -4.1569    0.0000 Cl  0  0  0  0  0  0  0  0  0  0  0  0
   -1.6000   -2.7713    0.0000 C   0  0  0  0  0  0  0  0  0  0  0  0
   -2.4000   -4.1569    0.0000 Cl  0  0  0  0  0  0  0  0  0  0  0  0
   -2.4000   -1.3856    0.0000 C   0  0  0  0  0  0  0  0  0  0  0  0
   -4.0000   -1.3856    0.0000 Cl  0  0  0  0  0  0  0  0  0  0  0  0
   -1.6000   -0.0000    0.0000 C   0  0  0  0  0  0  0  0  0  0  0  0
   -2.4000    1.3856    0.0000 Cl  0  0  0  0  0  0  0  0  0  0  0  0
  1  2  1  0  0  0  0
  1  3  1  0  0  0  0
  3  4  1  0  0  0  0
  4  5  1  0  0  0  0
  4  6  2  0  0  0  0
  6  7  1  0  0  0  0
  6  8  1  0  0  0  0
  8  9  1  0  0  0  0
  8 10  2  0  0  0  0
 10 11  1  0  0  0  0
 10 12  1  0  0  0  0
 12  3  2  0  0  0  0
 12 13  1  0  0  0  0
M  END
> <ChemID>
100064

> <source_casrn>
87-86-5

> <CAS>
87-86-5

> <SMILES>
Oc1c(Cl)c(Cl)c(Cl)c(Cl)c1Cl

> <NAME>
Phenol, pentachloro-

> <preferred_name>
Pentachlorophenol

> <iupac>
pentachlorophenol

> <MPID>
101700

> <dsstox_substance_id>
DTXSID7021106

> <Canonical_QSARr>
Oc1c(Cl)c(Cl)c(Cl)c(Cl)c1Cl

> <InChI_Code_QSARr>
InChI=1S/C6HCl5O/c7-1-2(8)4(10)6(12)5(11)3(1)9/h12H

> <InChI Key_QSARr>
IZUPBVBPLAPZRR-UHFFFAOYSA-N

> <LogKmHL>
-0.2

$$$$
100065
  -INDIGO-08031722222D

 13 13  0  0  0  0  0  0  0  0999 V2000
    0.8000    1.3856    0.0000 O   0  0  0  0  0  0  0  0  0  0  0  0
    2.4000    1.3856    0.0000 H   0  0  0  0  0  0  0  0  0  0  0  0
   -0.0000   -0.0000    0.0000 C   0  0  0  0  0  0  0  0  0  0  0  0
    0.8000   -1.3857    0.0000 C   0  0  0  0  0  0  0  0  0  0  0  0
    2.4000   -1.3857    0.0000 Cl  0  0  0  0  0  0  0  0  0  0  0  0
   -0.0000   -2.7713    0.0000 C   0  0  0  0  0  0  0  0  0  0  0  0
    0.8000   -4.1569    0.0000 H   0  0  0  0  0  0  0  0  0  0  0  0
   -1.6000   -2.7713    0.0000 C   0  0  0  0  0  0  0  0  0  0  0  0
   -2.4000   -4.1569    0.0000 Cl  0  0  0  0  0  0  0  0  0  0  0  0
   -2.4000   -1.3856    0.0000 C   0  0  0  0  0  0  0  0  0  0  0  0
   -4.0000   -1.3856    0.0000 H   0  0  0  0  0  0  0  0  0  0  0  0
   -1.6000   -0.0000    0.0000 C   0  0  0  0  0  0  0  0  0  0  0  0
   -2.4000    1.3856    0.0000 Cl  0  0  0  0  0  0  0  0  0  0  0  0
  1  2  1  0  0  0  0
  1  3  1  0  0  0  0
  3  4  1  0  0  0  0
  4  5  1  0  0  0  0
  4  6  2  0  0  0  0
  6  7  1  0  0  0  0
  6  8  1  0  0  0  0
  8  9  1  0  0  0  0
  8 10  2  0  0  0  0
 10 11  1  0  0  0  0
 10 12  1  0  0  0  0
 12  3  2  0  0  0  0
 12 13  1  0  0  0  0
M  END
> <ChemID>
100065

> <source_casrn>
88-06-2

> <CAS>
88-06-2

> <SMILES>
Oc1c(Cl)cc(Cl)cc1Cl

> <NAME>
2,4,6-trichlorophenol

> <preferred_name>
2,4,6-Trichlorophenol

> <iupac>
C6H3Cl3O

> <MPID>
101701

> <dsstox_substance_id>
DTXSID5021386

> <Canonical_QSARr>
Oc1c(Cl)cc(Cl)cc1Cl

> <InChI_Code_QSARr>
InChI=1S/C6H3Cl3O/c7-3-1-4(8)6(10)5(9)2-3/h1-2,10H

> <InChI Key_QSARr>
LINPIYWFGCPVIE-UHFFFAOYSA-N

> <LogKmHL>
-0.57

$$$$
100067
  -INDIGO-08031722222D

 17 17  0  0  0  0  0  0  0  0999 V2000
    1.3856    2.4000    0.0000 N   0  0  0  0  0  0  0  0  0  0  0  0
    1.3856    4.0000    0.0000 O   0  0  0  0  0  0  0  0  0  0  0  0
    2.7713    1.6000    0.0000 O   0  0  0  0  0  0  0  0  0  0  0  0
    0.0000    1.6000    0.0000 C   0  0  0  0  0  0  0  0  0  0  0  0
   -1.3856    2.4000    0.0000 C   0  0  0  0  0  0  0  0  0  0  0  0
   -1.3856    4.0000    0.0000 H   0  0  0  0  0  0  0  0  0  0  0  0
   -2.7713    1.6000    0.0000 C   0  0  0  0  0  0  0  0  0  0  0  0
   -4.1569    2.4000    0.0000 H   0  0  0  0  0  0  0  0  0  0  0  0
   -2.7713    0.0000    0.0000 C   0  0  0  0  0  0  0  0  0  0  0  0
   -4.1569   -0.8000    0.0000 H   0  0  0  0  0  0  0  0  0  0  0  0
   -1.3856   -0.8000    0.0000 C   0  0  0  0  0  0  0  0  0  0  0  0
   -1.3856   -2.4000    0.0000 H   0  0  0  0  0  0  0  0  0  0  0  0
    0.0000    0.0000    0.0000 C   0  0  0  0  0  0  0  0  0  0  0  0
    1.3856   -0.8000    0.0000 C   0  0  0  0  0  0  0  0  0  0  0  0
    2.7713   -1.6000    0.0000 H   0  0  0  0  0  0  0  0  0  0  0  0
    1.3856   -2.4000    0.0000 H   0  0  0  0  0  0  0  0  0  0  0  0
    2.7713    0.0000    0.0000 H   0  0  0  0  0  0  0  0  0  0  0  0
  1  2  2  0  0  0  0
  1  3  1  0  0  0  0
  1  4  1  0  0  0  0
  4  5  1  0  0  0  0
  5  6  1  0  0  0  0
  5  7  2  0  0  0  0
  7  8  1  0  0  0  0
  7  9  1  0  0  0  0
  9 10  1  0  0  0  0
  9 11  2  0  0  0  0
 11 12  1  0  0  0  0
 11 13  1  0  0  0  0
 13  4  2  0  0  0  0
 13 14  1  0  0  0  0
 14 15  1  0  0  0  0
 14 16  1  0  0  0  0
 14 17  1  0  0  0  0
M  CHG  2   1   1   3  -1
M  END
> <ChemID>
100067

> <source_casrn>
88-72-2

> <CAS>
88-72-2

> <SMILES>
Cc1ccccc1[N+]([O-])=O

> <NAME>
Benzene, 1-methyl-2-nitro-

> <preferred_name>
2-Nitrotoluene

> <iupac>
1-methyl-2-nitrobenzene

> <MPID>
101703

> <dsstox_substance_id>
DTXSID4025791

> <Canonical_QSARr>
Cc1ccccc1[N+]([O-])=O

> <InChI_Code_QSARr>
InChI=1S/C7H7NO2/c1-6-4-2-3-5-7(6)8(9)10/h2-5H,1H3

> <InChI Key_QSARr>
PLAZTCDQAHEYBI-UHFFFAOYSA-N

> <LogKmHL>
-0.48

$$$$
100068
  -INDIGO-08031722222D

 14 14  0  0  0  0  0  0  0  0999 V2000
    0.0000    2.7713    0.0000 Cl  0  0  0  0  0  0  0  0  0  0  0  0
   -0.8000    1.3856    0.0000 C   0  0  0  0  0  0  0  0  0  0  0  0
    0.0000   -0.0000    0.0000 C   0  0  0  0  0  0  0  0  0  0  0  0
    1.6000   -0.0000    0.0000 N   0  0  0  0  0  0  0  0  0  0  0  0
    2.4000    1.3856    0.0000 O   0  0  0  0  0  0  0  0  0  0  0  0
    2.4000   -1.3856    0.0000 O   0  0  0  0  0  0  0  0  0  0  0  0
   -0.8000   -1.3856    0.0000 C   0  0  0  0  0  0  0  0  0  0  0  0
    0.0000   -2.7713    0.0000 H   0  0  0  0  0  0  0  0  0  0  0  0
   -2.4000   -1.3856    0.0000 C   0  0  0  0  0  0  0  0  0  0  0  0
   -3.2000   -2.7713    0.0000 H   0  0  0  0  0  0  0  0  0  0  0  0
   -3.2000   -0.0000    0.0000 C   0  0  0  0  0  0  0  0  0  0  0  0
   -4.8000   -0.0000    0.0000 H   0  0  0  0  0  0  0  0  0  0  0  0
   -2.4000    1.3856    0.0000 C   0  0  0  0  0  0  0  0  0  0  0  0
   -3.2000    2.7713    0.0000 H   0  0  0  0  0  0  0  0  0  0  0  0
  1  2  1  0  0  0  0
  2  3  1  0  0  0  0
  3  4  1  0  0  0  0
  4  5  2  0  0  0  0
  4  6  1  0  0  0  0
  3  7  2  0  0  0  0
  7  8  1  0  0  0  0
  7  9  1  0  0  0  0
  9 10  1  0  0  0  0
  9 11  2  0  0  0  0
 11 12  1  0  0  0  0
 11 13  1  0  0  0  0
 13  2  2  0  0  0  0
 13 14  1  0  0  0  0
M  CHG  2   4   1   6  -1
M  END
> <ChemID>
100068

> <source_casrn>
88-73-3

> <CAS>
88-73-3

> <SMILES>
[O-][N+](=O)c1ccccc1Cl

> <NAME>
1-Chloro-2-nitrobenzene

> <preferred_name>
1-Chloro-2-nitrobenzene

> <iupac>
1-chloro-2-nitrobenzene

> <MPID>
101704

> <dsstox_substance_id>
DTXSID0020280

> <Canonical_QSARr>
[O-][N+](=O)c1ccccc1Cl

> <InChI_Code_QSARr>
InChI=1S/C6H4ClNO2/c7-5-3-1-2-4-6(5)8(9)10/h1-4H

> <InChI Key_QSARr>
BFCFYVKQTRLZHA-UHFFFAOYSA-N

> <LogKmHL>
-0.58

$$$$
100069
  -INDIGO-08031722222D

 16 16  0  0  0  0  0  0  0  0999 V2000
    1.3856    0.8000    0.0000 N   0  0  0  0  0  0  0  0  0  0  0  0
    1.3856    2.4000    0.0000 O   0  0  0  0  0  0  0  0  0  0  0  0
    2.7713   -0.0000    0.0000 O   0  0  0  0  0  0  0  0  0  0  0  0
    0.0000   -0.0000    0.0000 C   0  0  0  0  0  0  0  0  0  0  0  0
   -1.3856    0.8000    0.0000 C   0  0  0  0  0  0  0  0  0  0  0  0
   -1.3856    2.4000    0.0000 H   0  0  0  0  0  0  0  0  0  0  0  0
   -2.7713   -0.0000    0.0000 C   0  0  0  0  0  0  0  0  0  0  0  0
   -4.1569    0.8000    0.0000 H   0  0  0  0  0  0  0  0  0  0  0  0
   -2.7713   -1.6000    0.0000 C   0  0  0  0  0  0  0  0  0  0  0  0
   -4.1569   -2.4000    0.0000 H   0  0  0  0  0  0  0  0  0  0  0  0
   -1.3856   -2.4000    0.0000 C   0  0  0  0  0  0  0  0  0  0  0  0
   -1.3856   -4.0000    0.0000 H   0  0  0  0  0  0  0  0  0  0  0  0
    0.0000   -1.6000    0.0000 C   0  0  0  0  0  0  0  0  0  0  0  0
    1.3856   -2.4000    0.0000 N   0  0  0  0  0  0  0  0  0  0  0  0
    1.3856   -4.0000    0.0000 H   0  0  0  0  0  0  0  0  0  0  0  0
    2.7713   -1.6000    0.0000 H   0  0  0  0  0  0  0  0  0  0  0  0
  1  2  2  0  0  0  0
  1  3  1  0  0  0  0
  1  4  1  0  0  0  0
  4  5  1  0  0  0  0
  5  6  1  0  0  0  0
  5  7  2  0  0  0  0
  7  8  1  0  0  0  0
  7  9  1  0  0  0  0
  9 10  1  0  0  0  0
  9 11  2  0  0  0  0
 11 12  1  0  0  0  0
 11 13  1  0  0  0  0
 13  4  2  0  0  0  0
 13 14  1  0  0  0  0
 14 15  1  0  0  0  0
 14 16  1  0  0  0  0
M  CHG  2   1   1   3  -1
M  END
> <ChemID>
100069

> <source_casrn>
88-74-4

> <CAS>
88-74-4

> <SMILES>
Nc1ccccc1[N+]([O-])=O

> <NAME>
Benzenamine, 2-nitro-

> <preferred_name>
2-Nitroaniline

> <iupac>
2-nitroaniline

> <MPID>
101705

> <dsstox_substance_id>
DTXSID1025726

> <Canonical_QSARr>
Nc1ccccc1[N+]([O-])=O

> <InChI_Code_QSARr>
InChI=1S/C6H6N2O2/c7-5-3-1-2-4-6(5)8(9)10/h1-4H,7H2

> <InChI Key_QSARr>
DPJCXCZTLWNFOH-UHFFFAOYSA-N

> <LogKmHL>
-0.46

$$$$
100071
  -INDIGO-08031722222D

 14 14  0  0  0  0  0  0  0  0999 V2000
    0.8000    1.3856    0.0000 C   0  0  0  0  0  0  0  0  0  0  0  0
    2.4000    1.3856    0.0000 C   0  0  0  0  0  0  0  0  0  0  0  0
    3.2000    2.7713    0.0000 H   0  0  0  0  0  0  0  0  0  0  0  0
    3.2000   -0.0000    0.0000 C   0  0  0  0  0  0  0  0  0  0  0  0
    4.8000    0.0000    0.0000 H   0  0  0  0  0  0  0  0  0  0  0  0
    2.4000   -1.3856    0.0000 C   0  0  0  0  0  0  0  0  0  0  0  0
    3.2000   -2.7713    0.0000 Cl  0  0  0  0  0  0  0  0  0  0  0  0
    0.8000   -1.3856    0.0000 C   0  0  0  0  0  0  0  0  0  0  0  0
    0.0000   -2.7713    0.0000 H   0  0  0  0  0  0  0  0  0  0  0  0
    0.0000   -0.0000    0.0000 C   0  0  0  0  0  0  0  0  0  0  0  0
   -1.6000    0.0000    0.0000 N   0  0  0  0  0  0  0  0  0  0  0  0
   -2.4000   -1.3856    0.0000 O   0  0  0  0  0  0  0  0  0  0  0  0
   -2.4000    1.3856    0.0000 O   0  0  0  0  0  0  0  0  0  0  0  0
    0.0000    2.7713    0.0000 Cl  0  0  0  0  0  0  0  0  0  0  0  0
  1  2  1  0  0  0  0
  2  3  1  0  0  0  0
  2  4  2  0  0  0  0
  4  5  1  0  0  0  0
  4  6  1  0  0  0  0
  6  7  1  0  0  0  0
  6  8  2  0  0  0  0
  8  9  1  0  0  0  0
  8 10  1  0  0  0  0
 10  1  2  0  0  0  0
 10 11  1  0  0  0  0
 11 12  1  0  0  0  0
 11 13  2  0  0  0  0
  1 14  1  0  0  0  0
M  CHG  2  11   1  12  -1
M  END
> <ChemID>
100071

> <source_casrn>
89-61-2

> <CAS>
89-61-2

> <SMILES>
[O-][N+](=O)c1cc(Cl)ccc1Cl

> <NAME>
1,4-Dichloro-2-nitrobenzene

> <preferred_name>
1,4-Dichloro-2-nitrobenzene

> <iupac>
1,4-dichloro-2-nitrobenzene

> <MPID>
101707

> <dsstox_substance_id>
DTXSID7052602

> <Canonical_QSARr>
[O-][N+](=O)c1cc(Cl)ccc1Cl

> <InChI_Code_QSARr>
InChI=1S/C6H3Cl2NO2/c7-4-1-2-5(8)6(3-4)9(10)11/h1-3H

> <InChI Key_QSARr>
RZKKOBGFCAHLCZ-UHFFFAOYSA-N

> <LogKmHL>
0.56

$$$$
100072
  -INDIGO-08031722222D

 16 16  0  0  0  0  0  0  0  0999 V2000
   -1.3856    0.8000    0.0000 N   0  0  0  0  0  0  0  0  0  0  0  0
   -1.3856    2.4000    0.0000 H   0  0  0  0  0  0  0  0  0  0  0  0
   -2.7713   -0.0000    0.0000 H   0  0  0  0  0  0  0  0  0  0  0  0
    0.0000   -0.0000    0.0000 C   0  0  0  0  0  0  0  0  0  0  0  0
    0.0000   -1.6000    0.0000 C   0  0  0  0  0  0  0  0  0  0  0  0
   -1.3856   -2.4000    0.0000 N   0  0  0  0  0  0  0  0  0  0  0  0
   -1.3856   -4.0000    0.0000 O   0  0  0  0  0  0  0  0  0  0  0  0
   -2.7713   -1.6000    0.0000 O   0  0  0  0  0  0  0  0  0  0  0  0
    1.3856   -2.4000    0.0000 C   0  0  0  0  0  0  0  0  0  0  0  0
    1.3856   -4.0000    0.0000 H   0  0  0  0  0  0  0  0  0  0  0  0
    2.7713   -1.6000    0.0000 C   0  0  0  0  0  0  0  0  0  0  0  0
    4.1569   -2.4000    0.0000 Cl  0  0  0  0  0  0  0  0  0  0  0  0
    2.7713   -0.0000    0.0000 C   0  0  0  0  0  0  0  0  0  0  0  0
    4.1569    0.8000    0.0000 H   0  0  0  0  0  0  0  0  0  0  0  0
    1.3856    0.8000    0.0000 C   0  0  0  0  0  0  0  0  0  0  0  0
    1.3856    2.4000    0.0000 H   0  0  0  0  0  0  0  0  0  0  0  0
  1  2  1  0  0  0  0
  1  3  1  0  0  0  0
  1  4  1  0  0  0  0
  4  5  1  0  0  0  0
  5  6  1  0  0  0  0
  6  7  1  0  0  0  0
  6  8  2  0  0  0  0
  5  9  2  0  0  0  0
  9 10  1  0  0  0  0
  9 11  1  0  0  0  0
 11 12  1  0  0  0  0
 11 13  2  0  0  0  0
 13 14  1  0  0  0  0
 13 15  1  0  0  0  0
 15  4  2  0  0  0  0
 15 16  1  0  0  0  0
M  CHG  2   6   1   7  -1
M  END
> <ChemID>
100072

> <source_casrn>
89-63-4

> <CAS>
89-63-4

> <SMILES>
Nc1ccc(Cl)cc1[N+]([O-])=O

> <NAME>
Benzenamine, 4-chloro-2-nitro-

> <preferred_name>
4-Chloro-2-nitroaniline

> <iupac>
4-chloro-2-nitroaniline

> <MPID>
101708

> <dsstox_substance_id>
DTXSID4030384

> <Canonical_QSARr>
Nc1ccc(Cl)cc1[N+]([O-])=O

> <InChI_Code_QSARr>
InChI=1S/C6H5ClN2O2/c7-4-1-2-5(8)6(3-4)9(10)11/h1-3H,8H2

> <InChI Key_QSARr>
PBGKNXWGYQPUJK-UHFFFAOYSA-N

> <LogKmHL>
-0.96

$$$$
100073
  -INDIGO-08031722222D

 14 14  0  0  0  0  0  0  0  0999 V2000
    1.6000   -0.0000    0.0000 N   0  0  0  0  0  0  0  0  0  0  0  0
    2.4000    1.3856    0.0000 O   0  0  0  0  0  0  0  0  0  0  0  0
    2.4000   -1.3856    0.0000 O   0  0  0  0  0  0  0  0  0  0  0  0
    0.0000   -0.0000    0.0000 C   0  0  0  0  0  0  0  0  0  0  0  0
   -0.8000    1.3856    0.0000 C   0  0  0  0  0  0  0  0  0  0  0  0
    0.0000    2.7713    0.0000 H   0  0  0  0  0  0  0  0  0  0  0  0
   -2.4000    1.3856    0.0000 C   0  0  0  0  0  0  0  0  0  0  0  0
   -3.2000    2.7713    0.0000 Cl  0  0  0  0  0  0  0  0  0  0  0  0
   -3.2000   -0.0000    0.0000 C   0  0  0  0  0  0  0  0  0  0  0  0
   -4.8000   -0.0000    0.0000 Cl  0  0  0  0  0  0  0  0  0  0  0  0
   -2.4000   -1.3856    0.0000 C   0  0  0  0  0  0  0  0  0  0  0  0
   -3.2000   -2.7713    0.0000 H   0  0  0  0  0  0  0  0  0  0  0  0
   -0.8000   -1.3856    0.0000 C   0  0  0  0  0  0  0  0  0  0  0  0
    0.0000   -2.7713    0.0000 Cl  0  0  0  0  0  0  0  0  0  0  0  0
  1  2  2  0  0  0  0
  1  3  1  0  0  0  0
  1  4  1  0  0  0  0
  4  5  1  0  0  0  0
  5  6  1  0  0  0  0
  5  7  2  0  0  0  0
  7  8  1  0  0  0  0
  7  9  1  0  0  0  0
  9 10  1  0  0  0  0
  9 11  2  0  0  0  0
 11 12  1  0  0  0  0
 11 13  1  0  0  0  0
 13  4  2  0  0  0  0
 13 14  1  0  0  0  0
M  CHG  2   1   1   3  -1
M  END
> <ChemID>
100073

> <source_casrn>
89-69-0

> <CAS>
89-69-0

> <SMILES>
O=N(=O)c(c(cc(c1Cl)Cl)Cl)c1

> <NAME>
1,2,4,-Trichloro-5-nitrobenzene

> <preferred_name>
2,4,5-Trichloronitrobenzene

> <iupac>
1,2,4-trichloro-5-nitrobenzene

> <MPID>
101709

> <dsstox_substance_id>
DTXSID5026203

> <Canonical_QSARr>
[O-][N+](=O)c1cc(Cl)c(Cl)cc1Cl

> <InChI_Code_QSARr>
InChI=1S/C6H2Cl3NO2/c7-3-1-5(9)6(10(11)12)2-4(3)8/h1-2H

> <InChI Key_QSARr>
IBRBMZRLVYKVRF-UHFFFAOYSA-N

> <LogKmHL>
-0.64

$$$$
100075
  -INDIGO-08031722222D

 40 41  0  0  0  0  0  0  0  0999 V2000
    3.8792    3.9757    0.0000 O   0  0  0  0  0  0  0  0  0  0  0  0
    4.1569    2.4000    0.0000 C   0  0  0  0  0  0  0  0  0  0  0  0
    5.7325    2.1221    0.0000 C   0  0  0  0  0  0  0  0  0  0  0  0
    6.2799    0.6186    0.0000 C   0  0  0  0  0  0  0  0  0  0  0  0
    5.2514   -0.6070    0.0000 H   0  0  0  0  0  0  0  0  0  0  0  0
    7.8554    0.3408    0.0000 C   0  0  0  0  0  0  0  0  0  0  0  0
    8.4028   -1.1627    0.0000 H   0  0  0  0  0  0  0  0  0  0  0  0
    8.8839    1.5665    0.0000 C   0  0  0  0  0  0  0  0  0  0  0  0
   10.4598    1.2887    0.0000 N   0  0  0  0  0  0  0  0  0  0  0  0
   11.0069   -0.2149    0.0000 C   0  0  0  0  0  0  0  0  0  0  0  0
   11.5542   -1.7184    0.0000 H   0  0  0  0  0  0  0  0  0  0  0  0
   12.5827   -0.4927    0.0000 H   0  0  0  0  0  0  0  0  0  0  0  0
    9.9784   -1.4406    0.0000 H   0  0  0  0  0  0  0  0  0  0  0  0
   11.4883    2.5144    0.0000 C   0  0  0  0  0  0  0  0  0  0  0  0
   12.5165    3.7400    0.0000 H   0  0  0  0  0  0  0  0  0  0  0  0
   13.0638    2.2365    0.0000 H   0  0  0  0  0  0  0  0  0  0  0  0
   10.9409    4.0179    0.0000 H   0  0  0  0  0  0  0  0  0  0  0  0
    8.3368    3.0700    0.0000 C   0  0  0  0  0  0  0  0  0  0  0  0
    9.3653    4.2957    0.0000 H   0  0  0  0  0  0  0  0  0  0  0  0
    6.7610    3.3478    0.0000 C   0  0  0  0  0  0  0  0  0  0  0  0
    6.2139    4.8513    0.0000 H   0  0  0  0  0  0  0  0  0  0  0  0
    2.7713    1.6000    0.0000 C   0  0  0  0  0  0  0  0  0  0  0  0
    2.7713    0.0000    0.0000 C   0  0  0  0  0  0  0  0  0  0  0  0
    4.1569   -0.8000    0.0000 H   0  0  0  0  0  0  0  0  0  0  0  0
    1.3857   -0.8000    0.0000 C   0  0  0  0  0  0  0  0  0  0  0  0
    1.3857   -2.4000    0.0000 H   0  0  0  0  0  0  0  0  0  0  0  0
    0.0001    0.0000    0.0000 C   0  0  0  0  0  0  0  0  0  0  0  0
   -1.3857   -0.8000    0.0000 N   0  0  0  0  0  0  0  0  0  0  0  0
   -1.3857   -2.4000    0.0000 C   0  0  0  0  0  0  0  0  0  0  0  0
   -1.3857   -4.0000    0.0000 H   0  0  0  0  0  0  0  0  0  0  0  0
   -2.7713   -3.2000    0.0000 H   0  0  0  0  0  0  0  0  0  0  0  0
    0.0001   -3.2000    0.0000 H   0  0  0  0  0  0  0  0  0  0  0  0
   -2.7713    0.0000    0.0000 C   0  0  0  0  0  0  0  0  0  0  0  0
   -4.1569    0.8000    0.0000 H   0  0  0  0  0  0  0  0  0  0  0  0
   -4.1569   -0.8000    0.0000 H   0  0  0  0  0  0  0  0  0  0  0  0
   -2.7713    1.6000    0.0000 H   0  0  0  0  0  0  0  0  0  0  0  0
    0.0001    1.6000    0.0000 C   0  0  0  0  0  0  0  0  0  0  0  0
   -1.3857    2.4000    0.0000 H   0  0  0  0  0  0  0  0  0  0  0  0
    1.3857    2.4000    0.0000 C   0  0  0  0  0  0  0  0  0  0  0  0
    1.3857    4.0000    0.0000 H   0  0  0  0  0  0  0  0  0  0  0  0
  1  2  2  0  0  0  0
  2  3  1  0  0  0  0
  3  4  1  0  0  0  0
  4  5  1  0  0  0  0
  4  6  2  0  0  0  0
  6  7  1  0  0  0  0
  6  8  1  0  0  0  0
  8  9  1  0  0  0  0
  9 10  1  0  0  0  0
 10 11  1  0  0  0  0
 10 12  1  0  0  0  0
 10 13  1  0  0  0  0
  9 14  1  0  0  0  0
 14 15  1  0  0  0  0
 14 16  1  0  0  0  0
 14 17  1  0  0  0  0
  8 18  2  0  0  0  0
 18 19  1  0  0  0  0
 18 20  1  0  0  0  0
 20  3  2  0  0  0  0
 20 21  1  0  0  0  0
  2 22  1  0  0  0  0
 22 23  1  0  0  0  0
 23 24  1  0  0  0  0
 23 25  2  0  0  0  0
 25 26  1  0  0  0  0
 25 27  1  0  0  0  0
 27 28  1  0  0  0  0
 28 29  1  0  0  0  0
 29 30  1  0  0  0  0
 29 31  1  0  0  0  0
 29 32  1  0  0  0  0
 28 33  1  0  0  0  0
 33 34  1  0  0  0  0
 33 35  1  0  0  0  0
 33 36  1  0  0  0  0
 27 37  2  0  0  0  0
 37 38  1  0  0  0  0
 37 39  1  0  0  0  0
 39 22  2  0  0  0  0
 39 40  1  0  0  0  0
M  END
> <ChemID>
100075

> <source_casrn>
90-94-8

> <CAS>
90-94-8

> <SMILES>
CN(C)c1ccc(cc1)C(=O)c1ccc(cc1)N(C)C

> <NAME>
Methanone, bis[4-(dimethylamino)phenyl]-

> <preferred_name>
Michler's ketone

> <iupac>
bis[4-(dimethylamino)phenyl]methanone

> <MPID>
101711

> <dsstox_substance_id>
DTXSID2020894

> <Canonical_QSARr>
CN(C)c1ccc(cc1)C(=O)c1ccc(cc1)N(C)C

> <InChI_Code_QSARr>
InChI=1S/C17H20N2O/c1-18(2)15-9-5-13(6-10-15)17(20)14-7-11-16(12-8-14)19(3)4/h5-12H,1-4H3

> <InChI Key_QSARr>
VVBLNCFGVYUYGU-UHFFFAOYSA-N

> <LogKmHL>
-0.77

$$$$
100076
  -INDIGO-08031722222D

 14 14  0  0  0  0  0  0  0  0999 V2000
    0.0000   -0.0000    0.0000 C   0  0  0  0  0  0  0  0  0  0  0  0
    1.3856    0.8000    0.0000 C   0  0  0  0  0  0  0  0  0  0  0  0
    1.3856    2.4000    0.0000 H   0  0  0  0  0  0  0  0  0  0  0  0
    2.7713   -0.0000    0.0000 C   0  0  0  0  0  0  0  0  0  0  0  0
    4.1569    0.8000    0.0000 H   0  0  0  0  0  0  0  0  0  0  0  0
    2.7713   -1.6000    0.0000 C   0  0  0  0  0  0  0  0  0  0  0  0
    4.1569   -2.4000    0.0000 H   0  0  0  0  0  0  0  0  0  0  0  0
    1.3856   -2.4000    0.0000 C   0  0  0  0  0  0  0  0  0  0  0  0
    1.3856   -4.0000    0.0000 H   0  0  0  0  0  0  0  0  0  0  0  0
    0.0000   -1.6000    0.0000 C   0  0  0  0  0  0  0  0  0  0  0  0
   -1.3856   -2.4000    0.0000 C   0  0  0  0  0  0  0  0  0  0  0  0
   -2.7713   -3.2000    0.0000 N   0  0  0  0  0  0  0  0  0  0  0  0
   -1.3856    0.8000    0.0000 C   0  0  0  0  0  0  0  0  0  0  0  0
   -2.7713    1.6000    0.0000 N   0  0  0  0  0  0  0  0  0  0  0  0
  1  2  1  0  0  0  0
  2  3  1  0  0  0  0
  2  4  2  0  0  0  0
  4  5  1  0  0  0  0
  4  6  1  0  0  0  0
  6  7  1  0  0  0  0
  6  8  2  0  0  0  0
  8  9  1  0  0  0  0
  8 10  1  0  0  0  0
 10  1  2  0  0  0  0
 10 11  1  0  0  0  0
 11 12  3  0  0  0  0
  1 13  1  0  0  0  0
 13 14  3  0  0  0  0
M  END
> <ChemID>
100076

> <source_casrn>
91-15-6

> <CAS>
91-15-6

> <SMILES>
N#Cc1ccccc1C#N

> <NAME>
1,2-benzenedicarbonitrile

> <preferred_name>
1,2-Benzenedicarbonitrile

> <iupac>
benzene-1,2-dicarbonitrile

> <MPID>
101712

> <dsstox_substance_id>
DTXSID8029604

> <Canonical_QSARr>
N#Cc1ccccc1C#N

> <InChI_Code_QSARr>
InChI=1S/C8H4N2/c9-5-7-3-1-2-4-8(7)6-10/h1-4H

> <InChI Key_QSARr>
XQZYPMVTSDWCCE-UHFFFAOYSA-N

> <LogKmHL>
-0.67

$$$$
100077
  -INDIGO-08031722222D

 18 19  0  0  0  0  0  0  0  0999 V2000
    1.3856    2.4000    0.0000 C   0  0  0  0  0  0  0  0  0  0  0  0
    1.3856    4.0000    0.0000 H   0  0  0  0  0  0  0  0  0  0  0  0
    0.0001    1.6000    0.0000 C   0  0  0  0  0  0  0  0  0  0  0  0
    0.0001    0.0000    0.0000 C   0  0  0  0  0  0  0  0  0  0  0  0
   -1.3856   -0.8000    0.0000 C   0  0  0  0  0  0  0  0  0  0  0  0
   -1.3856   -2.4000    0.0000 H   0  0  0  0  0  0  0  0  0  0  0  0
   -2.7712    0.0000    0.0000 C   0  0  0  0  0  0  0  0  0  0  0  0
   -4.1569   -0.8000    0.0000 H   0  0  0  0  0  0  0  0  0  0  0  0
   -2.7712    1.6000    0.0000 C   0  0  0  0  0  0  0  0  0  0  0  0
   -4.1569    2.4000    0.0000 H   0  0  0  0  0  0  0  0  0  0  0  0
   -1.3856    2.4000    0.0000 C   0  0  0  0  0  0  0  0  0  0  0  0
   -1.3856    4.0000    0.0000 H   0  0  0  0  0  0  0  0  0  0  0  0
    1.3856   -0.8000    0.0000 C   0  0  0  0  0  0  0  0  0  0  0  0
    1.3856   -2.4000    0.0000 H   0  0  0  0  0  0  0  0  0  0  0  0
    2.7713    0.0000    0.0000 C   0  0  0  0  0  0  0  0  0  0  0  0
    4.1569   -0.8000    0.0000 H   0  0  0  0  0  0  0  0  0  0  0  0
    2.7713    1.6000    0.0000 C   0  0  0  0  0  0  0  0  0  0  0  0
    4.1569    2.4000    0.0000 H   0  0  0  0  0  0  0  0  0  0  0  0
  1  2  1  0  0  0  0
  1  3  1  0  0  0  0
  3  4  1  0  0  0  0
  4  5  2  0  0  0  0
  5  6  1  0  0  0  0
  5  7  1  0  0  0  0
  7  8  1  0  0  0  0
  7  9  2  0  0  0  0
  9 10  1  0  0  0  0
  9 11  1  0  0  0  0
 11  3  2  0  0  0  0
 11 12  1  0  0  0  0
  4 13  1  0  0  0  0
 13 14  1  0  0  0  0
 13 15  2  0  0  0  0
 15 16  1  0  0  0  0
 15 17  1  0  0  0  0
 17  1  2  0  0  0  0
 17 18  1  0  0  0  0
M  END
> <ChemID>
100077

> <source_casrn>
91-20-3

> <CAS>
91-20-3

> <SMILES>
c1cccc2ccccc21

> <NAME>
Naphthalene

> <preferred_name>
Naphthalene

> <iupac>
naphthalene

> <MPID>
101713

> <dsstox_substance_id>
DTXSID8020913

> <Canonical_QSARr>
c1cccc2ccccc21

> <InChI_Code_QSARr>
InChI=1S/C10H8/c1-2-6-10-8-4-3-7-9(10)5-1/h1-8H

> <InChI Key_QSARr>
UFWIBTONFRDIAS-UHFFFAOYSA-N

> <LogKmHL>
0.41

$$$$
100079
  -INDIGO-08031722222D

 18 18  0  0  0  0  0  0  0  0999 V2000
    2.4001   -1.3856    0.0000 C   0  0  0  0  0  0  0  0  0  0  0  0
    4.0000   -1.3856    0.0000 H   0  0  0  0  0  0  0  0  0  0  0  0
    3.2000   -2.7713    0.0000 H   0  0  0  0  0  0  0  0  0  0  0  0
    3.2000    0.0000    0.0000 H   0  0  0  0  0  0  0  0  0  0  0  0
    1.6000    0.0000    0.0000 O   0  0  0  0  0  0  0  0  0  0  0  0
   -0.0000    0.0000    0.0000 C   0  0  0  0  0  0  0  0  0  0  0  0
   -0.8000    1.3856    0.0000 C   0  0  0  0  0  0  0  0  0  0  0  0
   -0.0000    2.7713    0.0000 N   0  0  0  0  0  0  0  0  0  0  0  0
   -0.8000    4.1569    0.0000 O   0  0  0  0  0  0  0  0  0  0  0  0
    1.6000    2.7713    0.0000 O   0  0  0  0  0  0  0  0  0  0  0  0
   -2.4000    1.3856    0.0000 C   0  0  0  0  0  0  0  0  0  0  0  0
   -3.2001    2.7713    0.0000 H   0  0  0  0  0  0  0  0  0  0  0  0
   -3.2001    0.0000    0.0000 C   0  0  0  0  0  0  0  0  0  0  0  0
   -4.8000    0.0000    0.0000 H   0  0  0  0  0  0  0  0  0  0  0  0
   -2.4000   -1.3856    0.0000 C   0  0  0  0  0  0  0  0  0  0  0  0
   -3.2001   -2.7713    0.0000 H   0  0  0  0  0  0  0  0  0  0  0  0
   -0.8000   -1.3856    0.0000 C   0  0  0  0  0  0  0  0  0  0  0  0
   -0.0000   -2.7713    0.0000 H   0  0  0  0  0  0  0  0  0  0  0  0
  1  2  1  0  0  0  0
  1  3  1  0  0  0  0
  1  4  1  0  0  0  0
  1  5  1  0  0  0  0
  5  6  1  0  0  0  0
  6  7  1  0  0  0  0
  7  8  1  0  0  0  0
  8  9  2  0  0  0  0
  8 10  1  0  0  0  0
  7 11  2  0  0  0  0
 11 12  1  0  0  0  0
 11 13  1  0  0  0  0
 13 14  1  0  0  0  0
 13 15  2  0  0  0  0
 15 16  1  0  0  0  0
 15 17  1  0  0  0  0
 17  6  2  0  0  0  0
 17 18  1  0  0  0  0
M  CHG  2   8   1  10  -1
M  END
> <ChemID>
100079

> <source_casrn>
91-23-6

> <CAS>
91-23-6

> <SMILES>
COc1ccccc1[N+]([O-])=O

> <NAME>
2-nitroanisole

> <preferred_name>
1-Methoxy-2-nitrobenzene

> <iupac>
1-methoxy-2-nitrobenzene

> <MPID>
101715

> <dsstox_substance_id>
DTXSID3020962

> <Canonical_QSARr>
COc1ccccc1[N+]([O-])=O

> <InChI_Code_QSARr>
InChI=1S/C7H7NO3/c1-11-7-5-3-2-4-6(7)8(9)10/h2-5H,1H3

> <InChI Key_QSARr>
CFBYEGUGFPZCNF-UHFFFAOYSA-N

> <LogKmHL>
-1.04

$$$$
100080
  -INDIGO-08031722222D

 21 22  0  0  0  0  0  0  0  0999 V2000
    0.0001   -0.0000    0.0000 C   0  0  0  0  0  0  0  0  0  0  0  0
    1.3857    0.8000    0.0000 C   0  0  0  0  0  0  0  0  0  0  0  0
    1.3857    2.4000    0.0000 H   0  0  0  0  0  0  0  0  0  0  0  0
    2.7713   -0.0000    0.0000 C   0  0  0  0  0  0  0  0  0  0  0  0
    4.1569    0.8000    0.0000 H   0  0  0  0  0  0  0  0  0  0  0  0
    2.7713   -1.6000    0.0000 C   0  0  0  0  0  0  0  0  0  0  0  0
    4.1569   -2.4000    0.0000 H   0  0  0  0  0  0  0  0  0  0  0  0
    1.3857   -2.4000    0.0000 C   0  0  0  0  0  0  0  0  0  0  0  0
    1.3857   -4.0000    0.0000 H   0  0  0  0  0  0  0  0  0  0  0  0
    0.0001   -1.6000    0.0000 C   0  0  0  0  0  0  0  0  0  0  0  0
   -1.3857   -2.4000    0.0000 C   0  0  0  0  0  0  0  0  0  0  0  0
   -1.3857   -4.0000    0.0000 H   0  0  0  0  0  0  0  0  0  0  0  0
   -2.7713   -1.6000    0.0000 C   0  0  0  0  0  0  0  0  0  0  0  0
   -4.1569   -2.4000    0.0000 H   0  0  0  0  0  0  0  0  0  0  0  0
   -2.7713   -0.0000    0.0000 C   0  0  0  0  0  0  0  0  0  0  0  0
   -4.1569    0.8000    0.0000 C   0  0  0  0  0  0  0  0  0  0  0  0
   -5.5426    1.6000    0.0000 H   0  0  0  0  0  0  0  0  0  0  0  0
   -5.5426   -0.0000    0.0000 H   0  0  0  0  0  0  0  0  0  0  0  0
   -4.1569    2.4000    0.0000 H   0  0  0  0  0  0  0  0  0  0  0  0
   -1.3857    0.8000    0.0000 C   0  0  0  0  0  0  0  0  0  0  0  0
   -1.3857    2.4000    0.0000 H   0  0  0  0  0  0  0  0  0  0  0  0
  1  2  1  0  0  0  0
  2  3  1  0  0  0  0
  2  4  2  0  0  0  0
  4  5  1  0  0  0  0
  4  6  1  0  0  0  0
  6  7  1  0  0  0  0
  6  8  2  0  0  0  0
  8  9  1  0  0  0  0
  8 10  1  0  0  0  0
 10  1  1  0  0  0  0
 10 11  2  0  0  0  0
 11 12  1  0  0  0  0
 11 13  1  0  0  0  0
 13 14  1  0  0  0  0
 13 15  2  0  0  0  0
 15 16  1  0  0  0  0
 16 17  1  0  0  0  0
 16 18  1  0  0  0  0
 16 19  1  0  0  0  0
 15 20  1  0  0  0  0
 20  1  2  0  0  0  0
 20 21  1  0  0  0  0
M  END
> <ChemID>
100080

> <source_casrn>
91-57-6

> <CAS>
91-57-6

> <SMILES>
Cc1cc2ccccc2cc1

> <NAME>
Naphthalene, 2-methyl-

> <preferred_name>
2-Methylnaphthalene

> <iupac>
2-methylnaphthalene

> <MPID>
101716

> <dsstox_substance_id>
DTXSID4020878

> <Canonical_QSARr>
Cc1cc2ccccc2cc1

> <InChI_Code_QSARr>
InChI=1S/C11H10/c1-9-6-7-10-4-2-3-5-11(10)8-9/h2-8H,1H3

> <InChI Key_QSARr>
QIMMUPPBPVKWKM-UHFFFAOYSA-N

> <LogKmHL>
0.88

$$$$
100081
  -INDIGO-08031722222D

 26 27  0  0  0  0  0  0  0  0999 V2000
    3.2000   -2.7713    0.0000 Cl  0  0  0  0  0  0  0  0  0  0  0  0
    2.4000   -1.3856    0.0000 C   0  0  0  0  0  0  0  0  0  0  0  0
    3.2000   -0.0000    0.0000 C   0  0  0  0  0  0  0  0  0  0  0  0
    4.8000   -0.0000    0.0000 N   0  0  0  0  0  0  0  0  0  0  0  0
    5.6000   -1.3856    0.0000 H   0  0  0  0  0  0  0  0  0  0  0  0
    5.6000    1.3856    0.0000 H   0  0  0  0  0  0  0  0  0  0  0  0
    2.4000    1.3856    0.0000 C   0  0  0  0  0  0  0  0  0  0  0  0
    3.2000    2.7713    0.0000 H   0  0  0  0  0  0  0  0  0  0  0  0
    0.7999    1.3856    0.0000 C   0  0  0  0  0  0  0  0  0  0  0  0
   -0.0001    2.7713    0.0000 H   0  0  0  0  0  0  0  0  0  0  0  0
   -0.0001   -0.0000    0.0000 C   0  0  0  0  0  0  0  0  0  0  0  0
   -1.5999    0.0000    0.0000 C   0  0  0  0  0  0  0  0  0  0  0  0
   -2.3999    1.3856    0.0000 C   0  0  0  0  0  0  0  0  0  0  0  0
   -1.5999    2.7713    0.0000 H   0  0  0  0  0  0  0  0  0  0  0  0
   -4.0000    1.3856    0.0000 C   0  0  0  0  0  0  0  0  0  0  0  0
   -4.8000    2.7713    0.0000 Cl  0  0  0  0  0  0  0  0  0  0  0  0
   -4.8000    0.0000    0.0000 C   0  0  0  0  0  0  0  0  0  0  0  0
   -6.4000    0.0000    0.0000 N   0  0  0  0  0  0  0  0  0  0  0  0
   -7.2000    1.3856    0.0000 H   0  0  0  0  0  0  0  0  0  0  0  0
   -7.2000   -1.3856    0.0000 H   0  0  0  0  0  0  0  0  0  0  0  0
   -4.0000   -1.3856    0.0000 C   0  0  0  0  0  0  0  0  0  0  0  0
   -4.8000   -2.7713    0.0000 H   0  0  0  0  0  0  0  0  0  0  0  0
   -2.3999   -1.3856    0.0000 C   0  0  0  0  0  0  0  0  0  0  0  0
   -1.5999   -2.7713    0.0000 H   0  0  0  0  0  0  0  0  0  0  0  0
    0.7999   -1.3856    0.0000 C   0  0  0  0  0  0  0  0  0  0  0  0
   -0.0001   -2.7713    0.0000 H   0  0  0  0  0  0  0  0  0  0  0  0
  1  2  1  0  0  0  0
  2  3  1  0  0  0  0
  3  4  1  0  0  0  0
  4  5  1  0  0  0  0
  4  6  1  0  0  0  0
  3  7  2  0  0  0  0
  7  8  1  0  0  0  0
  7  9  1  0  0  0  0
  9 10  1  0  0  0  0
  9 11  2  0  0  0  0
 11 12  1  0  0  0  0
 12 13  1  0  0  0  0
 13 14  1  0  0  0  0
 13 15  2  0  0  0  0
 15 16  1  0  0  0  0
 15 17  1  0  0  0  0
 17 18  1  0  0  0  0
 18 19  1  0  0  0  0
 18 20  1  0  0  0  0
 17 21  2  0  0  0  0
 21 22  1  0  0  0  0
 21 23  1  0  0  0  0
 23 12  2  0  0  0  0
 23 24  1  0  0  0  0
 11 25  1  0  0  0  0
 25  2  2  0  0  0  0
 25 26  1  0  0  0  0
M  END
> <ChemID>
100081

> <source_casrn>
91-94-1

> <CAS>
91-94-1

> <SMILES>
Nc1ccc(cc1Cl)-c1cc(Cl)c(N)cc1

> <NAME>
3,3'-dichlorobenzidine

> <preferred_name>
3,3'-Dichlorobenzidine

> <iupac>
3,3'-dichlorobiphenyl-4,4'-diamine

> <MPID>
101717

> <dsstox_substance_id>
DTXSID6020432

> <Canonical_QSARr>
Nc1ccc(cc1Cl)-c1cc(Cl)c(N)cc1

> <InChI_Code_QSARr>
InChI=1S/C12H10Cl2N2/c13-9-5-7(1-3-11(9)15)8-2-4-12(16)10(14)6-8/h1-6H,15-16H2

> <InChI Key_QSARr>
HUWXDEQWWKGHRV-UHFFFAOYSA-N

> <LogKmHL>
-0.13

$$$$
100083
  -INDIGO-08031722222D

 34 35  0  0  0  0  0  0  0  0999 V2000
    0.8000   -1.3856    0.0000 C   0  0  0  0  0  0  0  0  0  0  0  0
    1.0779   -2.9614    0.0000 H   0  0  0  0  0  0  0  0  0  0  0  0
    0.1599   -1.8285    0.0000 H   0  0  0  0  0  0  0  0  0  0  0  0
    2.4000   -1.3856    0.0000 C   0  0  0  0  0  0  0  0  0  0  0  0
    2.1221   -2.9614    0.0000 H   0  0  0  0  0  0  0  0  0  0  0  0
    3.9035   -1.9328    0.0000 H   0  0  0  0  0  0  0  0  0  0  0  0
    3.2000    0.0000    0.0000 C   0  0  0  0  0  0  0  0  0  0  0  0
    4.4257   -1.0285    0.0000 H   0  0  0  0  0  0  0  0  0  0  0  0
    4.4257    1.0285    0.0000 H   0  0  0  0  0  0  0  0  0  0  0  0
    2.4000    1.3856    0.0000 C   0  0  0  0  0  0  0  0  0  0  0  0
    3.9035    1.9329    0.0000 H   0  0  0  0  0  0  0  0  0  0  0  0
    2.1221    2.9613    0.0000 H   0  0  0  0  0  0  0  0  0  0  0  0
    0.8000    1.3856    0.0000 C   0  0  0  0  0  0  0  0  0  0  0  0
    1.0779    2.9613    0.0000 H   0  0  0  0  0  0  0  0  0  0  0  0
   -0.7035    1.9329    0.0000 H   0  0  0  0  0  0  0  0  0  0  0  0
    0.0000    0.0000    0.0000 C   0  0  0  0  0  0  0  0  0  0  0  0
   -0.3892    0.6740    0.0000 H   0  0  0  0  0  0  0  0  0  0  0  0
   -1.2257   -1.0285    0.0000 C   0  0  0  0  0  0  0  0  0  0  0  0
   -0.8365   -1.7025    0.0000 H   0  0  0  0  0  0  0  0  0  0  0  0
   -2.0257    0.3572    0.0000 C   0  0  0  0  0  0  0  0  0  0  0  0
   -1.3856    0.8000    0.0000 H   0  0  0  0  0  0  0  0  0  0  0  0
   -2.3036    1.9329    0.0000 H   0  0  0  0  0  0  0  0  0  0  0  0
   -3.6256    0.3572    0.0000 C   0  0  0  0  0  0  0  0  0  0  0  0
   -3.3478    1.9329    0.0000 H   0  0  0  0  0  0  0  0  0  0  0  0
   -5.1292    0.9044    0.0000 H   0  0  0  0  0  0  0  0  0  0  0  0
   -4.4257   -1.0285    0.0000 C   0  0  0  0  0  0  0  0  0  0  0  0
   -5.6513    0.0000    0.0000 H   0  0  0  0  0  0  0  0  0  0  0  0
   -5.6513   -2.0569    0.0000 H   0  0  0  0  0  0  0  0  0  0  0  0
   -3.6256   -2.4141    0.0000 C   0  0  0  0  0  0  0  0  0  0  0  0
   -5.1292   -2.9614    0.0000 H   0  0  0  0  0  0  0  0  0  0  0  0
   -3.3478   -3.9898    0.0000 H   0  0  0  0  0  0  0  0  0  0  0  0
   -2.0257   -2.4141    0.0000 C   0  0  0  0  0  0  0  0  0  0  0  0
   -2.3036   -3.9898    0.0000 H   0  0  0  0  0  0  0  0  0  0  0  0
   -0.5222   -2.9614    0.0000 H   0  0  0  0  0  0  0  0  0  0  0  0
  1  2  1  0  0  0  0
  1  3  1  0  0  0  0
  1  4  1  0  0  0  0
  4  5  1  0  0  0  0
  4  6  1  0  0  0  0
  4  7  1  0  0  0  0
  7  8  1  0  0  0  0
  7  9  1  0  0  0  0
  7 10  1  0  0  0  0
 10 11  1  0  0  0  0
 10 12  1  0  0  0  0
 10 13  1  0  0  0  0
 13 14  1  0  0  0  0
 13 15  1  0  0  0  0
 13 16  1  0  0  0  0
 16  1  1  0  0  0  0
 16 17  1  0  0  0  0
 16 18  1  0  0  0  0
 18 19  1  0  0  0  0
 18 20  1  0  0  0  0
 20 21  1  0  0  0  0
 20 22  1  0  0  0  0
 20 23  1  0  0  0  0
 23 24  1  0  0  0  0
 23 25  1  0  0  0  0
 23 26  1  0  0  0  0
 26 27  1  0  0  0  0
 26 28  1  0  0  0  0
 26 29  1  0  0  0  0
 29 30  1  0  0  0  0
 29 31  1  0  0  0  0
 29 32  1  0  0  0  0
 32 18  1  0  0  0  0
 32 33  1  0  0  0  0
 32 34  1  0  0  0  0
M  END
> <ChemID>
100083

> <source_casrn>
92-51-3

> <CAS>
92-51-3

> <SMILES>
C1CCCCC1C1CCCCC1

> <NAME>
Bicyclohexyl

> <preferred_name>
Dicyclohexyl

> <iupac>
1,1'-bi(cyclohexyl)

> <MPID>
101719

> <dsstox_substance_id>
DTXSID8021802

> <Canonical_QSARr>
C1CCCCC1C1CCCCC1

> <InChI_Code_QSARr>
InChI=1S/C12H22/c1-3-7-11(8-4-1)12-9-5-2-6-10-12/h11-12H,1-10H2

> <InChI Key_QSARr>
WVIIMZNLDWSIRH-UHFFFAOYSA-N

> <LogKmHL>
0.38

$$$$
100084
  -INDIGO-08031722222D

 23 24  0  0  0  0  0  0  0  0999 V2000
    4.8000    0.0000    0.0000 O   0  0  0  0  0  0  0  0  0  0  0  0
    5.6000    1.3856    0.0000 H   0  0  0  0  0  0  0  0  0  0  0  0
    3.2000    0.0000    0.0000 C   0  0  0  0  0  0  0  0  0  0  0  0
    2.4000    1.3856    0.0000 C   0  0  0  0  0  0  0  0  0  0  0  0
    3.2000    2.7713    0.0000 H   0  0  0  0  0  0  0  0  0  0  0  0
    0.8000    1.3856    0.0000 C   0  0  0  0  0  0  0  0  0  0  0  0
    0.0000    2.7713    0.0000 H   0  0  0  0  0  0  0  0  0  0  0  0
    0.0000    0.0000    0.0000 C   0  0  0  0  0  0  0  0  0  0  0  0
   -1.6000    0.0000    0.0000 C   0  0  0  0  0  0  0  0  0  0  0  0
   -2.4000    1.3856    0.0000 C   0  0  0  0  0  0  0  0  0  0  0  0
   -1.6000    2.7713    0.0000 H   0  0  0  0  0  0  0  0  0  0  0  0
   -4.0000    1.3856    0.0000 C   0  0  0  0  0  0  0  0  0  0  0  0
   -4.8000    2.7713    0.0000 H   0  0  0  0  0  0  0  0  0  0  0  0
   -4.8000   -0.0000    0.0000 C   0  0  0  0  0  0  0  0  0  0  0  0
   -6.4000   -0.0000    0.0000 H   0  0  0  0  0  0  0  0  0  0  0  0
   -4.0000   -1.3856    0.0000 C   0  0  0  0  0  0  0  0  0  0  0  0
   -4.8000   -2.7713    0.0000 H   0  0  0  0  0  0  0  0  0  0  0  0
   -2.4000   -1.3856    0.0000 C   0  0  0  0  0  0  0  0  0  0  0  0
   -1.6000   -2.7713    0.0000 H   0  0  0  0  0  0  0  0  0  0  0  0
    0.8000   -1.3856    0.0000 C   0  0  0  0  0  0  0  0  0  0  0  0
    0.0000   -2.7713    0.0000 H   0  0  0  0  0  0  0  0  0  0  0  0
    2.4000   -1.3856    0.0000 C   0  0  0  0  0  0  0  0  0  0  0  0
    3.2000   -2.7713    0.0000 H   0  0  0  0  0  0  0  0  0  0  0  0
  1  2  1  0  0  0  0
  1  3  1  0  0  0  0
  3  4  1  0  0  0  0
  4  5  1  0  0  0  0
  4  6  2  0  0  0  0
  6  7  1  0  0  0  0
  6  8  1  0  0  0  0
  8  9  1  0  0  0  0
  9 10  1  0  0  0  0
 10 11  1  0  0  0  0
 10 12  2  0  0  0  0
 12 13  1  0  0  0  0
 12 14  1  0  0  0  0
 14 15  1  0  0  0  0
 14 16  2  0  0  0  0
 16 17  1  0  0  0  0
 16 18  1  0  0  0  0
 18  9  2  0  0  0  0
 18 19  1  0  0  0  0
  8 20  2  0  0  0  0
 20 21  1  0  0  0  0
 20 22  1  0  0  0  0
 22  3  2  0  0  0  0
 22 23  1  0  0  0  0
M  END
> <ChemID>
100084

> <source_casrn>
92-69-3

> <CAS>
92-69-3

> <SMILES>
Oc1ccc(cc1)-c1ccccc1

> <NAME>
[1,1 -Biphenyl]-4-ol

> <preferred_name>
4-Phenylphenol

> <iupac>
biphenyl-4-ol

> <MPID>
101720

> <dsstox_substance_id>
DTXSID7021152

> <Canonical_QSARr>
Oc1ccc(cc1)-c1ccccc1

> <InChI_Code_QSARr>
InChI=1S/C12H10O/c13-12-8-6-11(7-9-12)10-4-2-1-3-5-10/h1-9,13H

> <InChI Key_QSARr>
YXVFYQXJAXKLAK-UHFFFAOYSA-N

> <LogKmHL>
-0.81

$$$$
100085
  -INDIGO-08031722222D

 23 25  0  0  0  0  0  0  0  0999 V2000
   -1.3856    0.8000    0.0000 N   0  0  0  0  0  0  0  0  0  0  0  0
   -1.3856    2.4000    0.0000 H   0  0  0  0  0  0  0  0  0  0  0  0
   -2.7712   -0.0000    0.0000 C   0  0  0  0  0  0  0  0  0  0  0  0
   -2.7712   -1.6000    0.0000 C   0  0  0  0  0  0  0  0  0  0  0  0
   -4.1569   -2.4000    0.0000 C   0  0  0  0  0  0  0  0  0  0  0  0
   -4.1569   -4.0000    0.0000 H   0  0  0  0  0  0  0  0  0  0  0  0
   -5.5425   -1.6000    0.0000 C   0  0  0  0  0  0  0  0  0  0  0  0
   -6.9282   -2.4000    0.0000 H   0  0  0  0  0  0  0  0  0  0  0  0
   -5.5425   -0.0000    0.0000 C   0  0  0  0  0  0  0  0  0  0  0  0
   -6.9282    0.8000    0.0000 H   0  0  0  0  0  0  0  0  0  0  0  0
   -4.1569    0.8000    0.0000 C   0  0  0  0  0  0  0  0  0  0  0  0
   -4.1569    2.4000    0.0000 H   0  0  0  0  0  0  0  0  0  0  0  0
   -1.3856   -2.4000    0.0000 S   0  0  0  0  0  0  0  0  0  0  0  0
   -0.0001   -1.6000    0.0000 C   0  0  0  0  0  0  0  0  0  0  0  0
   -0.0001   -0.0000    0.0000 C   0  0  0  0  0  0  0  0  0  0  0  0
    1.3856    0.8000    0.0000 C   0  0  0  0  0  0  0  0  0  0  0  0
    1.3856    2.4000    0.0000 H   0  0  0  0  0  0  0  0  0  0  0  0
    2.7713   -0.0000    0.0000 C   0  0  0  0  0  0  0  0  0  0  0  0
    4.1569    0.8000    0.0000 H   0  0  0  0  0  0  0  0  0  0  0  0
    2.7713   -1.6000    0.0000 C   0  0  0  0  0  0  0  0  0  0  0  0
    4.1569   -2.4000    0.0000 H   0  0  0  0  0  0  0  0  0  0  0  0
    1.3856   -2.4000    0.0000 C   0  0  0  0  0  0  0  0  0  0  0  0
    1.3856   -4.0000    0.0000 H   0  0  0  0  0  0  0  0  0  0  0  0
  1  2  1  0  0  0  0
  1  3  1  0  0  0  0
  3  4  1  0  0  0  0
  4  5  2  0  0  0  0
  5  6  1  0  0  0  0
  5  7  1  0  0  0  0
  7  8  1  0  0  0  0
  7  9  2  0  0  0  0
  9 10  1  0  0  0  0
  9 11  1  0  0  0  0
 11  3  2  0  0  0  0
 11 12  1  0  0  0  0
  4 13  1  0  0  0  0
 13 14  1  0  0  0  0
 14 15  1  0  0  0  0
 15  1  1  0  0  0  0
 15 16  2  0  0  0  0
 16 17  1  0  0  0  0
 16 18  1  0  0  0  0
 18 19  1  0  0  0  0
 18 20  2  0  0  0  0
 20 21  1  0  0  0  0
 20 22  1  0  0  0  0
 22 14  2  0  0  0  0
 22 23  1  0  0  0  0
M  END
> <ChemID>
100085

> <source_casrn>
92-84-2

> <CAS>
92-84-2

> <SMILES>
c1cccc2Nc3ccccc3Sc21

> <NAME>
10H-phenothiazine

> <preferred_name>
Phenothiazine

> <iupac>
C12H9NS

> <MPID>
101721

> <dsstox_substance_id>
DTXSID5021126

> <Canonical_QSARr>
c1cccc2Nc3ccccc3Sc21

> <InChI_Code_QSARr>
InChI=1S/C12H9NS/c1-3-7-11-9(5-1)13-10-6-2-4-8-12(10)14-11/h1-8,13H

> <InChI Key_QSARr>
WJFKNYWRSNBZNX-UHFFFAOYSA-N

> <LogKmHL>
0.04

$$$$
100087
  -INDIGO-08031722222D

 17 18  0  0  0  0  0  0  0  0999 V2000
   -5.6000    1.3856    0.0000 O   0  0  0  0  0  0  0  0  0  0  0  0
   -4.8000   -0.0000    0.0000 N   0  0  0  0  0  0  0  0  0  0  0  0
   -3.2001   -0.0000    0.0000 C   0  0  0  0  0  0  0  0  0  0  0  0
   -2.4000    1.3856    0.0000 C   0  0  0  0  0  0  0  0  0  0  0  0
   -3.2001    2.7713    0.0000 H   0  0  0  0  0  0  0  0  0  0  0  0
   -0.8000    1.3856    0.0000 C   0  0  0  0  0  0  0  0  0  0  0  0
    0.0000   -0.0000    0.0000 C   0  0  0  0  0  0  0  0  0  0  0  0
    1.5651    0.3327    0.0000 N   0  0  0  0  0  0  0  0  0  0  0  0
    2.7541   -0.7380    0.0000 H   0  0  0  0  0  0  0  0  0  0  0  0
    1.7323    1.9239    0.0000 C   0  0  0  0  0  0  0  0  0  0  0  0
    3.1179    2.7239    0.0000 H   0  0  0  0  0  0  0  0  0  0  0  0
    0.2706    2.5746    0.0000 N   0  0  0  0  0  0  0  0  0  0  0  0
   -0.8000   -1.3856    0.0000 C   0  0  0  0  0  0  0  0  0  0  0  0
    0.0000   -2.7713    0.0000 H   0  0  0  0  0  0  0  0  0  0  0  0
   -2.4000   -1.3856    0.0000 C   0  0  0  0  0  0  0  0  0  0  0  0
   -3.2001   -2.7713    0.0000 H   0  0  0  0  0  0  0  0  0  0  0  0
   -5.6000   -1.3856    0.0000 O   0  0  0  0  0  0  0  0  0  0  0  0
  1  2  2  0  0  0  0
  2  3  1  0  0  0  0
  3  4  1  0  0  0  0
  4  5  1  0  0  0  0
  4  6  2  0  0  0  0
  6  7  1  0  0  0  0
  7  8  1  0  0  0  0
  8  9  1  0  0  0  0
  8 10  1  0  0  0  0
 10 11  1  0  0  0  0
 10 12  2  0  0  0  0
 12  6  1  0  0  0  0
  7 13  2  0  0  0  0
 13 14  1  0  0  0  0
 13 15  1  0  0  0  0
 15  3  2  0  0  0  0
 15 16  1  0  0  0  0
  2 17  1  0  0  0  0
M  CHG  2   2   1  17  -1
M  END
> <ChemID>
100087

> <source_casrn>
94-52-0

> <CAS>
94-52-0

> <SMILES>
[O-][N+](=O)c1cc2[n]c[nH]c2cc1

> <NAME>
1H-Benzimidazole, 5-nitro-

> <preferred_name>
6-Nitrobenzimidazole

> <iupac>
5-nitro-1H-benzimidazole

> <MPID>
101723

> <dsstox_substance_id>
DTXSID8020965

> <Canonical_QSARr>
[O-][N+](=O)c1cc2[n]c[nH]c2cc1

> <InChI_Code_QSARr>
InChI=1S/C7H5N3O2/c11-10(12)5-1-2-6-7(3-5)9-4-8-6/h1-4H,(H,8,9)

> <InChI Key_QSARr>
XPAZGLFMMUODDK-UHFFFAOYSA-N

> <LogKmHL>
-1.15

$$$$
100088
  -INDIGO-08031722222D

 14 15  0  0  0  0  0  0  0  0999 V2000
    2.4000    1.3856    0.0000 C   0  0  0  0  0  0  0  0  0  0  0  0
    3.2000    2.7713    0.0000 H   0  0  0  0  0  0  0  0  0  0  0  0
    3.2000   -0.0000    0.0000 C   0  0  0  0  0  0  0  0  0  0  0  0
    4.8000   -0.0000    0.0000 H   0  0  0  0  0  0  0  0  0  0  0  0
    2.4000   -1.3856    0.0000 C   0  0  0  0  0  0  0  0  0  0  0  0
    3.2000   -2.7713    0.0000 H   0  0  0  0  0  0  0  0  0  0  0  0
    0.8000   -1.3856    0.0000 C   0  0  0  0  0  0  0  0  0  0  0  0
   -0.0000    0.0000    0.0000 C   0  0  0  0  0  0  0  0  0  0  0  0
   -1.5650   -0.3327    0.0000 S   0  0  0  0  0  0  0  0  0  0  0  0
   -1.7322   -1.9239    0.0000 C   0  0  0  0  0  0  0  0  0  0  0  0
   -3.1179   -2.7239    0.0000 H   0  0  0  0  0  0  0  0  0  0  0  0
   -0.2706   -2.5746    0.0000 N   0  0  0  0  0  0  0  0  0  0  0  0
    0.8000    1.3856    0.0000 C   0  0  0  0  0  0  0  0  0  0  0  0
   -0.0000    2.7713    0.0000 H   0  0  0  0  0  0  0  0  0  0  0  0
  1  2  1  0  0  0  0
  1  3  1  0  0  0  0
  3  4  1  0  0  0  0
  3  5  2  0  0  0  0
  5  6  1  0  0  0  0
  5  7  1  0  0  0  0
  7  8  2  0  0  0  0
  8  9  1  0  0  0  0
  9 10  1  0  0  0  0
 10 11  1  0  0  0  0
 10 12  2  0  0  0  0
 12  7  1  0  0  0  0
  8 13  1  0  0  0  0
 13  1  2  0  0  0  0
 13 14  1  0  0  0  0
M  END
> <ChemID>
100088

> <source_casrn>
95-16-9

> <CAS>
95-16-9

> <SMILES>
c1[n]c2ccccc2[s]1

> <NAME>
Benzothiazole

> <preferred_name>
Benzothiazole

> <iupac>
1,3-benzothiazole

> <MPID>
101724

> <dsstox_substance_id>
DTXSID7024586

> <Canonical_QSARr>
c1[n]c2ccccc2[s]1

> <InChI_Code_QSARr>
InChI=1S/C7H5NS/c1-2-4-7-6(3-1)8-5-9-7/h1-5H

> <InChI Key_QSARr>
IOJUPLGTWVMSFF-UHFFFAOYSA-N

> <LogKmHL>
-0.86

$$$$
100089
  -INDIGO-08031722222D

 16 16  0  0  0  0  0  0  0  0999 V2000
   -1.3856    2.4000    0.0000 O   0  0  0  0  0  0  0  0  0  0  0  0
   -1.3856    4.0000    0.0000 H   0  0  0  0  0  0  0  0  0  0  0  0
    0.0000    1.6000    0.0000 C   0  0  0  0  0  0  0  0  0  0  0  0
    0.0000    0.0000    0.0000 C   0  0  0  0  0  0  0  0  0  0  0  0
   -1.3856   -0.8000    0.0000 C   0  0  0  0  0  0  0  0  0  0  0  0
   -2.7713   -1.6000    0.0000 H   0  0  0  0  0  0  0  0  0  0  0  0
   -1.3856   -2.4000    0.0000 H   0  0  0  0  0  0  0  0  0  0  0  0
   -2.7713    0.0000    0.0000 H   0  0  0  0  0  0  0  0  0  0  0  0
    1.3856   -0.8000    0.0000 C   0  0  0  0  0  0  0  0  0  0  0  0
    1.3856   -2.4000    0.0000 H   0  0  0  0  0  0  0  0  0  0  0  0
    2.7713    0.0000    0.0000 C   0  0  0  0  0  0  0  0  0  0  0  0
    4.1569   -0.8000    0.0000 H   0  0  0  0  0  0  0  0  0  0  0  0
    2.7713    1.6000    0.0000 C   0  0  0  0  0  0  0  0  0  0  0  0
    4.1569    2.4000    0.0000 H   0  0  0  0  0  0  0  0  0  0  0  0
    1.3856    2.4000    0.0000 C   0  0  0  0  0  0  0  0  0  0  0  0
    1.3856    4.0000    0.0000 H   0  0  0  0  0  0  0  0  0  0  0  0
  1  2  1  0  0  0  0
  1  3  1  0  0  0  0
  3  4  1  0  0  0  0
  4  5  1  0  0  0  0
  5  6  1  0  0  0  0
  5  7  1  0  0  0  0
  5  8  1  0  0  0  0
  4  9  2  0  0  0  0
  9 10  1  0  0  0  0
  9 11  1  0  0  0  0
 11 12  1  0  0  0  0
 11 13  2  0  0  0  0
 13 14  1  0  0  0  0
 13 15  1  0  0  0  0
 15  3  2  0  0  0  0
 15 16  1  0  0  0  0
M  END
> <ChemID>
100089

> <source_casrn>
95-48-7

> <CAS>
95-48-7

> <SMILES>
Cc1ccccc1O

> <NAME>
Phenol, 2-methyl-

> <preferred_name>
o-Cresol

> <iupac>
2-methylphenol

> <MPID>
101725

> <dsstox_substance_id>
DTXSID8021808

> <Canonical_QSARr>
Cc1ccccc1O

> <InChI_Code_QSARr>
InChI=1S/C7H8O/c1-6-4-2-3-5-7(6)8/h2-5,8H,1H3

> <InChI Key_QSARr>
QWVGKYWNOKOFNN-UHFFFAOYSA-N

> <LogKmHL>
-0.52

$$$$
100091
  -INDIGO-08031722222D

 12 12  0  0  0  0  0  0  0  0999 V2000
    0.8000    1.3856    0.0000 Cl  0  0  0  0  0  0  0  0  0  0  0  0
   -0.0000   -0.0000    0.0000 C   0  0  0  0  0  0  0  0  0  0  0  0
    0.8000   -1.3857    0.0000 C   0  0  0  0  0  0  0  0  0  0  0  0
    2.4000   -1.3857    0.0000 Cl  0  0  0  0  0  0  0  0  0  0  0  0
   -0.0000   -2.7713    0.0000 C   0  0  0  0  0  0  0  0  0  0  0  0
    0.8000   -4.1569    0.0000 H   0  0  0  0  0  0  0  0  0  0  0  0
   -1.6000   -2.7713    0.0000 C   0  0  0  0  0  0  0  0  0  0  0  0
   -2.4000   -4.1569    0.0000 H   0  0  0  0  0  0  0  0  0  0  0  0
   -2.4000   -1.3856    0.0000 C   0  0  0  0  0  0  0  0  0  0  0  0
   -4.0000   -1.3856    0.0000 H   0  0  0  0  0  0  0  0  0  0  0  0
   -1.6000   -0.0000    0.0000 C   0  0  0  0  0  0  0  0  0  0  0  0
   -2.4000    1.3856    0.0000 H   0  0  0  0  0  0  0  0  0  0  0  0
  1  2  1  0  0  0  0
  2  3  1  0  0  0  0
  3  4  1  0  0  0  0
  3  5  2  0  0  0  0
  5  6  1  0  0  0  0
  5  7  1  0  0  0  0
  7  8  1  0  0  0  0
  7  9  2  0  0  0  0
  9 10  1  0  0  0  0
  9 11  1  0  0  0  0
 11  2  2  0  0  0  0
 11 12  1  0  0  0  0
M  END
> <ChemID>
100091

> <source_casrn>
95-50-1

> <CAS>
95-50-1

> <SMILES>
Clc1ccccc1Cl

> <NAME>
Benzene, 1,2-dichloro-

> <preferred_name>
1,2-Dichlorobenzene

> <iupac>
1,2-dichlorobenzene

> <MPID>
101727

> <dsstox_substance_id>
DTXSID6020430

> <Canonical_QSARr>
Clc1ccccc1Cl

> <InChI_Code_QSARr>
InChI=1S/C6H4Cl2/c7-5-3-1-2-4-6(5)8/h1-4H

> <InChI Key_QSARr>
RFFLAFLAYFXFSW-UHFFFAOYSA-N

> <LogKmHL>
0.5

$$$$
100092
  -INDIGO-08031722222D

 14 14  0  0  0  0  0  0  0  0999 V2000
    1.6000   -0.0000    0.0000 N   0  0  0  0  0  0  0  0  0  0  0  0
    2.4000    1.3856    0.0000 H   0  0  0  0  0  0  0  0  0  0  0  0
    2.4000   -1.3856    0.0000 H   0  0  0  0  0  0  0  0  0  0  0  0
    0.0000   -0.0000    0.0000 C   0  0  0  0  0  0  0  0  0  0  0  0
   -0.8000    1.3856    0.0000 C   0  0  0  0  0  0  0  0  0  0  0  0
    0.0000    2.7713    0.0000 Cl  0  0  0  0  0  0  0  0  0  0  0  0
   -2.4000    1.3856    0.0000 C   0  0  0  0  0  0  0  0  0  0  0  0
   -3.2000    2.7713    0.0000 H   0  0  0  0  0  0  0  0  0  0  0  0
   -3.2000   -0.0000    0.0000 C   0  0  0  0  0  0  0  0  0  0  0  0
   -4.8000   -0.0000    0.0000 H   0  0  0  0  0  0  0  0  0  0  0  0
   -2.4000   -1.3856    0.0000 C   0  0  0  0  0  0  0  0  0  0  0  0
   -3.2000   -2.7713    0.0000 H   0  0  0  0  0  0  0  0  0  0  0  0
   -0.8000   -1.3856    0.0000 C   0  0  0  0  0  0  0  0  0  0  0  0
    0.0000   -2.7713    0.0000 H   0  0  0  0  0  0  0  0  0  0  0  0
  1  2  1  0  0  0  0
  1  3  1  0  0  0  0
  1  4  1  0  0  0  0
  4  5  1  0  0  0  0
  5  6  1  0  0  0  0
  5  7  2  0  0  0  0
  7  8  1  0  0  0  0
  7  9  1  0  0  0  0
  9 10  1  0  0  0  0
  9 11  2  0  0  0  0
 11 12  1  0  0  0  0
 11 13  1  0  0  0  0
 13  4  2  0  0  0  0
 13 14  1  0  0  0  0
M  END
> <ChemID>
100092

> <source_casrn>
95-51-2

> <CAS>
95-51-2

> <SMILES>
Nc1ccccc1Cl

> <NAME>
Benzenamine, 2-chloro-

> <preferred_name>
2-Chloroaniline

> <iupac>
2-chloroaniline

> <MPID>
101728

> <dsstox_substance_id>
DTXSID2021810

> <Canonical_QSARr>
Nc1ccccc1Cl

> <InChI_Code_QSARr>
InChI=1S/C6H6ClN/c7-5-3-1-2-4-6(5)8/h1-4H,8H2

> <InChI Key_QSARr>
AKCRQHGQIJBRMN-UHFFFAOYSA-N

> <LogKmHL>
-0.61

$$$$
100093
  -INDIGO-08031722222D

 13 13  0  0  0  0  0  0  0  0999 V2000
    1.6000   -0.0000    0.0000 C   0  0  0  0  0  0  0  0  0  0  0  0
    2.4000   -1.3857    0.0000 C   0  0  0  0  0  0  0  0  0  0  0  0
    4.0000   -1.3857    0.0000 H   0  0  0  0  0  0  0  0  0  0  0  0
    1.6000   -2.7713    0.0000 C   0  0  0  0  0  0  0  0  0  0  0  0
    2.4000   -4.1569    0.0000 H   0  0  0  0  0  0  0  0  0  0  0  0
    0.0000   -2.7713    0.0000 C   0  0  0  0  0  0  0  0  0  0  0  0
   -0.8000   -4.1569    0.0000 H   0  0  0  0  0  0  0  0  0  0  0  0
   -0.8000   -1.3856    0.0000 C   0  0  0  0  0  0  0  0  0  0  0  0
   -2.4000   -1.3856    0.0000 H   0  0  0  0  0  0  0  0  0  0  0  0
    0.0000   -0.0000    0.0000 C   0  0  0  0  0  0  0  0  0  0  0  0
   -0.8000    1.3856    0.0000 O   0  0  0  0  0  0  0  0  0  0  0  0
   -2.4000    1.3856    0.0000 H   0  0  0  0  0  0  0  0  0  0  0  0
    2.4000    1.3856    0.0000 Br  0  0  0  0  0  0  0  0  0  0  0  0
  1  2  1  0  0  0  0
  2  3  1  0  0  0  0
  2  4  2  0  0  0  0
  4  5  1  0  0  0  0
  4  6  1  0  0  0  0
  6  7  1  0  0  0  0
  6  8  2  0  0  0  0
  8  9  1  0  0  0  0
  8 10  1  0  0  0  0
 10  1  2  0  0  0  0
 10 11  1  0  0  0  0
 11 12  1  0  0  0  0
  1 13  1  0  0  0  0
M  END
> <ChemID>
100093

> <source_casrn>
95-56-7

> <CAS>
95-56-7

> <SMILES>
Oc1ccccc1Br

> <NAME>
O-bromophenol

> <preferred_name>
2-Bromophenol

> <iupac>
2-bromophenol

> <MPID>
101729

> <dsstox_substance_id>
DTXSID8052641

> <Canonical_QSARr>
Oc1ccccc1Br

> <InChI_Code_QSARr>
InChI=1S/C6H5BrO/c7-5-3-1-2-4-6(5)8/h1-4,8H

> <InChI Key_QSARr>
VADKRMSMGWJZCF-UHFFFAOYSA-N

> <LogKmHL>
-0.24

$$$$
100095
  -INDIGO-08031722222D

 21 21  0  0  0  0  0  0  0  0999 V2000
    1.3857    0.8000    0.0000 C   0  0  0  0  0  0  0  0  0  0  0  0
    2.7713    1.6000    0.0000 H   0  0  0  0  0  0  0  0  0  0  0  0
    1.3857    2.4000    0.0000 H   0  0  0  0  0  0  0  0  0  0  0  0
    2.7713   -0.0000    0.0000 H   0  0  0  0  0  0  0  0  0  0  0  0
    0.0000   -0.0000    0.0000 C   0  0  0  0  0  0  0  0  0  0  0  0
    0.0000   -1.6000    0.0000 C   0  0  0  0  0  0  0  0  0  0  0  0
    1.3857   -2.4000    0.0000 C   0  0  0  0  0  0  0  0  0  0  0  0
    2.7713   -3.2000    0.0000 H   0  0  0  0  0  0  0  0  0  0  0  0
    1.3857   -4.0000    0.0000 H   0  0  0  0  0  0  0  0  0  0  0  0
    2.7713   -1.6000    0.0000 H   0  0  0  0  0  0  0  0  0  0  0  0
   -1.3856   -2.4000    0.0000 C   0  0  0  0  0  0  0  0  0  0  0  0
   -1.3856   -4.0000    0.0000 H   0  0  0  0  0  0  0  0  0  0  0  0
   -2.7713   -1.6000    0.0000 C   0  0  0  0  0  0  0  0  0  0  0  0
   -4.1570   -2.4000    0.0000 H   0  0  0  0  0  0  0  0  0  0  0  0
   -2.7713   -0.0000    0.0000 C   0  0  0  0  0  0  0  0  0  0  0  0
   -4.1569    0.8000    0.0000 C   0  0  0  0  0  0  0  0  0  0  0  0
   -5.5426    1.6000    0.0000 H   0  0  0  0  0  0  0  0  0  0  0  0
   -5.5426   -0.0000    0.0000 H   0  0  0  0  0  0  0  0  0  0  0  0
   -4.1569    2.4000    0.0000 H   0  0  0  0  0  0  0  0  0  0  0  0
   -1.3856    0.8000    0.0000 C   0  0  0  0  0  0  0  0  0  0  0  0
   -1.3856    2.4000    0.0000 H   0  0  0  0  0  0  0  0  0  0  0  0
  1  2  1  0  0  0  0
  1  3  1  0  0  0  0
  1  4  1  0  0  0  0
  1  5  1  0  0  0  0
  5  6  1  0  0  0  0
  6  7  1  0  0  0  0
  7  8  1  0  0  0  0
  7  9  1  0  0  0  0
  7 10  1  0  0  0  0
  6 11  2  0  0  0  0
 11 12  1  0  0  0  0
 11 13  1  0  0  0  0
 13 14  1  0  0  0  0
 13 15  2  0  0  0  0
 15 16  1  0  0  0  0
 16 17  1  0  0  0  0
 16 18  1  0  0  0  0
 16 19  1  0  0  0  0
 15 20  1  0  0  0  0
 20  5  2  0  0  0  0
 20 21  1  0  0  0  0
M  END
> <ChemID>
100095

> <source_casrn>
95-63-6

> <CAS>
95-63-6

> <SMILES>
Cc1cc(C)c(C)cc1

> <NAME>
Benzene, 1,2,4-trimethyl-

> <preferred_name>
1,2,4-Trimethylbenzene

> <iupac>
1,2,4-trimethylbenzene

> <MPID>
101731

> <dsstox_substance_id>
DTXSID6021402

> <Canonical_QSARr>
Cc1cc(C)c(C)cc1

> <InChI_Code_QSARr>
InChI=1S/C9H12/c1-7-4-5-8(2)9(3)6-7/h4-6H,1-3H3

> <InChI Key_QSARr>
GWHJZXXIDMPWGX-UHFFFAOYSA-N

> <LogKmHL>
-0.31

$$$$
100096
  -INDIGO-08031722222D

 20 20  0  0  0  0  0  0  0  0999 V2000
    1.3857    0.8000    0.0000 C   0  0  0  0  0  0  0  0  0  0  0  0
    2.7713    1.6000    0.0000 H   0  0  0  0  0  0  0  0  0  0  0  0
    1.3857    2.4000    0.0000 H   0  0  0  0  0  0  0  0  0  0  0  0
    2.7713   -0.0000    0.0000 H   0  0  0  0  0  0  0  0  0  0  0  0
    0.0000   -0.0000    0.0000 C   0  0  0  0  0  0  0  0  0  0  0  0
   -1.3857    0.8000    0.0000 C   0  0  0  0  0  0  0  0  0  0  0  0
   -1.3857    2.4000    0.0000 H   0  0  0  0  0  0  0  0  0  0  0  0
   -2.7713   -0.0000    0.0000 C   0  0  0  0  0  0  0  0  0  0  0  0
   -4.1570    0.8000    0.0000 N   0  0  0  0  0  0  0  0  0  0  0  0
   -5.5426   -0.0000    0.0000 H   0  0  0  0  0  0  0  0  0  0  0  0
   -4.1569    2.4000    0.0000 H   0  0  0  0  0  0  0  0  0  0  0  0
   -2.7713   -1.6000    0.0000 C   0  0  0  0  0  0  0  0  0  0  0  0
   -4.1569   -2.4000    0.0000 H   0  0  0  0  0  0  0  0  0  0  0  0
   -1.3856   -2.4000    0.0000 C   0  0  0  0  0  0  0  0  0  0  0  0
   -1.3856   -4.0000    0.0000 H   0  0  0  0  0  0  0  0  0  0  0  0
    0.0000   -1.6000    0.0000 C   0  0  0  0  0  0  0  0  0  0  0  0
    1.3857   -2.4000    0.0000 C   0  0  0  0  0  0  0  0  0  0  0  0
    2.7713   -3.2000    0.0000 H   0  0  0  0  0  0  0  0  0  0  0  0
    1.3857   -4.0000    0.0000 H   0  0  0  0  0  0  0  0  0  0  0  0
    2.7713   -1.6000    0.0000 H   0  0  0  0  0  0  0  0  0  0  0  0
  1  2  1  0  0  0  0
  1  3  1  0  0  0  0
  1  4  1  0  0  0  0
  1  5  1  0  0  0  0
  5  6  1  0  0  0  0
  6  7  1  0  0  0  0
  6  8  2  0  0  0  0
  8  9  1  0  0  0  0
  9 10  1  0  0  0  0
  9 11  1  0  0  0  0
  8 12  1  0  0  0  0
 12 13  1  0  0  0  0
 12 14  2  0  0  0  0
 14 15  1  0  0  0  0
 14 16  1  0  0  0  0
 16  5  2  0  0  0  0
 16 17  1  0  0  0  0
 17 18  1  0  0  0  0
 17 19  1  0  0  0  0
 17 20  1  0  0  0  0
M  END
> <ChemID>
100096

> <source_casrn>
95-64-7

> <CAS>
95-64-7

> <SMILES>
Cc1cc(N)ccc1C

> <NAME>
3,4-dimethylaniline

> <preferred_name>
3,4-Dimethylaniline

> <iupac>
3,4-dimethylaniline

> <MPID>
101732

> <dsstox_substance_id>
DTXSID3026308

> <Canonical_QSARr>
Cc1cc(N)ccc1C

> <InChI_Code_QSARr>
InChI=1S/C8H11N/c1-6-3-4-8(9)5-7(6)2/h3-5H,9H2,1-2H3

> <InChI Key_QSARr>
DOLQYFPDPKPQSS-UHFFFAOYSA-N

> <LogKmHL>
-0.99

$$$$
100097
  -INDIGO-08031722222D

 14 14  0  0  0  0  0  0  0  0999 V2000
    1.6000   -0.0000    0.0000 N   0  0  0  0  0  0  0  0  0  0  0  0
    2.4000    1.3856    0.0000 H   0  0  0  0  0  0  0  0  0  0  0  0
    2.4000   -1.3856    0.0000 H   0  0  0  0  0  0  0  0  0  0  0  0
    0.0000   -0.0000    0.0000 C   0  0  0  0  0  0  0  0  0  0  0  0
   -0.8000    1.3856    0.0000 C   0  0  0  0  0  0  0  0  0  0  0  0
    0.0000    2.7713    0.0000 H   0  0  0  0  0  0  0  0  0  0  0  0
   -2.4000    1.3856    0.0000 C   0  0  0  0  0  0  0  0  0  0  0  0
   -3.2000    2.7713    0.0000 Cl  0  0  0  0  0  0  0  0  0  0  0  0
   -3.2000   -0.0000    0.0000 C   0  0  0  0  0  0  0  0  0  0  0  0
   -4.8000   -0.0000    0.0000 Cl  0  0  0  0  0  0  0  0  0  0  0  0
   -2.4000   -1.3856    0.0000 C   0  0  0  0  0  0  0  0  0  0  0  0
   -3.2000   -2.7713    0.0000 H   0  0  0  0  0  0  0  0  0  0  0  0
   -0.8000   -1.3856    0.0000 C   0  0  0  0  0  0  0  0  0  0  0  0
    0.0000   -2.7713    0.0000 H   0  0  0  0  0  0  0  0  0  0  0  0
  1  2  1  0  0  0  0
  1  3  1  0  0  0  0
  1  4  1  0  0  0  0
  4  5  1  0  0  0  0
  5  6  1  0  0  0  0
  5  7  2  0  0  0  0
  7  8  1  0  0  0  0
  7  9  1  0  0  0  0
  9 10  1  0  0  0  0
  9 11  2  0  0  0  0
 11 12  1  0  0  0  0
 11 13  1  0  0  0  0
 13  4  2  0  0  0  0
 13 14  1  0  0  0  0
M  END
> <ChemID>
100097

> <source_casrn>
95-76-1

> <CAS>
95-76-1

> <SMILES>
Nc1cc(Cl)c(Cl)cc1

> <NAME>
Benzenamine, 3,4-dichloro-

> <preferred_name>
3,4-Dichloroaniline

> <iupac>
3,4-dichloroaniline

> <MPID>
101733

> <dsstox_substance_id>
DTXSID7021815

> <Canonical_QSARr>
Nc1cc(Cl)c(Cl)cc1

> <InChI_Code_QSARr>
InChI=1S/C6H5Cl2N/c7-5-2-1-4(9)3-6(5)8/h1-3H,9H2

> <InChI Key_QSARr>
SDYWXFYBZPNOFX-UHFFFAOYSA-N

> <LogKmHL>
-1.09

$$$$
100099
  -INDIGO-08031722222D

 20 20  0  0  0  0  0  0  0  0999 V2000
   -1.3856    2.4000    0.0000 N   0  0  0  0  0  0  0  0  0  0  0  0
   -1.3856    4.0000    0.0000 H   0  0  0  0  0  0  0  0  0  0  0  0
   -2.7713    1.6000    0.0000 H   0  0  0  0  0  0  0  0  0  0  0  0
    0.0000    1.6000    0.0000 C   0  0  0  0  0  0  0  0  0  0  0  0
    0.0000    0.0000    0.0000 C   0  0  0  0  0  0  0  0  0  0  0  0
   -1.3857   -0.8000    0.0000 C   0  0  0  0  0  0  0  0  0  0  0  0
   -2.7713   -1.6000    0.0000 H   0  0  0  0  0  0  0  0  0  0  0  0
   -1.3857   -2.4000    0.0000 H   0  0  0  0  0  0  0  0  0  0  0  0
   -2.7713    0.0000    0.0000 H   0  0  0  0  0  0  0  0  0  0  0  0
    1.3857   -0.8000    0.0000 C   0  0  0  0  0  0  0  0  0  0  0  0
    1.3857   -2.4000    0.0000 H   0  0  0  0  0  0  0  0  0  0  0  0
    2.7713    0.0000    0.0000 C   0  0  0  0  0  0  0  0  0  0  0  0
    4.1570   -0.8000    0.0000 H   0  0  0  0  0  0  0  0  0  0  0  0
    2.7713    1.6000    0.0000 C   0  0  0  0  0  0  0  0  0  0  0  0
    4.1570    2.4000    0.0000 C   0  0  0  0  0  0  0  0  0  0  0  0
    5.5426    3.2000    0.0000 H   0  0  0  0  0  0  0  0  0  0  0  0
    5.5426    1.6000    0.0000 H   0  0  0  0  0  0  0  0  0  0  0  0
    4.1570    4.0000    0.0000 H   0  0  0  0  0  0  0  0  0  0  0  0
    1.3857    2.4000    0.0000 C   0  0  0  0  0  0  0  0  0  0  0  0
    1.3856    4.0000    0.0000 H   0  0  0  0  0  0  0  0  0  0  0  0
  1  2  1  0  0  0  0
  1  3  1  0  0  0  0
  1  4  1  0  0  0  0
  4  5  1  0  0  0  0
  5  6  1  0  0  0  0
  6  7  1  0  0  0  0
  6  8  1  0  0  0  0
  6  9  1  0  0  0  0
  5 10  2  0  0  0  0
 10 11  1  0  0  0  0
 10 12  1  0  0  0  0
 12 13  1  0  0  0  0
 12 14  2  0  0  0  0
 14 15  1  0  0  0  0
 15 16  1  0  0  0  0
 15 17  1  0  0  0  0
 15 18  1  0  0  0  0
 14 19  1  0  0  0  0
 19  4  2  0  0  0  0
 19 20  1  0  0  0  0
M  END
> <ChemID>
100099

> <source_casrn>
95-78-3

> <CAS>
95-78-3

> <SMILES>
Cc1cc(N)c(C)cc1

> <NAME>
2,5-dimethylaniline

> <preferred_name>
2,5-Dimethylaniline

> <iupac>
2,5-dimethylaniline

> <MPID>
101735

> <dsstox_substance_id>
DTXSID3026306

> <Canonical_QSARr>
Cc1cc(N)c(C)cc1

> <InChI_Code_QSARr>
InChI=1S/C8H11N/c1-6-3-4-7(2)8(9)5-6/h3-5H,9H2,1-2H3

> <InChI Key_QSARr>
VOWZNBNDMFLQGM-UHFFFAOYSA-N

> <LogKmHL>
-0.99

$$$$
100100
  -INDIGO-08031722222D

 14 14  0  0  0  0  0  0  0  0999 V2000
    1.6000   -0.0000    0.0000 N   0  0  0  0  0  0  0  0  0  0  0  0
    2.4000    1.3856    0.0000 H   0  0  0  0  0  0  0  0  0  0  0  0
    2.4000   -1.3856    0.0000 H   0  0  0  0  0  0  0  0  0  0  0  0
    0.0000   -0.0000    0.0000 C   0  0  0  0  0  0  0  0  0  0  0  0
   -0.8000    1.3856    0.0000 C   0  0  0  0  0  0  0  0  0  0  0  0
    0.0000    2.7713    0.0000 Cl  0  0  0  0  0  0  0  0  0  0  0  0
   -2.4000    1.3856    0.0000 C   0  0  0  0  0  0  0  0  0  0  0  0
   -3.2000    2.7713    0.0000 H   0  0  0  0  0  0  0  0  0  0  0  0
   -3.2000   -0.0000    0.0000 C   0  0  0  0  0  0  0  0  0  0  0  0
   -4.8000   -0.0000    0.0000 H   0  0  0  0  0  0  0  0  0  0  0  0
   -2.4000   -1.3856    0.0000 C   0  0  0  0  0  0  0  0  0  0  0  0
   -3.2000   -2.7713    0.0000 Cl  0  0  0  0  0  0  0  0  0  0  0  0
   -0.8000   -1.3856    0.0000 C   0  0  0  0  0  0  0  0  0  0  0  0
    0.0000   -2.7713    0.0000 H   0  0  0  0  0  0  0  0  0  0  0  0
  1  2  1  0  0  0  0
  1  3  1  0  0  0  0
  1  4  1  0  0  0  0
  4  5  1  0  0  0  0
  5  6  1  0  0  0  0
  5  7  2  0  0  0  0
  7  8  1  0  0  0  0
  7  9  1  0  0  0  0
  9 10  1  0  0  0  0
  9 11  2  0  0  0  0
 11 12  1  0  0  0  0
 11 13  1  0  0  0  0
 13  4  2  0  0  0  0
 13 14  1  0  0  0  0
M  END
> <ChemID>
100100

> <source_casrn>
95-82-9

> <CAS>
95-82-9

> <SMILES>
Nc1cc(Cl)ccc1Cl

> <NAME>
2,5-dichloroaniline

> <preferred_name>
2,5-Dichloroaniline

> <iupac>
2,5-dichloroaniline

> <MPID>
101736

> <dsstox_substance_id>
DTXSID6024967

> <Canonical_QSARr>
Nc1cc(Cl)ccc1Cl

> <InChI_Code_QSARr>
InChI=1S/C6H5Cl2N/c7-4-1-2-5(8)6(9)3-4/h1-3H,9H2

> <InChI Key_QSARr>
AVYGCQXNNJPXSS-UHFFFAOYSA-N

> <LogKmHL>
-1.13

$$$$
100101
  -INDIGO-08031722222D

 12 12  0  0  0  0  0  0  0  0999 V2000
    0.8000    1.3856    0.0000 Cl  0  0  0  0  0  0  0  0  0  0  0  0
   -0.0000   -0.0000    0.0000 C   0  0  0  0  0  0  0  0  0  0  0  0
    0.8000   -1.3857    0.0000 C   0  0  0  0  0  0  0  0  0  0  0  0
    2.4000   -1.3857    0.0000 H   0  0  0  0  0  0  0  0  0  0  0  0
   -0.0000   -2.7713    0.0000 C   0  0  0  0  0  0  0  0  0  0  0  0
    0.8000   -4.1569    0.0000 Cl  0  0  0  0  0  0  0  0  0  0  0  0
   -1.6000   -2.7713    0.0000 C   0  0  0  0  0  0  0  0  0  0  0  0
   -2.4000   -4.1569    0.0000 Cl  0  0  0  0  0  0  0  0  0  0  0  0
   -2.4000   -1.3856    0.0000 C   0  0  0  0  0  0  0  0  0  0  0  0
   -4.0000   -1.3856    0.0000 H   0  0  0  0  0  0  0  0  0  0  0  0
   -1.6000   -0.0000    0.0000 C   0  0  0  0  0  0  0  0  0  0  0  0
   -2.4000    1.3856    0.0000 Cl  0  0  0  0  0  0  0  0  0  0  0  0
  1  2  1  0  0  0  0
  2  3  1  0  0  0  0
  3  4  1  0  0  0  0
  3  5  2  0  0  0  0
  5  6  1  0  0  0  0
  5  7  1  0  0  0  0
  7  8  1  0  0  0  0
  7  9  2  0  0  0  0
  9 10  1  0  0  0  0
  9 11  1  0  0  0  0
 11  2  2  0  0  0  0
 11 12  1  0  0  0  0
M  END
> <ChemID>
100101

> <source_casrn>
95-94-3

> <CAS>
95-94-3

> <SMILES>
Clc1cc(Cl)c(Cl)cc1Cl

> <NAME>
Benzene, 1,2,4,5-tetrachloro-

> <preferred_name>
1,2,4,5-Tetrachlorobenzene

> <iupac>
1,2,4,5-tetrachlorobenzene

> <MPID>
101737

> <dsstox_substance_id>
DTXSID7024320

> <Canonical_QSARr>
Clc1cc(Cl)c(Cl)cc1Cl

> <InChI_Code_QSARr>
InChI=1S/C6H2Cl4/c7-3-1-4(8)6(10)2-5(3)9/h1-2H

> <InChI Key_QSARr>
JHBKHLUZVFWLAG-UHFFFAOYSA-N

> <LogKmHL>
1.79

$$$$
100103
  -INDIGO-08031722222D

 11 10  0  0  0  0  0  0  0  0999 V2000
   -0.6123   -1.4782    0.0000 Cl  0  0  0  0  0  0  0  0  0  0  0  0
    0.0000    0.0000    0.0000 C   0  0  0  0  0  0  0  0  0  0  0  0
    0.6123   -1.4782    0.0000 H   0  0  0  0  0  0  0  0  0  0  0  0
   -1.3856    0.8000    0.0000 C   0  0  0  0  0  0  0  0  0  0  0  0
   -2.7713    1.6000    0.0000 H   0  0  0  0  0  0  0  0  0  0  0  0
   -2.7713    0.0000    0.0000 H   0  0  0  0  0  0  0  0  0  0  0  0
   -1.3856    2.4000    0.0000 Cl  0  0  0  0  0  0  0  0  0  0  0  0
    1.3856    0.8000    0.0000 C   0  0  0  0  0  0  0  0  0  0  0  0
    2.7713    1.6000    0.0000 H   0  0  0  0  0  0  0  0  0  0  0  0
    2.7713    0.0000    0.0000 H   0  0  0  0  0  0  0  0  0  0  0  0
    1.3856    2.4000    0.0000 Cl  0  0  0  0  0  0  0  0  0  0  0  0
  1  2  1  0  0  0  0
  2  3  1  0  0  0  0
  2  4  1  0  0  0  0
  4  5  1  0  0  0  0
  4  6  1  0  0  0  0
  4  7  1  0  0  0  0
  2  8  1  0  0  0  0
  8  9  1  0  0  0  0
  8 10  1  0  0  0  0
  8 11  1  0  0  0  0
M  END
> <ChemID>
100103

> <source_casrn>
96-18-4

> <CAS>
96-18-4

> <SMILES>
ClC(CCl)CCl

> <NAME>
Propane, 1,2,3-trichloro-

> <preferred_name>
1,2,3-Trichloropropane

> <iupac>
1,2,3-trichloropropane

> <MPID>
101739

> <dsstox_substance_id>
DTXSID9021390

> <Canonical_QSARr>
ClC(CCl)CCl

> <InChI_Code_QSARr>
InChI=1S/C3H5Cl3/c4-1-3(6)2-5/h3H,1-2H2

> <InChI Key_QSARr>
CFXQEHVMCRXUSD-UHFFFAOYSA-N

> <LogKmHL>
-0.53

$$$$
100104
  -INDIGO-08031722222D

 15 14  0  0  0  0  0  0  0  0999 V2000
    0.8000    1.3856    0.0000 N   0  0  0  0  0  0  0  0  0  0  0  0
    2.4000    1.3856    0.0000 O   0  0  0  0  0  0  0  0  0  0  0  0
    0.0000    0.0000    0.0000 C   0  0  0  0  0  0  0  0  0  0  0  0
   -0.8000   -1.3856    0.0000 H   0  0  0  0  0  0  0  0  0  0  0  0
   -1.3856    0.8000    0.0000 C   0  0  0  0  0  0  0  0  0  0  0  0
   -0.7733    2.2782    0.0000 H   0  0  0  0  0  0  0  0  0  0  0  0
   -1.9980    2.2782    0.0000 H   0  0  0  0  0  0  0  0  0  0  0  0
   -2.7713    0.0000    0.0000 C   0  0  0  0  0  0  0  0  0  0  0  0
   -4.1569   -0.8000    0.0000 H   0  0  0  0  0  0  0  0  0  0  0  0
   -4.1569    0.8000    0.0000 H   0  0  0  0  0  0  0  0  0  0  0  0
   -2.7713   -1.6000    0.0000 H   0  0  0  0  0  0  0  0  0  0  0  0
    1.3856   -0.8000    0.0000 C   0  0  0  0  0  0  0  0  0  0  0  0
    2.7713   -1.6000    0.0000 H   0  0  0  0  0  0  0  0  0  0  0  0
    2.7713    0.0000    0.0000 H   0  0  0  0  0  0  0  0  0  0  0  0
    1.3856   -2.4000    0.0000 H   0  0  0  0  0  0  0  0  0  0  0  0
  1  2  2  0  0  0  0
  1  3  1  0  0  0  0
  3  4  1  0  0  0  0
  3  5  1  0  0  0  0
  5  6  1  0  0  0  0
  5  7  1  0  0  0  0
  5  8  1  0  0  0  0
  8  9  1  0  0  0  0
  8 10  1  0  0  0  0
  8 11  1  0  0  0  0
  3 12  1  0  0  0  0
 12 13  1  0  0  0  0
 12 14  1  0  0  0  0
 12 15  1  0  0  0  0
M  END
> <ChemID>
100104

> <source_casrn>
96-29-7

> <CAS>
96-29-7

> <SMILES>
CCC(C)=NO

> <NAME>
2-Butanone, oxime

> <preferred_name>
2-Butanone oxime

> <iupac>
N-hydroxybutan-2-imine

> <MPID>
101740

> <dsstox_substance_id>
DTXSID1021821

> <Canonical_QSARr>
CCC(C)N=O

> <InChI_Code_QSARr>
InChI=1S/C4H9NO/c1-3-4(2)5-6/h4H,3H2,1-2H3

> <InChI Key_QSARr>
GRFXXWWBAWFSRF-UHFFFAOYSA-N

> <LogKmHL>
-1.33

$$$$
100105
  -INDIGO-08031722222D

 37 37  0  0  0  0  0  0  0  0999 V2000
   -1.3856    2.4000    0.0000 C   0  0  0  0  0  0  0  0  0  0  0  0
   -0.0000    3.2000    0.0000 O   0  0  0  0  0  0  0  0  0  0  0  0
   -0.0000    4.8000    0.0000 H   0  0  0  0  0  0  0  0  0  0  0  0
   -1.3856    0.8000    0.0000 C   0  0  0  0  0  0  0  0  0  0  0  0
   -0.0000   -0.0000    0.0000 C   0  0  0  0  0  0  0  0  0  0  0  0
    1.3856   -0.8000    0.0000 C   0  0  0  0  0  0  0  0  0  0  0  0
    2.7713   -1.6001    0.0000 H   0  0  0  0  0  0  0  0  0  0  0  0
    2.8891   -0.2528    0.0000 H   0  0  0  0  0  0  0  0  0  0  0  0
    1.6635   -2.3757    0.0000 H   0  0  0  0  0  0  0  0  0  0  0  0
    0.8000    1.3856    0.0000 C   0  0  0  0  0  0  0  0  0  0  0  0
    1.3472    2.8892    0.0000 H   0  0  0  0  0  0  0  0  0  0  0  0
    2.3757    1.6634    0.0000 H   0  0  0  0  0  0  0  0  0  0  0  0
    1.8285    0.1600    0.0000 H   0  0  0  0  0  0  0  0  0  0  0  0
   -0.8000   -1.3857    0.0000 C   0  0  0  0  0  0  0  0  0  0  0  0
   -1.8285   -2.6113    0.0000 H   0  0  0  0  0  0  0  0  0  0  0  0
   -0.2527   -2.8891    0.0000 H   0  0  0  0  0  0  0  0  0  0  0  0
    0.7756   -1.6635    0.0000 H   0  0  0  0  0  0  0  0  0  0  0  0
   -2.7712   -0.0000    0.0000 C   0  0  0  0  0  0  0  0  0  0  0  0
   -2.7712   -1.6001    0.0000 H   0  0  0  0  0  0  0  0  0  0  0  0
   -4.1570    0.8000    0.0000 C   0  0  0  0  0  0  0  0  0  0  0  0
   -5.5425   -0.0000    0.0000 C   0  0  0  0  0  0  0  0  0  0  0  0
   -6.9281   -0.8000    0.0000 C   0  0  0  0  0  0  0  0  0  0  0  0
   -8.3139   -1.6001    0.0000 H   0  0  0  0  0  0  0  0  0  0  0  0
   -8.4317   -0.2528    0.0000 H   0  0  0  0  0  0  0  0  0  0  0  0
   -7.2061   -2.3757    0.0000 H   0  0  0  0  0  0  0  0  0  0  0  0
   -6.3425    1.3856    0.0000 C   0  0  0  0  0  0  0  0  0  0  0  0
   -6.8898    2.8892    0.0000 H   0  0  0  0  0  0  0  0  0  0  0  0
   -7.9183    1.6634    0.0000 H   0  0  0  0  0  0  0  0  0  0  0  0
   -7.3711    0.1600    0.0000 H   0  0  0  0  0  0  0  0  0  0  0  0
   -4.7426   -1.3857    0.0000 C   0  0  0  0  0  0  0  0  0  0  0  0
   -3.7140   -2.6113    0.0000 H   0  0  0  0  0  0  0  0  0  0  0  0
   -5.2898   -2.8891    0.0000 H   0  0  0  0  0  0  0  0  0  0  0  0
   -6.3182   -1.6635    0.0000 H   0  0  0  0  0  0  0  0  0  0  0  0
   -4.1570    2.4000    0.0000 C   0  0  0  0  0  0  0  0  0  0  0  0
   -5.5425    3.2000    0.0000 H   0  0  0  0  0  0  0  0  0  0  0  0
   -2.7712    3.2000    0.0000 C   0  0  0  0  0  0  0  0  0  0  0  0
   -2.7712    4.8000    0.0000 H   0  0  0  0  0  0  0  0  0  0  0  0
  1  2  1  0  0  0  0
  2  3  1  0  0  0  0
  1  4  1  0  0  0  0
  4  5  1  0  0  0  0
  5  6  1  0  0  0  0
  6  7  1  0  0  0  0
  6  8  1  0  0  0  0
  6  9  1  0  0  0  0
  5 10  1  0  0  0  0
 10 11  1  0  0  0  0
 10 12  1  0  0  0  0
 10 13  1  0  0  0  0
  5 14  1  0  0  0  0
 14 15  1  0  0  0  0
 14 16  1  0  0  0  0
 14 17  1  0  0  0  0
  4 18  2  0  0  0  0
 18 19  1  0  0  0  0
 18 20  1  0  0  0  0
 20 21  1  0  0  0  0
 21 22  1  0  0  0  0
 22 23  1  0  0  0  0
 22 24  1  0  0  0  0
 22 25  1  0  0  0  0
 21 26  1  0  0  0  0
 26 27  1  0  0  0  0
 26 28  1  0  0  0  0
 26 29  1  0  0  0  0
 21 30  1  0  0  0  0
 30 31  1  0  0  0  0
 30 32  1  0  0  0  0
 30 33  1  0  0  0  0
 20 34  2  0  0  0  0
 34 35  1  0  0  0  0
 34 36  1  0  0  0  0
 36  1  2  0  0  0  0
 36 37  1  0  0  0  0
M  END
> <ChemID>
100105

> <source_casrn>
96-76-4

> <CAS>
96-76-4

> <SMILES>
CC(C)(C)c1cc(ccc1O)C(C)(C)C

> <NAME>
Phenol, 2,4-bis(1,1-dimethylethyl)-

> <preferred_name>
2,4-Di-tert-butylphenol

> <iupac>
2,4-di-tert-butylphenol

> <MPID>
101741

> <dsstox_substance_id>
DTXSID2026602

> <Canonical_QSARr>
CC(C)(C)c1cc(ccc1O)C(C)(C)C

> <InChI_Code_QSARr>
InChI=1S/C14H22O/c1-13(2,3)10-7-8-12(15)11(9-10)14(4,5)6/h7-9,15H,1-6H3

> <InChI Key_QSARr>
ICKWICRCANNIBI-UHFFFAOYSA-N

> <LogKmHL>
-0.37

$$$$
100107
  -INDIGO-08031722222D

 27 28  0  0  0  0  0  0  0  0999 V2000
    2.0570    2.4513    0.0000 O   0  0  0  0  0  0  0  0  0  0  0  0
    3.0855    3.6770    0.0000 H   0  0  0  0  0  0  0  0  0  0  0  0
    2.6041    0.9478    0.0000 C   0  0  0  0  0  0  0  0  0  0  0  0
    4.1799    0.6700    0.0000 C   0  0  0  0  0  0  0  0  0  0  0  0
    5.2083    1.8957    0.0000 H   0  0  0  0  0  0  0  0  0  0  0  0
    4.7270   -0.8335    0.0000 C   0  0  0  0  0  0  0  0  0  0  0  0
    6.3028   -1.1113    0.0000 H   0  0  0  0  0  0  0  0  0  0  0  0
    3.6986   -2.0592    0.0000 C   0  0  0  0  0  0  0  0  0  0  0  0
    4.2459   -3.5626    0.0000 Cl  0  0  0  0  0  0  0  0  0  0  0  0
    2.1230   -1.7813    0.0000 C   0  0  0  0  0  0  0  0  0  0  0  0
    1.0945   -3.0071    0.0000 H   0  0  0  0  0  0  0  0  0  0  0  0
    1.5757   -0.2779    0.0000 C   0  0  0  0  0  0  0  0  0  0  0  0
    0.0001   -0.0000    0.0000 C   0  0  0  0  0  0  0  0  0  0  0  0
    0.3462    1.5621    0.0000 H   0  0  0  0  0  0  0  0  0  0  0  0
   -0.8597    1.3495    0.0000 H   0  0  0  0  0  0  0  0  0  0  0  0
   -1.3857   -0.8000    0.0000 C   0  0  0  0  0  0  0  0  0  0  0  0
   -1.3857   -2.4000    0.0000 C   0  0  0  0  0  0  0  0  0  0  0  0
    0.0001   -3.2001    0.0000 H   0  0  0  0  0  0  0  0  0  0  0  0
   -2.7713   -3.2001    0.0000 C   0  0  0  0  0  0  0  0  0  0  0  0
   -2.7713   -4.8000    0.0000 Cl  0  0  0  0  0  0  0  0  0  0  0  0
   -4.1569   -2.4000    0.0000 C   0  0  0  0  0  0  0  0  0  0  0  0
   -5.5426   -3.2001    0.0000 H   0  0  0  0  0  0  0  0  0  0  0  0
   -4.1569   -0.8000    0.0000 C   0  0  0  0  0  0  0  0  0  0  0  0
   -5.5426   -0.0000    0.0000 H   0  0  0  0  0  0  0  0  0  0  0  0
   -2.7713   -0.0000    0.0000 C   0  0  0  0  0  0  0  0  0  0  0  0
   -2.7713    1.6000    0.0000 O   0  0  0  0  0  0  0  0  0  0  0  0
   -4.1569    2.4001    0.0000 H   0  0  0  0  0  0  0  0  0  0  0  0
  1  2  1  0  0  0  0
  1  3  1  0  0  0  0
  3  4  1  0  0  0  0
  4  5  1  0  0  0  0
  4  6  2  0  0  0  0
  6  7  1  0  0  0  0
  6  8  1  0  0  0  0
  8  9  1  0  0  0  0
  8 10  2  0  0  0  0
 10 11  1  0  0  0  0
 10 12  1  0  0  0  0
 12  3  2  0  0  0  0
 12 13  1  0  0  0  0
 13 14  1  0  0  0  0
 13 15  1  0  0  0  0
 13 16  1  0  0  0  0
 16 17  1  0  0  0  0
 17 18  1  0  0  0  0
 17 19  2  0  0  0  0
 19 20  1  0  0  0  0
 19 21  1  0  0  0  0
 21 22  1  0  0  0  0
 21 23  2  0  0  0  0
 23 24  1  0  0  0  0
 23 25  1  0  0  0  0
 25 16  2  0  0  0  0
 25 26  1  0  0  0  0
 26 27  1  0  0  0  0
M  END
> <ChemID>
100107

> <source_casrn>
97-23-4

> <CAS>
97-23-4

> <SMILES>
Oc(c(cc(c1)Cl)Cc(c(O)ccc2Cl)c2)c1

> <NAME>
Phenol, 2,2-methylenebis[4-chloro-

> <preferred_name>
Dichlorophen

> <iupac>
2,2'-methanediylbis(4-chlorophenol)

> <MPID>
101743

> <dsstox_substance_id>
DTXSID6021824

> <Canonical_QSARr>
Oc1ccc(Cl)cc1Cc1cc(Cl)ccc1O

> <InChI_Code_QSARr>
InChI=1S/C13H10Cl2O2/c14-10-1-3-12(16)8(6-10)5-9-7-11(15)2-4-13(9)17/h1-4,6-7,16-17H,5H2

> <InChI Key_QSARr>
MDNWOSOZYLHTCG-UHFFFAOYSA-N

> <LogKmHL>
-0.51

$$$$
100108
  -INDIGO-08031722222D

 15 15  0  0  0  0  0  0  0  0999 V2000
    2.4001    1.3856    0.0000 F   0  0  0  0  0  0  0  0  0  0  0  0
    1.6000   -0.0000    0.0000 C   0  0  0  0  0  0  0  0  0  0  0  0
    3.2000   -0.0000    0.0000 F   0  0  0  0  0  0  0  0  0  0  0  0
    2.4001   -1.3856    0.0000 F   0  0  0  0  0  0  0  0  0  0  0  0
    0.0000   -0.0000    0.0000 C   0  0  0  0  0  0  0  0  0  0  0  0
   -0.7999    1.3856    0.0000 C   0  0  0  0  0  0  0  0  0  0  0  0
    0.0000    2.7713    0.0000 H   0  0  0  0  0  0  0  0  0  0  0  0
   -2.4001    1.3856    0.0000 C   0  0  0  0  0  0  0  0  0  0  0  0
   -3.2000    2.7713    0.0000 H   0  0  0  0  0  0  0  0  0  0  0  0
   -3.2000   -0.0000    0.0000 C   0  0  0  0  0  0  0  0  0  0  0  0
   -4.8000   -0.0000    0.0000 H   0  0  0  0  0  0  0  0  0  0  0  0
   -2.4001   -1.3856    0.0000 C   0  0  0  0  0  0  0  0  0  0  0  0
   -3.2000   -2.7713    0.0000 H   0  0  0  0  0  0  0  0  0  0  0  0
   -0.8001   -1.3856    0.0000 C   0  0  0  0  0  0  0  0  0  0  0  0
    0.0000   -2.7713    0.0000 H   0  0  0  0  0  0  0  0  0  0  0  0
  1  2  1  0  0  0  0
  2  3  1  0  0  0  0
  2  4  1  0  0  0  0
  2  5  1  0  0  0  0
  5  6  1  0  0  0  0
  6  7  1  0  0  0  0
  6  8  2  0  0  0  0
  8  9  1  0  0  0  0
  8 10  1  0  0  0  0
 10 11  1  0  0  0  0
 10 12  2  0  0  0  0
 12 13  1  0  0  0  0
 12 14  1  0  0  0  0
 14  5  2  0  0  0  0
 14 15  1  0  0  0  0
M  END
> <ChemID>
100108

> <source_casrn>
98-08-8

> <CAS>
98-08-8

> <SMILES>
FC(F)(F)c1ccccc1

> <NAME>
Benzotrifluoride

> <preferred_name>
Benzotrifluoride

> <iupac>
(trifluoromethyl)benzene

> <MPID>
101744

> <dsstox_substance_id>
DTXSID2024589

> <Canonical_QSARr>
FC(F)(F)c1ccccc1

> <InChI_Code_QSARr>
InChI=1S/C7H5F3/c8-7(9,10)6-4-2-1-3-5-6/h1-5H

> <InChI Key_QSARr>
GETTZEONDQJALK-UHFFFAOYSA-N

> <LogKmHL>
-0.48

$$$$
100109
  -INDIGO-08031722222D

 17 17  0  0  0  0  0  0  0  0999 V2000
   -0.0000   -0.0000    0.0000 C   0  0  0  0  0  0  0  0  0  0  0  0
   -0.8000    1.3856    0.0000 C   0  0  0  0  0  0  0  0  0  0  0  0
   -0.0000    2.7713    0.0000 H   0  0  0  0  0  0  0  0  0  0  0  0
   -2.4000    1.3856    0.0000 C   0  0  0  0  0  0  0  0  0  0  0  0
   -3.2001    2.7713    0.0000 H   0  0  0  0  0  0  0  0  0  0  0  0
   -3.2001   -0.0000    0.0000 C   0  0  0  0  0  0  0  0  0  0  0  0
   -4.8000   -0.0000    0.0000 H   0  0  0  0  0  0  0  0  0  0  0  0
   -2.4000   -1.3856    0.0000 C   0  0  0  0  0  0  0  0  0  0  0  0
   -3.2001   -2.7713    0.0000 H   0  0  0  0  0  0  0  0  0  0  0  0
   -0.8000   -1.3856    0.0000 C   0  0  0  0  0  0  0  0  0  0  0  0
   -0.0000   -2.7713    0.0000 H   0  0  0  0  0  0  0  0  0  0  0  0
    1.6000   -0.0000    0.0000 S   0  0  0  0  0  0  0  0  0  0  0  0
    3.2000   -0.0000    0.0000 N   0  0  0  0  0  0  0  0  0  0  0  0
    4.0000   -1.3856    0.0000 H   0  0  0  0  0  0  0  0  0  0  0  0
    4.0000    1.3856    0.0000 H   0  0  0  0  0  0  0  0  0  0  0  0
    1.6000    1.6000    0.0000 O   0  0  0  0  0  0  0  0  0  0  0  0
    1.6000   -1.6000    0.0000 O   0  0  0  0  0  0  0  0  0  0  0  0
  1  2  1  0  0  0  0
  2  3  1  0  0  0  0
  2  4  2  0  0  0  0
  4  5  1  0  0  0  0
  4  6  1  0  0  0  0
  6  7  1  0  0  0  0
  6  8  2  0  0  0  0
  8  9  1  0  0  0  0
  8 10  1  0  0  0  0
 10  1  2  0  0  0  0
 10 11  1  0  0  0  0
  1 12  1  0  0  0  0
 12 13  1  0  0  0  0
 13 14  1  0  0  0  0
 13 15  1  0  0  0  0
 12 16  2  0  0  0  0
 12 17  2  0  0  0  0
M  END
> <ChemID>
100109

> <source_casrn>
98-10-2

> <CAS>
98-10-2

> <SMILES>
NS(=O)(=O)c1ccccc1

> <NAME>
Benzenesulfonamide

> <preferred_name>
Benzenesulfonamide

> <iupac>
Benzenesulfonamide

> <MPID>
101745

> <dsstox_substance_id>
DTXSID1059159

> <Canonical_QSARr>
NS(=O)(=O)c1ccccc1

> <InChI_Code_QSARr>
InChI=1S/C6H7NO2S/c7-10(8,9)6-4-2-1-3-5-6/h1-5H,(H2,7,8,9)

> <InChI Key_QSARr>
KHBQMWCZKVMBLN-UHFFFAOYSA-N

> <LogKmHL>
-0.71

$$$$
100111
  -INDIGO-08031722222D

 27 27  0  0  0  0  0  0  0  0999 V2000
   -1.5999    0.0000    0.0000 C   0  0  0  0  0  0  0  0  0  0  0  0
   -2.3999    1.3857    0.0000 C   0  0  0  0  0  0  0  0  0  0  0  0
   -1.5999    2.7713    0.0000 H   0  0  0  0  0  0  0  0  0  0  0  0
   -4.0001    1.3857    0.0000 C   0  0  0  0  0  0  0  0  0  0  0  0
   -4.8000    2.7713    0.0000 H   0  0  0  0  0  0  0  0  0  0  0  0
   -4.8000    0.0000    0.0000 C   0  0  0  0  0  0  0  0  0  0  0  0
   -6.4000    0.0000    0.0000 C   0  0  0  0  0  0  0  0  0  0  0  0
   -8.0000    0.0000    0.0000 H   0  0  0  0  0  0  0  0  0  0  0  0
   -7.2000   -1.3857    0.0000 H   0  0  0  0  0  0  0  0  0  0  0  0
   -7.2000    1.3857    0.0000 H   0  0  0  0  0  0  0  0  0  0  0  0
   -4.0001   -1.3857    0.0000 C   0  0  0  0  0  0  0  0  0  0  0  0
   -4.8000   -2.7713    0.0000 H   0  0  0  0  0  0  0  0  0  0  0  0
   -2.3999   -1.3857    0.0000 C   0  0  0  0  0  0  0  0  0  0  0  0
   -1.5999   -2.7713    0.0000 H   0  0  0  0  0  0  0  0  0  0  0  0
    0.0000    0.0000    0.0000 C   0  0  0  0  0  0  0  0  0  0  0  0
    1.6000   -0.0000    0.0000 C   0  0  0  0  0  0  0  0  0  0  0  0
    3.2000   -0.0000    0.0000 H   0  0  0  0  0  0  0  0  0  0  0  0
    2.6285   -1.2256    0.0000 H   0  0  0  0  0  0  0  0  0  0  0  0
    2.6285    1.2256    0.0000 H   0  0  0  0  0  0  0  0  0  0  0  0
    0.0000    1.6000    0.0000 C   0  0  0  0  0  0  0  0  0  0  0  0
   -0.2778    3.1757    0.0000 H   0  0  0  0  0  0  0  0  0  0  0  0
    1.2258    2.6285    0.0000 H   0  0  0  0  0  0  0  0  0  0  0  0
    1.5035    1.0527    0.0000 H   0  0  0  0  0  0  0  0  0  0  0  0
    0.0000   -1.6000    0.0000 C   0  0  0  0  0  0  0  0  0  0  0  0
   -0.2778   -3.1757    0.0000 H   0  0  0  0  0  0  0  0  0  0  0  0
    1.2258   -2.6285    0.0000 H   0  0  0  0  0  0  0  0  0  0  0  0
    1.5035   -1.0527    0.0000 H   0  0  0  0  0  0  0  0  0  0  0  0
  1  2  1  0  0  0  0
  2  3  1  0  0  0  0
  2  4  2  0  0  0  0
  4  5  1  0  0  0  0
  4  6  1  0  0  0  0
  6  7  1  0  0  0  0
  7  8  1  0  0  0  0
  7  9  1  0  0  0  0
  7 10  1  0  0  0  0
  6 11  2  0  0  0  0
 11 12  1  0  0  0  0
 11 13  1  0  0  0  0
 13  1  2  0  0  0  0
 13 14  1  0  0  0  0
  1 15  1  0  0  0  0
 15 16  1  0  0  0  0
 16 17  1  0  0  0  0
 16 18  1  0  0  0  0
 16 19  1  0  0  0  0
 15 20  1  0  0  0  0
 20 21  1  0  0  0  0
 20 22  1  0  0  0  0
 20 23  1  0  0  0  0
 15 24  1  0  0  0  0
 24 25  1  0  0  0  0
 24 26  1  0  0  0  0
 24 27  1  0  0  0  0
M  END
> <ChemID>
100111

> <source_casrn>
98-51-1

> <CAS>
98-51-1

> <SMILES>
C(C)(C)(C)c1ccc(C)cc1

> <NAME>
1-tert butyl-4-methyl benzene

> <preferred_name>
4-tert-Butyltoluene

> <iupac>
1-tert-butyl-4-methylbenzene

> <MPID>
101747

> <dsstox_substance_id>
DTXSID1024704

> <Canonical_QSARr>
Cc1ccc(cc1)C(C)(C)C

> <InChI_Code_QSARr>
InChI=1S/C11H16/c1-9-5-7-10(8-6-9)11(2,3)4/h5-8H,1-4H3

> <InChI Key_QSARr>
QCWXDVFBZVHKLV-UHFFFAOYSA-N

> <LogKmHL>
0.31

$$$$
100112
  -INDIGO-08031722222D

 25 25  0  0  0  0  0  0  0  0999 V2000
    0.0001    0.0000    0.0000 C   0  0  0  0  0  0  0  0  0  0  0  0
    1.6000    0.0000    0.0000 C   0  0  0  0  0  0  0  0  0  0  0  0
    2.4000    1.3857    0.0000 C   0  0  0  0  0  0  0  0  0  0  0  0
    1.6000    2.7713    0.0000 H   0  0  0  0  0  0  0  0  0  0  0  0
    3.9999    1.3857    0.0000 C   0  0  0  0  0  0  0  0  0  0  0  0
    4.8001    2.7713    0.0000 H   0  0  0  0  0  0  0  0  0  0  0  0
    4.8001    0.0000    0.0000 C   0  0  0  0  0  0  0  0  0  0  0  0
    6.4000    0.0000    0.0000 O   0  0  0  0  0  0  0  0  0  0  0  0
    7.2000    1.3857    0.0000 H   0  0  0  0  0  0  0  0  0  0  0  0
    3.9999   -1.3857    0.0000 C   0  0  0  0  0  0  0  0  0  0  0  0
    4.8001   -2.7713    0.0000 H   0  0  0  0  0  0  0  0  0  0  0  0
    2.4000   -1.3857    0.0000 C   0  0  0  0  0  0  0  0  0  0  0  0
    1.6000   -2.7713    0.0000 H   0  0  0  0  0  0  0  0  0  0  0  0
   -1.6000   -0.0000    0.0000 C   0  0  0  0  0  0  0  0  0  0  0  0
   -3.2000   -0.0000    0.0000 H   0  0  0  0  0  0  0  0  0  0  0  0
   -2.6284    1.2256    0.0000 H   0  0  0  0  0  0  0  0  0  0  0  0
   -2.6284   -1.2256    0.0000 H   0  0  0  0  0  0  0  0  0  0  0  0
    0.0001    1.6000    0.0000 C   0  0  0  0  0  0  0  0  0  0  0  0
    0.2778    3.1757    0.0000 H   0  0  0  0  0  0  0  0  0  0  0  0
   -1.2257    2.6285    0.0000 H   0  0  0  0  0  0  0  0  0  0  0  0
   -1.5036    1.0527    0.0000 H   0  0  0  0  0  0  0  0  0  0  0  0
    0.0001   -1.6000    0.0000 C   0  0  0  0  0  0  0  0  0  0  0  0
    0.2778   -3.1757    0.0000 H   0  0  0  0  0  0  0  0  0  0  0  0
   -1.2257   -2.6285    0.0000 H   0  0  0  0  0  0  0  0  0  0  0  0
   -1.5036   -1.0527    0.0000 H   0  0  0  0  0  0  0  0  0  0  0  0
  1  2  1  0  0  0  0
  2  3  1  0  0  0  0
  3  4  1  0  0  0  0
  3  5  2  0  0  0  0
  5  6  1  0  0  0  0
  5  7  1  0  0  0  0
  7  8  1  0  0  0  0
  8  9  1  0  0  0  0
  7 10  2  0  0  0  0
 10 11  1  0  0  0  0
 10 12  1  0  0  0  0
 12  2  2  0  0  0  0
 12 13  1  0  0  0  0
  1 14  1  0  0  0  0
 14 15  1  0  0  0  0
 14 16  1  0  0  0  0
 14 17  1  0  0  0  0
  1 18  1  0  0  0  0
 18 19  1  0  0  0  0
 18 20  1  0  0  0  0
 18 21  1  0  0  0  0
  1 22  1  0  0  0  0
 22 23  1  0  0  0  0
 22 24  1  0  0  0  0
 22 25  1  0  0  0  0
M  END
> <ChemID>
100112

> <source_casrn>
98-54-4

> <CAS>
98-54-4

> <SMILES>
CC(C)(C)c1ccc(O)cc1

> <NAME>
Phenol, 4-(1,1-dimethylethyl)-

> <preferred_name>
4-tert-Butylphenol

> <iupac>
4-tert-butylphenol

> <MPID>
101748

> <dsstox_substance_id>
DTXSID1020221

> <Canonical_QSARr>
CC(C)(C)c1ccc(O)cc1

> <InChI_Code_QSARr>
InChI=1S/C10H14O/c1-10(2,3)8-4-6-9(11)7-5-8/h4-7,11H,1-3H3

> <InChI Key_QSARr>
QHPQWRBYOIRBIT-UHFFFAOYSA-N

> <LogKmHL>
-0.87

$$$$
100113
  -INDIGO-08031722222D

 19 19  0  0  0  0  0  0  0  0999 V2000
    1.6000   -0.0000    0.0000 C   0  0  0  0  0  0  0  0  0  0  0  0
    2.4001   -1.3856    0.0000 C   0  0  0  0  0  0  0  0  0  0  0  0
    3.2000   -2.7713    0.0000 H   0  0  0  0  0  0  0  0  0  0  0  0
    4.0000   -1.3856    0.0000 H   0  0  0  0  0  0  0  0  0  0  0  0
    1.6000   -2.7713    0.0000 H   0  0  0  0  0  0  0  0  0  0  0  0
    2.4001    1.3856    0.0000 C   0  0  0  0  0  0  0  0  0  0  0  0
    4.0000    1.3856    0.0000 H   0  0  0  0  0  0  0  0  0  0  0  0
    1.6000    2.7713    0.0000 H   0  0  0  0  0  0  0  0  0  0  0  0
   -0.0000    0.0000    0.0000 C   0  0  0  0  0  0  0  0  0  0  0  0
   -0.8000    1.3856    0.0000 C   0  0  0  0  0  0  0  0  0  0  0  0
   -0.0000    2.7713    0.0000 H   0  0  0  0  0  0  0  0  0  0  0  0
   -2.4000    1.3856    0.0000 C   0  0  0  0  0  0  0  0  0  0  0  0
   -3.2001    2.7713    0.0000 H   0  0  0  0  0  0  0  0  0  0  0  0
   -3.2001    0.0000    0.0000 C   0  0  0  0  0  0  0  0  0  0  0  0
   -4.8000   -0.0000    0.0000 H   0  0  0  0  0  0  0  0  0  0  0  0
   -2.4000   -1.3856    0.0000 C   0  0  0  0  0  0  0  0  0  0  0  0
   -3.2001   -2.7713    0.0000 H   0  0  0  0  0  0  0  0  0  0  0  0
   -0.8000   -1.3856    0.0000 C   0  0  0  0  0  0  0  0  0  0  0  0
   -0.0000   -2.7713    0.0000 H   0  0  0  0  0  0  0  0  0  0  0  0
  1  2  1  0  0  0  0
  2  3  1  0  0  0  0
  2  4  1  0  0  0  0
  2  5  1  0  0  0  0
  1  6  2  0  0  0  0
  6  7  1  0  0  0  0
  6  8  1  0  0  0  0
  1  9  1  0  0  0  0
  9 10  1  0  0  0  0
 10 11  1  0  0  0  0
 10 12  2  0  0  0  0
 12 13  1  0  0  0  0
 12 14  1  0  0  0  0
 14 15  1  0  0  0  0
 14 16  2  0  0  0  0
 16 17  1  0  0  0  0
 16 18  1  0  0  0  0
 18  9  2  0  0  0  0
 18 19  1  0  0  0  0
M  END
> <ChemID>
100113

> <source_casrn>
98-83-9

> <CAS>
98-83-9

> <SMILES>
CC(=C)c1ccccc1

> <NAME>
Benzene, (1-methylethenyl)-

> <preferred_name>
alpha-Methylstyrene

> <iupac>
prop-1-en-2-ylbenzene

> <MPID>
101749

> <dsstox_substance_id>
DTXSID9025661

> <Canonical_QSARr>
CC(=C)c1ccccc1

> <InChI_Code_QSARr>
InChI=1S/C9H10/c1-8(2)9-6-4-3-5-7-9/h3-7H,1H2,2H3

> <InChI Key_QSARr>
XYLMUPLGERFSHI-UHFFFAOYSA-N

> <LogKmHL>
-0.71

$$$$
100116
  -INDIGO-08031722222D

 17 17  0  0  0  0  0  0  0  0999 V2000
    1.3857    0.8000    0.0000 C   0  0  0  0  0  0  0  0  0  0  0  0
    2.7713    1.6000    0.0000 H   0  0  0  0  0  0  0  0  0  0  0  0
    2.7713   -0.0000    0.0000 H   0  0  0  0  0  0  0  0  0  0  0  0
    1.3857    2.4000    0.0000 H   0  0  0  0  0  0  0  0  0  0  0  0
    0.0000   -0.0000    0.0000 C   0  0  0  0  0  0  0  0  0  0  0  0
   -1.3857    0.8000    0.0000 C   0  0  0  0  0  0  0  0  0  0  0  0
   -1.3857    2.4000    0.0000 H   0  0  0  0  0  0  0  0  0  0  0  0
   -2.7713   -0.0000    0.0000 C   0  0  0  0  0  0  0  0  0  0  0  0
   -4.1570    0.8000    0.0000 N   0  0  0  0  0  0  0  0  0  0  0  0
   -5.5426   -0.0000    0.0000 O   0  0  0  0  0  0  0  0  0  0  0  0
   -4.1569    2.4000    0.0000 O   0  0  0  0  0  0  0  0  0  0  0  0
   -2.7713   -1.6000    0.0000 C   0  0  0  0  0  0  0  0  0  0  0  0
   -4.1569   -2.4000    0.0000 H   0  0  0  0  0  0  0  0  0  0  0  0
   -1.3856   -2.4000    0.0000 C   0  0  0  0  0  0  0  0  0  0  0  0
   -1.3856   -4.0000    0.0000 H   0  0  0  0  0  0  0  0  0  0  0  0
    0.0000   -1.6000    0.0000 C   0  0  0  0  0  0  0  0  0  0  0  0
    1.3857   -2.4000    0.0000 H   0  0  0  0  0  0  0  0  0  0  0  0
  1  2  1  0  0  0  0
  1  3  1  0  0  0  0
  1  4  1  0  0  0  0
  1  5  1  0  0  0  0
  5  6  1  0  0  0  0
  6  7  1  0  0  0  0
  6  8  2  0  0  0  0
  8  9  1  0  0  0  0
  9 10  2  0  0  0  0
  9 11  1  0  0  0  0
  8 12  1  0  0  0  0
 12 13  1  0  0  0  0
 12 14  2  0  0  0  0
 14 15  1  0  0  0  0
 14 16  1  0  0  0  0
 16  5  2  0  0  0  0
 16 17  1  0  0  0  0
M  CHG  2   9   1  11  -1
M  END
> <ChemID>
100116

> <source_casrn>
99-08-1

> <CAS>
99-08-1

> <SMILES>
Cc1cc(ccc1)[N+]([O-])=O

> <NAME>
Benzene, 1-methyl-3-nitro-

> <preferred_name>
3-Nitrotoluene

> <iupac>
1-methyl-3-nitrobenzene

> <MPID>
101751

> <dsstox_substance_id>
DTXSID5021831

> <Canonical_QSARr>
Cc1cc(ccc1)[N+]([O-])=O

> <InChI_Code_QSARr>
InChI=1S/C7H7NO2/c1-6-3-2-4-7(5-6)8(9)10/h2-5H,1H3

> <InChI Key_QSARr>
QZYHIOPPLUPUJF-UHFFFAOYSA-N

> <LogKmHL>
-0.79

$$$$
100117
  -INDIGO-08031722222D

 16 16  0  0  0  0  0  0  0  0999 V2000
    1.3857    0.8000    0.0000 N   0  0  0  0  0  0  0  0  0  0  0  0
    2.7713   -0.0000    0.0000 O   0  0  0  0  0  0  0  0  0  0  0  0
    1.3856    2.4000    0.0000 O   0  0  0  0  0  0  0  0  0  0  0  0
    0.0000   -0.0000    0.0000 C   0  0  0  0  0  0  0  0  0  0  0  0
    0.0000   -1.6000    0.0000 C   0  0  0  0  0  0  0  0  0  0  0  0
    1.3857   -2.4000    0.0000 H   0  0  0  0  0  0  0  0  0  0  0  0
   -1.3856   -2.4000    0.0000 C   0  0  0  0  0  0  0  0  0  0  0  0
   -1.3856   -4.0000    0.0000 H   0  0  0  0  0  0  0  0  0  0  0  0
   -2.7713   -1.6000    0.0000 C   0  0  0  0  0  0  0  0  0  0  0  0
   -4.1570   -2.4000    0.0000 H   0  0  0  0  0  0  0  0  0  0  0  0
   -2.7713   -0.0000    0.0000 C   0  0  0  0  0  0  0  0  0  0  0  0
   -4.1569    0.8000    0.0000 N   0  0  0  0  0  0  0  0  0  0  0  0
   -5.5426   -0.0000    0.0000 H   0  0  0  0  0  0  0  0  0  0  0  0
   -4.1569    2.4000    0.0000 H   0  0  0  0  0  0  0  0  0  0  0  0
   -1.3856    0.8000    0.0000 C   0  0  0  0  0  0  0  0  0  0  0  0
   -1.3856    2.4000    0.0000 H   0  0  0  0  0  0  0  0  0  0  0  0
  1  2  2  0  0  0  0
  1  3  1  0  0  0  0
  1  4  1  0  0  0  0
  4  5  1  0  0  0  0
  5  6  1  0  0  0  0
  5  7  2  0  0  0  0
  7  8  1  0  0  0  0
  7  9  1  0  0  0  0
  9 10  1  0  0  0  0
  9 11  2  0  0  0  0
 11 12  1  0  0  0  0
 12 13  1  0  0  0  0
 12 14  1  0  0  0  0
 11 15  1  0  0  0  0
 15  4  2  0  0  0  0
 15 16  1  0  0  0  0
M  CHG  2   1   1   3  -1
M  END
> <ChemID>
100117

> <source_casrn>
99-09-2

> <CAS>
99-09-2

> <SMILES>
Nc1cc(ccc1)[N+]([O-])=O

> <NAME>
Benzenamine, 3-nitro-

> <preferred_name>
3-Nitroaniline

> <iupac>
3-nitroaniline

> <MPID>
101752

> <dsstox_substance_id>
DTXSID6025725

> <Canonical_QSARr>
Nc1cc(ccc1)[N+]([O-])=O

> <InChI_Code_QSARr>
InChI=1S/C6H6N2O2/c7-5-2-1-3-6(4-5)8(9)10/h1-4H,7H2

> <InChI Key_QSARr>
XJCVRTZCHMZPBD-UHFFFAOYSA-N

> <LogKmHL>
-0.77

$$$$
100118
  -INDIGO-08031722222D

 14 14  0  0  0  0  0  0  0  0999 V2000
    1.6000   -0.0000    0.0000 N   0  0  0  0  0  0  0  0  0  0  0  0
    2.4000    1.3856    0.0000 O   0  0  0  0  0  0  0  0  0  0  0  0
    2.4000   -1.3856    0.0000 O   0  0  0  0  0  0  0  0  0  0  0  0
    0.0000   -0.0000    0.0000 C   0  0  0  0  0  0  0  0  0  0  0  0
   -0.8000    1.3856    0.0000 C   0  0  0  0  0  0  0  0  0  0  0  0
    0.0000    2.7713    0.0000 H   0  0  0  0  0  0  0  0  0  0  0  0
   -2.4000    1.3856    0.0000 C   0  0  0  0  0  0  0  0  0  0  0  0
   -3.2000    2.7713    0.0000 H   0  0  0  0  0  0  0  0  0  0  0  0
   -3.2000   -0.0000    0.0000 C   0  0  0  0  0  0  0  0  0  0  0  0
   -4.8000   -0.0000    0.0000 Cl  0  0  0  0  0  0  0  0  0  0  0  0
   -2.4000   -1.3856    0.0000 C   0  0  0  0  0  0  0  0  0  0  0  0
   -3.2000   -2.7713    0.0000 Cl  0  0  0  0  0  0  0  0  0  0  0  0
   -0.8000   -1.3856    0.0000 C   0  0  0  0  0  0  0  0  0  0  0  0
    0.0000   -2.7713    0.0000 H   0  0  0  0  0  0  0  0  0  0  0  0
  1  2  2  0  0  0  0
  1  3  1  0  0  0  0
  1  4  1  0  0  0  0
  4  5  1  0  0  0  0
  5  6  1  0  0  0  0
  5  7  2  0  0  0  0
  7  8  1  0  0  0  0
  7  9  1  0  0  0  0
  9 10  1  0  0  0  0
  9 11  2  0  0  0  0
 11 12  1  0  0  0  0
 11 13  1  0  0  0  0
 13  4  2  0  0  0  0
 13 14  1  0  0  0  0
M  CHG  2   1   1   3  -1
M  END
> <ChemID>
100118

> <source_casrn>
99-54-7

> <CAS>
99-54-7

> <SMILES>
[O-][N+](=O)c1cc(Cl)c(Cl)cc1

> <NAME>
Benzene, 1,2-dichloro-4-nitro-

> <preferred_name>
3,4-Dichloronitrobenzene

> <iupac>
1,2-dichloro-4-nitrobenzene

> <MPID>
101753

> <dsstox_substance_id>
DTXSID8024999

> <Canonical_QSARr>
[O-][N+](=O)c1cc(Cl)c(Cl)cc1

> <InChI_Code_QSARr>
InChI=1S/C6H3Cl2NO2/c7-5-2-1-4(9(10)11)3-6(5)8/h1-3H

> <InChI Key_QSARr>
NTBYINQTYWZXLH-UHFFFAOYSA-N

> <LogKmHL>
-0.27

$$$$
100120
  -INDIGO-08031722222D

 25 25  0  0  0  0  0  0  0  0999 V2000
   -1.6000   -0.0000    0.0000 C   0  0  0  0  0  0  0  0  0  0  0  0
   -2.4000    1.3857    0.0000 C   0  0  0  0  0  0  0  0  0  0  0  0
   -1.6000    2.7713    0.0000 H   0  0  0  0  0  0  0  0  0  0  0  0
   -4.0000    1.3857    0.0000 C   0  0  0  0  0  0  0  0  0  0  0  0
   -4.7999    2.7713    0.0000 H   0  0  0  0  0  0  0  0  0  0  0  0
   -4.7999   -0.0000    0.0000 C   0  0  0  0  0  0  0  0  0  0  0  0
   -6.4000   -0.0000    0.0000 O   0  0  0  0  0  0  0  0  0  0  0  0
   -7.2000   -1.3857    0.0000 H   0  0  0  0  0  0  0  0  0  0  0  0
   -4.0000   -1.3857    0.0000 C   0  0  0  0  0  0  0  0  0  0  0  0
   -4.7999   -2.7713    0.0000 H   0  0  0  0  0  0  0  0  0  0  0  0
   -2.4000   -1.3857    0.0000 C   0  0  0  0  0  0  0  0  0  0  0  0
   -1.6000   -2.7713    0.0000 H   0  0  0  0  0  0  0  0  0  0  0  0
    0.0001   -0.0000    0.0000 C   0  0  0  0  0  0  0  0  0  0  0  0
    0.0001   -1.6000    0.0000 H   0  0  0  0  0  0  0  0  0  0  0  0
    1.3857   -0.8000    0.0000 C   0  0  0  0  0  0  0  0  0  0  0  0
    2.3596    0.4694    0.0000 H   0  0  0  0  0  0  0  0  0  0  0  0
    2.9720   -0.5911    0.0000 H   0  0  0  0  0  0  0  0  0  0  0  0
    1.3857   -2.4000    0.0000 C   0  0  0  0  0  0  0  0  0  0  0  0
    1.3857   -4.0000    0.0000 H   0  0  0  0  0  0  0  0  0  0  0  0
    2.7713   -3.2000    0.0000 H   0  0  0  0  0  0  0  0  0  0  0  0
    0.0001   -3.2000    0.0000 H   0  0  0  0  0  0  0  0  0  0  0  0
    0.0001    1.6000    0.0000 C   0  0  0  0  0  0  0  0  0  0  0  0
    1.3857    2.4000    0.0000 H   0  0  0  0  0  0  0  0  0  0  0  0
    0.0001    3.2000    0.0000 H   0  0  0  0  0  0  0  0  0  0  0  0
    1.3857    0.8000    0.0000 H   0  0  0  0  0  0  0  0  0  0  0  0
  1  2  1  0  0  0  0
  2  3  1  0  0  0  0
  2  4  2  0  0  0  0
  4  5  1  0  0  0  0
  4  6  1  0  0  0  0
  6  7  1  0  0  0  0
  7  8  1  0  0  0  0
  6  9  2  0  0  0  0
  9 10  1  0  0  0  0
  9 11  1  0  0  0  0
 11  1  2  0  0  0  0
 11 12  1  0  0  0  0
  1 13  1  0  0  0  0
 13 14  1  0  0  0  0
 13 15  1  0  0  0  0
 15 16  1  0  0  0  0
 15 17  1  0  0  0  0
 15 18  1  0  0  0  0
 18 19  1  0  0  0  0
 18 20  1  0  0  0  0
 18 21  1  0  0  0  0
 13 22  1  0  0  0  0
 22 23  1  0  0  0  0
 22 24  1  0  0  0  0
 22 25  1  0  0  0  0
M  END
> <ChemID>
100120

> <source_casrn>
99-71-8

> <CAS>
99-71-8

> <SMILES>
CCC(C)c1ccc(O)cc1

> <NAME>
4-(1-Methylpropyl)phenol

> <preferred_name>
4-(Butan-2-yl)phenol

> <iupac>
4-(butan-2-yl)phenol

> <MPID>
101755

> <dsstox_substance_id>
DTXSID7022332

> <Canonical_QSARr>
CCC(C)c1ccc(O)cc1

> <InChI_Code_QSARr>
InChI=1S/C10H14O/c1-3-8(2)9-4-6-10(11)7-5-9/h4-8,11H,3H2,1-2H3

> <InChI Key_QSARr>
ZUTYZAFDFLLILI-UHFFFAOYSA-N

> <LogKmHL>
-0.84

$$$$
100121
  -INDIGO-08031722222D

 17 17  0  0  0  0  0  0  0  0999 V2000
    2.4000    1.3856    0.0000 C   0  0  0  0  0  0  0  0  0  0  0  0
    3.2000    2.7713    0.0000 H   0  0  0  0  0  0  0  0  0  0  0  0
    0.8000    1.3856    0.0000 C   0  0  0  0  0  0  0  0  0  0  0  0
    0.0000    2.7713    0.0000 H   0  0  0  0  0  0  0  0  0  0  0  0
    0.0000    0.0000    0.0000 C   0  0  0  0  0  0  0  0  0  0  0  0
   -1.6001    0.0000    0.0000 C   0  0  0  0  0  0  0  0  0  0  0  0
   -3.2000    0.0000    0.0000 H   0  0  0  0  0  0  0  0  0  0  0  0
   -2.4000   -1.3856    0.0000 H   0  0  0  0  0  0  0  0  0  0  0  0
   -2.4000    1.3856    0.0000 H   0  0  0  0  0  0  0  0  0  0  0  0
    0.8000   -1.3856    0.0000 C   0  0  0  0  0  0  0  0  0  0  0  0
    0.0000   -2.7713    0.0000 H   0  0  0  0  0  0  0  0  0  0  0  0
    2.4000   -1.3856    0.0000 C   0  0  0  0  0  0  0  0  0  0  0  0
    3.2000   -2.7713    0.0000 H   0  0  0  0  0  0  0  0  0  0  0  0
    3.2000   -0.0000    0.0000 C   0  0  0  0  0  0  0  0  0  0  0  0
    4.8000    0.0000    0.0000 N   0  0  0  0  0  0  0  0  0  0  0  0
    5.6000   -1.3856    0.0000 O   0  0  0  0  0  0  0  0  0  0  0  0
    5.6000    1.3856    0.0000 O   0  0  0  0  0  0  0  0  0  0  0  0
  1  2  1  0  0  0  0
  1  3  1  0  0  0  0
  3  4  1  0  0  0  0
  3  5  2  0  0  0  0
  5  6  1  0  0  0  0
  6  7  1  0  0  0  0
  6  8  1  0  0  0  0
  6  9  1  0  0  0  0
  5 10  1  0  0  0  0
 10 11  1  0  0  0  0
 10 12  2  0  0  0  0
 12 13  1  0  0  0  0
 12 14  1  0  0  0  0
 14  1  2  0  0  0  0
 14 15  1  0  0  0  0
 15 16  2  0  0  0  0
 15 17  1  0  0  0  0
M  CHG  2  15   1  17  -1
M  END
> <ChemID>
100121

> <source_casrn>
99-99-0

> <CAS>
99-99-0

> <SMILES>
Cc1ccc(cc1)[N+]([O-])=O

> <NAME>
Benzene, 1-methyl-4-nitro-

> <preferred_name>
4-Nitrotoluene

> <iupac>
1-methyl-4-nitrobenzene

> <MPID>
101756

> <dsstox_substance_id>
DTXSID5023792

> <Canonical_QSARr>
Cc1ccc(cc1)[N+]([O-])=O

> <InChI_Code_QSARr>
InChI=1S/C7H7NO2/c1-6-2-4-7(5-3-6)8(9)10/h2-5H,1H3

> <InChI Key_QSARr>
ZPTVNYMJQHSSEA-UHFFFAOYSA-N

> <LogKmHL>
-1.01

$$$$
100122
  -INDIGO-08031722222D

 14 14  0  0  0  0  0  0  0  0999 V2000
   -2.4000   -1.3856    0.0000 O   0  0  0  0  0  0  0  0  0  0  0  0
   -1.6000   -0.0000    0.0000 N   0  0  0  0  0  0  0  0  0  0  0  0
    0.0000   -0.0000    0.0000 C   0  0  0  0  0  0  0  0  0  0  0  0
    0.8000    1.3856    0.0000 C   0  0  0  0  0  0  0  0  0  0  0  0
    0.0000    2.7713    0.0000 H   0  0  0  0  0  0  0  0  0  0  0  0
    2.4000    1.3856    0.0000 C   0  0  0  0  0  0  0  0  0  0  0  0
    3.2000    2.7713    0.0000 H   0  0  0  0  0  0  0  0  0  0  0  0
    3.2000   -0.0000    0.0000 C   0  0  0  0  0  0  0  0  0  0  0  0
    4.8000   -0.0000    0.0000 Cl  0  0  0  0  0  0  0  0  0  0  0  0
    2.4000   -1.3856    0.0000 C   0  0  0  0  0  0  0  0  0  0  0  0
    3.2000   -2.7713    0.0000 H   0  0  0  0  0  0  0  0  0  0  0  0
    0.8000   -1.3856    0.0000 C   0  0  0  0  0  0  0  0  0  0  0  0
    0.0000   -2.7713    0.0000 H   0  0  0  0  0  0  0  0  0  0  0  0
   -2.4000    1.3856    0.0000 O   0  0  0  0  0  0  0  0  0  0  0  0
  1  2  2  0  0  0  0
  2  3  1  0  0  0  0
  3  4  1  0  0  0  0
  4  5  1  0  0  0  0
  4  6  2  0  0  0  0
  6  7  1  0  0  0  0
  6  8  1  0  0  0  0
  8  9  1  0  0  0  0
  8 10  2  0  0  0  0
 10 11  1  0  0  0  0
 10 12  1  0  0  0  0
 12  3  2  0  0  0  0
 12 13  1  0  0  0  0
  2 14  1  0  0  0  0
M  CHG  2   2   1  14  -1
M  END
> <ChemID>
100122

> <source_casrn>
100-00-5

> <CAS>
100-00-5

> <SMILES>
[O-][N+](=O)c1ccc(Cl)cc1

> <NAME>
Benzene, 1-chloro-4-nitro-

> <preferred_name>
1-Chloro-4-nitrobenzene

> <iupac>
1-chloro-4-nitrobenzene

> <MPID>
101757

> <dsstox_substance_id>
DTXSID5020281

> <Canonical_QSARr>
[O-][N+](=O)c1ccc(Cl)cc1

> <InChI_Code_QSARr>
InChI=1S/C6H4ClNO2/c7-5-1-3-6(4-2-5)8(9)10/h1-4H

> <InChI Key_QSARr>
CZGCEKJOLUNIFY-UHFFFAOYSA-N

> <LogKmHL>
-0.48

$$$$
100124
  -INDIGO-08031722222D

 18 18  0  0  0  0  0  0  0  0999 V2000
    3.2000   -0.0000    0.0000 C   0  0  0  0  0  0  0  0  0  0  0  0
    2.4000    1.3856    0.0000 C   0  0  0  0  0  0  0  0  0  0  0  0
    3.2000    2.7713    0.0000 H   0  0  0  0  0  0  0  0  0  0  0  0
    0.8001    1.3856    0.0000 C   0  0  0  0  0  0  0  0  0  0  0  0
   -0.0000    2.7713    0.0000 H   0  0  0  0  0  0  0  0  0  0  0  0
   -0.0000   -0.0000    0.0000 C   0  0  0  0  0  0  0  0  0  0  0  0
   -1.6000   -0.0000    0.0000 O   0  0  0  0  0  0  0  0  0  0  0  0
   -2.4001    1.3856    0.0000 C   0  0  0  0  0  0  0  0  0  0  0  0
   -4.0000    1.3856    0.0000 H   0  0  0  0  0  0  0  0  0  0  0  0
   -3.2000    2.7713    0.0000 H   0  0  0  0  0  0  0  0  0  0  0  0
   -3.2000   -0.0000    0.0000 H   0  0  0  0  0  0  0  0  0  0  0  0
    0.8001   -1.3856    0.0000 C   0  0  0  0  0  0  0  0  0  0  0  0
   -0.0000   -2.7713    0.0000 H   0  0  0  0  0  0  0  0  0  0  0  0
    2.4000   -1.3856    0.0000 C   0  0  0  0  0  0  0  0  0  0  0  0
    3.2000   -2.7713    0.0000 H   0  0  0  0  0  0  0  0  0  0  0  0
    4.8000   -0.0000    0.0000 N   0  0  0  0  0  0  0  0  0  0  0  0
    5.6000   -1.3856    0.0000 O   0  0  0  0  0  0  0  0  0  0  0  0
    5.6000    1.3856    0.0000 O   0  0  0  0  0  0  0  0  0  0  0  0
  1  2  1  0  0  0  0
  2  3  1  0  0  0  0
  2  4  2  0  0  0  0
  4  5  1  0  0  0  0
  4  6  1  0  0  0  0
  6  7  1  0  0  0  0
  7  8  1  0  0  0  0
  8  9  1  0  0  0  0
  8 10  1  0  0  0  0
  8 11  1  0  0  0  0
  6 12  2  0  0  0  0
 12 13  1  0  0  0  0
 12 14  1  0  0  0  0
 14  1  2  0  0  0  0
 14 15  1  0  0  0  0
  1 16  1  0  0  0  0
 16 17  2  0  0  0  0
 16 18  1  0  0  0  0
M  CHG  2  16   1  18  -1
M  END
> <ChemID>
100124

> <source_casrn>
100-17-4

> <CAS>
100-17-4

> <SMILES>
COc1ccc(cc1)[N+]([O-])=O

> <NAME>
P-nitroanisole

> <preferred_name>
p-Nitroanisole

> <iupac>
1-Methoxy-4-nitrobenzene

> <MPID>
101759

> <dsstox_substance_id>
DTXSID9059208

> <Canonical_QSARr>
COc1ccc(cc1)[N+]([O-])=O

> <InChI_Code_QSARr>
InChI=1S/C7H7NO3/c1-11-7-4-2-6(3-5-7)8(9)10/h2-5H,1H3

> <InChI Key_QSARr>
BNUHAJGCKIQFGE-UHFFFAOYSA-N

> <LogKmHL>
-0.95

$$$$
100125
  -INDIGO-08031722222D

 30 30  0  0  0  0  0  0  0  0999 V2000
   -1.6000    0.0000    0.0000 C   0  0  0  0  0  0  0  0  0  0  0  0
   -2.4000    1.3856    0.0000 C   0  0  0  0  0  0  0  0  0  0  0  0
   -1.6000    2.7713    0.0000 H   0  0  0  0  0  0  0  0  0  0  0  0
   -4.0000    1.3856    0.0000 C   0  0  0  0  0  0  0  0  0  0  0  0
   -4.8000    2.7713    0.0000 H   0  0  0  0  0  0  0  0  0  0  0  0
   -4.8000    0.0000    0.0000 C   0  0  0  0  0  0  0  0  0  0  0  0
   -6.4001    0.0000    0.0000 C   0  0  0  0  0  0  0  0  0  0  0  0
   -6.4001   -1.6000    0.0000 H   0  0  0  0  0  0  0  0  0  0  0  0
   -7.9757   -0.2779    0.0000 C   0  0  0  0  0  0  0  0  0  0  0  0
   -9.5514   -0.5557    0.0000 H   0  0  0  0  0  0  0  0  0  0  0  0
   -8.5229   -1.7813    0.0000 H   0  0  0  0  0  0  0  0  0  0  0  0
   -9.0042    0.9478    0.0000 H   0  0  0  0  0  0  0  0  0  0  0  0
   -6.4001    1.6000    0.0000 C   0  0  0  0  0  0  0  0  0  0  0  0
   -6.4001    3.2000    0.0000 H   0  0  0  0  0  0  0  0  0  0  0  0
   -7.7856    2.4000    0.0000 H   0  0  0  0  0  0  0  0  0  0  0  0
   -7.7856    0.8000    0.0000 H   0  0  0  0  0  0  0  0  0  0  0  0
   -4.0000   -1.3856    0.0000 C   0  0  0  0  0  0  0  0  0  0  0  0
   -4.8000   -2.7713    0.0000 H   0  0  0  0  0  0  0  0  0  0  0  0
   -2.4000   -1.3856    0.0000 C   0  0  0  0  0  0  0  0  0  0  0  0
   -1.6000   -2.7713    0.0000 H   0  0  0  0  0  0  0  0  0  0  0  0
    0.0001    0.0000    0.0000 C   0  0  0  0  0  0  0  0  0  0  0  0
    0.0001    1.6000    0.0000 H   0  0  0  0  0  0  0  0  0  0  0  0
    1.5757    0.2779    0.0000 C   0  0  0  0  0  0  0  0  0  0  0  0
    3.1514    0.5557    0.0000 H   0  0  0  0  0  0  0  0  0  0  0  0
    2.1229    1.7813    0.0000 H   0  0  0  0  0  0  0  0  0  0  0  0
    2.6042   -0.9478    0.0000 H   0  0  0  0  0  0  0  0  0  0  0  0
    0.0001   -1.6000    0.0000 C   0  0  0  0  0  0  0  0  0  0  0  0
    0.0001   -3.2000    0.0000 H   0  0  0  0  0  0  0  0  0  0  0  0
    1.3856   -2.4000    0.0000 H   0  0  0  0  0  0  0  0  0  0  0  0
    1.3856   -0.8000    0.0000 H   0  0  0  0  0  0  0  0  0  0  0  0
  1  2  1  0  0  0  0
  2  3  1  0  0  0  0
  2  4  2  0  0  0  0
  4  5  1  0  0  0  0
  4  6  1  0  0  0  0
  6  7  1  0  0  0  0
  7  8  1  0  0  0  0
  7  9  1  0  0  0  0
  9 10  1  0  0  0  0
  9 11  1  0  0  0  0
  9 12  1  0  0  0  0
  7 13  1  0  0  0  0
 13 14  1  0  0  0  0
 13 15  1  0  0  0  0
 13 16  1  0  0  0  0
  6 17  2  0  0  0  0
 17 18  1  0  0  0  0
 17 19  1  0  0  0  0
 19  1  2  0  0  0  0
 19 20  1  0  0  0  0
  1 21  1  0  0  0  0
 21 22  1  0  0  0  0
 21 23  1  0  0  0  0
 23 24  1  0  0  0  0
 23 25  1  0  0  0  0
 23 26  1  0  0  0  0
 21 27  1  0  0  0  0
 27 28  1  0  0  0  0
 27 29  1  0  0  0  0
 27 30  1  0  0  0  0
M  END
> <ChemID>
100125

> <source_casrn>
100-18-5

> <CAS>
100-18-5

> <SMILES>
CC(C)c1ccc(cc1)C(C)C

> <NAME>
Benzene, 1,4-bis(1-methylethyl)-

> <preferred_name>
1,4-Diisopropylbenzene

> <iupac>
1,4-di(propan-2-yl)benzene

> <MPID>
101760

> <dsstox_substance_id>
DTXSID2026652

> <Canonical_QSARr>
CC(C)c1ccc(cc1)C(C)C

> <InChI_Code_QSARr>
InChI=1S/C12H18/c1-9(2)11-5-7-12(8-6-11)10(3)4/h5-10H,1-4H3

> <InChI Key_QSARr>
SPPWGCYEYAMHDT-UHFFFAOYSA-N

> <LogKmHL>
0.6

$$$$
100126
  -INDIGO-08031722222D

 20 20  0  0  0  0  0  0  0  0999 V2000
    2.7713   -0.0000    0.0000 C   0  0  0  0  0  0  0  0  0  0  0  0
    4.1569   -0.8000    0.0000 H   0  0  0  0  0  0  0  0  0  0  0  0
    2.7713    1.6000    0.0000 H   0  0  0  0  0  0  0  0  0  0  0  0
    1.3856   -0.8000    0.0000 C   0  0  0  0  0  0  0  0  0  0  0  0
    1.6634   -2.3757    0.0000 H   0  0  0  0  0  0  0  0  0  0  0  0
   -0.0000   -0.0000    0.0000 C   0  0  0  0  0  0  0  0  0  0  0  0
    1.2257    1.0285    0.0000 H   0  0  0  0  0  0  0  0  0  0  0  0
   -0.8000    1.3857    0.0000 C   0  0  0  0  0  0  0  0  0  0  0  0
    0.7034    1.9329    0.0000 H   0  0  0  0  0  0  0  0  0  0  0  0
   -1.0778    2.9613    0.0000 H   0  0  0  0  0  0  0  0  0  0  0  0
   -2.4000    1.3857    0.0000 C   0  0  0  0  0  0  0  0  0  0  0  0
   -2.1221    2.9613    0.0000 H   0  0  0  0  0  0  0  0  0  0  0  0
   -3.9036    1.9329    0.0000 H   0  0  0  0  0  0  0  0  0  0  0  0
   -3.2000   -0.0000    0.0000 C   0  0  0  0  0  0  0  0  0  0  0  0
   -4.8000   -0.0000    0.0000 H   0  0  0  0  0  0  0  0  0  0  0  0
   -2.4000   -1.3857    0.0000 C   0  0  0  0  0  0  0  0  0  0  0  0
   -3.2000   -2.7713    0.0000 H   0  0  0  0  0  0  0  0  0  0  0  0
   -0.8000   -1.3857    0.0000 C   0  0  0  0  0  0  0  0  0  0  0  0
   -1.0778   -2.9613    0.0000 H   0  0  0  0  0  0  0  0  0  0  0  0
    0.7034   -1.9329    0.0000 H   0  0  0  0  0  0  0  0  0  0  0  0
  1  2  1  0  0  0  0
  1  3  1  0  0  0  0
  1  4  2  0  0  0  0
  4  5  1  0  0  0  0
  4  6  1  0  0  0  0
  6  7  1  0  0  0  0
  6  8  1  0  0  0  0
  8  9  1  0  0  0  0
  8 10  1  0  0  0  0
  8 11  1  0  0  0  0
 11 12  1  0  0  0  0
 11 13  1  0  0  0  0
 11 14  1  0  0  0  0
 14 15  1  0  0  0  0
 14 16  2  0  0  0  0
 16 17  1  0  0  0  0
 16 18  1  0  0  0  0
 18  6  1  0  0  0  0
 18 19  1  0  0  0  0
 18 20  1  0  0  0  0
M  END
> <ChemID>
100126

> <source_casrn>
100-40-3

> <CAS>
100-40-3

> <SMILES>
C=CC1CC=CCC1

> <NAME>
Cyclohexene, 4-ethenyl-

> <preferred_name>
4-Vinylcyclohexene

> <iupac>
4-ethenylcyclohexene

> <MPID>
101761

> <dsstox_substance_id>
DTXSID3021437

> <Canonical_QSARr>
C=CC1CC=CCC1

> <InChI_Code_QSARr>
InChI=1S/C8H12/c1-2-8-6-4-3-5-7-8/h2-4,8H,1,5-7H2

> <InChI Key_QSARr>
BBDKZWKEPDTENS-UHFFFAOYSA-N

> <LogKmHL>
-0.41

$$$$
100128
  -INDIGO-08031722222D

 29 30  0  0  0  0  0  0  0  0999 V2000
    4.2459   -3.5627    0.0000 Cl  0  0  0  0  0  0  0  0  0  0  0  0
    3.6986   -2.0591    0.0000 C   0  0  0  0  0  0  0  0  0  0  0  0
    4.7272   -0.8335    0.0000 C   0  0  0  0  0  0  0  0  0  0  0  0
    6.3027   -1.1113    0.0000 N   0  0  0  0  0  0  0  0  0  0  0  0
    7.3312    0.1143    0.0000 H   0  0  0  0  0  0  0  0  0  0  0  0
    6.8499   -2.6148    0.0000 H   0  0  0  0  0  0  0  0  0  0  0  0
    4.1799    0.6700    0.0000 C   0  0  0  0  0  0  0  0  0  0  0  0
    5.2083    1.8957    0.0000 H   0  0  0  0  0  0  0  0  0  0  0  0
    2.6042    0.9479    0.0000 C   0  0  0  0  0  0  0  0  0  0  0  0
    2.0570    2.4513    0.0000 H   0  0  0  0  0  0  0  0  0  0  0  0
    1.5757   -0.2778    0.0000 C   0  0  0  0  0  0  0  0  0  0  0  0
   -0.0001    0.0000    0.0000 C   0  0  0  0  0  0  0  0  0  0  0  0
   -0.8598    1.3494    0.0000 H   0  0  0  0  0  0  0  0  0  0  0  0
    0.3463    1.5621    0.0000 H   0  0  0  0  0  0  0  0  0  0  0  0
   -1.3857   -0.8000    0.0000 C   0  0  0  0  0  0  0  0  0  0  0  0
   -1.3857   -2.4000    0.0000 C   0  0  0  0  0  0  0  0  0  0  0  0
   -0.0001   -3.2000    0.0000 H   0  0  0  0  0  0  0  0  0  0  0  0
   -2.7712   -3.2000    0.0000 C   0  0  0  0  0  0  0  0  0  0  0  0
   -2.7712   -4.8000    0.0000 Cl  0  0  0  0  0  0  0  0  0  0  0  0
   -4.1568   -2.4000    0.0000 C   0  0  0  0  0  0  0  0  0  0  0  0
   -5.5426   -3.2000    0.0000 N   0  0  0  0  0  0  0  0  0  0  0  0
   -5.5426   -4.8000    0.0000 H   0  0  0  0  0  0  0  0  0  0  0  0
   -6.9282   -2.4000    0.0000 H   0  0  0  0  0  0  0  0  0  0  0  0
   -4.1568   -0.8000    0.0000 C   0  0  0  0  0  0  0  0  0  0  0  0
   -5.5426    0.0000    0.0000 H   0  0  0  0  0  0  0  0  0  0  0  0
   -2.7712    0.0000    0.0000 C   0  0  0  0  0  0  0  0  0  0  0  0
   -2.7712    1.6000    0.0000 H   0  0  0  0  0  0  0  0  0  0  0  0
    2.1229   -1.7813    0.0000 C   0  0  0  0  0  0  0  0  0  0  0  0
    1.0944   -3.0071    0.0000 H   0  0  0  0  0  0  0  0  0  0  0  0
  1  2  1  0  0  0  0
  2  3  1  0  0  0  0
  3  4  1  0  0  0  0
  4  5  1  0  0  0  0
  4  6  1  0  0  0  0
  3  7  2  0  0  0  0
  7  8  1  0  0  0  0
  7  9  1  0  0  0  0
  9 10  1  0  0  0  0
  9 11  2  0  0  0  0
 11 12  1  0  0  0  0
 12 13  1  0  0  0  0
 12 14  1  0  0  0  0
 12 15  1  0  0  0  0
 15 16  1  0  0  0  0
 16 17  1  0  0  0  0
 16 18  2  0  0  0  0
 18 19  1  0  0  0  0
 18 20  1  0  0  0  0
 20 21  1  0  0  0  0
 21 22  1  0  0  0  0
 21 23  1  0  0  0  0
 20 24  2  0  0  0  0
 24 25  1  0  0  0  0
 24 26  1  0  0  0  0
 26 15  2  0  0  0  0
 26 27  1  0  0  0  0
 11 28  1  0  0  0  0
 28  2  2  0  0  0  0
 28 29  1  0  0  0  0
M  END
> <ChemID>
100128

> <source_casrn>
101-14-4

> <CAS>
101-14-4

> <SMILES>
Nc(c(cc(c1)Cc(ccc(N)c2Cl)c2)Cl)c1

> <NAME>
Benzenamine, 4,4-methylenebis[2-chloro-

> <preferred_name>
4,4'-Methylenebis(2-chloroaniline)

> <iupac>
4,4'-methanediylbis(2-chloroaniline)

> <MPID>
101763

> <dsstox_substance_id>
DTXSID5020865

> <Canonical_QSARr>
Nc1ccc(Cc2cc(Cl)c(N)cc2)cc1Cl

> <InChI_Code_QSARr>
InChI=1S/C13H12Cl2N2/c14-10-6-8(1-3-12(10)16)5-9-2-4-13(17)11(15)7-9/h1-4,6-7H,5,16-17H2

> <InChI Key_QSARr>
IBOFVQJTBBUKMU-UHFFFAOYSA-N

> <LogKmHL>
-0.15

$$$$
100129
  -INDIGO-08031722222D

 26 27  0  0  0  0  0  0  0  0999 V2000
    4.1568    2.4000    0.0000 C   0  0  0  0  0  0  0  0  0  0  0  0
    5.5426    3.2000    0.0000 O   0  0  0  0  0  0  0  0  0  0  0  0
    6.9282    2.4000    0.0000 H   0  0  0  0  0  0  0  0  0  0  0  0
    2.7713    3.2000    0.0000 C   0  0  0  0  0  0  0  0  0  0  0  0
    2.7713    4.8000    0.0000 H   0  0  0  0  0  0  0  0  0  0  0  0
    1.3857    2.4000    0.0000 C   0  0  0  0  0  0  0  0  0  0  0  0
    0.0001    3.2000    0.0000 H   0  0  0  0  0  0  0  0  0  0  0  0
    1.3857    0.8000    0.0000 C   0  0  0  0  0  0  0  0  0  0  0  0
    0.0001   -0.0000    0.0000 C   0  0  0  0  0  0  0  0  0  0  0  0
    0.8597   -1.3494    0.0000 H   0  0  0  0  0  0  0  0  0  0  0  0
   -0.3464   -1.5621    0.0000 H   0  0  0  0  0  0  0  0  0  0  0  0
   -1.5757    0.2778    0.0000 C   0  0  0  0  0  0  0  0  0  0  0  0
   -2.1230    1.7813    0.0000 C   0  0  0  0  0  0  0  0  0  0  0  0
   -1.0944    3.0071    0.0000 H   0  0  0  0  0  0  0  0  0  0  0  0
   -3.6986    2.0591    0.0000 C   0  0  0  0  0  0  0  0  0  0  0  0
   -4.2459    3.5627    0.0000 H   0  0  0  0  0  0  0  0  0  0  0  0
   -4.7270    0.8335    0.0000 C   0  0  0  0  0  0  0  0  0  0  0  0
   -6.3028    1.1113    0.0000 H   0  0  0  0  0  0  0  0  0  0  0  0
   -4.1799   -0.6700    0.0000 C   0  0  0  0  0  0  0  0  0  0  0  0
   -5.2083   -1.8957    0.0000 H   0  0  0  0  0  0  0  0  0  0  0  0
   -2.6041   -0.9479    0.0000 C   0  0  0  0  0  0  0  0  0  0  0  0
   -2.0570   -2.4513    0.0000 H   0  0  0  0  0  0  0  0  0  0  0  0
    2.7713   -0.0000    0.0000 C   0  0  0  0  0  0  0  0  0  0  0  0
    2.7713   -1.6000    0.0000 H   0  0  0  0  0  0  0  0  0  0  0  0
    4.1568    0.8000    0.0000 C   0  0  0  0  0  0  0  0  0  0  0  0
    5.5426   -0.0000    0.0000 H   0  0  0  0  0  0  0  0  0  0  0  0
  1  2  1  0  0  0  0
  2  3  1  0  0  0  0
  1  4  1  0  0  0  0
  4  5  1  0  0  0  0
  4  6  2  0  0  0  0
  6  7  1  0  0  0  0
  6  8  1  0  0  0  0
  8  9  1  0  0  0  0
  9 10  1  0  0  0  0
  9 11  1  0  0  0  0
  9 12  1  0  0  0  0
 12 13  1  0  0  0  0
 13 14  1  0  0  0  0
 13 15  2  0  0  0  0
 15 16  1  0  0  0  0
 15 17  1  0  0  0  0
 17 18  1  0  0  0  0
 17 19  2  0  0  0  0
 19 20  1  0  0  0  0
 19 21  1  0  0  0  0
 21 12  2  0  0  0  0
 21 22  1  0  0  0  0
  8 23  2  0  0  0  0
 23 24  1  0  0  0  0
 23 25  1  0  0  0  0
 25  1  2  0  0  0  0
 25 26  1  0  0  0  0
M  END
> <ChemID>
100129

> <source_casrn>
101-53-1

> <CAS>
101-53-1

> <SMILES>
Oc1ccc(Cc2ccccc2)cc1

> <NAME>
4-hydroxydiphenylmethane

> <preferred_name>
4-Benzylphenol

> <iupac>
4-benzylphenol

> <MPID>
101764

> <dsstox_substance_id>
DTXSID9047962

> <Canonical_QSARr>
Oc1ccc(Cc2ccccc2)cc1

> <InChI_Code_QSARr>
InChI=1S/C13H12O/c14-13-8-6-12(7-9-13)10-11-4-2-1-3-5-11/h1-9,14H,10H2

> <InChI Key_QSARr>
HJSPWKGEPDZNLK-UHFFFAOYSA-N

> <LogKmHL>
-0.86

$$$$
100130
  -INDIGO-08031722222D

 41 42  0  0  0  0  0  0  0  0999 V2000
    0.0000   -0.0000    0.0000 C   0  0  0  0  0  0  0  0  0  0  0  0
    0.8598    1.3494    0.0000 H   0  0  0  0  0  0  0  0  0  0  0  0
   -0.3463    1.5621    0.0000 H   0  0  0  0  0  0  0  0  0  0  0  0
   -1.5756   -0.2779    0.0000 C   0  0  0  0  0  0  0  0  0  0  0  0
   -2.1229   -1.7814    0.0000 C   0  0  0  0  0  0  0  0  0  0  0  0
   -1.0944   -3.0070    0.0000 H   0  0  0  0  0  0  0  0  0  0  0  0
   -3.6985   -2.0592    0.0000 C   0  0  0  0  0  0  0  0  0  0  0  0
   -4.2459   -3.5627    0.0000 H   0  0  0  0  0  0  0  0  0  0  0  0
   -4.7270   -0.8335    0.0000 C   0  0  0  0  0  0  0  0  0  0  0  0
   -6.3028   -1.1113    0.0000 N   0  0  0  0  0  0  0  0  0  0  0  0
   -7.3313    0.1144    0.0000 C   0  0  0  0  0  0  0  0  0  0  0  0
   -8.3596    1.3400    0.0000 H   0  0  0  0  0  0  0  0  0  0  0  0
   -8.9069   -0.1635    0.0000 H   0  0  0  0  0  0  0  0  0  0  0  0
   -6.7840    1.6179    0.0000 H   0  0  0  0  0  0  0  0  0  0  0  0
   -6.8499   -2.6149    0.0000 C   0  0  0  0  0  0  0  0  0  0  0  0
   -7.3973   -4.1184    0.0000 H   0  0  0  0  0  0  0  0  0  0  0  0
   -8.4258   -2.8927    0.0000 H   0  0  0  0  0  0  0  0  0  0  0  0
   -5.8215   -3.8406    0.0000 H   0  0  0  0  0  0  0  0  0  0  0  0
   -4.1799    0.6700    0.0000 C   0  0  0  0  0  0  0  0  0  0  0  0
   -5.2084    1.8957    0.0000 H   0  0  0  0  0  0  0  0  0  0  0  0
   -2.6041    0.9478    0.0000 C   0  0  0  0  0  0  0  0  0  0  0  0
   -2.0570    2.4513    0.0000 H   0  0  0  0  0  0  0  0  0  0  0  0
    1.3856   -0.8000    0.0000 C   0  0  0  0  0  0  0  0  0  0  0  0
    1.3856   -2.4000    0.0000 C   0  0  0  0  0  0  0  0  0  0  0  0
    0.0000   -3.2000    0.0000 H   0  0  0  0  0  0  0  0  0  0  0  0
    2.7712   -3.2000    0.0000 C   0  0  0  0  0  0  0  0  0  0  0  0
    2.7712   -4.8000    0.0000 H   0  0  0  0  0  0  0  0  0  0  0  0
    4.1571   -2.4000    0.0000 C   0  0  0  0  0  0  0  0  0  0  0  0
    5.5427   -3.2000    0.0000 N   0  0  0  0  0  0  0  0  0  0  0  0
    5.5427   -4.8000    0.0000 C   0  0  0  0  0  0  0  0  0  0  0  0
    5.5427   -6.4000    0.0000 H   0  0  0  0  0  0  0  0  0  0  0  0
    6.9282   -5.6000    0.0000 H   0  0  0  0  0  0  0  0  0  0  0  0
    4.1571   -5.6000    0.0000 H   0  0  0  0  0  0  0  0  0  0  0  0
    6.9282   -2.4000    0.0000 C   0  0  0  0  0  0  0  0  0  0  0  0
    8.3138   -1.6000    0.0000 H   0  0  0  0  0  0  0  0  0  0  0  0
    8.3138   -3.2000    0.0000 H   0  0  0  0  0  0  0  0  0  0  0  0
    6.9282   -0.8000    0.0000 H   0  0  0  0  0  0  0  0  0  0  0  0
    4.1571   -0.8000    0.0000 C   0  0  0  0  0  0  0  0  0  0  0  0
    5.5427   -0.0000    0.0000 H   0  0  0  0  0  0  0  0  0  0  0  0
    2.7712   -0.0000    0.0000 C   0  0  0  0  0  0  0  0  0  0  0  0
    2.7712    1.6000    0.0000 H   0  0  0  0  0  0  0  0  0  0  0  0
  1  2  1  0  0  0  0
  1  3  1  0  0  0  0
  1  4  1  0  0  0  0
  4  5  1  0  0  0  0
  5  6  1  0  0  0  0
  5  7  2  0  0  0  0
  7  8  1  0  0  0  0
  7  9  1  0  0  0  0
  9 10  1  0  0  0  0
 10 11  1  0  0  0  0
 11 12  1  0  0  0  0
 11 13  1  0  0  0  0
 11 14  1  0  0  0  0
 10 15  1  0  0  0  0
 15 16  1  0  0  0  0
 15 17  1  0  0  0  0
 15 18  1  0  0  0  0
  9 19  2  0  0  0  0
 19 20  1  0  0  0  0
 19 21  1  0  0  0  0
 21  4  2  0  0  0  0
 21 22  1  0  0  0  0
  1 23  1  0  0  0  0
 23 24  1  0  0  0  0
 24 25  1  0  0  0  0
 24 26  2  0  0  0  0
 26 27  1  0  0  0  0
 26 28  1  0  0  0  0
 28 29  1  0  0  0  0
 29 30  1  0  0  0  0
 30 31  1  0  0  0  0
 30 32  1  0  0  0  0
 30 33  1  0  0  0  0
 29 34  1  0  0  0  0
 34 35  1  0  0  0  0
 34 36  1  0  0  0  0
 34 37  1  0  0  0  0
 28 38  2  0  0  0  0
 38 39  1  0  0  0  0
 38 40  1  0  0  0  0
 40 23  2  0  0  0  0
 40 41  1  0  0  0  0
M  END
> <ChemID>
100130

> <source_casrn>
101-61-1

> <CAS>
101-61-1

> <SMILES>
N(c(ccc(c1)Cc(ccc(N(C)C)c2)c2)c1)(C)C

> <NAME>
4,4'-methylene bis(N,N'-dimethylaniline)

> <preferred_name>
4,4'-Methylenebis(N,N-dimethylaniline)

> <iupac>
4,4'-methanediylbis(N,N-dimethylaniline)

> <MPID>
101765

> <dsstox_substance_id>
DTXSID5020869

> <Canonical_QSARr>
CN(C)c1ccc(Cc2ccc(cc2)N(C)C)cc1

> <InChI_Code_QSARr>
InChI=1S/C17H22N2/c1-18(2)16-9-5-14(6-10-16)13-15-7-11-17(12-8-15)19(3)4/h5-12H,13H2,1-4H3

> <InChI Key_QSARr>
JNRLEMMIVRBKJE-UHFFFAOYSA-N

> <LogKmHL>
-0.04

$$$$
100133
  -INDIGO-08031722222D

 29 30  0  0  0  0  0  0  0  0999 V2000
    2.7712   -0.0000    0.0000 O   0  0  0  0  0  0  0  0  0  0  0  0
    4.1569    0.8000    0.0000 C   0  0  0  0  0  0  0  0  0  0  0  0
    3.5446    2.2782    0.0000 H   0  0  0  0  0  0  0  0  0  0  0  0
    4.7692    2.2782    0.0000 H   0  0  0  0  0  0  0  0  0  0  0  0
    5.5427   -0.0000    0.0000 C   0  0  0  0  0  0  0  0  0  0  0  0
    5.5427   -1.6000    0.0000 C   0  0  0  0  0  0  0  0  0  0  0  0
    4.1569   -2.4000    0.0000 H   0  0  0  0  0  0  0  0  0  0  0  0
    6.9282   -2.4000    0.0000 C   0  0  0  0  0  0  0  0  0  0  0  0
    6.9282   -4.0000    0.0000 H   0  0  0  0  0  0  0  0  0  0  0  0
    8.3140   -1.6000    0.0000 C   0  0  0  0  0  0  0  0  0  0  0  0
    9.6995   -2.4000    0.0000 H   0  0  0  0  0  0  0  0  0  0  0  0
    8.3140   -0.0000    0.0000 C   0  0  0  0  0  0  0  0  0  0  0  0
    9.6995    0.8000    0.0000 H   0  0  0  0  0  0  0  0  0  0  0  0
    6.9282    0.8000    0.0000 C   0  0  0  0  0  0  0  0  0  0  0  0
    6.9282    2.4000    0.0000 H   0  0  0  0  0  0  0  0  0  0  0  0
    1.3856    0.8000    0.0000 C   0  0  0  0  0  0  0  0  0  0  0  0
    0.7733    2.2782    0.0000 H   0  0  0  0  0  0  0  0  0  0  0  0
    1.9980    2.2782    0.0000 H   0  0  0  0  0  0  0  0  0  0  0  0
   -0.0001   -0.0000    0.0000 C   0  0  0  0  0  0  0  0  0  0  0  0
   -1.3856    0.8000    0.0000 C   0  0  0  0  0  0  0  0  0  0  0  0
   -1.3856    2.4000    0.0000 H   0  0  0  0  0  0  0  0  0  0  0  0
   -2.7714   -0.0000    0.0000 C   0  0  0  0  0  0  0  0  0  0  0  0
   -4.1569    0.8000    0.0000 H   0  0  0  0  0  0  0  0  0  0  0  0
   -2.7712   -1.6000    0.0000 C   0  0  0  0  0  0  0  0  0  0  0  0
   -4.1569   -2.4000    0.0000 H   0  0  0  0  0  0  0  0  0  0  0  0
   -1.3856   -2.4000    0.0000 C   0  0  0  0  0  0  0  0  0  0  0  0
   -1.3856   -4.0000    0.0000 H   0  0  0  0  0  0  0  0  0  0  0  0
   -0.0001   -1.6000    0.0000 C   0  0  0  0  0  0  0  0  0  0  0  0
    1.3856   -2.4000    0.0000 H   0  0  0  0  0  0  0  0  0  0  0  0
  1  2  1  0  0  0  0
  2  3  1  0  0  0  0
  2  4  1  0  0  0  0
  2  5  1  0  0  0  0
  5  6  1  0  0  0  0
  6  7  1  0  0  0  0
  6  8  2  0  0  0  0
  8  9  1  0  0  0  0
  8 10  1  0  0  0  0
 10 11  1  0  0  0  0
 10 12  2  0  0  0  0
 12 13  1  0  0  0  0
 12 14  1  0  0  0  0
 14  5  2  0  0  0  0
 14 15  1  0  0  0  0
  1 16  1  0  0  0  0
 16 17  1  0  0  0  0
 16 18  1  0  0  0  0
 16 19  1  0  0  0  0
 19 20  1  0  0  0  0
 20 21  1  0  0  0  0
 20 22  2  0  0  0  0
 22 23  1  0  0  0  0
 22 24  1  0  0  0  0
 24 25  1  0  0  0  0
 24 26  2  0  0  0  0
 26 27  1  0  0  0  0
 26 28  1  0  0  0  0
 28 19  2  0  0  0  0
 28 29  1  0  0  0  0
M  END
> <ChemID>
100133

> <source_casrn>
103-50-4

> <CAS>
103-50-4

> <SMILES>
O(Cc(cccc1)c1)Cc(cccc2)c2

> <NAME>
Benzene, 1,1 -[oxybis(methylene)]bis-

> <preferred_name>
Dibenzyl ether

> <iupac>
C14H14O

> <MPID>
101767

> <dsstox_substance_id>
DTXSID5025819

> <Canonical_QSARr>
C(OCc1ccccc1)c1ccccc1

> <InChI_Code_QSARr>
InChI=1S/C14H14O/c1-3-7-13(8-4-1)11-15-12-14-9-5-2-6-10-14/h1-10H,11-12H2

> <InChI Key_QSARr>
MHDVGSVTJDSBDK-UHFFFAOYSA-N

> <LogKmHL>
0.63

$$$$
100134
  -INDIGO-08031722222D

 20 20  0  0  0  0  0  0  0  0999 V2000
   -0.8000    1.3856    0.0000 N   0  0  0  0  0  0  0  0  0  0  0  0
   -0.0001    2.7713    0.0000 H   0  0  0  0  0  0  0  0  0  0  0  0
   -2.4000    1.3856    0.0000 C   0  0  0  0  0  0  0  0  0  0  0  0
   -3.2000    2.7713    0.0000 C   0  0  0  0  0  0  0  0  0  0  0  0
   -2.4000    4.1569    0.0000 H   0  0  0  0  0  0  0  0  0  0  0  0
   -4.8001    2.7713    0.0000 C   0  0  0  0  0  0  0  0  0  0  0  0
   -5.6000    4.1569    0.0000 H   0  0  0  0  0  0  0  0  0  0  0  0
   -5.6000    1.3856    0.0000 C   0  0  0  0  0  0  0  0  0  0  0  0
   -7.2000    1.3856    0.0000 H   0  0  0  0  0  0  0  0  0  0  0  0
   -4.8001   -0.0000    0.0000 C   0  0  0  0  0  0  0  0  0  0  0  0
   -5.6000   -1.3856    0.0000 H   0  0  0  0  0  0  0  0  0  0  0  0
   -3.2000   -0.0000    0.0000 C   0  0  0  0  0  0  0  0  0  0  0  0
   -2.4000   -1.3856    0.0000 H   0  0  0  0  0  0  0  0  0  0  0  0
   -0.0001   -0.0000    0.0000 C   0  0  0  0  0  0  0  0  0  0  0  0
   -0.2089   -1.5863    0.0000 H   0  0  0  0  0  0  0  0  0  0  0  0
   -1.2693   -0.9740    0.0000 H   0  0  0  0  0  0  0  0  0  0  0  0
    1.6000   -0.0000    0.0000 C   0  0  0  0  0  0  0  0  0  0  0  0
    3.2000   -0.0000    0.0000 H   0  0  0  0  0  0  0  0  0  0  0  0
    2.4000   -1.3856    0.0000 H   0  0  0  0  0  0  0  0  0  0  0  0
    2.4000    1.3856    0.0000 H   0  0  0  0  0  0  0  0  0  0  0  0
  1  2  1  0  0  0  0
  1  3  1  0  0  0  0
  3  4  1  0  0  0  0
  4  5  1  0  0  0  0
  4  6  2  0  0  0  0
  6  7  1  0  0  0  0
  6  8  1  0  0  0  0
  8  9  1  0  0  0  0
  8 10  2  0  0  0  0
 10 11  1  0  0  0  0
 10 12  1  0  0  0  0
 12  3  2  0  0  0  0
 12 13  1  0  0  0  0
  1 14  1  0  0  0  0
 14 15  1  0  0  0  0
 14 16  1  0  0  0  0
 14 17  1  0  0  0  0
 17 18  1  0  0  0  0
 17 19  1  0  0  0  0
 17 20  1  0  0  0  0
M  END
> <ChemID>
100134

> <source_casrn>
103-69-5

> <CAS>
103-69-5

> <SMILES>
CCNc1ccccc1

> <NAME>
N-ethylaniline

> <preferred_name>
N-Ethylaniline

> <iupac>
N-ethylaniline

> <MPID>
101768

> <dsstox_substance_id>
DTXSID1025271

> <Canonical_QSARr>
CCNc1ccccc1

> <InChI_Code_QSARr>
InChI=1S/C8H11N/c1-2-9-8-6-4-3-5-7-8/h3-7,9H,2H2,1H3

> <InChI Key_QSARr>
OJGMBLNIHDZDGS-UHFFFAOYSA-N

> <LogKmHL>
-0.65

$$$$
100135
  -INDIGO-08031722222D

 40 40  0  0  0  0  0  0  0  0999 V2000
    5.5426   -0.0000    0.0000 C   0  0  0  0  0  0  0  0  0  0  0  0
    6.9282    0.8000    0.0000 H   0  0  0  0  0  0  0  0  0  0  0  0
    6.9282   -0.8000    0.0000 H   0  0  0  0  0  0  0  0  0  0  0  0
    5.5426    1.6000    0.0000 H   0  0  0  0  0  0  0  0  0  0  0  0
    4.1570   -0.8000    0.0000 C   0  0  0  0  0  0  0  0  0  0  0  0
    4.7691   -2.2782    0.0000 H   0  0  0  0  0  0  0  0  0  0  0  0
    3.5445   -2.2782    0.0000 H   0  0  0  0  0  0  0  0  0  0  0  0
    2.7713   -0.0000    0.0000 C   0  0  0  0  0  0  0  0  0  0  0  0
    2.1589    1.4782    0.0000 H   0  0  0  0  0  0  0  0  0  0  0  0
    3.3835    1.4782    0.0000 H   0  0  0  0  0  0  0  0  0  0  0  0
    1.3857   -0.8000    0.0000 C   0  0  0  0  0  0  0  0  0  0  0  0
    1.9979   -2.2782    0.0000 H   0  0  0  0  0  0  0  0  0  0  0  0
    0.7733   -2.2782    0.0000 H   0  0  0  0  0  0  0  0  0  0  0  0
    0.0001   -0.0000    0.0000 C   0  0  0  0  0  0  0  0  0  0  0  0
   -0.6123    1.4782    0.0000 H   0  0  0  0  0  0  0  0  0  0  0  0
    0.6123    1.4782    0.0000 H   0  0  0  0  0  0  0  0  0  0  0  0
   -1.3855   -0.8000    0.0000 C   0  0  0  0  0  0  0  0  0  0  0  0
   -0.7734   -2.2782    0.0000 H   0  0  0  0  0  0  0  0  0  0  0  0
   -1.9980   -2.2782    0.0000 H   0  0  0  0  0  0  0  0  0  0  0  0
   -2.7711   -0.0000    0.0000 C   0  0  0  0  0  0  0  0  0  0  0  0
   -3.3836    1.4782    0.0000 H   0  0  0  0  0  0  0  0  0  0  0  0
   -2.1590    1.4782    0.0000 H   0  0  0  0  0  0  0  0  0  0  0  0
   -4.1570   -0.8000    0.0000 C   0  0  0  0  0  0  0  0  0  0  0  0
   -3.5446   -2.2782    0.0000 H   0  0  0  0  0  0  0  0  0  0  0  0
   -4.7692   -2.2782    0.0000 H   0  0  0  0  0  0  0  0  0  0  0  0
   -5.5427   -0.0000    0.0000 C   0  0  0  0  0  0  0  0  0  0  0  0
   -6.1548    1.4782    0.0000 H   0  0  0  0  0  0  0  0  0  0  0  0
   -4.9302    1.4782    0.0000 H   0  0  0  0  0  0  0  0  0  0  0  0
   -6.9283   -0.8000    0.0000 C   0  0  0  0  0  0  0  0  0  0  0  0
   -8.3139   -0.0000    0.0000 C   0  0  0  0  0  0  0  0  0  0  0  0
   -8.3139    1.6000    0.0000 H   0  0  0  0  0  0  0  0  0  0  0  0
   -9.6995   -0.8000    0.0000 C   0  0  0  0  0  0  0  0  0  0  0  0
  -11.0851   -0.0000    0.0000 H   0  0  0  0  0  0  0  0  0  0  0  0
   -9.6995   -2.4000    0.0000 C   0  0  0  0  0  0  0  0  0  0  0  0
  -11.0851   -3.2000    0.0000 O   0  0  0  0  0  0  0  0  0  0  0  0
  -12.4708   -2.4000    0.0000 H   0  0  0  0  0  0  0  0  0  0  0  0
   -8.3139   -3.2000    0.0000 C   0  0  0  0  0  0  0  0  0  0  0  0
   -8.3139   -4.8000    0.0000 H   0  0  0  0  0  0  0  0  0  0  0  0
   -6.9283   -2.4000    0.0000 C   0  0  0  0  0  0  0  0  0  0  0  0
   -5.5427   -3.2000    0.0000 H   0  0  0  0  0  0  0  0  0  0  0  0
  1  2  1  0  0  0  0
  1  3  1  0  0  0  0
  1  4  1  0  0  0  0
  1  5  1  0  0  0  0
  5  6  1  0  0  0  0
  5  7  1  0  0  0  0
  5  8  1  0  0  0  0
  8  9  1  0  0  0  0
  8 10  1  0  0  0  0
  8 11  1  0  0  0  0
 11 12  1  0  0  0  0
 11 13  1  0  0  0  0
 11 14  1  0  0  0  0
 14 15  1  0  0  0  0
 14 16  1  0  0  0  0
 14 17  1  0  0  0  0
 17 18  1  0  0  0  0
 17 19  1  0  0  0  0
 17 20  1  0  0  0  0
 20 21  1  0  0  0  0
 20 22  1  0  0  0  0
 20 23  1  0  0  0  0
 23 24  1  0  0  0  0
 23 25  1  0  0  0  0
 23 26  1  0  0  0  0
 26 27  1  0  0  0  0
 26 28  1  0  0  0  0
 26 29  1  0  0  0  0
 29 30  1  0  0  0  0
 30 31  1  0  0  0  0
 30 32  2  0  0  0  0
 32 33  1  0  0  0  0
 32 34  1  0  0  0  0
 34 35  1  0  0  0  0
 35 36  1  0  0  0  0
 34 37  2  0  0  0  0
 37 38  1  0  0  0  0
 37 39  1  0  0  0  0
 39 29  2  0  0  0  0
 39 40  1  0  0  0  0
M  END
> <ChemID>
100135

> <source_casrn>
104-40-5

> <CAS>
104-40-5

> <SMILES>
CCCCCCCCCc1ccc(O)cc1

> <NAME>
Phenol, 4-nonyl-

> <preferred_name>
4-Nonylphenol

> <iupac>
4-nonylphenol

> <MPID>
101769

> <dsstox_substance_id>
DTXSID5033836

> <Canonical_QSARr>
CCCCCCCCCc1ccc(O)cc1

> <InChI_Code_QSARr>
InChI=1S/C15H24O/c1-2-3-4-5-6-7-8-9-14-10-12-15(16)13-11-14/h10-13,16H,2-9H2,1H3

> <InChI Key_QSARr>
IGFHQQFPSIBGKE-UHFFFAOYSA-N

> <LogKmHL>
-0.23

$$$$
100137
  -INDIGO-08031722222D

 14 14  0  0  0  0  0  0  0  0999 V2000
   -4.8000   -0.0000    0.0000 Cl  0  0  0  0  0  0  0  0  0  0  0  0
   -3.2000   -0.0000    0.0000 C   0  0  0  0  0  0  0  0  0  0  0  0
   -2.4000    1.3856    0.0000 C   0  0  0  0  0  0  0  0  0  0  0  0
   -3.2000    2.7713    0.0000 H   0  0  0  0  0  0  0  0  0  0  0  0
   -0.8000    1.3856    0.0000 C   0  0  0  0  0  0  0  0  0  0  0  0
    0.0000    2.7713    0.0000 H   0  0  0  0  0  0  0  0  0  0  0  0
    0.0000   -0.0000    0.0000 C   0  0  0  0  0  0  0  0  0  0  0  0
    1.6000   -0.0000    0.0000 C   0  0  0  0  0  0  0  0  0  0  0  0
    2.4000    1.3856    0.0000 H   0  0  0  0  0  0  0  0  0  0  0  0
    2.4000   -1.3856    0.0000 O   0  0  0  0  0  0  0  0  0  0  0  0
   -0.8000   -1.3856    0.0000 C   0  0  0  0  0  0  0  0  0  0  0  0
    0.0000   -2.7713    0.0000 H   0  0  0  0  0  0  0  0  0  0  0  0
   -2.4000   -1.3856    0.0000 C   0  0  0  0  0  0  0  0  0  0  0  0
   -3.2000   -2.7713    0.0000 H   0  0  0  0  0  0  0  0  0  0  0  0
  1  2  1  0  0  0  0
  2  3  1  0  0  0  0
  3  4  1  0  0  0  0
  3  5  2  0  0  0  0
  5  6  1  0  0  0  0
  5  7  1  0  0  0  0
  7  8  1  0  0  0  0
  8  9  1  0  0  0  0
  8 10  2  0  0  0  0
  7 11  2  0  0  0  0
 11 12  1  0  0  0  0
 11 13  1  0  0  0  0
 13  2  2  0  0  0  0
 13 14  1  0  0  0  0
M  END
> <ChemID>
100137

> <source_casrn>
104-88-1

> <CAS>
104-88-1

> <SMILES>
O=Cc1ccc(Cl)cc1

> <NAME>
4-chlorobenzaldehyde

> <preferred_name>
4-Chlorobenzaldehyde

> <iupac>
4-chlorobenzaldehyde

> <MPID>
101771

> <dsstox_substance_id>
DTXSID2021860

> <Canonical_QSARr>
O=Cc1ccc(Cl)cc1

> <InChI_Code_QSARr>
InChI=1S/C7H5ClO/c8-7-3-1-6(5-9)2-4-7/h1-5H

> <InChI Key_QSARr>
AVPYQKSLYISFPO-UHFFFAOYSA-N

> <LogKmHL>
0.01

$$$$
100138
  -INDIGO-08031722222D

 24 24  0  0  0  0  0  0  0  0999 V2000
    0.0001    0.0000    0.0000 C   0  0  0  0  0  0  0  0  0  0  0  0
   -0.7999    1.3856    0.0000 C   0  0  0  0  0  0  0  0  0  0  0  0
    0.0001    2.7713    0.0000 H   0  0  0  0  0  0  0  0  0  0  0  0
   -2.4001    1.3856    0.0000 C   0  0  0  0  0  0  0  0  0  0  0  0
   -3.2001    2.7713    0.0000 H   0  0  0  0  0  0  0  0  0  0  0  0
   -3.2001    0.0000    0.0000 C   0  0  0  0  0  0  0  0  0  0  0  0
   -4.8000   -0.0000    0.0000 C   0  0  0  0  0  0  0  0  0  0  0  0
   -5.0089   -1.5863    0.0000 H   0  0  0  0  0  0  0  0  0  0  0  0
   -6.0693   -0.9740    0.0000 H   0  0  0  0  0  0  0  0  0  0  0  0
   -5.6000    1.3856    0.0000 C   0  0  0  0  0  0  0  0  0  0  0  0
   -7.2000    1.3856    0.0000 H   0  0  0  0  0  0  0  0  0  0  0  0
   -6.4000    2.7713    0.0000 H   0  0  0  0  0  0  0  0  0  0  0  0
   -6.4000   -0.0000    0.0000 H   0  0  0  0  0  0  0  0  0  0  0  0
   -2.4001   -1.3856    0.0000 C   0  0  0  0  0  0  0  0  0  0  0  0
   -3.2001   -2.7713    0.0000 H   0  0  0  0  0  0  0  0  0  0  0  0
   -0.7999   -1.3856    0.0000 C   0  0  0  0  0  0  0  0  0  0  0  0
    0.0001   -2.7713    0.0000 H   0  0  0  0  0  0  0  0  0  0  0  0
    1.6000   -0.0000    0.0000 C   0  0  0  0  0  0  0  0  0  0  0  0
    1.8089    1.5863    0.0000 H   0  0  0  0  0  0  0  0  0  0  0  0
    2.8693    0.9740    0.0000 H   0  0  0  0  0  0  0  0  0  0  0  0
    2.4000   -1.3856    0.0000 C   0  0  0  0  0  0  0  0  0  0  0  0
    4.0000   -1.3856    0.0000 H   0  0  0  0  0  0  0  0  0  0  0  0
    3.2000   -2.7713    0.0000 H   0  0  0  0  0  0  0  0  0  0  0  0
    3.2000   -0.0000    0.0000 H   0  0  0  0  0  0  0  0  0  0  0  0
  1  2  1  0  0  0  0
  2  3  1  0  0  0  0
  2  4  2  0  0  0  0
  4  5  1  0  0  0  0
  4  6  1  0  0  0  0
  6  7  1  0  0  0  0
  7  8  1  0  0  0  0
  7  9  1  0  0  0  0
  7 10  1  0  0  0  0
 10 11  1  0  0  0  0
 10 12  1  0  0  0  0
 10 13  1  0  0  0  0
  6 14  2  0  0  0  0
 14 15  1  0  0  0  0
 14 16  1  0  0  0  0
 16  1  2  0  0  0  0
 16 17  1  0  0  0  0
  1 18  1  0  0  0  0
 18 19  1  0  0  0  0
 18 20  1  0  0  0  0
 18 21  1  0  0  0  0
 21 22  1  0  0  0  0
 21 23  1  0  0  0  0
 21 24  1  0  0  0  0
M  END
> <ChemID>
100138

> <source_casrn>
105-05-5

> <CAS>
105-05-5

> <SMILES>
CCc1ccc(CC)cc1

> <NAME>
P-diethylbenzene

> <preferred_name>
1,4-Diethylbenzene

> <iupac>
1,4-diethylbenzene

> <MPID>
101772

> <dsstox_substance_id>
DTXSID4026711

> <Canonical_QSARr>
CCc1ccc(CC)cc1

> <InChI_Code_QSARr>
InChI=1S/C10H14/c1-3-9-5-7-10(4-2)8-6-9/h5-8H,3-4H2,1-2H3

> <InChI Key_QSARr>
DSNHSQKRULAAEI-UHFFFAOYSA-N

> <LogKmHL>
-0.01

$$$$
100139
  -INDIGO-08031722222D

 20 20  0  0  0  0  0  0  0  0999 V2000
    0.0001    0.0000    0.0000 C   0  0  0  0  0  0  0  0  0  0  0  0
   -0.7999    1.3856    0.0000 C   0  0  0  0  0  0  0  0  0  0  0  0
    0.0001    2.7713    0.0000 H   0  0  0  0  0  0  0  0  0  0  0  0
   -2.4001    1.3856    0.0000 C   0  0  0  0  0  0  0  0  0  0  0  0
   -3.2001    2.7713    0.0000 H   0  0  0  0  0  0  0  0  0  0  0  0
   -3.2001    0.0000    0.0000 C   0  0  0  0  0  0  0  0  0  0  0  0
   -4.8000   -0.0000    0.0000 C   0  0  0  0  0  0  0  0  0  0  0  0
   -5.6000   -1.3856    0.0000 H   0  0  0  0  0  0  0  0  0  0  0  0
   -5.6000    1.3856    0.0000 C   0  0  0  0  0  0  0  0  0  0  0  0
   -7.2000    1.3856    0.0000 H   0  0  0  0  0  0  0  0  0  0  0  0
   -4.8000    2.7713    0.0000 H   0  0  0  0  0  0  0  0  0  0  0  0
   -2.4001   -1.3856    0.0000 C   0  0  0  0  0  0  0  0  0  0  0  0
   -3.2001   -2.7713    0.0000 H   0  0  0  0  0  0  0  0  0  0  0  0
   -0.7999   -1.3856    0.0000 C   0  0  0  0  0  0  0  0  0  0  0  0
    0.0001   -2.7713    0.0000 H   0  0  0  0  0  0  0  0  0  0  0  0
    1.6000   -0.0000    0.0000 C   0  0  0  0  0  0  0  0  0  0  0  0
    2.4000    1.3856    0.0000 H   0  0  0  0  0  0  0  0  0  0  0  0
    2.4000   -1.3856    0.0000 C   0  0  0  0  0  0  0  0  0  0  0  0
    4.0000   -1.3856    0.0000 H   0  0  0  0  0  0  0  0  0  0  0  0
    1.6000   -2.7713    0.0000 H   0  0  0  0  0  0  0  0  0  0  0  0
  1  2  1  0  0  0  0
  2  3  1  0  0  0  0
  2  4  2  0  0  0  0
  4  5  1  0  0  0  0
  4  6  1  0  0  0  0
  6  7  1  0  0  0  0
  7  8  1  0  0  0  0
  7  9  2  0  0  0  0
  9 10  1  0  0  0  0
  9 11  1  0  0  0  0
  6 12  2  0  0  0  0
 12 13  1  0  0  0  0
 12 14  1  0  0  0  0
 14  1  2  0  0  0  0
 14 15  1  0  0  0  0
  1 16  1  0  0  0  0
 16 17  1  0  0  0  0
 16 18  2  0  0  0  0
 18 19  1  0  0  0  0
 18 20  1  0  0  0  0
M  END
> <ChemID>
100139

> <source_casrn>
105-06-6

> <CAS>
105-06-6

> <SMILES>
C=Cc1ccc(cc1)C=C

> <NAME>
Benzene, 1,4-diethenyl-

> <preferred_name>
1,4-Divinylbenzene

> <iupac>
1,4-diethenylbenzene

> <MPID>
101773

> <dsstox_substance_id>
DTXSID2033863

> <Canonical_QSARr>
C=Cc1ccc(cc1)C=C

> <InChI_Code_QSARr>
InChI=1S/C10H10/c1-3-9-5-7-10(4-2)8-6-9/h3-8H,1-2H2

> <InChI Key_QSARr>
WEERVPDNCOGWJF-UHFFFAOYSA-N

> <LogKmHL>
0.5

$$$$
100141
  -INDIGO-08031722222D

 15 15  0  0  0  0  0  0  0  0999 V2000
    1.6000   -0.0000    0.0000 C   0  0  0  0  0  0  0  0  0  0  0  0
    3.2000   -0.0000    0.0000 H   0  0  0  0  0  0  0  0  0  0  0  0
    2.4001   -1.3856    0.0000 H   0  0  0  0  0  0  0  0  0  0  0  0
    2.4001    1.3856    0.0000 H   0  0  0  0  0  0  0  0  0  0  0  0
    0.0000   -0.0000    0.0000 C   0  0  0  0  0  0  0  0  0  0  0  0
   -0.7999    1.3856    0.0000 C   0  0  0  0  0  0  0  0  0  0  0  0
    0.0000    2.7713    0.0000 H   0  0  0  0  0  0  0  0  0  0  0  0
   -2.4001    1.3856    0.0000 C   0  0  0  0  0  0  0  0  0  0  0  0
   -3.2000    2.7713    0.0000 H   0  0  0  0  0  0  0  0  0  0  0  0
   -3.2000   -0.0000    0.0000 C   0  0  0  0  0  0  0  0  0  0  0  0
   -4.8000   -0.0000    0.0000 Cl  0  0  0  0  0  0  0  0  0  0  0  0
   -2.4001   -1.3856    0.0000 C   0  0  0  0  0  0  0  0  0  0  0  0
   -3.2000   -2.7713    0.0000 H   0  0  0  0  0  0  0  0  0  0  0  0
   -0.8001   -1.3856    0.0000 C   0  0  0  0  0  0  0  0  0  0  0  0
    0.0000   -2.7713    0.0000 H   0  0  0  0  0  0  0  0  0  0  0  0
  1  2  1  0  0  0  0
  1  3  1  0  0  0  0
  1  4  1  0  0  0  0
  1  5  1  0  0  0  0
  5  6  1  0  0  0  0
  6  7  1  0  0  0  0
  6  8  2  0  0  0  0
  8  9  1  0  0  0  0
  8 10  1  0  0  0  0
 10 11  1  0  0  0  0
 10 12  2  0  0  0  0
 12 13  1  0  0  0  0
 12 14  1  0  0  0  0
 14  5  2  0  0  0  0
 14 15  1  0  0  0  0
M  END
> <ChemID>
100141

> <source_casrn>
106-43-4

> <CAS>
106-43-4

> <SMILES>
Cc1ccc(Cl)cc1

> <NAME>
P-chlorotoluene

> <preferred_name>
4-Chlorotoluene

> <iupac>
1-chloro-4-methylbenzene

> <MPID>
101775

> <dsstox_substance_id>
DTXSID8024814

> <Canonical_QSARr>
Cc1ccc(Cl)cc1

> <InChI_Code_QSARr>
InChI=1S/C7H7Cl/c1-6-2-4-7(8)5-3-6/h2-5H,1H3

> <InChI Key_QSARr>
NPDACUSDTOMAMK-UHFFFAOYSA-N

> <LogKmHL>
-0.83

$$$$
100142
  -INDIGO-08031722222D

 12 12  0  0  0  0  0  0  0  0999 V2000
    0.8000    1.3856    0.0000 Cl  0  0  0  0  0  0  0  0  0  0  0  0
   -0.0000   -0.0000    0.0000 C   0  0  0  0  0  0  0  0  0  0  0  0
    0.8000   -1.3857    0.0000 C   0  0  0  0  0  0  0  0  0  0  0  0
    2.4000   -1.3857    0.0000 H   0  0  0  0  0  0  0  0  0  0  0  0
   -0.0000   -2.7713    0.0000 C   0  0  0  0  0  0  0  0  0  0  0  0
    0.8000   -4.1569    0.0000 H   0  0  0  0  0  0  0  0  0  0  0  0
   -1.6000   -2.7713    0.0000 C   0  0  0  0  0  0  0  0  0  0  0  0
   -2.4000   -4.1569    0.0000 Cl  0  0  0  0  0  0  0  0  0  0  0  0
   -2.4000   -1.3856    0.0000 C   0  0  0  0  0  0  0  0  0  0  0  0
   -4.0000   -1.3856    0.0000 H   0  0  0  0  0  0  0  0  0  0  0  0
   -1.6000   -0.0000    0.0000 C   0  0  0  0  0  0  0  0  0  0  0  0
   -2.4000    1.3856    0.0000 H   0  0  0  0  0  0  0  0  0  0  0  0
  1  2  1  0  0  0  0
  2  3  1  0  0  0  0
  3  4  1  0  0  0  0
  3  5  2  0  0  0  0
  5  6  1  0  0  0  0
  5  7  1  0  0  0  0
  7  8  1  0  0  0  0
  7  9  2  0  0  0  0
  9 10  1  0  0  0  0
  9 11  1  0  0  0  0
 11  2  2  0  0  0  0
 11 12  1  0  0  0  0
M  END
> <ChemID>
100142

> <source_casrn>
106-46-7

> <CAS>
106-46-7

> <SMILES>
Clc1ccc(Cl)cc1

> <NAME>
Benzene, 1,4-dichloro-

> <preferred_name>
1,4-Dichlorobenzene

> <iupac>
1,4-dichlorobenzene

> <MPID>
101776

> <dsstox_substance_id>
DTXSID1020431

> <Canonical_QSARr>
Clc1ccc(Cl)cc1

> <InChI_Code_QSARr>
InChI=1S/C6H4Cl2/c7-5-1-2-6(8)4-3-5/h1-4H

> <InChI Key_QSARr>
OCJBOOLMMGQPQU-UHFFFAOYSA-N

> <LogKmHL>
1.1

$$$$
100143
  -INDIGO-08031722222D

 14 14  0  0  0  0  0  0  0  0999 V2000
    1.6000   -0.0000    0.0000 N   0  0  0  0  0  0  0  0  0  0  0  0
    2.4000    1.3856    0.0000 H   0  0  0  0  0  0  0  0  0  0  0  0
    2.4000   -1.3856    0.0000 H   0  0  0  0  0  0  0  0  0  0  0  0
    0.0000   -0.0000    0.0000 C   0  0  0  0  0  0  0  0  0  0  0  0
   -0.8000    1.3856    0.0000 C   0  0  0  0  0  0  0  0  0  0  0  0
    0.0000    2.7713    0.0000 H   0  0  0  0  0  0  0  0  0  0  0  0
   -2.4000    1.3856    0.0000 C   0  0  0  0  0  0  0  0  0  0  0  0
   -3.2000    2.7713    0.0000 H   0  0  0  0  0  0  0  0  0  0  0  0
   -3.2000   -0.0000    0.0000 C   0  0  0  0  0  0  0  0  0  0  0  0
   -4.8000   -0.0000    0.0000 Cl  0  0  0  0  0  0  0  0  0  0  0  0
   -2.4000   -1.3856    0.0000 C   0  0  0  0  0  0  0  0  0  0  0  0
   -3.2000   -2.7713    0.0000 H   0  0  0  0  0  0  0  0  0  0  0  0
   -0.8000   -1.3856    0.0000 C   0  0  0  0  0  0  0  0  0  0  0  0
    0.0000   -2.7713    0.0000 H   0  0  0  0  0  0  0  0  0  0  0  0
  1  2  1  0  0  0  0
  1  3  1  0  0  0  0
  1  4  1  0  0  0  0
  4  5  1  0  0  0  0
  5  6  1  0  0  0  0
  5  7  2  0  0  0  0
  7  8  1  0  0  0  0
  7  9  1  0  0  0  0
  9 10  1  0  0  0  0
  9 11  2  0  0  0  0
 11 12  1  0  0  0  0
 11 13  1  0  0  0  0
 13  4  2  0  0  0  0
 13 14  1  0  0  0  0
M  END
> <ChemID>
100143

> <source_casrn>
106-47-8

> <CAS>
106-47-8

> <SMILES>
Nc1ccc(Cl)cc1

> <NAME>
Benzenamine, 4-chloro-

> <preferred_name>
4-Chloroaniline

> <iupac>
4-chloroaniline

> <MPID>
101777

> <dsstox_substance_id>
DTXSID9020295

> <Canonical_QSARr>
Nc1ccc(Cl)cc1

> <InChI_Code_QSARr>
InChI=1S/C6H6ClN/c7-5-1-3-6(8)4-2-5/h1-4H,8H2

> <InChI Key_QSARr>
QSNSCYSYFYORTR-UHFFFAOYSA-N

> <LogKmHL>
-0.61

$$$$
100145
  -INDIGO-08031722222D

  8  7  0  0  0  0  0  0  0  0999 V2000
    0.8000    1.3856    0.0000 Br  0  0  0  0  0  0  0  0  0  0  0  0
    0.0000    0.0000    0.0000 C   0  0  0  0  0  0  0  0  0  0  0  0
    1.6000   -0.0000    0.0000 H   0  0  0  0  0  0  0  0  0  0  0  0
    0.8000   -1.3856    0.0000 H   0  0  0  0  0  0  0  0  0  0  0  0
   -1.6000    0.0000    0.0000 C   0  0  0  0  0  0  0  0  0  0  0  0
   -3.2000    0.0000    0.0000 H   0  0  0  0  0  0  0  0  0  0  0  0
   -2.4000   -1.3856    0.0000 H   0  0  0  0  0  0  0  0  0  0  0  0
   -2.4000    1.3856    0.0000 Br  0  0  0  0  0  0  0  0  0  0  0  0
  1  2  1  0  0  0  0
  2  3  1  0  0  0  0
  2  4  1  0  0  0  0
  2  5  1  0  0  0  0
  5  6  1  0  0  0  0
  5  7  1  0  0  0  0
  5  8  1  0  0  0  0
M  END
> <ChemID>
100145

> <source_casrn>
106-93-4

> <CAS>
106-93-4

> <SMILES>
BrCCBr

> <NAME>
Ethane, 1,2-dibromo-

> <preferred_name>
1,2-Dibromoethane

> <iupac>
1,2-dibromoethane

> <MPID>
101779

> <dsstox_substance_id>
DTXSID3020415

> <Canonical_QSARr>
BrCCBr

> <InChI_Code_QSARr>
InChI=1S/C2H4Br2/c3-1-2-4/h1-2H2

> <InChI Key_QSARr>
PAAZPARNPHGIKF-UHFFFAOYSA-N

> <LogKmHL>
-0.83

$$$$
100146
  -INDIGO-08031722222D

  9  8  0  0  0  0  0  0  0  0999 V2000
    2.7713    0.0000    0.0000 C   0  0  0  0  0  0  0  0  0  0  0  0
    4.1569   -0.8000    0.0000 H   0  0  0  0  0  0  0  0  0  0  0  0
    2.7713    1.6000    0.0000 H   0  0  0  0  0  0  0  0  0  0  0  0
    1.3857   -0.8000    0.0000 C   0  0  0  0  0  0  0  0  0  0  0  0
    1.3857   -2.4000    0.0000 H   0  0  0  0  0  0  0  0  0  0  0  0
    0.0000    0.0000    0.0000 C   0  0  0  0  0  0  0  0  0  0  0  0
   -1.3856    0.8000    0.0000 H   0  0  0  0  0  0  0  0  0  0  0  0
    0.0000    1.6000    0.0000 H   0  0  0  0  0  0  0  0  0  0  0  0
   -1.3856   -0.8000    0.0000 Cl  0  0  0  0  0  0  0  0  0  0  0  0
  1  2  1  0  0  0  0
  1  3  1  0  0  0  0
  1  4  2  0  0  0  0
  4  5  1  0  0  0  0
  4  6  1  0  0  0  0
  6  7  1  0  0  0  0
  6  8  1  0  0  0  0
  6  9  1  0  0  0  0
M  END
> <ChemID>
100146

> <source_casrn>
107-05-1

> <CAS>
107-05-1

> <SMILES>
C=CCCl

> <NAME>
1-Propene, 3-chloro-

> <preferred_name>
Allyl chloride

> <iupac>
3-chloroprop-1-ene

> <MPID>
101780

> <dsstox_substance_id>
DTXSID4039231

> <Canonical_QSARr>
C=CCCl

> <InChI_Code_QSARr>
InChI=1S/C3H5Cl/c1-2-3-4/h2H,1,3H2

> <InChI Key_QSARr>
OSDWBNJEKMUWAV-UHFFFAOYSA-N

> <LogKmHL>
-0.93

$$$$
100147
  -INDIGO-08031722222D

 24 23  0  0  0  0  0  0  0  0999 V2000
   -3.7614    0.8635    0.0000 C   0  0  0  0  0  0  0  0  0  0  0  0
   -2.9614    2.2491    0.0000 H   0  0  0  0  0  0  0  0  0  0  0  0
   -5.3613    0.8635    0.0000 H   0  0  0  0  0  0  0  0  0  0  0  0
   -2.9614   -0.5222    0.0000 C   0  0  0  0  0  0  0  0  0  0  0  0
   -1.3856   -0.8000    0.0000 C   0  0  0  0  0  0  0  0  0  0  0  0
   -1.9980   -2.2782    0.0000 H   0  0  0  0  0  0  0  0  0  0  0  0
   -0.7733   -2.2782    0.0000 H   0  0  0  0  0  0  0  0  0  0  0  0
    0.0000   -0.0000    0.0000 C   0  0  0  0  0  0  0  0  0  0  0  0
    1.3857    0.8000    0.0000 C   0  0  0  0  0  0  0  0  0  0  0  0
    2.7713    1.6000    0.0000 H   0  0  0  0  0  0  0  0  0  0  0  0
    2.7713   -0.0000    0.0000 H   0  0  0  0  0  0  0  0  0  0  0  0
    1.3857    2.4000    0.0000 H   0  0  0  0  0  0  0  0  0  0  0  0
   -0.8000    1.3856    0.0000 C   0  0  0  0  0  0  0  0  0  0  0  0
   -1.5999    2.7713    0.0000 H   0  0  0  0  0  0  0  0  0  0  0  0
    0.0000    2.7713    0.0000 H   0  0  0  0  0  0  0  0  0  0  0  0
   -2.4000    1.3856    0.0000 H   0  0  0  0  0  0  0  0  0  0  0  0
    0.8000   -1.3856    0.0000 C   0  0  0  0  0  0  0  0  0  0  0  0
    1.6001   -2.7713    0.0000 H   0  0  0  0  0  0  0  0  0  0  0  0
    0.2528   -2.8892    0.0000 H   0  0  0  0  0  0  0  0  0  0  0  0
    2.4000   -1.3856    0.0000 H   0  0  0  0  0  0  0  0  0  0  0  0
   -3.9899   -1.7479    0.0000 C   0  0  0  0  0  0  0  0  0  0  0  0
   -5.0182   -2.9735    0.0000 H   0  0  0  0  0  0  0  0  0  0  0  0
   -5.5655   -1.4700    0.0000 H   0  0  0  0  0  0  0  0  0  0  0  0
   -3.4426   -3.2513    0.0000 H   0  0  0  0  0  0  0  0  0  0  0  0
  1  2  1  0  0  0  0
  1  3  1  0  0  0  0
  1  4  2  0  0  0  0
  4  5  1  0  0  0  0
  5  6  1  0  0  0  0
  5  7  1  0  0  0  0
  5  8  1  0  0  0  0
  8  9  1  0  0  0  0
  9 10  1  0  0  0  0
  9 11  1  0  0  0  0
  9 12  1  0  0  0  0
  8 13  1  0  0  0  0
 13 14  1  0  0  0  0
 13 15  1  0  0  0  0
 13 16  1  0  0  0  0
  8 17  1  0  0  0  0
 17 18  1  0  0  0  0
 17 19  1  0  0  0  0
 17 20  1  0  0  0  0
  4 21  1  0  0  0  0
 21 22  1  0  0  0  0
 21 23  1  0  0  0  0
 21 24  1  0  0  0  0
M  END
> <ChemID>
100147

> <source_casrn>
107-39-1

> <CAS>
107-39-1

> <SMILES>
CC(=C)CC(C)(C)C

> <NAME>
1-Pentene, 2,4,4-trimethyl-

> <preferred_name>
2,4,4-Trimethyl-1-pentene

> <iupac>
2,4,4-trimethylpent-1-ene

> <MPID>
101781

> <dsstox_substance_id>
DTXSID4026765

> <Canonical_QSARr>
CC(=C)CC(C)(C)C

> <InChI_Code_QSARr>
InChI=1S/C8H16/c1-7(2)6-8(3,4)5/h1,6H2,2-5H3

> <InChI Key_QSARr>
FXNDIJDIPNCZQJ-UHFFFAOYSA-N

> <LogKmHL>
0.12

$$$$
100149
  -INDIGO-08031722222D

 12 12  0  0  0  0  0  0  0  0999 V2000
   -0.0000   -0.0000    0.0000 C   0  0  0  0  0  0  0  0  0  0  0  0
    0.8000   -1.3857    0.0000 C   0  0  0  0  0  0  0  0  0  0  0  0
    2.4000   -1.3857    0.0000 H   0  0  0  0  0  0  0  0  0  0  0  0
   -0.0000   -2.7713    0.0000 C   0  0  0  0  0  0  0  0  0  0  0  0
    0.8000   -4.1569    0.0000 H   0  0  0  0  0  0  0  0  0  0  0  0
   -1.6000   -2.7713    0.0000 C   0  0  0  0  0  0  0  0  0  0  0  0
   -2.4000   -4.1569    0.0000 H   0  0  0  0  0  0  0  0  0  0  0  0
   -2.4000   -1.3856    0.0000 C   0  0  0  0  0  0  0  0  0  0  0  0
   -4.0000   -1.3856    0.0000 Br  0  0  0  0  0  0  0  0  0  0  0  0
   -1.6000   -0.0000    0.0000 C   0  0  0  0  0  0  0  0  0  0  0  0
   -2.4000    1.3856    0.0000 H   0  0  0  0  0  0  0  0  0  0  0  0
    0.8000    1.3856    0.0000 Br  0  0  0  0  0  0  0  0  0  0  0  0
  1  2  1  0  0  0  0
  2  3  1  0  0  0  0
  2  4  2  0  0  0  0
  4  5  1  0  0  0  0
  4  6  1  0  0  0  0
  6  7  1  0  0  0  0
  6  8  2  0  0  0  0
  8  9  1  0  0  0  0
  8 10  1  0  0  0  0
 10  1  2  0  0  0  0
 10 11  1  0  0  0  0
  1 12  1  0  0  0  0
M  END
> <ChemID>
100149

> <source_casrn>
108-36-1

> <CAS>
108-36-1

> <SMILES>
Brc1cc(Br)ccc1

> <NAME>
Benzene, 1,3-dibromo-

> <preferred_name>
1,3-Dibromobenzene

> <iupac>
1,3-dibromobenzene

> <MPID>
101783

> <dsstox_substance_id>
DTXSID7051555

> <Canonical_QSARr>
Brc1cc(Br)ccc1

> <InChI_Code_QSARr>
InChI=1S/C6H4Br2/c7-5-2-1-3-6(8)4-5/h1-4H

> <InChI Key_QSARr>
JSRLURSZEMLAFO-UHFFFAOYSA-N

> <LogKmHL>
1.16

$$$$
100150
  -INDIGO-08031722222D

 14 14  0  0  0  0  0  0  0  0999 V2000
    3.2000    2.7713    0.0000 Cl  0  0  0  0  0  0  0  0  0  0  0  0
    2.4000    1.3856    0.0000 C   0  0  0  0  0  0  0  0  0  0  0  0
    3.2000   -0.0000    0.0000 C   0  0  0  0  0  0  0  0  0  0  0  0
    4.8000   -0.0000    0.0000 H   0  0  0  0  0  0  0  0  0  0  0  0
    2.4000   -1.3856    0.0000 C   0  0  0  0  0  0  0  0  0  0  0  0
    3.2000   -2.7713    0.0000 H   0  0  0  0  0  0  0  0  0  0  0  0
    0.8000   -1.3856    0.0000 C   0  0  0  0  0  0  0  0  0  0  0  0
    0.0000   -2.7713    0.0000 H   0  0  0  0  0  0  0  0  0  0  0  0
    0.0000    0.0000    0.0000 C   0  0  0  0  0  0  0  0  0  0  0  0
   -1.6000    0.0000    0.0000 N   0  0  0  0  0  0  0  0  0  0  0  0
   -2.4000   -1.3856    0.0000 H   0  0  0  0  0  0  0  0  0  0  0  0
   -2.4000    1.3856    0.0000 H   0  0  0  0  0  0  0  0  0  0  0  0
    0.8000    1.3856    0.0000 C   0  0  0  0  0  0  0  0  0  0  0  0
    0.0000    2.7713    0.0000 H   0  0  0  0  0  0  0  0  0  0  0  0
  1  2  1  0  0  0  0
  2  3  1  0  0  0  0
  3  4  1  0  0  0  0
  3  5  2  0  0  0  0
  5  6  1  0  0  0  0
  5  7  1  0  0  0  0
  7  8  1  0  0  0  0
  7  9  2  0  0  0  0
  9 10  1  0  0  0  0
 10 11  1  0  0  0  0
 10 12  1  0  0  0  0
  9 13  1  0  0  0  0
 13  2  2  0  0  0  0
 13 14  1  0  0  0  0
M  END
> <ChemID>
100150

> <source_casrn>
108-42-9

> <CAS>
108-42-9

> <SMILES>
Nc1cc(Cl)ccc1

> <NAME>
Benzenamine, 3-chloro-

> <preferred_name>
3-Chloroaniline

> <iupac>
3-chloroaniline

> <MPID>
101784

> <dsstox_substance_id>
DTXSID0024761

> <Canonical_QSARr>
Nc1cc(Cl)ccc1

> <InChI_Code_QSARr>
InChI=1S/C6H6ClN/c7-5-2-1-3-6(8)4-5/h1-4H,8H2

> <InChI Key_QSARr>
PNPCRKVUWYDDST-UHFFFAOYSA-N

> <LogKmHL>
-0.71

$$$$
100151
  -INDIGO-08031722222D

 13 13  0  0  0  0  0  0  0  0999 V2000
    3.2000    2.7713    0.0000 Cl  0  0  0  0  0  0  0  0  0  0  0  0
    2.4000    1.3856    0.0000 C   0  0  0  0  0  0  0  0  0  0  0  0
    3.2000   -0.0000    0.0000 C   0  0  0  0  0  0  0  0  0  0  0  0
    4.8000   -0.0000    0.0000 H   0  0  0  0  0  0  0  0  0  0  0  0
    2.4000   -1.3856    0.0000 C   0  0  0  0  0  0  0  0  0  0  0  0
    3.2000   -2.7713    0.0000 H   0  0  0  0  0  0  0  0  0  0  0  0
    0.8000   -1.3856    0.0000 C   0  0  0  0  0  0  0  0  0  0  0  0
    0.0000   -2.7713    0.0000 H   0  0  0  0  0  0  0  0  0  0  0  0
    0.0000    0.0000    0.0000 C   0  0  0  0  0  0  0  0  0  0  0  0
   -1.6000    0.0000    0.0000 O   0  0  0  0  0  0  0  0  0  0  0  0
   -2.4000   -1.3856    0.0000 H   0  0  0  0  0  0  0  0  0  0  0  0
    0.8000    1.3856    0.0000 C   0  0  0  0  0  0  0  0  0  0  0  0
    0.0000    2.7713    0.0000 H   0  0  0  0  0  0  0  0  0  0  0  0
  1  2  1  0  0  0  0
  2  3  1  0  0  0  0
  3  4  1  0  0  0  0
  3  5  2  0  0  0  0
  5  6  1  0  0  0  0
  5  7  1  0  0  0  0
  7  8  1  0  0  0  0
  7  9  2  0  0  0  0
  9 10  1  0  0  0  0
 10 11  1  0  0  0  0
  9 12  1  0  0  0  0
 12  2  2  0  0  0  0
 12 13  1  0  0  0  0
M  END
> <ChemID>
100151

> <source_casrn>
108-43-0

> <CAS>
108-43-0

> <SMILES>
Oc1cc(Cl)ccc1

> <NAME>
Phenol, 3-chloro-

> <preferred_name>
3-Chlorophenol

> <iupac>
3-chlorophenol

> <MPID>
101785

> <dsstox_substance_id>
DTXSID4024800

> <Canonical_QSARr>
Oc1cc(Cl)ccc1

> <InChI_Code_QSARr>
InChI=1S/C6H5ClO/c7-5-2-1-3-6(8)4-5/h1-4,8H

> <InChI Key_QSARr>
HORNXRXVQWOLPJ-UHFFFAOYSA-N

> <LogKmHL>
-0.68

$$$$
100153
  -INDIGO-08031722222D

 21 20  0  0  0  0  0  0  0  0999 V2000
    0.8000    1.3856    0.0000 C   0  0  0  0  0  0  0  0  0  0  0  0
    1.6000    2.7713    0.0000 H   0  0  0  0  0  0  0  0  0  0  0  0
    0.0000    2.7713    0.0000 H   0  0  0  0  0  0  0  0  0  0  0  0
    0.0000    0.0000    0.0000 C   0  0  0  0  0  0  0  0  0  0  0  0
   -0.8000   -1.3856    0.0000 H   0  0  0  0  0  0  0  0  0  0  0  0
    1.3857   -0.8000    0.0000 C   0  0  0  0  0  0  0  0  0  0  0  0
    2.7713   -1.6000    0.0000 H   0  0  0  0  0  0  0  0  0  0  0  0
    2.7713    0.0000    0.0000 H   0  0  0  0  0  0  0  0  0  0  0  0
    1.3857   -2.4000    0.0000 H   0  0  0  0  0  0  0  0  0  0  0  0
   -1.3856    0.8000    0.0000 O   0  0  0  0  0  0  0  0  0  0  0  0
   -2.7713    0.0000    0.0000 C   0  0  0  0  0  0  0  0  0  0  0  0
   -1.9713   -1.3856    0.0000 H   0  0  0  0  0  0  0  0  0  0  0  0
   -4.1569   -0.8000    0.0000 C   0  0  0  0  0  0  0  0  0  0  0  0
   -5.5426   -1.6000    0.0000 H   0  0  0  0  0  0  0  0  0  0  0  0
   -5.5426    0.0000    0.0000 H   0  0  0  0  0  0  0  0  0  0  0  0
   -4.1569   -2.4000    0.0000 Cl  0  0  0  0  0  0  0  0  0  0  0  0
   -3.5713    1.3856    0.0000 C   0  0  0  0  0  0  0  0  0  0  0  0
   -4.3713    2.7713    0.0000 H   0  0  0  0  0  0  0  0  0  0  0  0
   -2.7713    2.7713    0.0000 H   0  0  0  0  0  0  0  0  0  0  0  0
   -5.1712    1.3856    0.0000 H   0  0  0  0  0  0  0  0  0  0  0  0
    2.4000    1.3856    0.0000 Cl  0  0  0  0  0  0  0  0  0  0  0  0
  1  2  1  0  0  0  0
  1  3  1  0  0  0  0
  1  4  1  0  0  0  0
  4  5  1  0  0  0  0
  4  6  1  0  0  0  0
  6  7  1  0  0  0  0
  6  8  1  0  0  0  0
  6  9  1  0  0  0  0
  4 10  1  0  0  0  0
 10 11  1  0  0  0  0
 11 12  1  0  0  0  0
 11 13  1  0  0  0  0
 13 14  1  0  0  0  0
 13 15  1  0  0  0  0
 13 16  1  0  0  0  0
 11 17  1  0  0  0  0
 17 18  1  0  0  0  0
 17 19  1  0  0  0  0
 17 20  1  0  0  0  0
  1 21  1  0  0  0  0
M  END
> <ChemID>
100153

> <source_casrn>
108-60-1

> <CAS>
108-60-1

> <SMILES>
O(C(CCl)C)C(CCl)C

> <NAME>
DCIP  (2,2'-oxybis-1-chloropropane)

> <preferred_name>
bis(2-Chloro-1-methylethyl) ether

> <iupac>
C6H12Cl2O

> <MPID>
101787

> <dsstox_substance_id>
DTXSID4020167

> <Canonical_QSARr>
CC(CCl)OC(C)CCl

> <InChI_Code_QSARr>
InChI=1S/C6H12Cl2O/c1-5(3-7)9-6(2)4-8/h5-6H,3-4H2,1-2H3

> <InChI Key_QSARr>
QCFYJCYNJLBDRT-UHFFFAOYSA-N

> <LogKmHL>
-1.07

$$$$
100154
  -INDIGO-08031722222D

 21 21  0  0  0  0  0  0  0  0999 V2000
    0.0000    0.0001    0.0000 C   0  0  0  0  0  0  0  0  0  0  0  0
    1.3857    0.8000    0.0000 C   0  0  0  0  0  0  0  0  0  0  0  0
    1.3857    2.4000    0.0000 H   0  0  0  0  0  0  0  0  0  0  0  0
    2.7713    0.0001    0.0000 C   0  0  0  0  0  0  0  0  0  0  0  0
    4.1570    0.8000    0.0000 C   0  0  0  0  0  0  0  0  0  0  0  0
    5.5426    1.6001    0.0000 H   0  0  0  0  0  0  0  0  0  0  0  0
    5.5426    0.0001    0.0000 H   0  0  0  0  0  0  0  0  0  0  0  0
    4.1570    2.4000    0.0000 H   0  0  0  0  0  0  0  0  0  0  0  0
    2.7713   -1.5999    0.0000 C   0  0  0  0  0  0  0  0  0  0  0  0
    4.1570   -2.4000    0.0000 H   0  0  0  0  0  0  0  0  0  0  0  0
    1.3857   -2.4000    0.0000 C   0  0  0  0  0  0  0  0  0  0  0  0
    1.3857   -4.0000    0.0000 C   0  0  0  0  0  0  0  0  0  0  0  0
    1.3856   -5.6000    0.0000 H   0  0  0  0  0  0  0  0  0  0  0  0
    0.0000   -4.8001    0.0000 H   0  0  0  0  0  0  0  0  0  0  0  0
    2.7713   -4.8001    0.0000 H   0  0  0  0  0  0  0  0  0  0  0  0
    0.0000   -1.5999    0.0000 C   0  0  0  0  0  0  0  0  0  0  0  0
   -1.3857   -2.4000    0.0000 H   0  0  0  0  0  0  0  0  0  0  0  0
   -1.3857    0.8000    0.0000 C   0  0  0  0  0  0  0  0  0  0  0  0
   -2.7713    1.6001    0.0000 H   0  0  0  0  0  0  0  0  0  0  0  0
   -2.7713    0.0001    0.0000 H   0  0  0  0  0  0  0  0  0  0  0  0
   -1.3857    2.4000    0.0000 H   0  0  0  0  0  0  0  0  0  0  0  0
  1  2  1  0  0  0  0
  2  3  1  0  0  0  0
  2  4  2  0  0  0  0
  4  5  1  0  0  0  0
  5  6  1  0  0  0  0
  5  7  1  0  0  0  0
  5  8  1  0  0  0  0
  4  9  1  0  0  0  0
  9 10  1  0  0  0  0
  9 11  2  0  0  0  0
 11 12  1  0  0  0  0
 12 13  1  0  0  0  0
 12 14  1  0  0  0  0
 12 15  1  0  0  0  0
 11 16  1  0  0  0  0
 16  1  2  0  0  0  0
 16 17  1  0  0  0  0
  1 18  1  0  0  0  0
 18 19  1  0  0  0  0
 18 20  1  0  0  0  0
 18 21  1  0  0  0  0
M  END
> <ChemID>
100154

> <source_casrn>
108-67-8

> <CAS>
108-67-8

> <SMILES>
Cc1cc(C)cc(C)c1

> <NAME>
Benzene, 1,3,5-trimethyl-

> <preferred_name>
1,3,5-Trimethylbenzene

> <iupac>
1,3,5-trimethylbenzene

> <MPID>
101788

> <dsstox_substance_id>
DTXSID6026797

> <Canonical_QSARr>
Cc1cc(C)cc(C)c1

> <InChI_Code_QSARr>
InChI=1S/C9H12/c1-7-4-8(2)6-9(3)5-7/h4-6H,1-3H3

> <InChI Key_QSARr>
AUHZEENZYGFFBQ-UHFFFAOYSA-N

> <LogKmHL>
0.4

$$$$
100155
  -INDIGO-08031722222D

 12 12  0  0  0  0  0  0  0  0999 V2000
   -0.0000   -0.0000    0.0000 C   0  0  0  0  0  0  0  0  0  0  0  0
    0.8000   -1.3857    0.0000 C   0  0  0  0  0  0  0  0  0  0  0  0
    2.4000   -1.3857    0.0000 H   0  0  0  0  0  0  0  0  0  0  0  0
   -0.0000   -2.7713    0.0000 C   0  0  0  0  0  0  0  0  0  0  0  0
    0.8000   -4.1569    0.0000 Cl  0  0  0  0  0  0  0  0  0  0  0  0
   -1.6000   -2.7713    0.0000 C   0  0  0  0  0  0  0  0  0  0  0  0
   -2.4000   -4.1569    0.0000 H   0  0  0  0  0  0  0  0  0  0  0  0
   -2.4000   -1.3856    0.0000 C   0  0  0  0  0  0  0  0  0  0  0  0
   -4.0000   -1.3856    0.0000 Cl  0  0  0  0  0  0  0  0  0  0  0  0
   -1.6000   -0.0000    0.0000 C   0  0  0  0  0  0  0  0  0  0  0  0
   -2.4000    1.3856    0.0000 H   0  0  0  0  0  0  0  0  0  0  0  0
    0.8000    1.3856    0.0000 Cl  0  0  0  0  0  0  0  0  0  0  0  0
  1  2  1  0  0  0  0
  2  3  1  0  0  0  0
  2  4  2  0  0  0  0
  4  5  1  0  0  0  0
  4  6  1  0  0  0  0
  6  7  1  0  0  0  0
  6  8  2  0  0  0  0
  8  9  1  0  0  0  0
  8 10  1  0  0  0  0
 10  1  2  0  0  0  0
 10 11  1  0  0  0  0
  1 12  1  0  0  0  0
M  END
> <ChemID>
100155

> <source_casrn>
108-70-3

> <CAS>
108-70-3

> <SMILES>
Clc1cc(Cl)cc(Cl)c1

> <NAME>
Benzene, 1,3,5-trichloro-

> <preferred_name>
1,3,5-Trichlorobenzene

> <iupac>
C6H3Cl3

> <MPID>
101789

> <dsstox_substance_id>
DTXSID8026195

> <Canonical_QSARr>
Clc1cc(Cl)cc(Cl)c1

> <InChI_Code_QSARr>
InChI=1S/C6H3Cl3/c7-4-1-5(8)3-6(9)2-4/h1-3H

> <InChI Key_QSARr>
XKEFYDZQGKAQCN-UHFFFAOYSA-N

> <LogKmHL>
1.19

$$$$
100157
  -INDIGO-08031722222D

 21 21  0  0  0  0  0  0  0  0999 V2000
   -0.0000    1.6000    0.0000 C   0  0  0  0  0  0  0  0  0  0  0  0
    0.5472    3.1035    0.0000 H   0  0  0  0  0  0  0  0  0  0  0  0
    1.5757    1.3222    0.0000 H   0  0  0  0  0  0  0  0  0  0  0  0
   -1.3856    2.4000    0.0000 C   0  0  0  0  0  0  0  0  0  0  0  0
   -0.3572    3.6257    0.0000 H   0  0  0  0  0  0  0  0  0  0  0  0
   -2.4141    3.6257    0.0000 H   0  0  0  0  0  0  0  0  0  0  0  0
   -2.7713    1.6000    0.0000 C   0  0  0  0  0  0  0  0  0  0  0  0
   -3.3185    3.1035    0.0000 H   0  0  0  0  0  0  0  0  0  0  0  0
   -4.3470    1.3222    0.0000 H   0  0  0  0  0  0  0  0  0  0  0  0
   -2.7713   -0.0000    0.0000 C   0  0  0  0  0  0  0  0  0  0  0  0
   -4.3470    0.2778    0.0000 H   0  0  0  0  0  0  0  0  0  0  0  0
   -3.3185   -1.5035    0.0000 H   0  0  0  0  0  0  0  0  0  0  0  0
   -1.3856   -0.8000    0.0000 C   0  0  0  0  0  0  0  0  0  0  0  0
   -2.4141   -2.0257    0.0000 H   0  0  0  0  0  0  0  0  0  0  0  0
   -0.3572   -2.0257    0.0000 H   0  0  0  0  0  0  0  0  0  0  0  0
   -0.0000   -0.0000    0.0000 C   0  0  0  0  0  0  0  0  0  0  0  0
    0.5472   -1.5035    0.0000 H   0  0  0  0  0  0  0  0  0  0  0  0
    1.5757   -0.2778    0.0000 C   0  0  0  0  0  0  0  0  0  0  0  0
    3.1514   -0.5556    0.0000 H   0  0  0  0  0  0  0  0  0  0  0  0
    2.1229   -1.7814    0.0000 H   0  0  0  0  0  0  0  0  0  0  0  0
    2.6041    0.9478    0.0000 H   0  0  0  0  0  0  0  0  0  0  0  0
  1  2  1  0  0  0  0
  1  3  1  0  0  0  0
  1  4  1  0  0  0  0
  4  5  1  0  0  0  0
  4  6  1  0  0  0  0
  4  7  1  0  0  0  0
  7  8  1  0  0  0  0
  7  9  1  0  0  0  0
  7 10  1  0  0  0  0
 10 11  1  0  0  0  0
 10 12  1  0  0  0  0
 10 13  1  0  0  0  0
 13 14  1  0  0  0  0
 13 15  1  0  0  0  0
 13 16  1  0  0  0  0
 16  1  1  0  0  0  0
 16 17  1  0  0  0  0
 16 18  1  0  0  0  0
 18 19  1  0  0  0  0
 18 20  1  0  0  0  0
 18 21  1  0  0  0  0
M  END
> <ChemID>
100157

> <source_casrn>
108-87-2

> <CAS>
108-87-2

> <SMILES>
CC1CCCCC1

> <NAME>
Cyclohexane, methyl-

> <preferred_name>
Methylcyclohexane

> <iupac>
methylcyclohexane

> <MPID>
101791

> <dsstox_substance_id>
DTXSID0047749

> <Canonical_QSARr>
CC1CCCCC1

> <InChI_Code_QSARr>
InChI=1S/C7H14/c1-7-5-3-2-4-6-7/h7H,2-6H2,1H3

> <InChI Key_QSARr>
UAEPNZWRGJTJPN-UHFFFAOYSA-N

> <LogKmHL>
0.57

$$$$
100158
  -INDIGO-08031722222D

 12 12  0  0  0  0  0  0  0  0999 V2000
    0.8000    1.3856    0.0000 Cl  0  0  0  0  0  0  0  0  0  0  0  0
   -0.0000   -0.0000    0.0000 C   0  0  0  0  0  0  0  0  0  0  0  0
    0.8000   -1.3857    0.0000 C   0  0  0  0  0  0  0  0  0  0  0  0
    2.4000   -1.3857    0.0000 H   0  0  0  0  0  0  0  0  0  0  0  0
   -0.0000   -2.7713    0.0000 C   0  0  0  0  0  0  0  0  0  0  0  0
    0.8000   -4.1569    0.0000 H   0  0  0  0  0  0  0  0  0  0  0  0
   -1.6000   -2.7713    0.0000 C   0  0  0  0  0  0  0  0  0  0  0  0
   -2.4000   -4.1569    0.0000 H   0  0  0  0  0  0  0  0  0  0  0  0
   -2.4000   -1.3856    0.0000 C   0  0  0  0  0  0  0  0  0  0  0  0
   -4.0000   -1.3856    0.0000 H   0  0  0  0  0  0  0  0  0  0  0  0
   -1.6000   -0.0000    0.0000 C   0  0  0  0  0  0  0  0  0  0  0  0
   -2.4000    1.3856    0.0000 H   0  0  0  0  0  0  0  0  0  0  0  0
  1  2  1  0  0  0  0
  2  3  1  0  0  0  0
  3  4  1  0  0  0  0
  3  5  2  0  0  0  0
  5  6  1  0  0  0  0
  5  7  1  0  0  0  0
  7  8  1  0  0  0  0
  7  9  2  0  0  0  0
  9 10  1  0  0  0  0
  9 11  1  0  0  0  0
 11  2  2  0  0  0  0
 11 12  1  0  0  0  0
M  END
> <ChemID>
100158

> <source_casrn>
108-90-7

> <CAS>
108-90-7

> <SMILES>
Clc1ccccc1

> <NAME>
Benzene, chloro-

> <preferred_name>
Chlorobenzene

> <iupac>
chlorobenzene

> <MPID>
101792

> <dsstox_substance_id>
DTXSID4020298

> <Canonical_QSARr>
Clc1ccccc1

> <InChI_Code_QSARr>
InChI=1S/C6H5Cl/c7-6-4-2-1-3-5-6/h1-5H

> <InChI Key_QSARr>
MVPPADPHJFYWMZ-UHFFFAOYSA-N

> <LogKmHL>
-1.02

$$$$
100159
  -INDIGO-08031722222D

 11 11  0  0  0  0  0  0  0  0999 V2000
   -0.0000    3.2000    0.0000 N   0  0  0  0  0  0  0  0  0  0  0  0
    1.3856    2.4000    0.0000 C   0  0  0  0  0  0  0  0  0  0  0  0
    2.7713    3.2000    0.0000 Cl  0  0  0  0  0  0  0  0  0  0  0  0
    1.3856    0.8000    0.0000 C   0  0  0  0  0  0  0  0  0  0  0  0
    2.7713    0.0000    0.0000 H   0  0  0  0  0  0  0  0  0  0  0  0
   -0.0000    0.0000    0.0000 C   0  0  0  0  0  0  0  0  0  0  0  0
   -0.0000   -1.6000    0.0000 H   0  0  0  0  0  0  0  0  0  0  0  0
   -1.3856    0.8000    0.0000 C   0  0  0  0  0  0  0  0  0  0  0  0
   -2.7713    0.0000    0.0000 H   0  0  0  0  0  0  0  0  0  0  0  0
   -1.3856    2.4000    0.0000 C   0  0  0  0  0  0  0  0  0  0  0  0
   -2.7713    3.2000    0.0000 H   0  0  0  0  0  0  0  0  0  0  0  0
  1  2  1  0  0  0  0
  2  3  1  0  0  0  0
  2  4  2  0  0  0  0
  4  5  1  0  0  0  0
  4  6  1  0  0  0  0
  6  7  1  0  0  0  0
  6  8  2  0  0  0  0
  8  9  1  0  0  0  0
  8 10  1  0  0  0  0
 10  1  2  0  0  0  0
 10 11  1  0  0  0  0
M  END
> <ChemID>
100159

> <source_casrn>
109-09-1

> <CAS>
109-09-1

> <SMILES>
Clc1cccc[n]1

> <NAME>
2-chloropyridine

> <preferred_name>
2-Chloropyridine

> <iupac>
2-chloropyridine

> <MPID>
101793

> <dsstox_substance_id>
DTXSID8024810

> <Canonical_QSARr>
Clc1cccc[n]1

> <InChI_Code_QSARr>
InChI=1S/C5H4ClN/c6-5-3-1-2-4-7-5/h1-4H

> <InChI Key_QSARr>
OKDGRDCXVWSXDC-UHFFFAOYSA-N

> <LogKmHL>
-0.85

$$$$
100161
  -INDIGO-08031722222D

  9  9  0  0  0  0  0  0  0  0999 V2000
    0.0000   -0.0000    0.0000 C   0  0  0  0  0  0  0  0  0  0  0  0
    0.9405    1.2944    0.0000 H   0  0  0  0  0  0  0  0  0  0  0  0
    0.4944   -1.5217    0.0000 C   0  0  0  0  0  0  0  0  0  0  0  0
    2.0161   -2.0161    0.0000 H   0  0  0  0  0  0  0  0  0  0  0  0
   -0.8000   -2.4621    0.0000 O   0  0  0  0  0  0  0  0  0  0  0  0
   -2.0944   -1.5217    0.0000 C   0  0  0  0  0  0  0  0  0  0  0  0
   -3.6161   -2.0161    0.0000 H   0  0  0  0  0  0  0  0  0  0  0  0
   -1.6000   -0.0000    0.0000 C   0  0  0  0  0  0  0  0  0  0  0  0
   -2.5405    1.2944    0.0000 H   0  0  0  0  0  0  0  0  0  0  0  0
  1  2  1  0  0  0  0
  1  3  2  0  0  0  0
  3  4  1  0  0  0  0
  3  5  1  0  0  0  0
  5  6  1  0  0  0  0
  6  7  1  0  0  0  0
  6  8  2  0  0  0  0
  8  1  1  0  0  0  0
  8  9  1  0  0  0  0
M  END
> <ChemID>
100161

> <source_casrn>
110-00-9

> <CAS>
110-00-9

> <SMILES>
c1ccco1

> <NAME>
Furan

> <preferred_name>
Furan

> <iupac>
furan

> <MPID>
101795

> <dsstox_substance_id>
DTXSID6020646

> <Canonical_QSARr>
c1ccco1

> <InChI_Code_QSARr>
InChI=1S/C4H4O/c1-2-4-5-3-1/h1-4H

> <InChI Key_QSARr>
YLQBMQCUIZJEEH-UHFFFAOYSA-N

> <LogKmHL>
-0.84

$$$$
100162
  -INDIGO-08031722222D

  9  9  0  0  0  0  0  0  0  0999 V2000
    0.0000   -0.0000    0.0000 C   0  0  0  0  0  0  0  0  0  0  0  0
    0.9405    1.2944    0.0000 H   0  0  0  0  0  0  0  0  0  0  0  0
    0.4944   -1.5217    0.0000 C   0  0  0  0  0  0  0  0  0  0  0  0
    2.0161   -2.0161    0.0000 H   0  0  0  0  0  0  0  0  0  0  0  0
   -0.8000   -2.4621    0.0000 S   0  0  0  0  0  0  0  0  0  0  0  0
   -2.0944   -1.5217    0.0000 C   0  0  0  0  0  0  0  0  0  0  0  0
   -3.6161   -2.0161    0.0000 H   0  0  0  0  0  0  0  0  0  0  0  0
   -1.6000   -0.0000    0.0000 C   0  0  0  0  0  0  0  0  0  0  0  0
   -2.5405    1.2944    0.0000 H   0  0  0  0  0  0  0  0  0  0  0  0
  1  2  1  0  0  0  0
  1  3  2  0  0  0  0
  3  4  1  0  0  0  0
  3  5  1  0  0  0  0
  5  6  1  0  0  0  0
  6  7  1  0  0  0  0
  6  8  2  0  0  0  0
  8  1  1  0  0  0  0
  8  9  1  0  0  0  0
M  END
> <ChemID>
100162

> <source_casrn>
110-02-1

> <CAS>
110-02-1

> <SMILES>
c1ccc[s]1

> <NAME>
Thiophene

> <preferred_name>
Thiophene

> <iupac>
thiophene

> <MPID>
101796

> <dsstox_substance_id>
DTXSID8026145

> <Canonical_QSARr>
c1ccc[s]1

> <InChI_Code_QSARr>
InChI=1S/C4H4S/c1-2-4-5-3-1/h1-4H

> <InChI Key_QSARr>
YTPLMLYBLZKORZ-UHFFFAOYSA-N

> <LogKmHL>
-0.82

$$$$
100163
  -INDIGO-08031722222D

 18 18  0  0  0  0  0  0  0  0999 V2000
    0.0000    0.0000    0.0000 C   0  0  0  0  0  0  0  0  0  0  0  0
    0.5472    1.5035    0.0000 H   0  0  0  0  0  0  0  0  0  0  0  0
    1.5757   -0.2778    0.0000 H   0  0  0  0  0  0  0  0  0  0  0  0
   -1.3856    0.8000    0.0000 C   0  0  0  0  0  0  0  0  0  0  0  0
   -0.3571    2.0257    0.0000 H   0  0  0  0  0  0  0  0  0  0  0  0
   -2.4141    2.0257    0.0000 H   0  0  0  0  0  0  0  0  0  0  0  0
   -2.7713    0.0000    0.0000 C   0  0  0  0  0  0  0  0  0  0  0  0
   -3.3185    1.5035    0.0000 H   0  0  0  0  0  0  0  0  0  0  0  0
   -4.3470   -0.2778    0.0000 H   0  0  0  0  0  0  0  0  0  0  0  0
   -2.7713   -1.6000    0.0000 C   0  0  0  0  0  0  0  0  0  0  0  0
   -4.3470   -1.3222    0.0000 H   0  0  0  0  0  0  0  0  0  0  0  0
   -3.3185   -3.1035    0.0000 H   0  0  0  0  0  0  0  0  0  0  0  0
   -1.3856   -2.4000    0.0000 C   0  0  0  0  0  0  0  0  0  0  0  0
   -2.4141   -3.6257    0.0000 H   0  0  0  0  0  0  0  0  0  0  0  0
   -0.3571   -3.6257    0.0000 H   0  0  0  0  0  0  0  0  0  0  0  0
    0.0000   -1.6000    0.0000 C   0  0  0  0  0  0  0  0  0  0  0  0
    0.5472   -3.1035    0.0000 H   0  0  0  0  0  0  0  0  0  0  0  0
    1.5757   -1.3222    0.0000 H   0  0  0  0  0  0  0  0  0  0  0  0
  1  2  1  0  0  0  0
  1  3  1  0  0  0  0
  1  4  1  0  0  0  0
  4  5  1  0  0  0  0
  4  6  1  0  0  0  0
  4  7  1  0  0  0  0
  7  8  1  0  0  0  0
  7  9  1  0  0  0  0
  7 10  1  0  0  0  0
 10 11  1  0  0  0  0
 10 12  1  0  0  0  0
 10 13  1  0  0  0  0
 13 14  1  0  0  0  0
 13 15  1  0  0  0  0
 13 16  1  0  0  0  0
 16  1  1  0  0  0  0
 16 17  1  0  0  0  0
 16 18  1  0  0  0  0
M  END
> <ChemID>
100163

> <source_casrn>
110-82-7

> <CAS>
110-82-7

> <SMILES>
C1CCCCC1

> <NAME>
Cyclohexane

> <preferred_name>
Cyclohexane

> <iupac>
cyclohexane

> <MPID>
101797

> <dsstox_substance_id>
DTXSID4021923

> <Canonical_QSARr>
C1CCCCC1

> <InChI_Code_QSARr>
InChI=1S/C6H12/c1-2-4-6-5-3-1/h1-6H2

> <InChI Key_QSARr>
XDTMQSROBMDMFD-UHFFFAOYSA-N

> <LogKmHL>
-0.66

$$$$
100165
  -INDIGO-08031722222D

 29 28  0  0  0  0  0  0  0  0999 V2000
   -4.1569    0.8000    0.0000 C   0  0  0  0  0  0  0  0  0  0  0  0
   -3.5446    2.2782    0.0000 H   0  0  0  0  0  0  0  0  0  0  0  0
   -4.7692    2.2782    0.0000 H   0  0  0  0  0  0  0  0  0  0  0  0
   -2.7712   -0.0000    0.0000 C   0  0  0  0  0  0  0  0  0  0  0  0
   -3.3835   -1.4782    0.0000 H   0  0  0  0  0  0  0  0  0  0  0  0
   -2.1591   -1.4782    0.0000 H   0  0  0  0  0  0  0  0  0  0  0  0
   -1.3856    0.8000    0.0000 C   0  0  0  0  0  0  0  0  0  0  0  0
   -0.7733    2.2782    0.0000 H   0  0  0  0  0  0  0  0  0  0  0  0
   -1.9980    2.2782    0.0000 H   0  0  0  0  0  0  0  0  0  0  0  0
    0.0001   -0.0000    0.0000 C   0  0  0  0  0  0  0  0  0  0  0  0
   -0.6122   -1.4782    0.0000 H   0  0  0  0  0  0  0  0  0  0  0  0
    0.6122   -1.4782    0.0000 H   0  0  0  0  0  0  0  0  0  0  0  0
    1.3856    0.8000    0.0000 C   0  0  0  0  0  0  0  0  0  0  0  0
    1.9980    2.2782    0.0000 H   0  0  0  0  0  0  0  0  0  0  0  0
    0.7733    2.2782    0.0000 H   0  0  0  0  0  0  0  0  0  0  0  0
    2.7714   -0.0000    0.0000 C   0  0  0  0  0  0  0  0  0  0  0  0
    2.1591   -1.4782    0.0000 H   0  0  0  0  0  0  0  0  0  0  0  0
    3.3835   -1.4782    0.0000 H   0  0  0  0  0  0  0  0  0  0  0  0
    4.1569    0.8000    0.0000 C   0  0  0  0  0  0  0  0  0  0  0  0
    4.7692    2.2782    0.0000 H   0  0  0  0  0  0  0  0  0  0  0  0
    3.5446    2.2782    0.0000 H   0  0  0  0  0  0  0  0  0  0  0  0
    5.5427   -0.0000    0.0000 C   0  0  0  0  0  0  0  0  0  0  0  0
    6.9282   -0.8000    0.0000 H   0  0  0  0  0  0  0  0  0  0  0  0
    6.9282    0.8000    0.0000 H   0  0  0  0  0  0  0  0  0  0  0  0
    5.5427   -1.6000    0.0000 H   0  0  0  0  0  0  0  0  0  0  0  0
   -5.5425   -0.0000    0.0000 C   0  0  0  0  0  0  0  0  0  0  0  0
   -6.9282   -0.8000    0.0000 H   0  0  0  0  0  0  0  0  0  0  0  0
   -6.9282    0.8000    0.0000 H   0  0  0  0  0  0  0  0  0  0  0  0
   -5.5425   -1.6000    0.0000 H   0  0  0  0  0  0  0  0  0  0  0  0
  1  2  1  0  0  0  0
  1  3  1  0  0  0  0
  1  4  1  0  0  0  0
  4  5  1  0  0  0  0
  4  6  1  0  0  0  0
  4  7  1  0  0  0  0
  7  8  1  0  0  0  0
  7  9  1  0  0  0  0
  7 10  1  0  0  0  0
 10 11  1  0  0  0  0
 10 12  1  0  0  0  0
 10 13  1  0  0  0  0
 13 14  1  0  0  0  0
 13 15  1  0  0  0  0
 13 16  1  0  0  0  0
 16 17  1  0  0  0  0
 16 18  1  0  0  0  0
 16 19  1  0  0  0  0
 19 20  1  0  0  0  0
 19 21  1  0  0  0  0
 19 22  1  0  0  0  0
 22 23  1  0  0  0  0
 22 24  1  0  0  0  0
 22 25  1  0  0  0  0
  1 26  1  0  0  0  0
 26 27  1  0  0  0  0
 26 28  1  0  0  0  0
 26 29  1  0  0  0  0
M  END
> <ChemID>
100165

> <source_casrn>
111-84-2

> <CAS>
111-84-2

> <SMILES>
CCCCCCCCC

> <NAME>
N-nonane

> <preferred_name>
Nonane

> <iupac>
nonane

> <MPID>
101799

> <dsstox_substance_id>
DTXSID9025796

> <Canonical_QSARr>
CCCCCCCCC

> <InChI_Code_QSARr>
InChI=1S/C9H20/c1-3-5-7-9-8-6-4-2/h3-9H2,1-2H3

> <InChI Key_QSARr>
BKIMMITUMNQMOS-UHFFFAOYSA-N

> <LogKmHL>
0.97

$$$$
100166
  -INDIGO-08031722222D

 38 37  0  0  0  0  0  0  0  0999 V2000
    6.9282   -0.8000    0.0000 C   0  0  0  0  0  0  0  0  0  0  0  0
    8.3138   -1.6000    0.0000 H   0  0  0  0  0  0  0  0  0  0  0  0
    8.3138    0.0000    0.0000 H   0  0  0  0  0  0  0  0  0  0  0  0
    6.9282   -2.4000    0.0000 H   0  0  0  0  0  0  0  0  0  0  0  0
    5.5426    0.0000    0.0000 C   0  0  0  0  0  0  0  0  0  0  0  0
    6.1548    1.4782    0.0000 H   0  0  0  0  0  0  0  0  0  0  0  0
    4.9302    1.4782    0.0000 H   0  0  0  0  0  0  0  0  0  0  0  0
    4.1570   -0.8000    0.0000 C   0  0  0  0  0  0  0  0  0  0  0  0
    3.5446   -2.2782    0.0000 H   0  0  0  0  0  0  0  0  0  0  0  0
    4.7692   -2.2782    0.0000 H   0  0  0  0  0  0  0  0  0  0  0  0
    2.7712    0.0000    0.0000 C   0  0  0  0  0  0  0  0  0  0  0  0
    3.3836    1.4782    0.0000 H   0  0  0  0  0  0  0  0  0  0  0  0
    2.1590    1.4782    0.0000 H   0  0  0  0  0  0  0  0  0  0  0  0
    1.3856   -0.8000    0.0000 C   0  0  0  0  0  0  0  0  0  0  0  0
    0.7735   -2.2782    0.0000 H   0  0  0  0  0  0  0  0  0  0  0  0
    1.9980   -2.2782    0.0000 H   0  0  0  0  0  0  0  0  0  0  0  0
   -0.0000    0.0000    0.0000 C   0  0  0  0  0  0  0  0  0  0  0  0
    0.6124    1.4782    0.0000 H   0  0  0  0  0  0  0  0  0  0  0  0
   -0.6124    1.4782    0.0000 H   0  0  0  0  0  0  0  0  0  0  0  0
   -1.3856   -0.8000    0.0000 C   0  0  0  0  0  0  0  0  0  0  0  0
   -1.9980   -2.2782    0.0000 H   0  0  0  0  0  0  0  0  0  0  0  0
   -0.7732   -2.2782    0.0000 H   0  0  0  0  0  0  0  0  0  0  0  0
   -2.7712    0.0000    0.0000 C   0  0  0  0  0  0  0  0  0  0  0  0
   -2.1591    1.4782    0.0000 H   0  0  0  0  0  0  0  0  0  0  0  0
   -3.3836    1.4782    0.0000 H   0  0  0  0  0  0  0  0  0  0  0  0
   -4.1568   -0.8000    0.0000 C   0  0  0  0  0  0  0  0  0  0  0  0
   -4.7692   -2.2782    0.0000 H   0  0  0  0  0  0  0  0  0  0  0  0
   -3.5447   -2.2782    0.0000 H   0  0  0  0  0  0  0  0  0  0  0  0
   -5.5427    0.0000    0.0000 C   0  0  0  0  0  0  0  0  0  0  0  0
   -4.9303    1.4782    0.0000 H   0  0  0  0  0  0  0  0  0  0  0  0
   -6.1548    1.4782    0.0000 H   0  0  0  0  0  0  0  0  0  0  0  0
   -6.9283   -0.8000    0.0000 C   0  0  0  0  0  0  0  0  0  0  0  0
   -7.5404   -2.2782    0.0000 H   0  0  0  0  0  0  0  0  0  0  0  0
   -6.3159   -2.2782    0.0000 H   0  0  0  0  0  0  0  0  0  0  0  0
   -8.3139    0.0000    0.0000 C   0  0  0  0  0  0  0  0  0  0  0  0
   -9.6995    0.8000    0.0000 H   0  0  0  0  0  0  0  0  0  0  0  0
   -9.6995   -0.8000    0.0000 H   0  0  0  0  0  0  0  0  0  0  0  0
   -8.3139    1.6000    0.0000 H   0  0  0  0  0  0  0  0  0  0  0  0
  1  2  1  0  0  0  0
  1  3  1  0  0  0  0
  1  4  1  0  0  0  0
  1  5  1  0  0  0  0
  5  6  1  0  0  0  0
  5  7  1  0  0  0  0
  5  8  1  0  0  0  0
  8  9  1  0  0  0  0
  8 10  1  0  0  0  0
  8 11  1  0  0  0  0
 11 12  1  0  0  0  0
 11 13  1  0  0  0  0
 11 14  1  0  0  0  0
 14 15  1  0  0  0  0
 14 16  1  0  0  0  0
 14 17  1  0  0  0  0
 17 18  1  0  0  0  0
 17 19  1  0  0  0  0
 17 20  1  0  0  0  0
 20 21  1  0  0  0  0
 20 22  1  0  0  0  0
 20 23  1  0  0  0  0
 23 24  1  0  0  0  0
 23 25  1  0  0  0  0
 23 26  1  0  0  0  0
 26 27  1  0  0  0  0
 26 28  1  0  0  0  0
 26 29  1  0  0  0  0
 29 30  1  0  0  0  0
 29 31  1  0  0  0  0
 29 32  1  0  0  0  0
 32 33  1  0  0  0  0
 32 34  1  0  0  0  0
 32 35  1  0  0  0  0
 35 36  1  0  0  0  0
 35 37  1  0  0  0  0
 35 38  1  0  0  0  0
M  END
> <ChemID>
100166

> <source_casrn>
112-40-3

> <CAS>
112-40-3

> <SMILES>
CCCCCCCCCCCC

> <NAME>
N-dodecane

> <preferred_name>
Dodecane

> <iupac>
dodecane

> <MPID>
101800

> <dsstox_substance_id>
DTXSID0026913

> <Canonical_QSARr>
CCCCCCCCCCCC

> <InChI_Code_QSARr>
InChI=1S/C12H26/c1-3-5-7-9-11-12-10-8-6-4-2/h3-12H2,1-2H3

> <InChI Key_QSARr>
SNRUBQQJIBEYMU-UHFFFAOYSA-N

> <LogKmHL>
0.26

$$$$
100167
  -INDIGO-08031722222D

 36 35  0  0  0  0  0  0  0  0999 V2000
    8.3139    0.0000    0.0000 C   0  0  0  0  0  0  0  0  0  0  0  0
    9.6995    0.8000    0.0000 H   0  0  0  0  0  0  0  0  0  0  0  0
    8.3139   -1.6000    0.0000 H   0  0  0  0  0  0  0  0  0  0  0  0
    6.9283    0.8000    0.0000 C   0  0  0  0  0  0  0  0  0  0  0  0
    6.9283    2.4000    0.0000 H   0  0  0  0  0  0  0  0  0  0  0  0
    5.5427    0.0000    0.0000 C   0  0  0  0  0  0  0  0  0  0  0  0
    4.9303   -1.4782    0.0000 H   0  0  0  0  0  0  0  0  0  0  0  0
    6.1548   -1.4782    0.0000 H   0  0  0  0  0  0  0  0  0  0  0  0
    4.1568    0.8000    0.0000 C   0  0  0  0  0  0  0  0  0  0  0  0
    4.7692    2.2782    0.0000 H   0  0  0  0  0  0  0  0  0  0  0  0
    3.5447    2.2782    0.0000 H   0  0  0  0  0  0  0  0  0  0  0  0
    2.7712    0.0000    0.0000 C   0  0  0  0  0  0  0  0  0  0  0  0
    2.1591   -1.4782    0.0000 H   0  0  0  0  0  0  0  0  0  0  0  0
    3.3836   -1.4782    0.0000 H   0  0  0  0  0  0  0  0  0  0  0  0
    1.3856    0.8000    0.0000 C   0  0  0  0  0  0  0  0  0  0  0  0
    1.9980    2.2782    0.0000 H   0  0  0  0  0  0  0  0  0  0  0  0
    0.7732    2.2782    0.0000 H   0  0  0  0  0  0  0  0  0  0  0  0
    0.0000    0.0000    0.0000 C   0  0  0  0  0  0  0  0  0  0  0  0
   -0.6124   -1.4782    0.0000 H   0  0  0  0  0  0  0  0  0  0  0  0
    0.6124   -1.4782    0.0000 H   0  0  0  0  0  0  0  0  0  0  0  0
   -1.3856    0.8000    0.0000 C   0  0  0  0  0  0  0  0  0  0  0  0
   -0.7735    2.2782    0.0000 H   0  0  0  0  0  0  0  0  0  0  0  0
   -1.9980    2.2782    0.0000 H   0  0  0  0  0  0  0  0  0  0  0  0
   -2.7712    0.0000    0.0000 C   0  0  0  0  0  0  0  0  0  0  0  0
   -3.3836   -1.4782    0.0000 H   0  0  0  0  0  0  0  0  0  0  0  0
   -2.1590   -1.4782    0.0000 H   0  0  0  0  0  0  0  0  0  0  0  0
   -4.1570    0.8000    0.0000 C   0  0  0  0  0  0  0  0  0  0  0  0
   -3.5446    2.2782    0.0000 H   0  0  0  0  0  0  0  0  0  0  0  0
   -4.7692    2.2782    0.0000 H   0  0  0  0  0  0  0  0  0  0  0  0
   -5.5426    0.0000    0.0000 C   0  0  0  0  0  0  0  0  0  0  0  0
   -6.1548   -1.4782    0.0000 H   0  0  0  0  0  0  0  0  0  0  0  0
   -4.9302   -1.4782    0.0000 H   0  0  0  0  0  0  0  0  0  0  0  0
   -6.9282    0.8000    0.0000 C   0  0  0  0  0  0  0  0  0  0  0  0
   -8.3138    1.6000    0.0000 H   0  0  0  0  0  0  0  0  0  0  0  0
   -8.3138    0.0000    0.0000 H   0  0  0  0  0  0  0  0  0  0  0  0
   -6.9282    2.4000    0.0000 H   0  0  0  0  0  0  0  0  0  0  0  0
  1  2  1  0  0  0  0
  1  3  1  0  0  0  0
  1  4  2  0  0  0  0
  4  5  1  0  0  0  0
  4  6  1  0  0  0  0
  6  7  1  0  0  0  0
  6  8  1  0  0  0  0
  6  9  1  0  0  0  0
  9 10  1  0  0  0  0
  9 11  1  0  0  0  0
  9 12  1  0  0  0  0
 12 13  1  0  0  0  0
 12 14  1  0  0  0  0
 12 15  1  0  0  0  0
 15 16  1  0  0  0  0
 15 17  1  0  0  0  0
 15 18  1  0  0  0  0
 18 19  1  0  0  0  0
 18 20  1  0  0  0  0
 18 21  1  0  0  0  0
 21 22  1  0  0  0  0
 21 23  1  0  0  0  0
 21 24  1  0  0  0  0
 24 25  1  0  0  0  0
 24 26  1  0  0  0  0
 24 27  1  0  0  0  0
 27 28  1  0  0  0  0
 27 29  1  0  0  0  0
 27 30  1  0  0  0  0
 30 31  1  0  0  0  0
 30 32  1  0  0  0  0
 30 33  1  0  0  0  0
 33 34  1  0  0  0  0
 33 35  1  0  0  0  0
 33 36  1  0  0  0  0
M  END
> <ChemID>
100167

> <source_casrn>
112-41-4

> <CAS>
112-41-4

> <SMILES>
CCCCCCCCCCC=C

> <NAME>
1-dodecene

> <preferred_name>
1-Dodecene

> <iupac>
dodec-1-ene

> <MPID>
101801

> <dsstox_substance_id>
DTXSID5026914

> <Canonical_QSARr>
CCCCCCCCCCC=C

> <InChI_Code_QSARr>
InChI=1S/C12H24/c1-3-5-7-9-11-12-10-8-6-4-2/h3H,1,4-12H2,2H3

> <InChI Key_QSARr>
CRSBERNSMYQZNG-UHFFFAOYSA-N

> <LogKmHL>
0.83

$$$$
100169
  -INDIGO-08031722222D

 38 40  0  0  0  0  0  0  0  0999 V2000
    4.3291   -0.4812    0.0000 C   0  0  0  0  0  0  0  0  0  0  0  0
    4.6070    1.0944    0.0000 H   0  0  0  0  0  0  0  0  0  0  0  0
    5.5549   -1.5097    0.0000 C   0  0  0  0  0  0  0  0  0  0  0  0
    7.0584   -0.9624    0.0000 H   0  0  0  0  0  0  0  0  0  0  0  0
    5.2771   -3.0853    0.0000 C   0  0  0  0  0  0  0  0  0  0  0  0
    6.5026   -4.1139    0.0000 H   0  0  0  0  0  0  0  0  0  0  0  0
    3.7736   -3.6326    0.0000 C   0  0  0  0  0  0  0  0  0  0  0  0
    3.4957   -5.2082    0.0000 H   0  0  0  0  0  0  0  0  0  0  0  0
    2.5478   -2.6041    0.0000 C   0  0  0  0  0  0  0  0  0  0  0  0
    1.0443   -3.1514    0.0000 H   0  0  0  0  0  0  0  0  0  0  0  0
    2.8257   -1.0285    0.0000 C   0  0  0  0  0  0  0  0  0  0  0  0
    1.6001    0.0001    0.0000 O   0  0  0  0  0  0  0  0  0  0  0  0
    0.0001    0.0001    0.0000 P   0  0  0  0  0  0  0  0  0  0  0  0
   -0.8000    1.3856    0.0000 O   0  0  0  0  0  0  0  0  0  0  0  0
    0.8000    1.3856    0.0000 O   0  0  0  0  0  0  0  0  0  0  0  0
    0.0001    2.7713    0.0000 C   0  0  0  0  0  0  0  0  0  0  0  0
    0.8000    4.1570    0.0000 C   0  0  0  0  0  0  0  0  0  0  0  0
    2.3999    4.1570    0.0000 H   0  0  0  0  0  0  0  0  0  0  0  0
    0.0001    5.5425    0.0000 C   0  0  0  0  0  0  0  0  0  0  0  0
    0.8000    6.9282    0.0000 H   0  0  0  0  0  0  0  0  0  0  0  0
   -1.6001    5.5425    0.0000 C   0  0  0  0  0  0  0  0  0  0  0  0
   -2.4000    6.9282    0.0000 H   0  0  0  0  0  0  0  0  0  0  0  0
   -2.4000    4.1570    0.0000 C   0  0  0  0  0  0  0  0  0  0  0  0
   -3.9999    4.1570    0.0000 H   0  0  0  0  0  0  0  0  0  0  0  0
   -1.6001    2.7713    0.0000 C   0  0  0  0  0  0  0  0  0  0  0  0
   -2.4000    1.3856    0.0000 H   0  0  0  0  0  0  0  0  0  0  0  0
   -1.6001    0.0001    0.0000 O   0  0  0  0  0  0  0  0  0  0  0  0
   -2.4000   -1.3856    0.0000 C   0  0  0  0  0  0  0  0  0  0  0  0
   -3.9999   -1.3856    0.0000 C   0  0  0  0  0  0  0  0  0  0  0  0
   -4.8000    0.0001    0.0000 H   0  0  0  0  0  0  0  0  0  0  0  0
   -4.8000   -2.7713    0.0000 C   0  0  0  0  0  0  0  0  0  0  0  0
   -6.4000   -2.7713    0.0000 H   0  0  0  0  0  0  0  0  0  0  0  0
   -3.9999   -4.1569    0.0000 C   0  0  0  0  0  0  0  0  0  0  0  0
   -4.8000   -5.5426    0.0000 H   0  0  0  0  0  0  0  0  0  0  0  0
   -2.4000   -4.1569    0.0000 C   0  0  0  0  0  0  0  0  0  0  0  0
   -1.6001   -5.5426    0.0000 H   0  0  0  0  0  0  0  0  0  0  0  0
   -1.6001   -2.7713    0.0000 C   0  0  0  0  0  0  0  0  0  0  0  0
    0.0001   -2.7713    0.0000 H   0  0  0  0  0  0  0  0  0  0  0  0
  1  2  1  0  0  0  0
  1  3  1  0  0  0  0
  3  4  1  0  0  0  0
  3  5  2  0  0  0  0
  5  6  1  0  0  0  0
  5  7  1  0  0  0  0
  7  8  1  0  0  0  0
  7  9  2  0  0  0  0
  9 10  1  0  0  0  0
  9 11  1  0  0  0  0
 11  1  2  0  0  0  0
 11 12  1  0  0  0  0
 12 13  1  0  0  0  0
 13 14  2  0  0  0  0
 13 15  1  0  0  0  0
 15 16  1  0  0  0  0
 16 17  1  0  0  0  0
 17 18  1  0  0  0  0
 17 19  2  0  0  0  0
 19 20  1  0  0  0  0
 19 21  1  0  0  0  0
 21 22  1  0  0  0  0
 21 23  2  0  0  0  0
 23 24  1  0  0  0  0
 23 25  1  0  0  0  0
 25 16  2  0  0  0  0
 25 26  1  0  0  0  0
 13 27  1  0  0  0  0
 27 28  1  0  0  0  0
 28 29  1  0  0  0  0
 29 30  1  0  0  0  0
 29 31  2  0  0  0  0
 31 32  1  0  0  0  0
 31 33  1  0  0  0  0
 33 34  1  0  0  0  0
 33 35  2  0  0  0  0
 35 36  1  0  0  0  0
 35 37  1  0  0  0  0
 37 28  2  0  0  0  0
 37 38  1  0  0  0  0
M  END
> <ChemID>
100169

> <source_casrn>
115-86-6

> <CAS>
115-86-6

> <SMILES>
O=P(Oc1ccccc1)(Oc1ccccc1)Oc1ccccc1

> <NAME>
Phosphoric acid, triphenyl ester

> <preferred_name>
Triphenyl phosphate

> <iupac>
triphenyl phosphate

> <MPID>
101803

> <dsstox_substance_id>
DTXSID1021952

> <Canonical_QSARr>
O=P(Oc1ccccc1)(Oc1ccccc1)Oc1ccccc1

> <InChI_Code_QSARr>
InChI=1S/C18H15O4P/c19-23(20-16-10-4-1-5-11-16,21-17-12-6-2-7-13-17)22-18-14-8-3-9-15-18/h1-15H

> <InChI Key_QSARr>
XZZNDPSIHUTMOC-UHFFFAOYSA-N

> <LogKmHL>
-0.76

$$$$
100170
  -INDIGO-08031722222D

 26 25  0  0  0  0  0  0  0  0999 V2000
    0.8001   -1.3856    0.0000 O   0  0  0  0  0  0  0  0  0  0  0  0
    0.0001    0.0000    0.0000 P   0  0  0  0  0  0  0  0  0  0  0  0
    1.6001    0.0000    0.0000 O   0  0  0  0  0  0  0  0  0  0  0  0
    2.4000   -1.3856    0.0000 C   0  0  0  0  0  0  0  0  0  0  0  0
    1.1306   -2.3596    0.0000 H   0  0  0  0  0  0  0  0  0  0  0  0
    2.1912   -2.9720    0.0000 H   0  0  0  0  0  0  0  0  0  0  0  0
    4.0000   -1.3856    0.0000 C   0  0  0  0  0  0  0  0  0  0  0  0
    5.6000   -1.3856    0.0000 H   0  0  0  0  0  0  0  0  0  0  0  0
    4.8000   -2.7712    0.0000 H   0  0  0  0  0  0  0  0  0  0  0  0
    4.8000    0.0000    0.0000 Cl  0  0  0  0  0  0  0  0  0  0  0  0
    0.8001    1.3857    0.0000 O   0  0  0  0  0  0  0  0  0  0  0  0
    0.0001    2.7713    0.0000 C   0  0  0  0  0  0  0  0  0  0  0  0
   -1.4782    3.3836    0.0000 H   0  0  0  0  0  0  0  0  0  0  0  0
   -1.4782    2.1590    0.0000 H   0  0  0  0  0  0  0  0  0  0  0  0
    0.8001    4.1569    0.0000 C   0  0  0  0  0  0  0  0  0  0  0  0
    1.6001    5.5426    0.0000 H   0  0  0  0  0  0  0  0  0  0  0  0
    0.0001    5.5426    0.0000 H   0  0  0  0  0  0  0  0  0  0  0  0
    2.4000    4.1569    0.0000 Cl  0  0  0  0  0  0  0  0  0  0  0  0
   -1.6001    0.0000    0.0000 O   0  0  0  0  0  0  0  0  0  0  0  0
   -2.4000   -1.3856    0.0000 C   0  0  0  0  0  0  0  0  0  0  0  0
   -2.1912   -2.9720    0.0000 H   0  0  0  0  0  0  0  0  0  0  0  0
   -1.1306   -2.3596    0.0000 H   0  0  0  0  0  0  0  0  0  0  0  0
   -4.0000   -1.3856    0.0000 C   0  0  0  0  0  0  0  0  0  0  0  0
   -5.6000   -1.3856    0.0000 H   0  0  0  0  0  0  0  0  0  0  0  0
   -4.8000   -2.7712    0.0000 H   0  0  0  0  0  0  0  0  0  0  0  0
   -4.8000    0.0000    0.0000 Cl  0  0  0  0  0  0  0  0  0  0  0  0
  1  2  2  0  0  0  0
  2  3  1  0  0  0  0
  3  4  1  0  0  0  0
  4  5  1  0  0  0  0
  4  6  1  0  0  0  0
  4  7  1  0  0  0  0
  7  8  1  0  0  0  0
  7  9  1  0  0  0  0
  7 10  1  0  0  0  0
  2 11  1  0  0  0  0
 11 12  1  0  0  0  0
 12 13  1  0  0  0  0
 12 14  1  0  0  0  0
 12 15  1  0  0  0  0
 15 16  1  0  0  0  0
 15 17  1  0  0  0  0
 15 18  1  0  0  0  0
  2 19  1  0  0  0  0
 19 20  1  0  0  0  0
 20 21  1  0  0  0  0
 20 22  1  0  0  0  0
 20 23  1  0  0  0  0
 23 24  1  0  0  0  0
 23 25  1  0  0  0  0
 23 26  1  0  0  0  0
M  END
> <ChemID>
100170

> <source_casrn>
115-96-8

> <CAS>
115-96-8

> <SMILES>
O=P(OCCCl)(OCCCl)OCCCl

> <NAME>
Ethanol, 2-chloro-, phosphate (3:1)

> <preferred_name>
Tris(2-chloroethyl) phosphate

> <iupac>
tris(2-chloroethyl) phosphate

> <MPID>
101804

> <dsstox_substance_id>
DTXSID5021411

> <Canonical_QSARr>
O=P(OCCCl)(OCCCl)OCCCl

> <InChI_Code_QSARr>
InChI=1S/C6H12Cl3O4P/c7-1-4-11-14(10,12-5-2-8)13-6-3-9/h1-6H2

> <InChI Key_QSARr>
HQUQLFOMPYWACS-UHFFFAOYSA-N

> <LogKmHL>
-0.66

$$$$
100171
  -INDIGO-08031722222D

 14 14  0  0  0  0  0  0  0  0999 V2000
    1.6000   -0.0000    0.0000 N   0  0  0  0  0  0  0  0  0  0  0  0
    2.4000    1.3856    0.0000 O   0  0  0  0  0  0  0  0  0  0  0  0
    2.4000   -1.3856    0.0000 O   0  0  0  0  0  0  0  0  0  0  0  0
    0.0000   -0.0000    0.0000 C   0  0  0  0  0  0  0  0  0  0  0  0
   -0.8000    1.3856    0.0000 C   0  0  0  0  0  0  0  0  0  0  0  0
    0.0000    2.7713    0.0000 Cl  0  0  0  0  0  0  0  0  0  0  0  0
   -2.4000    1.3856    0.0000 C   0  0  0  0  0  0  0  0  0  0  0  0
   -3.2000    2.7713    0.0000 Cl  0  0  0  0  0  0  0  0  0  0  0  0
   -3.2000   -0.0000    0.0000 C   0  0  0  0  0  0  0  0  0  0  0  0
   -4.8000   -0.0000    0.0000 H   0  0  0  0  0  0  0  0  0  0  0  0
   -2.4000   -1.3856    0.0000 C   0  0  0  0  0  0  0  0  0  0  0  0
   -3.2000   -2.7713    0.0000 Cl  0  0  0  0  0  0  0  0  0  0  0  0
   -0.8000   -1.3856    0.0000 C   0  0  0  0  0  0  0  0  0  0  0  0
    0.0000   -2.7713    0.0000 Cl  0  0  0  0  0  0  0  0  0  0  0  0
  1  2  2  0  0  0  0
  1  3  1  0  0  0  0
  1  4  1  0  0  0  0
  4  5  1  0  0  0  0
  5  6  1  0  0  0  0
  5  7  2  0  0  0  0
  7  8  1  0  0  0  0
  7  9  1  0  0  0  0
  9 10  1  0  0  0  0
  9 11  2  0  0  0  0
 11 12  1  0  0  0  0
 11 13  1  0  0  0  0
 13  4  2  0  0  0  0
 13 14  1  0  0  0  0
M  CHG  2   1   1   3  -1
M  END
> <ChemID>
100171

> <source_casrn>
117-18-0

> <CAS>
117-18-0

> <SMILES>
[O-][N+](=O)c1c(Cl)c(Cl)cc(Cl)c1Cl

> <NAME>
1,2,4,5-Tetrachloro-3-nitrobenzene

> <preferred_name>
2,3,5,6-Tetrachloronitrobenzene

> <iupac>
1,2,4,5-tetrachloro-3-nitrobenzene

> <MPID>
101805

> <dsstox_substance_id>
DTXSID0026098

> <Canonical_QSARr>
[O-][N+](=O)c1c(Cl)c(Cl)cc(Cl)c1Cl

> <InChI_Code_QSARr>
InChI=1S/C6HCl4NO2/c7-2-1-3(8)5(10)6(4(2)9)11(12)13/h1H

> <InChI Key_QSARr>
XQTLDIFVVHJORV-UHFFFAOYSA-N

> <LogKmHL>
0.49

$$$$
100173
  -INDIGO-08031722222D

 66 66  0  0  0  0  0  0  0  0999 V2000
    4.8000    0.0000    0.0000 O   0  0  0  0  0  0  0  0  0  0  0  0
    3.9999   -1.3856    0.0000 C   0  0  0  0  0  0  0  0  0  0  0  0
    4.8000   -2.7713    0.0000 C   0  0  0  0  0  0  0  0  0  0  0  0
    6.4000   -2.7713    0.0000 C   0  0  0  0  0  0  0  0  0  0  0  0
    7.2001   -1.3856    0.0000 C   0  0  0  0  0  0  0  0  0  0  0  0
    6.4000    0.0000    0.0000 O   0  0  0  0  0  0  0  0  0  0  0  0
    8.8001   -1.3856    0.0000 O   0  0  0  0  0  0  0  0  0  0  0  0
    9.5999    0.0000    0.0000 C   0  0  0  0  0  0  0  0  0  0  0  0
    9.3911    1.5864    0.0000 H   0  0  0  0  0  0  0  0  0  0  0  0
    8.3307    0.9740    0.0000 H   0  0  0  0  0  0  0  0  0  0  0  0
   11.1998    0.0000    0.0000 C   0  0  0  0  0  0  0  0  0  0  0  0
   10.9220   -1.5756    0.0000 H   0  0  0  0  0  0  0  0  0  0  0  0
   12.7036   -0.5473    0.0000 C   0  0  0  0  0  0  0  0  0  0  0  0
   11.8438   -1.8967    0.0000 H   0  0  0  0  0  0  0  0  0  0  0  0
   13.0497   -2.1094    0.0000 H   0  0  0  0  0  0  0  0  0  0  0  0
   14.2792   -0.2695    0.0000 C   0  0  0  0  0  0  0  0  0  0  0  0
   15.3600    0.9102    0.0000 H   0  0  0  0  0  0  0  0  0  0  0  0
   14.2094    1.3291    0.0000 H   0  0  0  0  0  0  0  0  0  0  0  0
   15.3078   -1.4951    0.0000 C   0  0  0  0  0  0  0  0  0  0  0  0
   14.2267   -2.6747    0.0000 H   0  0  0  0  0  0  0  0  0  0  0  0
   15.3773   -3.0935    0.0000 H   0  0  0  0  0  0  0  0  0  0  0  0
   16.8834   -1.2173    0.0000 C   0  0  0  0  0  0  0  0  0  0  0  0
   18.4590   -0.9393    0.0000 H   0  0  0  0  0  0  0  0  0  0  0  0
   17.9120   -2.4429    0.0000 H   0  0  0  0  0  0  0  0  0  0  0  0
   17.4305    0.2863    0.0000 H   0  0  0  0  0  0  0  0  0  0  0  0
   11.4777    1.5757    0.0000 C   0  0  0  0  0  0  0  0  0  0  0  0
   13.0764    1.5058    0.0000 H   0  0  0  0  0  0  0  0  0  0  0  0
   12.6573    2.6566    0.0000 H   0  0  0  0  0  0  0  0  0  0  0  0
   10.2521    2.6042    0.0000 C   0  0  0  0  0  0  0  0  0  0  0  0
   10.5299    4.1798    0.0000 H   0  0  0  0  0  0  0  0  0  0  0  0
    9.0265    3.6325    0.0000 H   0  0  0  0  0  0  0  0  0  0  0  0
   11.7555    3.1513    0.0000 H   0  0  0  0  0  0  0  0  0  0  0  0
    7.2001   -4.1569    0.0000 C   0  0  0  0  0  0  0  0  0  0  0  0
    8.8001   -4.1569    0.0000 H   0  0  0  0  0  0  0  0  0  0  0  0
    6.4000   -5.5426    0.0000 C   0  0  0  0  0  0  0  0  0  0  0  0
    7.2001   -6.9282    0.0000 H   0  0  0  0  0  0  0  0  0  0  0  0
    4.8000   -5.5426    0.0000 C   0  0  0  0  0  0  0  0  0  0  0  0
    3.9999   -6.9282    0.0000 H   0  0  0  0  0  0  0  0  0  0  0  0
    3.9999   -4.1569    0.0000 C   0  0  0  0  0  0  0  0  0  0  0  0
    2.3999   -4.1569    0.0000 H   0  0  0  0  0  0  0  0  0  0  0  0
    2.3999   -1.3856    0.0000 O   0  0  0  0  0  0  0  0  0  0  0  0
    1.6001    0.0000    0.0000 C   0  0  0  0  0  0  0  0  0  0  0  0
    2.8693    0.9740    0.0000 H   0  0  0  0  0  0  0  0  0  0  0  0
    1.8089    1.5864    0.0000 H   0  0  0  0  0  0  0  0  0  0  0  0
    0.0002    0.0000    0.0000 C   0  0  0  0  0  0  0  0  0  0  0  0
    0.2780   -1.5756    0.0000 H   0  0  0  0  0  0  0  0  0  0  0  0
   -1.5036   -0.5473    0.0000 C   0  0  0  0  0  0  0  0  0  0  0  0
   -1.8497   -2.1094    0.0000 H   0  0  0  0  0  0  0  0  0  0  0  0
   -0.6438   -1.8967    0.0000 H   0  0  0  0  0  0  0  0  0  0  0  0
   -3.0792   -0.2695    0.0000 C   0  0  0  0  0  0  0  0  0  0  0  0
   -3.0094    1.3291    0.0000 H   0  0  0  0  0  0  0  0  0  0  0  0
   -4.1600    0.9102    0.0000 H   0  0  0  0  0  0  0  0  0  0  0  0
   -4.1078   -1.4951    0.0000 C   0  0  0  0  0  0  0  0  0  0  0  0
   -4.1773   -3.0935    0.0000 H   0  0  0  0  0  0  0  0  0  0  0  0
   -3.0267   -2.6747    0.0000 H   0  0  0  0  0  0  0  0  0  0  0  0
   -5.6834   -1.2173    0.0000 C   0  0  0  0  0  0  0  0  0  0  0  0
   -7.2590   -0.9393    0.0000 H   0  0  0  0  0  0  0  0  0  0  0  0
   -6.7120   -2.4429    0.0000 H   0  0  0  0  0  0  0  0  0  0  0  0
   -6.2305    0.2863    0.0000 H   0  0  0  0  0  0  0  0  0  0  0  0
   -0.2777    1.5757    0.0000 C   0  0  0  0  0  0  0  0  0  0  0  0
   -1.4573    2.6566    0.0000 H   0  0  0  0  0  0  0  0  0  0  0  0
   -1.8764    1.5058    0.0000 H   0  0  0  0  0  0  0  0  0  0  0  0
    0.9479    2.6042    0.0000 C   0  0  0  0  0  0  0  0  0  0  0  0
    0.6701    4.1798    0.0000 H   0  0  0  0  0  0  0  0  0  0  0  0
    2.1735    3.6325    0.0000 H   0  0  0  0  0  0  0  0  0  0  0  0
   -0.5555    3.1513    0.0000 H   0  0  0  0  0  0  0  0  0  0  0  0
  1  2  2  0  0  0  0
  2  3  1  0  0  0  0
  3  4  1  0  0  0  0
  4  5  1  0  0  0  0
  5  6  2  0  0  0  0
  5  7  1  0  0  0  0
  7  8  1  0  0  0  0
  8  9  1  0  0  0  0
  8 10  1  0  0  0  0
  8 11  1  0  0  0  0
 11 12  1  0  0  0  0
 11 13  1  0  0  0  0
 13 14  1  0  0  0  0
 13 15  1  0  0  0  0
 13 16  1  0  0  0  0
 16 17  1  0  0  0  0
 16 18  1  0  0  0  0
 16 19  1  0  0  0  0
 19 20  1  0  0  0  0
 19 21  1  0  0  0  0
 19 22  1  0  0  0  0
 22 23  1  0  0  0  0
 22 24  1  0  0  0  0
 22 25  1  0  0  0  0
 11 26  1  0  0  0  0
 26 27  1  0  0  0  0
 26 28  1  0  0  0  0
 26 29  1  0  0  0  0
 29 30  1  0  0  0  0
 29 31  1  0  0  0  0
 29 32  1  0  0  0  0
  4 33  2  0  0  0  0
 33 34  1  0  0  0  0
 33 35  1  0  0  0  0
 35 36  1  0  0  0  0
 35 37  2  0  0  0  0
 37 38  1  0  0  0  0
 37 39  1  0  0  0  0
 39  3  2  0  0  0  0
 39 40  1  0  0  0  0
  2 41  1  0  0  0  0
 41 42  1  0  0  0  0
 42 43  1  0  0  0  0
 42 44  1  0  0  0  0
 42 45  1  0  0  0  0
 45 46  1  0  0  0  0
 45 47  1  0  0  0  0
 47 48  1  0  0  0  0
 47 49  1  0  0  0  0
 47 50  1  0  0  0  0
 50 51  1  0  0  0  0
 50 52  1  0  0  0  0
 50 53  1  0  0  0  0
 53 54  1  0  0  0  0
 53 55  1  0  0  0  0
 53 56  1  0  0  0  0
 56 57  1  0  0  0  0
 56 58  1  0  0  0  0
 56 59  1  0  0  0  0
 45 60  1  0  0  0  0
 60 61  1  0  0  0  0
 60 62  1  0  0  0  0
 60 63  1  0  0  0  0
 63 64  1  0  0  0  0
 63 65  1  0  0  0  0
 63 66  1  0  0  0  0
M  END
> <ChemID>
100173

> <source_casrn>
117-81-7

> <CAS>
117-81-7

> <SMILES>
O=C(OCC(CCCC)CC)c(c(ccc1)C(=O)OCC(CCCC)CC)c1

> <NAME>
1,2-Benzenedicarboxylic acid, bis(2-ethylhexyl)

> <preferred_name>
Di(2-ethylhexyl) phthalate

> <iupac>
bis(2-ethylhexyl) benzene-1,2-dicarboxylate

> <MPID>
101807

> <dsstox_substance_id>
DTXSID5020607

> <Canonical_QSARr>
CCCCC(COC(=O)c1ccccc1C(=O)OCC(CCCC)CC)CC

> <InChI_Code_QSARr>
InChI=1S/C24H38O4/c1-5-9-13-19(7-3)17-27-23(25)21-15-11-12-16-22(21)24(26)28-18-20(8-4)14-10-6-2/h11-12,15-16,19-20H,5-10,13-14,17-18H2,1-4H3

> <InChI Key_QSARr>
BJQHLKABXJIVAM-UHFFFAOYSA-N

> <LogKmHL>
0.44

$$$$
100174
  -INDIGO-08031722222D

 26 27  0  0  0  0  0  0  0  0999 V2000
   -2.4001    1.3856    0.0000 N   0  0  0  0  0  0  0  0  0  0  0  0
   -1.6001    2.7713    0.0000 H   0  0  0  0  0  0  0  0  0  0  0  0
   -1.6001    0.0001    0.0000 C   0  0  0  0  0  0  0  0  0  0  0  0
    0.0001    0.0001    0.0000 C   0  0  0  0  0  0  0  0  0  0  0  0
    0.8001   -1.3856    0.0000 C   0  0  0  0  0  0  0  0  0  0  0  0
    2.4000   -1.3856    0.0000 C   0  0  0  0  0  0  0  0  0  0  0  0
    3.2000   -2.7712    0.0000 H   0  0  0  0  0  0  0  0  0  0  0  0
    3.2000    0.0001    0.0000 C   0  0  0  0  0  0  0  0  0  0  0  0
    4.8000    0.0001    0.0000 H   0  0  0  0  0  0  0  0  0  0  0  0
    2.4000    1.3856    0.0000 C   0  0  0  0  0  0  0  0  0  0  0  0
    3.2000    2.7712    0.0000 H   0  0  0  0  0  0  0  0  0  0  0  0
    0.8001    1.3856    0.0000 C   0  0  0  0  0  0  0  0  0  0  0  0
    0.0001    2.7713    0.0000 H   0  0  0  0  0  0  0  0  0  0  0  0
    0.0001   -2.7712    0.0000 C   0  0  0  0  0  0  0  0  0  0  0  0
    0.8001   -4.1569    0.0000 H   0  0  0  0  0  0  0  0  0  0  0  0
   -1.6001   -2.7712    0.0000 C   0  0  0  0  0  0  0  0  0  0  0  0
   -2.4001   -4.1569    0.0000 H   0  0  0  0  0  0  0  0  0  0  0  0
   -2.4001   -1.3856    0.0000 C   0  0  0  0  0  0  0  0  0  0  0  0
   -4.0000   -1.3856    0.0000 H   0  0  0  0  0  0  0  0  0  0  0  0
   -4.0000    1.3856    0.0000 C   0  0  0  0  0  0  0  0  0  0  0  0
   -5.2693    0.4116    0.0000 H   0  0  0  0  0  0  0  0  0  0  0  0
   -4.2089   -0.2006    0.0000 H   0  0  0  0  0  0  0  0  0  0  0  0
   -4.8000    2.7712    0.0000 C   0  0  0  0  0  0  0  0  0  0  0  0
   -5.6000    4.1569    0.0000 H   0  0  0  0  0  0  0  0  0  0  0  0
   -6.4000    2.7713    0.0000 H   0  0  0  0  0  0  0  0  0  0  0  0
   -4.0000    4.1569    0.0000 H   0  0  0  0  0  0  0  0  0  0  0  0
  1  2  1  0  0  0  0
  1  3  1  0  0  0  0
  3  4  1  0  0  0  0
  4  5  1  0  0  0  0
  5  6  2  0  0  0  0
  6  7  1  0  0  0  0
  6  8  1  0  0  0  0
  8  9  1  0  0  0  0
  8 10  2  0  0  0  0
 10 11  1  0  0  0  0
 10 12  1  0  0  0  0
 12  4  2  0  0  0  0
 12 13  1  0  0  0  0
  5 14  1  0  0  0  0
 14 15  1  0  0  0  0
 14 16  2  0  0  0  0
 16 17  1  0  0  0  0
 16 18  1  0  0  0  0
 18  3  2  0  0  0  0
 18 19  1  0  0  0  0
  1 20  1  0  0  0  0
 20 21  1  0  0  0  0
 20 22  1  0  0  0  0
 20 23  1  0  0  0  0
 23 24  1  0  0  0  0
 23 25  1  0  0  0  0
 23 26  1  0  0  0  0
M  END
> <ChemID>
100174

> <source_casrn>
118-44-5

> <CAS>
118-44-5

> <SMILES>
CCNc1cccc2ccccc21

> <NAME>
1-naphthalenamine, n-ethyl-

> <preferred_name>
1-Naphthalenamine, N-ethyl-

> <iupac>
N-ethylnaphthalen-1-amine

> <MPID>
101808

> <dsstox_substance_id>
DTXSID8059473

> <Canonical_QSARr>
CCNc1cccc2ccccc21

> <InChI_Code_QSARr>
InChI=1S/C12H13N/c1-2-13-12-9-5-7-10-6-3-4-8-11(10)12/h3-9,13H,2H2,1H3

> <InChI Key_QSARr>
KDFFXYVOTKKBDI-UHFFFAOYSA-N

> <LogKmHL>
0.43

$$$$
100175
  -INDIGO-08031722222D

 12 12  0  0  0  0  0  0  0  0999 V2000
    0.8000    1.3856    0.0000 Cl  0  0  0  0  0  0  0  0  0  0  0  0
   -0.0000   -0.0000    0.0000 C   0  0  0  0  0  0  0  0  0  0  0  0
    0.8000   -1.3857    0.0000 C   0  0  0  0  0  0  0  0  0  0  0  0
    2.4000   -1.3857    0.0000 Cl  0  0  0  0  0  0  0  0  0  0  0  0
   -0.0000   -2.7713    0.0000 C   0  0  0  0  0  0  0  0  0  0  0  0
    0.8000   -4.1569    0.0000 Cl  0  0  0  0  0  0  0  0  0  0  0  0
   -1.6000   -2.7713    0.0000 C   0  0  0  0  0  0  0  0  0  0  0  0
   -2.4000   -4.1569    0.0000 Cl  0  0  0  0  0  0  0  0  0  0  0  0
   -2.4000   -1.3856    0.0000 C   0  0  0  0  0  0  0  0  0  0  0  0
   -4.0000   -1.3856    0.0000 Cl  0  0  0  0  0  0  0  0  0  0  0  0
   -1.6000   -0.0000    0.0000 C   0  0  0  0  0  0  0  0  0  0  0  0
   -2.4000    1.3856    0.0000 Cl  0  0  0  0  0  0  0  0  0  0  0  0
  1  2  1  0  0  0  0
  2  3  1  0  0  0  0
  3  4  1  0  0  0  0
  3  5  2  0  0  0  0
  5  6  1  0  0  0  0
  5  7  1  0  0  0  0
  7  8  1  0  0  0  0
  7  9  2  0  0  0  0
  9 10  1  0  0  0  0
  9 11  1  0  0  0  0
 11  2  2  0  0  0  0
 11 12  1  0  0  0  0
M  END
> <ChemID>
100175

> <source_casrn>
118-74-1

> <CAS>
118-74-1

> <SMILES>
Clc1c(Cl)c(Cl)c(Cl)c(Cl)c1Cl

> <NAME>
Benzene, hexachloro-

> <preferred_name>
Hexachlorobenzene

> <iupac>
hexachlorobenzene

> <MPID>
101809

> <dsstox_substance_id>
DTXSID2020682

> <Canonical_QSARr>
Clc1c(Cl)c(Cl)c(Cl)c(Cl)c1Cl

> <InChI_Code_QSARr>
InChI=1S/C6Cl6/c7-1-2(8)4(10)6(12)5(11)3(1)9

> <InChI Key_QSARr>
CKAPSXZOOQJIBF-UHFFFAOYSA-N

> <LogKmHL>
2.44

$$$$
100177
  -INDIGO-08031722222D

 39 40  0  0  0  0  0  0  0  0999 V2000
    0.0000    0.0001    0.0000 P   0  0  0  0  0  0  0  0  0  0  0  0
    0.0000   -1.6000    0.0000 S   0  0  0  0  0  0  0  0  0  0  0  0
    1.3856   -0.8000    0.0000 O   0  0  0  0  0  0  0  0  0  0  0  0
    2.7714    0.0001    0.0000 C   0  0  0  0  0  0  0  0  0  0  0  0
    4.1570   -0.8000    0.0000 N   0  0  0  0  0  0  0  0  0  0  0  0
    5.5426   -0.0001    0.0000 N   0  0  0  0  0  0  0  0  0  0  0  0
    6.9281   -0.8000    0.0000 C   0  0  0  0  0  0  0  0  0  0  0  0
    6.9281   -2.4000    0.0000 C   0  0  0  0  0  0  0  0  0  0  0  0
    5.5426   -3.2001    0.0000 H   0  0  0  0  0  0  0  0  0  0  0  0
    8.3140   -3.2001    0.0000 C   0  0  0  0  0  0  0  0  0  0  0  0
    8.3140   -4.8000    0.0000 H   0  0  0  0  0  0  0  0  0  0  0  0
    9.6995   -2.4000    0.0000 C   0  0  0  0  0  0  0  0  0  0  0  0
   11.0851   -3.1999    0.0000 H   0  0  0  0  0  0  0  0  0  0  0  0
    9.6995   -0.8000    0.0000 C   0  0  0  0  0  0  0  0  0  0  0  0
   11.0851   -0.0001    0.0000 H   0  0  0  0  0  0  0  0  0  0  0  0
    8.3140   -0.0001    0.0000 C   0  0  0  0  0  0  0  0  0  0  0  0
    8.3140    1.6000    0.0000 H   0  0  0  0  0  0  0  0  0  0  0  0
    5.5426    1.6000    0.0000 C   0  0  0  0  0  0  0  0  0  0  0  0
    6.9281    2.4000    0.0000 O   0  0  0  0  0  0  0  0  0  0  0  0
    4.1570    2.4000    0.0000 C   0  0  0  0  0  0  0  0  0  0  0  0
    4.1570    4.0000    0.0000 H   0  0  0  0  0  0  0  0  0  0  0  0
    2.7714    1.6000    0.0000 C   0  0  0  0  0  0  0  0  0  0  0  0
    1.3856    2.4000    0.0000 H   0  0  0  0  0  0  0  0  0  0  0  0
   -1.3856   -0.8000    0.0000 O   0  0  0  0  0  0  0  0  0  0  0  0
   -2.7714    0.0001    0.0000 C   0  0  0  0  0  0  0  0  0  0  0  0
   -3.3836    1.4783    0.0000 H   0  0  0  0  0  0  0  0  0  0  0  0
   -2.1589    1.4783    0.0000 H   0  0  0  0  0  0  0  0  0  0  0  0
   -4.1570   -0.8000    0.0000 C   0  0  0  0  0  0  0  0  0  0  0  0
   -5.5426   -1.6000    0.0000 H   0  0  0  0  0  0  0  0  0  0  0  0
   -5.5426    0.0001    0.0000 H   0  0  0  0  0  0  0  0  0  0  0  0
   -4.1570   -2.4000    0.0000 H   0  0  0  0  0  0  0  0  0  0  0  0
   -1.3856    0.8000    0.0000 O   0  0  0  0  0  0  0  0  0  0  0  0
   -1.3856    2.4000    0.0000 C   0  0  0  0  0  0  0  0  0  0  0  0
   -0.4115    3.6694    0.0000 H   0  0  0  0  0  0  0  0  0  0  0  0
    0.2007    2.6089    0.0000 H   0  0  0  0  0  0  0  0  0  0  0  0
   -2.7714    3.2001    0.0000 C   0  0  0  0  0  0  0  0  0  0  0  0
   -4.1570    4.0000    0.0000 H   0  0  0  0  0  0  0  0  0  0  0  0
   -2.7714    4.8000    0.0000 H   0  0  0  0  0  0  0  0  0  0  0  0
   -4.1570    2.4000    0.0000 H   0  0  0  0  0  0  0  0  0  0  0  0
  1  2  2  0  0  0  0
  1  3  1  0  0  0  0
  3  4  1  0  0  0  0
  4  5  2  0  0  0  0
  5  6  1  0  0  0  0
  6  7  1  0  0  0  0
  7  8  1  0  0  0  0
  8  9  1  0  0  0  0
  8 10  2  0  0  0  0
 10 11  1  0  0  0  0
 10 12  1  0  0  0  0
 12 13  1  0  0  0  0
 12 14  2  0  0  0  0
 14 15  1  0  0  0  0
 14 16  1  0  0  0  0
 16  7  2  0  0  0  0
 16 17  1  0  0  0  0
  6 18  1  0  0  0  0
 18 19  2  0  0  0  0
 18 20  1  0  0  0  0
 20 21  1  0  0  0  0
 20 22  2  0  0  0  0
 22  4  1  0  0  0  0
 22 23  1  0  0  0  0
  1 24  1  0  0  0  0
 24 25  1  0  0  0  0
 25 26  1  0  0  0  0
 25 27  1  0  0  0  0
 25 28  1  0  0  0  0
 28 29  1  0  0  0  0
 28 30  1  0  0  0  0
 28 31  1  0  0  0  0
  1 32  1  0  0  0  0
 32 33  1  0  0  0  0
 33 34  1  0  0  0  0
 33 35  1  0  0  0  0
 33 36  1  0  0  0  0
 36 37  1  0  0  0  0
 36 38  1  0  0  0  0
 36 39  1  0  0  0  0
M  END
> <ChemID>
100177

> <source_casrn>
119-12-0

> <CAS>
119-12-0

> <SMILES>
S=P(OCC)(OCC)OC1=NN(c2ccccc2)C(=O)C=C1

> <NAME>
Phosphorothioic acid, O-(1,6-Dihydro-6-oxo-1-phe

> <preferred_name>
Pyridaphenthion

> <iupac>
O,O-diethyl O-(6-oxo-1-phenyl-1,6-dihydropyridazin-3-yl) phosphorothioate

> <MPID>
101811

> <dsstox_substance_id>
DTXSID2042355

> <Canonical_QSARr>
CCOP(=S)(OC1C=CC(=O)N(N=1)c1ccccc1)OCC

> <InChI_Code_QSARr>
InChI=1S/C14H17N2O4PS/c1-3-18-21(22,19-4-2)20-13-10-11-14(17)16(15-13)12-8-6-5-7-9-12/h5-11H,3-4H2,1-2H3

> <InChI Key_QSARr>
CXJSOEPQXUCJSA-UHFFFAOYSA-N

> <LogKmHL>
-0.7

$$$$
100178
  -INDIGO-08031722222D

 57 58  0  0  0  0  0  0  0  0999 V2000
   -3.3486    0.7528    0.0000 O   0  0  0  0  0  0  0  0  0  0  0  0
   -2.3201    1.9786    0.0000 H   0  0  0  0  0  0  0  0  0  0  0  0
   -2.8014   -0.7507    0.0000 C   0  0  0  0  0  0  0  0  0  0  0  0
   -3.8297   -1.9763    0.0000 C   0  0  0  0  0  0  0  0  0  0  0  0
   -5.4056   -1.6985    0.0000 C   0  0  0  0  0  0  0  0  0  0  0  0
   -4.7932   -0.2203    0.0000 H   0  0  0  0  0  0  0  0  0  0  0  0
   -6.0177   -0.2203    0.0000 H   0  0  0  0  0  0  0  0  0  0  0  0
   -6.7911   -2.4985    0.0000 C   0  0  0  0  0  0  0  0  0  0  0  0
   -6.7911   -4.0985    0.0000 C   0  0  0  0  0  0  0  0  0  0  0  0
   -5.4056   -4.8985    0.0000 H   0  0  0  0  0  0  0  0  0  0  0  0
   -8.1768   -4.8985    0.0000 C   0  0  0  0  0  0  0  0  0  0  0  0
   -8.1768   -6.4985    0.0000 C   0  0  0  0  0  0  0  0  0  0  0  0
   -8.1768   -8.0985    0.0000 H   0  0  0  0  0  0  0  0  0  0  0  0
   -6.7911   -7.2985    0.0000 H   0  0  0  0  0  0  0  0  0  0  0  0
   -9.5625   -7.2985    0.0000 H   0  0  0  0  0  0  0  0  0  0  0  0
   -9.5625   -4.0985    0.0000 C   0  0  0  0  0  0  0  0  0  0  0  0
  -10.9480   -4.8985    0.0000 H   0  0  0  0  0  0  0  0  0  0  0  0
   -9.5625   -2.4985    0.0000 C   0  0  0  0  0  0  0  0  0  0  0  0
  -10.9480   -1.6985    0.0000 C   0  0  0  0  0  0  0  0  0  0  0  0
  -12.3337   -0.8985    0.0000 C   0  0  0  0  0  0  0  0  0  0  0  0
  -13.7194   -0.0984    0.0000 H   0  0  0  0  0  0  0  0  0  0  0  0
  -13.8372   -1.4457    0.0000 H   0  0  0  0  0  0  0  0  0  0  0  0
  -12.6115    0.6772    0.0000 H   0  0  0  0  0  0  0  0  0  0  0  0
  -11.7480   -3.0841    0.0000 C   0  0  0  0  0  0  0  0  0  0  0  0
  -12.2954   -4.5876    0.0000 H   0  0  0  0  0  0  0  0  0  0  0  0
  -13.3239   -3.3620    0.0000 H   0  0  0  0  0  0  0  0  0  0  0  0
  -12.7765   -1.8585    0.0000 H   0  0  0  0  0  0  0  0  0  0  0  0
  -10.1480   -0.3128    0.0000 C   0  0  0  0  0  0  0  0  0  0  0  0
   -9.1197    0.9129    0.0000 H   0  0  0  0  0  0  0  0  0  0  0  0
  -10.6954    1.1907    0.0000 H   0  0  0  0  0  0  0  0  0  0  0  0
  -11.7239   -0.0349    0.0000 H   0  0  0  0  0  0  0  0  0  0  0  0
   -8.1768   -1.6985    0.0000 C   0  0  0  0  0  0  0  0  0  0  0  0
   -8.1768   -0.0984    0.0000 O   0  0  0  0  0  0  0  0  0  0  0  0
   -6.7911    0.7016    0.0000 H   0  0  0  0  0  0  0  0  0  0  0  0
   -3.2826   -3.4798    0.0000 C   0  0  0  0  0  0  0  0  0  0  0  0
   -4.3111   -4.7055    0.0000 H   0  0  0  0  0  0  0  0  0  0  0  0
   -1.7069   -3.7577    0.0000 C   0  0  0  0  0  0  0  0  0  0  0  0
   -1.1596   -5.2612    0.0000 C   0  0  0  0  0  0  0  0  0  0  0  0
   -0.6124   -6.7646    0.0000 H   0  0  0  0  0  0  0  0  0  0  0  0
    0.4161   -5.5391    0.0000 H   0  0  0  0  0  0  0  0  0  0  0  0
   -2.1881   -6.4867    0.0000 H   0  0  0  0  0  0  0  0  0  0  0  0
   -0.6784   -2.5319    0.0000 C   0  0  0  0  0  0  0  0  0  0  0  0
    0.8972   -2.8098    0.0000 H   0  0  0  0  0  0  0  0  0  0  0  0
   -1.2256   -1.0284    0.0000 C   0  0  0  0  0  0  0  0  0  0  0  0
   -0.0000   -0.0001    0.0000 C   0  0  0  0  0  0  0  0  0  0  0  0
    1.2257    1.0284    0.0000 C   0  0  0  0  0  0  0  0  0  0  0  0
    2.4513    2.0569    0.0000 H   0  0  0  0  0  0  0  0  0  0  0  0
    1.2257    2.6284    0.0000 H   0  0  0  0  0  0  0  0  0  0  0  0
    2.8014    0.7507    0.0000 H   0  0  0  0  0  0  0  0  0  0  0  0
    1.0285   -1.2257    0.0000 C   0  0  0  0  0  0  0  0  0  0  0  0
    2.0570   -2.4513    0.0000 H   0  0  0  0  0  0  0  0  0  0  0  0
    2.6041   -0.9478    0.0000 H   0  0  0  0  0  0  0  0  0  0  0  0
    1.8285    0.1600    0.0000 H   0  0  0  0  0  0  0  0  0  0  0  0
   -1.0285    1.2257    0.0000 C   0  0  0  0  0  0  0  0  0  0  0  0
   -0.4812    2.7292    0.0000 H   0  0  0  0  0  0  0  0  0  0  0  0
    0.4750    1.7729    0.0000 H   0  0  0  0  0  0  0  0  0  0  0  0
   -1.8285   -0.1600    0.0000 H   0  0  0  0  0  0  0  0  0  0  0  0
  1  2  1  0  0  0  0
  1  3  1  0  0  0  0
  3  4  1  0  0  0  0
  4  5  1  0  0  0  0
  5  6  1  0  0  0  0
  5  7  1  0  0  0  0
  5  8  1  0  0  0  0
  8  9  1  0  0  0  0
  9 10  1  0  0  0  0
  9 11  2  0  0  0  0
 11 12  1  0  0  0  0
 12 13  1  0  0  0  0
 12 14  1  0  0  0  0
 12 15  1  0  0  0  0
 11 16  1  0  0  0  0
 16 17  1  0  0  0  0
 16 18  2  0  0  0  0
 18 19  1  0  0  0  0
 19 20  1  0  0  0  0
 20 21  1  0  0  0  0
 20 22  1  0  0  0  0
 20 23  1  0  0  0  0
 19 24  1  0  0  0  0
 24 25  1  0  0  0  0
 24 26  1  0  0  0  0
 24 27  1  0  0  0  0
 19 28  1  0  0  0  0
 28 29  1  0  0  0  0
 28 30  1  0  0  0  0
 28 31  1  0  0  0  0
 18 32  1  0  0  0  0
 32  8  2  0  0  0  0
 32 33  1  0  0  0  0
 33 34  1  0  0  0  0
  4 35  2  0  0  0  0
 35 36  1  0  0  0  0
 35 37  1  0  0  0  0
 37 38  1  0  0  0  0
 38 39  1  0  0  0  0
 38 40  1  0  0  0  0
 38 41  1  0  0  0  0
 37 42  2  0  0  0  0
 42 43  1  0  0  0  0
 42 44  1  0  0  0  0
 44  3  2  0  0  0  0
 44 45  1  0  0  0  0
 45 46  1  0  0  0  0
 46 47  1  0  0  0  0
 46 48  1  0  0  0  0
 46 49  1  0  0  0  0
 45 50  1  0  0  0  0
 50 51  1  0  0  0  0
 50 52  1  0  0  0  0
 50 53  1  0  0  0  0
 45 54  1  0  0  0  0
 54 55  1  0  0  0  0
 54 56  1  0  0  0  0
 54 57  1  0  0  0  0
M  END
> <ChemID>
100178

> <source_casrn>
119-47-1

> <CAS>
119-47-1

> <SMILES>
Oc(c(cc(c1)C)Cc(c(O)c(cc2C)C(C)(C)C)c2)c1C(C)(C)C

> <NAME>
Phenol, 2,2 -methylenebis[6-(1,1-dimethylethyl)-

> <preferred_name>
2,2'-Methylenebis(4-methyl-6-tert-butylphenol)

> <iupac>
2,2'-methanediylbis(6-tert-butyl-4-methylphenol)

> <MPID>
101812

> <dsstox_substance_id>
DTXSID4020870

> <Canonical_QSARr>
CC(C)(C)c1cc(C)cc(Cc2cc(C)cc(c2O)C(C)(C)C)c1O

> <InChI_Code_QSARr>
InChI=1S/C23H32O2/c1-14-9-16(20(24)18(11-14)22(3,4)5)13-17-10-15(2)12-19(21(17)25)23(6,7)8/h9-12,24-25H,13H2,1-8H3

> <InChI Key_QSARr>
KGRVJHAUYBGFFP-UHFFFAOYSA-N

> <LogKmHL>
0.03

$$$$
100179
  -INDIGO-08031722222D

 26 27  0  0  0  0  0  0  0  0999 V2000
    1.6000   -0.0000    0.0000 C   0  0  0  0  0  0  0  0  0  0  0  0
    2.6285    1.2257    0.0000 C   0  0  0  0  0  0  0  0  0  0  0  0
    2.0812    2.7291    0.0000 H   0  0  0  0  0  0  0  0  0  0  0  0
    4.2042    0.9478    0.0000 C   0  0  0  0  0  0  0  0  0  0  0  0
    5.2326    2.1735    0.0000 H   0  0  0  0  0  0  0  0  0  0  0  0
    4.7513   -0.5557    0.0000 C   0  0  0  0  0  0  0  0  0  0  0  0
    6.3271   -0.8335    0.0000 Cl  0  0  0  0  0  0  0  0  0  0  0  0
    3.7230   -1.7813    0.0000 C   0  0  0  0  0  0  0  0  0  0  0  0
    4.2701   -3.2849    0.0000 H   0  0  0  0  0  0  0  0  0  0  0  0
    2.1473   -1.5035    0.0000 C   0  0  0  0  0  0  0  0  0  0  0  0
    1.1188   -2.7292    0.0000 H   0  0  0  0  0  0  0  0  0  0  0  0
   -0.0000   -0.0000    0.0000 C   0  0  0  0  0  0  0  0  0  0  0  0
   -0.0000   -1.6000    0.0000 H   0  0  0  0  0  0  0  0  0  0  0  0
   -0.2778    1.5757    0.0000 O   0  0  0  0  0  0  0  0  0  0  0  0
    0.9479    2.6041    0.0000 H   0  0  0  0  0  0  0  0  0  0  0  0
   -1.6001   -0.0000    0.0000 C   0  0  0  0  0  0  0  0  0  0  0  0
   -2.4000    1.3857    0.0000 C   0  0  0  0  0  0  0  0  0  0  0  0
   -1.6001    2.7713    0.0000 H   0  0  0  0  0  0  0  0  0  0  0  0
   -4.0000    1.3857    0.0000 C   0  0  0  0  0  0  0  0  0  0  0  0
   -4.8000    2.7713    0.0000 H   0  0  0  0  0  0  0  0  0  0  0  0
   -4.8000   -0.0000    0.0000 C   0  0  0  0  0  0  0  0  0  0  0  0
   -6.4000   -0.0000    0.0000 H   0  0  0  0  0  0  0  0  0  0  0  0
   -4.0000   -1.3856    0.0000 C   0  0  0  0  0  0  0  0  0  0  0  0
   -4.8000   -2.7712    0.0000 H   0  0  0  0  0  0  0  0  0  0  0  0
   -2.4000   -1.3856    0.0000 C   0  0  0  0  0  0  0  0  0  0  0  0
   -1.6001   -2.7712    0.0000 H   0  0  0  0  0  0  0  0  0  0  0  0
  1  2  1  0  0  0  0
  2  3  1  0  0  0  0
  2  4  2  0  0  0  0
  4  5  1  0  0  0  0
  4  6  1  0  0  0  0
  6  7  1  0  0  0  0
  6  8  2  0  0  0  0
  8  9  1  0  0  0  0
  8 10  1  0  0  0  0
 10  1  2  0  0  0  0
 10 11  1  0  0  0  0
  1 12  1  0  0  0  0
 12 13  1  0  0  0  0
 12 14  1  0  0  0  0
 14 15  1  0  0  0  0
 12 16  1  0  0  0  0
 16 17  1  0  0  0  0
 17 18  1  0  0  0  0
 17 19  2  0  0  0  0
 19 20  1  0  0  0  0
 19 21  1  0  0  0  0
 21 22  1  0  0  0  0
 21 23  2  0  0  0  0
 23 24  1  0  0  0  0
 23 25  1  0  0  0  0
 25 16  2  0  0  0  0
 25 26  1  0  0  0  0
M  END
> <ChemID>
100179

> <source_casrn>
119-56-2

> <CAS>
NOCAS_870472

> <SMILES>
OC(c(cccc1)c1)c(ccc(c2)Cl)c2

> <NAME>
Benzenemethanol, 4-chloro-.alpha.-phenyl-

> <preferred_name>


> <iupac>


> <MPID>
101813

> <dsstox_substance_id>
DTXSID50870472

> <Canonical_QSARr>
OC(c1ccccc1)c1ccc(Cl)cc1

> <InChI_Code_QSARr>
InChI=1S/C13H11ClO/c14-12-8-6-11(7-9-12)13(15)10-4-2-1-3-5-10/h1-9,13,15H

> <InChI Key_QSARr>
AJYOOHCNOXWTKJ-UHFFFAOYSA-N

> <LogKmHL>
-0.89

$$$$
100181
  -INDIGO-08031722222D

 22 23  0  0  0  0  0  0  0  0999 V2000
   -2.7713    1.6000    0.0000 C   0  0  0  0  0  0  0  0  0  0  0  0
   -1.3856    2.4000    0.0000 C   0  0  0  0  0  0  0  0  0  0  0  0
   -2.4141    3.6257    0.0000 H   0  0  0  0  0  0  0  0  0  0  0  0
   -0.3572    3.6257    0.0000 H   0  0  0  0  0  0  0  0  0  0  0  0
    0.0000    1.6000    0.0000 C   0  0  0  0  0  0  0  0  0  0  0  0
    0.5472    3.1035    0.0000 H   0  0  0  0  0  0  0  0  0  0  0  0
    1.5757    1.3221    0.0000 H   0  0  0  0  0  0  0  0  0  0  0  0
    0.0000    0.0000    0.0000 C   0  0  0  0  0  0  0  0  0  0  0  0
    1.5757    0.2779    0.0000 H   0  0  0  0  0  0  0  0  0  0  0  0
    0.5472   -1.5035    0.0000 H   0  0  0  0  0  0  0  0  0  0  0  0
   -1.3856   -0.8000    0.0000 C   0  0  0  0  0  0  0  0  0  0  0  0
   -0.3572   -2.0257    0.0000 H   0  0  0  0  0  0  0  0  0  0  0  0
   -2.4141   -2.0257    0.0000 H   0  0  0  0  0  0  0  0  0  0  0  0
   -2.7713    0.0000    0.0000 C   0  0  0  0  0  0  0  0  0  0  0  0
   -4.1569   -0.8000    0.0000 C   0  0  0  0  0  0  0  0  0  0  0  0
   -4.1569   -2.4000    0.0000 H   0  0  0  0  0  0  0  0  0  0  0  0
   -5.5426    0.0000    0.0000 C   0  0  0  0  0  0  0  0  0  0  0  0
   -6.9282   -0.8000    0.0000 H   0  0  0  0  0  0  0  0  0  0  0  0
   -5.5426    1.6000    0.0000 C   0  0  0  0  0  0  0  0  0  0  0  0
   -6.9282    2.4000    0.0000 H   0  0  0  0  0  0  0  0  0  0  0  0
   -4.1569    2.4000    0.0000 C   0  0  0  0  0  0  0  0  0  0  0  0
   -4.1569    4.0000    0.0000 H   0  0  0  0  0  0  0  0  0  0  0  0
  1  2  1  0  0  0  0
  2  3  1  0  0  0  0
  2  4  1  0  0  0  0
  2  5  1  0  0  0  0
  5  6  1  0  0  0  0
  5  7  1  0  0  0  0
  5  8  1  0  0  0  0
  8  9  1  0  0  0  0
  8 10  1  0  0  0  0
  8 11  1  0  0  0  0
 11 12  1  0  0  0  0
 11 13  1  0  0  0  0
 11 14  1  0  0  0  0
 14  1  1  0  0  0  0
 14 15  2  0  0  0  0
 15 16  1  0  0  0  0
 15 17  1  0  0  0  0
 17 18  1  0  0  0  0
 17 19  2  0  0  0  0
 19 20  1  0  0  0  0
 19 21  1  0  0  0  0
 21  1  2  0  0  0  0
 21 22  1  0  0  0  0
M  END
> <ChemID>
100181

> <source_casrn>
119-64-2

> <CAS>
119-64-2

> <SMILES>
C1CCCc2ccccc21

> <NAME>
Naphthalene, 1,2,3,4-tetrahydro-

> <preferred_name>
Tetralin

> <iupac>
1,2,3,4-tetrahydronaphthalene

> <MPID>
101815

> <dsstox_substance_id>
DTXSID1026118

> <Canonical_QSARr>
C1CCCc2ccccc21

> <InChI_Code_QSARr>
InChI=1S/C10H12/c1-2-6-10-8-4-3-7-9(10)5-1/h1-2,5-6H,3-4,7-8H2

> <InChI Key_QSARr>
CXWXQJXEFPUFDZ-UHFFFAOYSA-N

> <LogKmHL>
0.75

$$$$
100182
  -INDIGO-08031722222D

 24 26  0  0  0  0  0  0  0  0999 V2000
   -1.3856    0.8000    0.0000 C   0  0  0  0  0  0  0  0  0  0  0  0
   -1.3856    2.4000    0.0000 H   0  0  0  0  0  0  0  0  0  0  0  0
   -2.7712   -0.0000    0.0000 C   0  0  0  0  0  0  0  0  0  0  0  0
   -2.7712   -1.6000    0.0000 C   0  0  0  0  0  0  0  0  0  0  0  0
   -4.1569   -2.4000    0.0000 C   0  0  0  0  0  0  0  0  0  0  0  0
   -4.1569   -4.0000    0.0000 H   0  0  0  0  0  0  0  0  0  0  0  0
   -5.5425   -1.6000    0.0000 C   0  0  0  0  0  0  0  0  0  0  0  0
   -6.9282   -2.4000    0.0000 H   0  0  0  0  0  0  0  0  0  0  0  0
   -5.5425   -0.0000    0.0000 C   0  0  0  0  0  0  0  0  0  0  0  0
   -6.9282    0.8000    0.0000 H   0  0  0  0  0  0  0  0  0  0  0  0
   -4.1569    0.8000    0.0000 C   0  0  0  0  0  0  0  0  0  0  0  0
   -4.1569    2.4000    0.0000 H   0  0  0  0  0  0  0  0  0  0  0  0
   -1.3856   -2.4000    0.0000 C   0  0  0  0  0  0  0  0  0  0  0  0
   -1.3856   -4.0000    0.0000 H   0  0  0  0  0  0  0  0  0  0  0  0
   -0.0001   -1.6000    0.0000 C   0  0  0  0  0  0  0  0  0  0  0  0
   -0.0001   -0.0000    0.0000 C   0  0  0  0  0  0  0  0  0  0  0  0
    1.3856    0.8000    0.0000 C   0  0  0  0  0  0  0  0  0  0  0  0
    1.3856    2.4000    0.0000 H   0  0  0  0  0  0  0  0  0  0  0  0
    2.7713   -0.0000    0.0000 C   0  0  0  0  0  0  0  0  0  0  0  0
    4.1569    0.8000    0.0000 H   0  0  0  0  0  0  0  0  0  0  0  0
    2.7713   -1.6000    0.0000 C   0  0  0  0  0  0  0  0  0  0  0  0
    4.1569   -2.4000    0.0000 H   0  0  0  0  0  0  0  0  0  0  0  0
    1.3856   -2.4000    0.0000 C   0  0  0  0  0  0  0  0  0  0  0  0
    1.3856   -4.0000    0.0000 H   0  0  0  0  0  0  0  0  0  0  0  0
  1  2  1  0  0  0  0
  1  3  1  0  0  0  0
  3  4  1  0  0  0  0
  4  5  2  0  0  0  0
  5  6  1  0  0  0  0
  5  7  1  0  0  0  0
  7  8  1  0  0  0  0
  7  9  2  0  0  0  0
  9 10  1  0  0  0  0
  9 11  1  0  0  0  0
 11  3  2  0  0  0  0
 11 12  1  0  0  0  0
  4 13  1  0  0  0  0
 13 14  1  0  0  0  0
 13 15  2  0  0  0  0
 15 16  1  0  0  0  0
 16  1  2  0  0  0  0
 16 17  1  0  0  0  0
 17 18  1  0  0  0  0
 17 19  2  0  0  0  0
 19 20  1  0  0  0  0
 19 21  1  0  0  0  0
 21 22  1  0  0  0  0
 21 23  2  0  0  0  0
 23 15  1  0  0  0  0
 23 24  1  0  0  0  0
M  END
> <ChemID>
100182

> <source_casrn>
120-12-7

> <CAS>
120-12-7

> <SMILES>
c1c2ccccc2cc2ccccc21

> <NAME>
Anthracene

> <preferred_name>
Anthracene

> <iupac>
anthracene

> <MPID>
101816

> <dsstox_substance_id>
DTXSID0023878

> <Canonical_QSARr>
c1c2ccccc2cc2ccccc21

> <InChI_Code_QSARr>
InChI=1S/C14H10/c1-2-6-12-10-14-8-4-3-7-13(14)9-11(12)5-1/h1-10H

> <InChI Key_QSARr>
MWPLVEDNUUSJAV-UHFFFAOYSA-N

> <LogKmHL>
0.65

$$$$
100183
  -INDIGO-08031722222D

 21 21  0  0  0  0  0  0  0  0999 V2000
   -3.2000    2.7713    0.0000 N   0  0  0  0  0  0  0  0  0  0  0  0
   -2.4000    4.1569    0.0000 H   0  0  0  0  0  0  0  0  0  0  0  0
   -4.8001    2.7713    0.0000 H   0  0  0  0  0  0  0  0  0  0  0  0
   -2.4000    1.3856    0.0000 C   0  0  0  0  0  0  0  0  0  0  0  0
   -0.8000    1.3856    0.0000 C   0  0  0  0  0  0  0  0  0  0  0  0
   -0.0001    2.7713    0.0000 H   0  0  0  0  0  0  0  0  0  0  0  0
   -0.0001    0.0000    0.0000 C   0  0  0  0  0  0  0  0  0  0  0  0
    1.6000    0.0000    0.0000 C   0  0  0  0  0  0  0  0  0  0  0  0
    3.2000    0.0000    0.0000 H   0  0  0  0  0  0  0  0  0  0  0  0
    2.4000   -1.3856    0.0000 H   0  0  0  0  0  0  0  0  0  0  0  0
    2.4000    1.3856    0.0000 H   0  0  0  0  0  0  0  0  0  0  0  0
   -0.8000   -1.3856    0.0000 C   0  0  0  0  0  0  0  0  0  0  0  0
   -0.0001   -2.7713    0.0000 H   0  0  0  0  0  0  0  0  0  0  0  0
   -2.4000   -1.3856    0.0000 C   0  0  0  0  0  0  0  0  0  0  0  0
   -3.2000   -2.7713    0.0000 H   0  0  0  0  0  0  0  0  0  0  0  0
   -3.2000    0.0000    0.0000 C   0  0  0  0  0  0  0  0  0  0  0  0
   -4.8001    0.0000    0.0000 O   0  0  0  0  0  0  0  0  0  0  0  0
   -5.6000   -1.3856    0.0000 C   0  0  0  0  0  0  0  0  0  0  0  0
   -7.2000   -1.3856    0.0000 H   0  0  0  0  0  0  0  0  0  0  0  0
   -6.4000   -2.7713    0.0000 H   0  0  0  0  0  0  0  0  0  0  0  0
   -6.4000    0.0000    0.0000 H   0  0  0  0  0  0  0  0  0  0  0  0
  1  2  1  0  0  0  0
  1  3  1  0  0  0  0
  1  4  1  0  0  0  0
  4  5  1  0  0  0  0
  5  6  1  0  0  0  0
  5  7  2  0  0  0  0
  7  8  1  0  0  0  0
  8  9  1  0  0  0  0
  8 10  1  0  0  0  0
  8 11  1  0  0  0  0
  7 12  1  0  0  0  0
 12 13  1  0  0  0  0
 12 14  2  0  0  0  0
 14 15  1  0  0  0  0
 14 16  1  0  0  0  0
 16  4  2  0  0  0  0
 16 17  1  0  0  0  0
 17 18  1  0  0  0  0
 18 19  1  0  0  0  0
 18 20  1  0  0  0  0
 18 21  1  0  0  0  0
M  END
> <ChemID>
100183

> <source_casrn>
120-71-8

> <CAS>
120-71-8

> <SMILES>
Cc1ccc(OC)c(N)c1

> <NAME>
2-methoxy-5-methylbenzenamine

> <preferred_name>
2-Methoxy-5-methylaniline

> <iupac>
2-methoxy-5-methylaniline

> <MPID>
101817

> <dsstox_substance_id>
DTXSID1020350

> <Canonical_QSARr>
Cc1ccc(OC)c(N)c1

> <InChI_Code_QSARr>
InChI=1S/C8H11NO/c1-6-3-4-8(10-2)7(9)5-6/h3-5H,9H2,1-2H3

> <InChI Key_QSARr>
WXWCDTXEKCVRRO-UHFFFAOYSA-N

> <LogKmHL>
-1.0

$$$$
100185
  -INDIGO-08031722222D

 12 12  0  0  0  0  0  0  0  0999 V2000
    0.8000    1.3856    0.0000 Cl  0  0  0  0  0  0  0  0  0  0  0  0
   -0.0000   -0.0000    0.0000 C   0  0  0  0  0  0  0  0  0  0  0  0
    0.8000   -1.3857    0.0000 C   0  0  0  0  0  0  0  0  0  0  0  0
    2.4000   -1.3857    0.0000 Cl  0  0  0  0  0  0  0  0  0  0  0  0
   -0.0000   -2.7713    0.0000 C   0  0  0  0  0  0  0  0  0  0  0  0
    0.8000   -4.1569    0.0000 H   0  0  0  0  0  0  0  0  0  0  0  0
   -1.6000   -2.7713    0.0000 C   0  0  0  0  0  0  0  0  0  0  0  0
   -2.4000   -4.1569    0.0000 Cl  0  0  0  0  0  0  0  0  0  0  0  0
   -2.4000   -1.3856    0.0000 C   0  0  0  0  0  0  0  0  0  0  0  0
   -4.0000   -1.3856    0.0000 H   0  0  0  0  0  0  0  0  0  0  0  0
   -1.6000   -0.0000    0.0000 C   0  0  0  0  0  0  0  0  0  0  0  0
   -2.4000    1.3856    0.0000 H   0  0  0  0  0  0  0  0  0  0  0  0
  1  2  1  0  0  0  0
  2  3  1  0  0  0  0
  3  4  1  0  0  0  0
  3  5  2  0  0  0  0
  5  6  1  0  0  0  0
  5  7  1  0  0  0  0
  7  8  1  0  0  0  0
  7  9  2  0  0  0  0
  9 10  1  0  0  0  0
  9 11  1  0  0  0  0
 11  2  2  0  0  0  0
 11 12  1  0  0  0  0
M  END
> <ChemID>
100185

> <source_casrn>
120-82-1

> <CAS>
120-82-1

> <SMILES>
Clc1cc(Cl)c(Cl)cc1

> <NAME>
Benzene, 1,2,4-trichloro-

> <preferred_name>
1,2,4-Trichlorobenzene

> <iupac>
C6H3Cl3

> <MPID>
101819

> <dsstox_substance_id>
DTXSID0021965

> <Canonical_QSARr>
Clc1cc(Cl)c(Cl)cc1

> <InChI_Code_QSARr>
InChI=1S/C6H3Cl3/c7-4-1-2-5(8)6(9)3-4/h1-3H

> <InChI Key_QSARr>
PBKONEOXTCPAFI-UHFFFAOYSA-N

> <LogKmHL>
1.2

$$$$
100186
  -INDIGO-08031722222D

 13 13  0  0  0  0  0  0  0  0999 V2000
    0.0000    2.7713    0.0000 Cl  0  0  0  0  0  0  0  0  0  0  0  0
   -0.8000    1.3856    0.0000 C   0  0  0  0  0  0  0  0  0  0  0  0
    0.0000   -0.0000    0.0000 C   0  0  0  0  0  0  0  0  0  0  0  0
    1.6000   -0.0000    0.0000 O   0  0  0  0  0  0  0  0  0  0  0  0
    2.4000    1.3856    0.0000 H   0  0  0  0  0  0  0  0  0  0  0  0
   -0.8000   -1.3856    0.0000 C   0  0  0  0  0  0  0  0  0  0  0  0
    0.0000   -2.7713    0.0000 H   0  0  0  0  0  0  0  0  0  0  0  0
   -2.4000   -1.3856    0.0000 C   0  0  0  0  0  0  0  0  0  0  0  0
   -3.2000   -2.7713    0.0000 H   0  0  0  0  0  0  0  0  0  0  0  0
   -3.2000   -0.0000    0.0000 C   0  0  0  0  0  0  0  0  0  0  0  0
   -4.8000   -0.0000    0.0000 Cl  0  0  0  0  0  0  0  0  0  0  0  0
   -2.4000    1.3856    0.0000 C   0  0  0  0  0  0  0  0  0  0  0  0
   -3.2000    2.7713    0.0000 H   0  0  0  0  0  0  0  0  0  0  0  0
  1  2  1  0  0  0  0
  2  3  1  0  0  0  0
  3  4  1  0  0  0  0
  4  5  1  0  0  0  0
  3  6  2  0  0  0  0
  6  7  1  0  0  0  0
  6  8  1  0  0  0  0
  8  9  1  0  0  0  0
  8 10  2  0  0  0  0
 10 11  1  0  0  0  0
 10 12  1  0  0  0  0
 12  2  2  0  0  0  0
 12 13  1  0  0  0  0
M  END
> <ChemID>
100186

> <source_casrn>
120-83-2

> <CAS>
120-83-2

> <SMILES>
Oc1ccc(Cl)cc1Cl

> <NAME>
Phenol, 2,4-dichloro-

> <preferred_name>
2,4-Dichlorophenol

> <iupac>
2,4-dichlorophenol

> <MPID>
101820

> <dsstox_substance_id>
DTXSID1020439

> <Canonical_QSARr>
Oc1ccc(Cl)cc1Cl

> <InChI_Code_QSARr>
InChI=1S/C6H4Cl2O/c7-4-1-2-6(9)5(8)3-4/h1-3,9H

> <InChI Key_QSARr>
HFZWRUODUSTPEG-UHFFFAOYSA-N

> <LogKmHL>
-0.94

$$$$
100188
  -INDIGO-08031722222D

 20 20  0  0  0  0  0  0  0  0999 V2000
    0.8001    1.3856    0.0000 C   0  0  0  0  0  0  0  0  0  0  0  0
    1.6000    2.7713    0.0000 H   0  0  0  0  0  0  0  0  0  0  0  0
    2.4000    1.3856    0.0000 H   0  0  0  0  0  0  0  0  0  0  0  0
    0.0000    2.7713    0.0000 H   0  0  0  0  0  0  0  0  0  0  0  0
    0.0000   -0.0000    0.0000 N   0  0  0  0  0  0  0  0  0  0  0  0
   -1.6000    0.0000    0.0000 C   0  0  0  0  0  0  0  0  0  0  0  0
   -2.4000    1.3856    0.0000 C   0  0  0  0  0  0  0  0  0  0  0  0
   -1.6000    2.7713    0.0000 H   0  0  0  0  0  0  0  0  0  0  0  0
   -4.0000    1.3856    0.0000 C   0  0  0  0  0  0  0  0  0  0  0  0
   -4.8001    2.7713    0.0000 H   0  0  0  0  0  0  0  0  0  0  0  0
   -4.8001    0.0000    0.0000 C   0  0  0  0  0  0  0  0  0  0  0  0
   -6.4000    0.0000    0.0000 H   0  0  0  0  0  0  0  0  0  0  0  0
   -4.0000   -1.3856    0.0000 C   0  0  0  0  0  0  0  0  0  0  0  0
   -4.8001   -2.7713    0.0000 H   0  0  0  0  0  0  0  0  0  0  0  0
   -2.4000   -1.3856    0.0000 C   0  0  0  0  0  0  0  0  0  0  0  0
   -1.6000   -2.7713    0.0000 H   0  0  0  0  0  0  0  0  0  0  0  0
    0.8001   -1.3856    0.0000 C   0  0  0  0  0  0  0  0  0  0  0  0
    1.6000   -2.7713    0.0000 H   0  0  0  0  0  0  0  0  0  0  0  0
    2.4000   -1.3856    0.0000 H   0  0  0  0  0  0  0  0  0  0  0  0
    0.0000   -2.7713    0.0000 H   0  0  0  0  0  0  0  0  0  0  0  0
  1  2  1  0  0  0  0
  1  3  1  0  0  0  0
  1  4  1  0  0  0  0
  1  5  1  0  0  0  0
  5  6  1  0  0  0  0
  6  7  1  0  0  0  0
  7  8  1  0  0  0  0
  7  9  2  0  0  0  0
  9 10  1  0  0  0  0
  9 11  1  0  0  0  0
 11 12  1  0  0  0  0
 11 13  2  0  0  0  0
 13 14  1  0  0  0  0
 13 15  1  0  0  0  0
 15  6  2  0  0  0  0
 15 16  1  0  0  0  0
  5 17  1  0  0  0  0
 17 18  1  0  0  0  0
 17 19  1  0  0  0  0
 17 20  1  0  0  0  0
M  END
> <ChemID>
100188

> <source_casrn>
121-69-7

> <CAS>
121-69-7

> <SMILES>
CN(C)c1ccccc1

> <NAME>
Benzenamine, N,N-dimethyl-

> <preferred_name>
N,N-Dimethylaniline

> <iupac>
N,N-dimethylaniline

> <MPID>
101822

> <dsstox_substance_id>
DTXSID2020507

> <Canonical_QSARr>
CN(C)c1ccccc1

> <InChI_Code_QSARr>
InChI=1S/C8H11N/c1-9(2)8-6-4-3-5-7-8/h3-7H,1-2H3

> <InChI Key_QSARr>
JLTDJTHDQAWBAV-UHFFFAOYSA-N

> <LogKmHL>
-0.96

$$$$
100189
  -INDIGO-08031722222D

 38 37  0  0  0  0  0  0  0  0999 V2000
   -2.4000    1.3856    0.0000 O   0  0  0  0  0  0  0  0  0  0  0  0
   -1.6000    0.0001    0.0000 C   0  0  0  0  0  0  0  0  0  0  0  0
    0.0001    0.0001    0.0000 C   0  0  0  0  0  0  0  0  0  0  0  0
    0.0001   -1.6000    0.0000 H   0  0  0  0  0  0  0  0  0  0  0  0
    0.0001    1.5999    0.0000 S   0  0  0  0  0  0  0  0  0  0  0  0
    1.2257    2.6285    0.0000 P   0  0  0  0  0  0  0  0  0  0  0  0
   -0.2779    3.1756    0.0000 S   0  0  0  0  0  0  0  0  0  0  0  0
    0.9478    4.2042    0.0000 O   0  0  0  0  0  0  0  0  0  0  0  0
    2.1734    5.2326    0.0000 C   0  0  0  0  0  0  0  0  0  0  0  0
    1.8957    6.8083    0.0000 H   0  0  0  0  0  0  0  0  0  0  0  0
    3.3991    6.2610    0.0000 H   0  0  0  0  0  0  0  0  0  0  0  0
    0.6700    5.7799    0.0000 H   0  0  0  0  0  0  0  0  0  0  0  0
    2.4514    3.6569    0.0000 O   0  0  0  0  0  0  0  0  0  0  0  0
    3.9548    3.1097    0.0000 C   0  0  0  0  0  0  0  0  0  0  0  0
    5.1804    4.1381    0.0000 H   0  0  0  0  0  0  0  0  0  0  0  0
    5.4584    2.5624    0.0000 H   0  0  0  0  0  0  0  0  0  0  0  0
    4.2327    1.5340    0.0000 H   0  0  0  0  0  0  0  0  0  0  0  0
    1.5999    0.0001    0.0000 C   0  0  0  0  0  0  0  0  0  0  0  0
    1.8089    1.5863    0.0000 H   0  0  0  0  0  0  0  0  0  0  0  0
    2.8693    0.9740    0.0000 H   0  0  0  0  0  0  0  0  0  0  0  0
    2.4000   -1.3856    0.0000 C   0  0  0  0  0  0  0  0  0  0  0  0
    1.5999   -2.7713    0.0000 O   0  0  0  0  0  0  0  0  0  0  0  0
    4.0000   -1.3856    0.0000 O   0  0  0  0  0  0  0  0  0  0  0  0
    4.8001   -2.7713    0.0000 C   0  0  0  0  0  0  0  0  0  0  0  0
    4.5911   -4.3576    0.0000 H   0  0  0  0  0  0  0  0  0  0  0  0
    3.5307   -3.7452    0.0000 H   0  0  0  0  0  0  0  0  0  0  0  0
    6.3999   -2.7713    0.0000 C   0  0  0  0  0  0  0  0  0  0  0  0
    8.0000   -2.7713    0.0000 H   0  0  0  0  0  0  0  0  0  0  0  0
    7.2000   -4.1569    0.0000 H   0  0  0  0  0  0  0  0  0  0  0  0
    7.2000   -1.3856    0.0000 H   0  0  0  0  0  0  0  0  0  0  0  0
   -2.4000   -1.3856    0.0000 O   0  0  0  0  0  0  0  0  0  0  0  0
   -3.9999   -1.3856    0.0000 C   0  0  0  0  0  0  0  0  0  0  0  0
   -5.2693   -0.4116    0.0000 H   0  0  0  0  0  0  0  0  0  0  0  0
   -4.2089    0.2006    0.0000 H   0  0  0  0  0  0  0  0  0  0  0  0
   -4.7999   -2.7713    0.0000 C   0  0  0  0  0  0  0  0  0  0  0  0
   -5.6000   -4.1569    0.0000 H   0  0  0  0  0  0  0  0  0  0  0  0
   -6.4000   -2.7713    0.0000 H   0  0  0  0  0  0  0  0  0  0  0  0
   -3.9999   -4.1569    0.0000 H   0  0  0  0  0  0  0  0  0  0  0  0
  1  2  2  0  0  0  0
  2  3  1  0  0  0  0
  3  4  1  0  0  0  0
  3  5  1  0  0  0  0
  5  6  1  0  0  0  0
  6  7  2  0  0  0  0
  6  8  1  0  0  0  0
  8  9  1  0  0  0  0
  9 10  1  0  0  0  0
  9 11  1  0  0  0  0
  9 12  1  0  0  0  0
  6 13  1  0  0  0  0
 13 14  1  0  0  0  0
 14 15  1  0  0  0  0
 14 16  1  0  0  0  0
 14 17  1  0  0  0  0
  3 18  1  0  0  0  0
 18 19  1  0  0  0  0
 18 20  1  0  0  0  0
 18 21  1  0  0  0  0
 21 22  2  0  0  0  0
 21 23  1  0  0  0  0
 23 24  1  0  0  0  0
 24 25  1  0  0  0  0
 24 26  1  0  0  0  0
 24 27  1  0  0  0  0
 27 28  1  0  0  0  0
 27 29  1  0  0  0  0
 27 30  1  0  0  0  0
  2 31  1  0  0  0  0
 31 32  1  0  0  0  0
 32 33  1  0  0  0  0
 32 34  1  0  0  0  0
 32 35  1  0  0  0  0
 35 36  1  0  0  0  0
 35 37  1  0  0  0  0
 35 38  1  0  0  0  0
M  END
> <ChemID>
100189

> <source_casrn>
121-75-5

> <CAS>
121-75-5

> <SMILES>
CCOC(=O)C(CC(=O)OCC)SP(=S)(OC)OC

> <NAME>
Malathion

> <preferred_name>
Malathion

> <iupac>
diethyl 2-[(dimethoxyphosphorothioyl)sulfanyl]butanedioate

> <MPID>
101823

> <dsstox_substance_id>
DTXSID4020791

> <Canonical_QSARr>
CCOC(=O)C(CC(=O)OCC)SP(=S)(OC)OC

> <InChI_Code_QSARr>
InChI=1S/C10H19O6PS2/c1-5-15-9(11)7-8(10(12)16-6-2)19-17(18,13-3)14-4/h8H,5-7H2,1-4H3

> <InChI Key_QSARr>
JXSJBGJIGXNWCI-UHFFFAOYSA-N

> <LogKmHL>
0.29

$$$$
100190
  -INDIGO-08031722222D

 29 29  0  0  0  0  0  0  0  0999 V2000
   -5.5426    1.6000    0.0000 S   0  0  0  0  0  0  0  0  0  0  0  0
   -5.5426   -0.0000    0.0000 P   0  0  0  0  0  0  0  0  0  0  0  0
   -4.1569    0.8000    0.0000 O   0  0  0  0  0  0  0  0  0  0  0  0
   -2.7713   -0.0000    0.0000 C   0  0  0  0  0  0  0  0  0  0  0  0
   -1.3856    0.8000    0.0000 C   0  0  0  0  0  0  0  0  0  0  0  0
   -1.3856    2.4000    0.0000 H   0  0  0  0  0  0  0  0  0  0  0  0
    0.0001   -0.0000    0.0000 C   0  0  0  0  0  0  0  0  0  0  0  0
    1.3856    0.8000    0.0000 C   0  0  0  0  0  0  0  0  0  0  0  0
    2.7713    1.6000    0.0000 H   0  0  0  0  0  0  0  0  0  0  0  0
    1.3856    2.4000    0.0000 H   0  0  0  0  0  0  0  0  0  0  0  0
    2.7713   -0.0000    0.0000 H   0  0  0  0  0  0  0  0  0  0  0  0
    0.0001   -1.6000    0.0000 C   0  0  0  0  0  0  0  0  0  0  0  0
    1.3856   -2.4000    0.0000 N   0  0  0  0  0  0  0  0  0  0  0  0
    1.3856   -4.0000    0.0000 O   0  0  0  0  0  0  0  0  0  0  0  0
    2.7713   -1.6000    0.0000 O   0  0  0  0  0  0  0  0  0  0  0  0
   -1.3856   -2.4000    0.0000 C   0  0  0  0  0  0  0  0  0  0  0  0
   -1.3856   -4.0000    0.0000 H   0  0  0  0  0  0  0  0  0  0  0  0
   -2.7713   -1.6000    0.0000 C   0  0  0  0  0  0  0  0  0  0  0  0
   -4.1569   -2.4000    0.0000 H   0  0  0  0  0  0  0  0  0  0  0  0
   -6.9283    0.8000    0.0000 O   0  0  0  0  0  0  0  0  0  0  0  0
   -8.3138   -0.0000    0.0000 C   0  0  0  0  0  0  0  0  0  0  0  0
   -9.6995    0.8000    0.0000 H   0  0  0  0  0  0  0  0  0  0  0  0
   -9.6995   -0.8000    0.0000 H   0  0  0  0  0  0  0  0  0  0  0  0
   -8.3138    1.6000    0.0000 H   0  0  0  0  0  0  0  0  0  0  0  0
   -6.9283   -0.8000    0.0000 O   0  0  0  0  0  0  0  0  0  0  0  0
   -6.9283   -2.4000    0.0000 C   0  0  0  0  0  0  0  0  0  0  0  0
   -6.9283   -4.0000    0.0000 H   0  0  0  0  0  0  0  0  0  0  0  0
   -8.3138   -3.2000    0.0000 H   0  0  0  0  0  0  0  0  0  0  0  0
   -5.5426   -3.2000    0.0000 H   0  0  0  0  0  0  0  0  0  0  0  0
  1  2  2  0  0  0  0
  2  3  1  0  0  0  0
  3  4  1  0  0  0  0
  4  5  1  0  0  0  0
  5  6  1  0  0  0  0
  5  7  2  0  0  0  0
  7  8  1  0  0  0  0
  8  9  1  0  0  0  0
  8 10  1  0  0  0  0
  8 11  1  0  0  0  0
  7 12  1  0  0  0  0
 12 13  1  0  0  0  0
 13 14  2  0  0  0  0
 13 15  1  0  0  0  0
 12 16  2  0  0  0  0
 16 17  1  0  0  0  0
 16 18  1  0  0  0  0
 18  4  2  0  0  0  0
 18 19  1  0  0  0  0
  2 20  1  0  0  0  0
 20 21  1  0  0  0  0
 21 22  1  0  0  0  0
 21 23  1  0  0  0  0
 21 24  1  0  0  0  0
  2 25  1  0  0  0  0
 25 26  1  0  0  0  0
 26 27  1  0  0  0  0
 26 28  1  0  0  0  0
 26 29  1  0  0  0  0
M  CHG  2  13   1  15  -1
M  END
> <ChemID>
100190

> <source_casrn>
122-14-5

> <CAS>
122-14-5

> <SMILES>
Cc1cc(ccc1[N+]([O-])=O)OP(=S)(OC)OC

> <NAME>
Fenitrothion

> <preferred_name>
Fenitrothion

> <iupac>
O,O-dimethyl O-(3-methyl-4-nitrophenyl) phosphorothioate

> <MPID>
101824

> <dsstox_substance_id>
DTXSID4032613

> <Canonical_QSARr>
Cc1cc(ccc1[N+]([O-])=O)OP(=S)(OC)OC

> <InChI_Code_QSARr>
InChI=1S/C9H12NO5PS/c1-7-6-8(4-5-9(7)10(11)12)15-16(17,13-2)14-3/h4-6H,1-3H3

> <InChI Key_QSARr>
ZNOLGFHPUIJIMJ-UHFFFAOYSA-N

> <LogKmHL>
0.03

$$$$
100192
  -INDIGO-08031722222D

 24 25  0  0  0  0  0  0  0  0999 V2000
   -0.5473   -1.5035    0.0000 C   0  0  0  0  0  0  0  0  0  0  0  0
    0.4812   -2.7292    0.0000 H   0  0  0  0  0  0  0  0  0  0  0  0
   -2.1229   -1.7813    0.0000 C   0  0  0  0  0  0  0  0  0  0  0  0
   -2.6702   -3.2849    0.0000 H   0  0  0  0  0  0  0  0  0  0  0  0
   -3.1513   -0.5556    0.0000 C   0  0  0  0  0  0  0  0  0  0  0  0
   -4.7271   -0.8335    0.0000 H   0  0  0  0  0  0  0  0  0  0  0  0
   -2.6042    0.9479    0.0000 C   0  0  0  0  0  0  0  0  0  0  0  0
   -3.6326    2.1735    0.0000 H   0  0  0  0  0  0  0  0  0  0  0  0
   -1.0284    1.2257    0.0000 C   0  0  0  0  0  0  0  0  0  0  0  0
   -0.4813    2.7292    0.0000 H   0  0  0  0  0  0  0  0  0  0  0  0
    0.0000    0.0000    0.0000 C   0  0  0  0  0  0  0  0  0  0  0  0
    1.5756    0.2779    0.0000 N   0  0  0  0  0  0  0  0  0  0  0  0
    1.8536    1.8535    0.0000 H   0  0  0  0  0  0  0  0  0  0  0  0
    2.9614   -0.5221    0.0000 C   0  0  0  0  0  0  0  0  0  0  0  0
    2.9614   -2.1222    0.0000 C   0  0  0  0  0  0  0  0  0  0  0  0
    1.5756   -2.9222    0.0000 H   0  0  0  0  0  0  0  0  0  0  0  0
    4.3470   -2.9222    0.0000 C   0  0  0  0  0  0  0  0  0  0  0  0
    4.3470   -4.5222    0.0000 H   0  0  0  0  0  0  0  0  0  0  0  0
    5.7326   -2.1222    0.0000 C   0  0  0  0  0  0  0  0  0  0  0  0
    7.1183   -2.9222    0.0000 H   0  0  0  0  0  0  0  0  0  0  0  0
    5.7326   -0.5221    0.0000 C   0  0  0  0  0  0  0  0  0  0  0  0
    7.1183    0.2779    0.0000 H   0  0  0  0  0  0  0  0  0  0  0  0
    4.3470    0.2779    0.0000 C   0  0  0  0  0  0  0  0  0  0  0  0
    4.3470    1.8779    0.0000 H   0  0  0  0  0  0  0  0  0  0  0  0
  1  2  1  0  0  0  0
  1  3  1  0  0  0  0
  3  4  1  0  0  0  0
  3  5  2  0  0  0  0
  5  6  1  0  0  0  0
  5  7  1  0  0  0  0
  7  8  1  0  0  0  0
  7  9  2  0  0  0  0
  9 10  1  0  0  0  0
  9 11  1  0  0  0  0
 11  1  2  0  0  0  0
 11 12  1  0  0  0  0
 12 13  1  0  0  0  0
 12 14  1  0  0  0  0
 14 15  1  0  0  0  0
 15 16  1  0  0  0  0
 15 17  2  0  0  0  0
 17 18  1  0  0  0  0
 17 19  1  0  0  0  0
 19 20  1  0  0  0  0
 19 21  2  0  0  0  0
 21 22  1  0  0  0  0
 21 23  1  0  0  0  0
 23 14  2  0  0  0  0
 23 24  1  0  0  0  0
M  END
> <ChemID>
100192

> <source_casrn>
122-39-4

> <CAS>
122-39-4

> <SMILES>
c1ccccc1Nc1ccccc1

> <NAME>
Benzenamine, N-phenyl-

> <preferred_name>
Diphenylamine

> <iupac>
N-phenylaniline

> <MPID>
101826

> <dsstox_substance_id>
DTXSID4021975

> <Canonical_QSARr>
c1ccccc1Nc1ccccc1

> <InChI_Code_QSARr>
InChI=1S/C12H11N/c1-3-7-11(8-4-1)13-12-9-5-2-6-10-12/h1-10,13H

> <InChI Key_QSARr>
DMBHHRLKUKUOEG-UHFFFAOYSA-N

> <LogKmHL>
0.35

$$$$
100193
  -INDIGO-08031722222D

 36 35  0  0  0  0  0  0  0  0999 V2000
    4.4014   -1.3063    0.0000 C   0  0  0  0  0  0  0  0  0  0  0  0
    4.9486   -2.8099    0.0000 H   0  0  0  0  0  0  0  0  0  0  0  0
    5.9771   -1.5842    0.0000 H   0  0  0  0  0  0  0  0  0  0  0  0
    3.6013    0.0793    0.0000 H   0  0  0  0  0  0  0  0  0  0  0  0
    5.4298   -0.0806    0.0000 C   0  0  0  0  0  0  0  0  0  0  0  0
    4.2042    0.9478    0.0000 C   0  0  0  0  0  0  0  0  0  0  0  0
    5.0042    2.3334    0.0000 H   0  0  0  0  0  0  0  0  0  0  0  0
    2.6285    1.2257    0.0000 C   0  0  0  0  0  0  0  0  0  0  0  0
    1.6000    0.0000    0.0000 C   0  0  0  0  0  0  0  0  0  0  0  0
    2.6809   -1.1796    0.0000 H   0  0  0  0  0  0  0  0  0  0  0  0
    1.5302   -1.5985    0.0000 H   0  0  0  0  0  0  0  0  0  0  0  0
    0.0000    0.0000    0.0000 C   0  0  0  0  0  0  0  0  0  0  0  0
   -1.6000    0.0000    0.0000 C   0  0  0  0  0  0  0  0  0  0  0  0
   -3.2000    0.0000    0.0000 H   0  0  0  0  0  0  0  0  0  0  0  0
   -2.3999   -1.3857    0.0000 H   0  0  0  0  0  0  0  0  0  0  0  0
   -2.6285    1.2257    0.0000 H   0  0  0  0  0  0  0  0  0  0  0  0
    0.0000    1.6000    0.0000 C   0  0  0  0  0  0  0  0  0  0  0  0
    0.2778    3.1757    0.0000 H   0  0  0  0  0  0  0  0  0  0  0  0
   -1.2256    2.6284    0.0000 H   0  0  0  0  0  0  0  0  0  0  0  0
   -1.5034    1.0527    0.0000 H   0  0  0  0  0  0  0  0  0  0  0  0
    0.0000   -1.6000    0.0000 C   0  0  0  0  0  0  0  0  0  0  0  0
    0.0000   -3.2000    0.0000 H   0  0  0  0  0  0  0  0  0  0  0  0
    1.2256   -2.6285    0.0000 H   0  0  0  0  0  0  0  0  0  0  0  0
   -1.3857   -2.4000    0.0000 H   0  0  0  0  0  0  0  0  0  0  0  0
    2.0812    2.7291    0.0000 C   0  0  0  0  0  0  0  0  0  0  0  0
    3.1097    3.9548    0.0000 H   0  0  0  0  0  0  0  0  0  0  0  0
    1.5341    4.2327    0.0000 H   0  0  0  0  0  0  0  0  0  0  0  0
    3.6568    2.4514    0.0000 H   0  0  0  0  0  0  0  0  0  0  0  0
    6.8154   -0.8807    0.0000 C   0  0  0  0  0  0  0  0  0  0  0  0
    8.2011   -1.6806    0.0000 H   0  0  0  0  0  0  0  0  0  0  0  0
    8.2011   -0.0806    0.0000 H   0  0  0  0  0  0  0  0  0  0  0  0
    6.8154   -2.4806    0.0000 H   0  0  0  0  0  0  0  0  0  0  0  0
    6.4583    1.1451    0.0000 C   0  0  0  0  0  0  0  0  0  0  0  0
    7.4868    2.3707    0.0000 H   0  0  0  0  0  0  0  0  0  0  0  0
    8.0339    0.8672    0.0000 H   0  0  0  0  0  0  0  0  0  0  0  0
    5.9110    2.6485    0.0000 H   0  0  0  0  0  0  0  0  0  0  0  0
  1  2  1  0  0  0  0
  1  3  1  0  0  0  0
  1  4  1  0  0  0  0
  1  5  1  0  0  0  0
  5  6  1  0  0  0  0
  6  7  1  0  0  0  0
  6  8  2  0  0  0  0
  8  9  1  0  0  0  0
  9 10  1  0  0  0  0
  9 11  1  0  0  0  0
  9 12  1  0  0  0  0
 12 13  1  0  0  0  0
 13 14  1  0  0  0  0
 13 15  1  0  0  0  0
 13 16  1  0  0  0  0
 12 17  1  0  0  0  0
 17 18  1  0  0  0  0
 17 19  1  0  0  0  0
 17 20  1  0  0  0  0
 12 21  1  0  0  0  0
 21 22  1  0  0  0  0
 21 23  1  0  0  0  0
 21 24  1  0  0  0  0
  8 25  1  0  0  0  0
 25 26  1  0  0  0  0
 25 27  1  0  0  0  0
 25 28  1  0  0  0  0
  5 29  1  0  0  0  0
 29 30  1  0  0  0  0
 29 31  1  0  0  0  0
 29 32  1  0  0  0  0
  5 33  1  0  0  0  0
 33 34  1  0  0  0  0
 33 35  1  0  0  0  0
 33 36  1  0  0  0  0
M  END
> <ChemID>
100193

> <source_casrn>
123-48-8

> <CAS>
123-48-8

> <SMILES>
C(C)(C)(C)C=C(C)CC(C)(C)C

> <NAME>
2,2,4,4,6,6 pentamethyl-3-heptene

> <preferred_name>
2,2,4,6,6-Pentamethylhept-3-ene

> <iupac>
2,2,4,6,6-pentamethylhept-3-ene

> <MPID>
101827

> <dsstox_substance_id>
DTXSID3051628

> <Canonical_QSARr>
CC(C)(C)C=C(C)CC(C)(C)C

> <InChI_Code_QSARr>
InChI=1S/C12H24/c1-10(8-11(2,3)4)9-12(5,6)7/h8H,9H2,1-7H3/b10-8-

> <InChI Key_QSARr>
NBUMCEJRJRRLCA-NTMALXAHSA-N

> <LogKmHL>
0.7

$$$$
100194
  -INDIGO-08031722222D

 27 26  0  0  0  0  0  0  0  0999 V2000
   -1.3855    0.8000    0.0000 C   0  0  0  0  0  0  0  0  0  0  0  0
   -0.7734    2.2782    0.0000 H   0  0  0  0  0  0  0  0  0  0  0  0
   -1.9979    2.2782    0.0000 H   0  0  0  0  0  0  0  0  0  0  0  0
    0.0000    0.0000    0.0000 C   0  0  0  0  0  0  0  0  0  0  0  0
   -0.6123   -1.4782    0.0000 H   0  0  0  0  0  0  0  0  0  0  0  0
    0.6123   -1.4782    0.0000 H   0  0  0  0  0  0  0  0  0  0  0  0
    1.3857    0.8000    0.0000 C   0  0  0  0  0  0  0  0  0  0  0  0
    1.9979    2.2782    0.0000 H   0  0  0  0  0  0  0  0  0  0  0  0
    0.7734    2.2782    0.0000 H   0  0  0  0  0  0  0  0  0  0  0  0
    2.7713    0.0000    0.0000 C   0  0  0  0  0  0  0  0  0  0  0  0
    2.1590   -1.4782    0.0000 H   0  0  0  0  0  0  0  0  0  0  0  0
    3.3836   -1.4782    0.0000 H   0  0  0  0  0  0  0  0  0  0  0  0
    4.1570    0.8000    0.0000 C   0  0  0  0  0  0  0  0  0  0  0  0
    5.5426    1.6000    0.0000 H   0  0  0  0  0  0  0  0  0  0  0  0
    5.5426    0.0000    0.0000 H   0  0  0  0  0  0  0  0  0  0  0  0
    4.1570    2.4000    0.0000 H   0  0  0  0  0  0  0  0  0  0  0  0
   -2.7713    0.0000    0.0000 C   0  0  0  0  0  0  0  0  0  0  0  0
   -3.3836   -1.4782    0.0000 H   0  0  0  0  0  0  0  0  0  0  0  0
   -2.1590   -1.4782    0.0000 H   0  0  0  0  0  0  0  0  0  0  0  0
   -4.1568    0.8000    0.0000 C   0  0  0  0  0  0  0  0  0  0  0  0
   -3.5447    2.2782    0.0000 H   0  0  0  0  0  0  0  0  0  0  0  0
   -4.7691    2.2782    0.0000 H   0  0  0  0  0  0  0  0  0  0  0  0
   -5.5426    0.0000    0.0000 C   0  0  0  0  0  0  0  0  0  0  0  0
   -5.5426   -1.6000    0.0000 H   0  0  0  0  0  0  0  0  0  0  0  0
   -6.9281    0.8000    0.0000 C   0  0  0  0  0  0  0  0  0  0  0  0
   -8.3138    0.0000    0.0000 H   0  0  0  0  0  0  0  0  0  0  0  0
   -6.9281    2.4000    0.0000 H   0  0  0  0  0  0  0  0  0  0  0  0
  1  2  1  0  0  0  0
  1  3  1  0  0  0  0
  1  4  1  0  0  0  0
  4  5  1  0  0  0  0
  4  6  1  0  0  0  0
  4  7  1  0  0  0  0
  7  8  1  0  0  0  0
  7  9  1  0  0  0  0
  7 10  1  0  0  0  0
 10 11  1  0  0  0  0
 10 12  1  0  0  0  0
 10 13  1  0  0  0  0
 13 14  1  0  0  0  0
 13 15  1  0  0  0  0
 13 16  1  0  0  0  0
  1 17  1  0  0  0  0
 17 18  1  0  0  0  0
 17 19  1  0  0  0  0
 17 20  1  0  0  0  0
 20 21  1  0  0  0  0
 20 22  1  0  0  0  0
 20 23  1  0  0  0  0
 23 24  1  0  0  0  0
 23 25  2  0  0  0  0
 25 26  1  0  0  0  0
 25 27  1  0  0  0  0
M  END
> <ChemID>
100194

> <source_casrn>
124-11-8

> <CAS>
124-11-8

> <SMILES>
C(=C)CCCCCCC

> <NAME>
Isononene

> <preferred_name>
1-Nonene

> <iupac>
non-1-ene

> <MPID>
101828

> <dsstox_substance_id>
DTXSID2059562

> <Canonical_QSARr>
CCCCCCCC=C

> <InChI_Code_QSARr>
InChI=1S/C9H18/c1-3-5-7-9-8-6-4-2/h3H,1,4-9H2,2H3

> <InChI Key_QSARr>
JRZJOMJEPLMPRA-UHFFFAOYSA-N

> <LogKmHL>
0.52

$$$$
100196
  -INDIGO-08031722222D

  6  5  0  0  0  0  0  0  0  0999 V2000
   -0.8000   -1.3856    0.0000 Cl  0  0  0  0  0  0  0  0  0  0  0  0
    0.0000    0.0000    0.0000 C   0  0  0  0  0  0  0  0  0  0  0  0
    1.6000    0.0000    0.0000 C   0  0  0  0  0  0  0  0  0  0  0  0
    2.4000    1.3856    0.0000 Cl  0  0  0  0  0  0  0  0  0  0  0  0
    2.4000   -1.3856    0.0000 Cl  0  0  0  0  0  0  0  0  0  0  0  0
   -0.8000    1.3856    0.0000 Cl  0  0  0  0  0  0  0  0  0  0  0  0
  1  2  1  0  0  0  0
  2  3  2  0  0  0  0
  3  4  1  0  0  0  0
  3  5  1  0  0  0  0
  2  6  1  0  0  0  0
M  END
> <ChemID>
100196

> <source_casrn>
127-18-4

> <CAS>
127-18-4

> <SMILES>
ClC(Cl)=C(Cl)Cl

> <NAME>
Ethene, tetrachloro-

> <preferred_name>
Tetrachloroethylene

> <iupac>
tetrachloroethene

> <MPID>
101830

> <dsstox_substance_id>
DTXSID2021319

> <Canonical_QSARr>
ClC(Cl)=C(Cl)Cl

> <InChI_Code_QSARr>
InChI=1S/C2Cl4/c3-1(4)2(5)6

> <InChI Key_QSARr>
CYTYCFOTNPOANT-UHFFFAOYSA-N

> <LogKmHL>
-0.88

$$$$
100198
  -INDIGO-08031722222D

 40 40  0  0  0  0  0  0  0  0999 V2000
    2.7713    1.6000    0.0000 O   0  0  0  0  0  0  0  0  0  0  0  0
    4.1568    2.4000    0.0000 H   0  0  0  0  0  0  0  0  0  0  0  0
    2.7713    0.0000    0.0000 C   0  0  0  0  0  0  0  0  0  0  0  0
    4.1568   -0.8000    0.0000 C   0  0  0  0  0  0  0  0  0  0  0  0
    5.5425    0.0000    0.0000 C   0  0  0  0  0  0  0  0  0  0  0  0
    7.0461    0.5473    0.0000 C   0  0  0  0  0  0  0  0  0  0  0  0
    8.5496    1.0944    0.0000 H   0  0  0  0  0  0  0  0  0  0  0  0
    7.5933    2.0507    0.0000 H   0  0  0  0  0  0  0  0  0  0  0  0
    8.4318   -0.2527    0.0000 H   0  0  0  0  0  0  0  0  0  0  0  0
    6.0897   -1.5035    0.0000 C   0  0  0  0  0  0  0  0  0  0  0  0
    6.6371   -3.0069    0.0000 H   0  0  0  0  0  0  0  0  0  0  0  0
    7.6655   -1.7813    0.0000 H   0  0  0  0  0  0  0  0  0  0  0  0
    7.3154   -0.4750    0.0000 H   0  0  0  0  0  0  0  0  0  0  0  0
    4.9953    1.5035    0.0000 C   0  0  0  0  0  0  0  0  0  0  0  0
    5.7953    2.8891    0.0000 H   0  0  0  0  0  0  0  0  0  0  0  0
    6.5954    1.5035    0.0000 H   0  0  0  0  0  0  0  0  0  0  0  0
    3.9669    0.2778    0.0000 H   0  0  0  0  0  0  0  0  0  0  0  0
    4.1568   -2.4000    0.0000 C   0  0  0  0  0  0  0  0  0  0  0  0
    5.5425   -3.2000    0.0000 H   0  0  0  0  0  0  0  0  0  0  0  0
    2.7713   -3.2000    0.0000 C   0  0  0  0  0  0  0  0  0  0  0  0
    2.7713   -4.8000    0.0000 C   0  0  0  0  0  0  0  0  0  0  0  0
    2.7713   -6.4000    0.0000 H   0  0  0  0  0  0  0  0  0  0  0  0
    1.3856   -5.6000    0.0000 H   0  0  0  0  0  0  0  0  0  0  0  0
    4.1568   -5.6000    0.0000 H   0  0  0  0  0  0  0  0  0  0  0  0
    1.3856   -2.4000    0.0000 C   0  0  0  0  0  0  0  0  0  0  0  0
    0.0001   -3.2000    0.0000 H   0  0  0  0  0  0  0  0  0  0  0  0
    1.3856   -0.8000    0.0000 C   0  0  0  0  0  0  0  0  0  0  0  0
    0.0001    0.0000    0.0000 C   0  0  0  0  0  0  0  0  0  0  0  0
   -1.3856    0.8000    0.0000 C   0  0  0  0  0  0  0  0  0  0  0  0
   -2.7713    1.6000    0.0000 H   0  0  0  0  0  0  0  0  0  0  0  0
   -2.8891    0.2527    0.0000 H   0  0  0  0  0  0  0  0  0  0  0  0
   -1.6635    2.3758    0.0000 H   0  0  0  0  0  0  0  0  0  0  0  0
   -0.8000   -1.3857    0.0000 C   0  0  0  0  0  0  0  0  0  0  0  0
   -1.3472   -2.8892    0.0000 H   0  0  0  0  0  0  0  0  0  0  0  0
   -2.3756   -1.6635    0.0000 H   0  0  0  0  0  0  0  0  0  0  0  0
   -1.8284   -0.1600    0.0000 H   0  0  0  0  0  0  0  0  0  0  0  0
    0.8000    1.3857    0.0000 C   0  0  0  0  0  0  0  0  0  0  0  0
    1.8284    2.6113    0.0000 H   0  0  0  0  0  0  0  0  0  0  0  0
    0.2528    2.8891    0.0000 H   0  0  0  0  0  0  0  0  0  0  0  0
   -0.7758    1.6635    0.0000 H   0  0  0  0  0  0  0  0  0  0  0  0
  1  2  1  0  0  0  0
  1  3  1  0  0  0  0
  3  4  1  0  0  0  0
  4  5  1  0  0  0  0
  5  6  1  0  0  0  0
  6  7  1  0  0  0  0
  6  8  1  0  0  0  0
  6  9  1  0  0  0  0
  5 10  1  0  0  0  0
 10 11  1  0  0  0  0
 10 12  1  0  0  0  0
 10 13  1  0  0  0  0
  5 14  1  0  0  0  0
 14 15  1  0  0  0  0
 14 16  1  0  0  0  0
 14 17  1  0  0  0  0
  4 18  2  0  0  0  0
 18 19  1  0  0  0  0
 18 20  1  0  0  0  0
 20 21  1  0  0  0  0
 21 22  1  0  0  0  0
 21 23  1  0  0  0  0
 21 24  1  0  0  0  0
 20 25  2  0  0  0  0
 25 26  1  0  0  0  0
 25 27  1  0  0  0  0
 27  3  2  0  0  0  0
 27 28  1  0  0  0  0
 28 29  1  0  0  0  0
 29 30  1  0  0  0  0
 29 31  1  0  0  0  0
 29 32  1  0  0  0  0
 28 33  1  0  0  0  0
 33 34  1  0  0  0  0
 33 35  1  0  0  0  0
 33 36  1  0  0  0  0
 28 37  1  0  0  0  0
 37 38  1  0  0  0  0
 37 39  1  0  0  0  0
 37 40  1  0  0  0  0
M  END
> <ChemID>
100198

> <source_casrn>
128-37-0

> <CAS>
128-37-0

> <SMILES>
Cc1cc(c(O)c(c1)C(C)(C)C)C(C)(C)C

> <NAME>
Phenol, 2,6-bis(1,1-dimethylethyl)-4-methyl-

> <preferred_name>
Butylated hydroxytoluene

> <iupac>
2,6-di-tert-butyl-4-methylphenol

> <MPID>
101831

> <dsstox_substance_id>
DTXSID2020216

> <Canonical_QSARr>
Cc1cc(c(O)c(c1)C(C)(C)C)C(C)(C)C

> <InChI_Code_QSARr>
InChI=1S/C15H24O/c1-10-8-11(14(2,3)4)13(16)12(9-10)15(5,6)7/h8-9,16H,1-7H3

> <InChI Key_QSARr>
NLZUEZXRPGMBCV-UHFFFAOYSA-N

> <LogKmHL>
0.32

$$$$
100199
  -INDIGO-08031722222D

 26 29  0  0  0  0  0  0  0  0999 V2000
    0.0001    0.0001    0.0000 C   0  0  0  0  0  0  0  0  0  0  0  0
   -1.6001    0.0001    0.0000 C   0  0  0  0  0  0  0  0  0  0  0  0
   -2.4001   -1.3856    0.0000 C   0  0  0  0  0  0  0  0  0  0  0  0
   -4.0000   -1.3856    0.0000 C   0  0  0  0  0  0  0  0  0  0  0  0
   -4.8000   -2.7712    0.0000 H   0  0  0  0  0  0  0  0  0  0  0  0
   -4.8000    0.0001    0.0000 C   0  0  0  0  0  0  0  0  0  0  0  0
   -6.4000    0.0001    0.0000 H   0  0  0  0  0  0  0  0  0  0  0  0
   -4.0000    1.3856    0.0000 C   0  0  0  0  0  0  0  0  0  0  0  0
   -4.8000    2.7713    0.0000 H   0  0  0  0  0  0  0  0  0  0  0  0
   -2.4001    1.3856    0.0000 C   0  0  0  0  0  0  0  0  0  0  0  0
   -1.6001    2.7713    0.0000 C   0  0  0  0  0  0  0  0  0  0  0  0
   -2.4001    4.1569    0.0000 H   0  0  0  0  0  0  0  0  0  0  0  0
    0.0001    2.7713    0.0000 C   0  0  0  0  0  0  0  0  0  0  0  0
    0.8001    4.1569    0.0000 H   0  0  0  0  0  0  0  0  0  0  0  0
    0.8001    1.3856    0.0000 C   0  0  0  0  0  0  0  0  0  0  0  0
    2.4000    1.3856    0.0000 C   0  0  0  0  0  0  0  0  0  0  0  0
    3.2000    2.7712    0.0000 H   0  0  0  0  0  0  0  0  0  0  0  0
    3.2000    0.0001    0.0000 C   0  0  0  0  0  0  0  0  0  0  0  0
    4.8000    0.0001    0.0000 H   0  0  0  0  0  0  0  0  0  0  0  0
    2.4000   -1.3856    0.0000 C   0  0  0  0  0  0  0  0  0  0  0  0
    3.2000   -2.7712    0.0000 H   0  0  0  0  0  0  0  0  0  0  0  0
    0.8001   -1.3856    0.0000 C   0  0  0  0  0  0  0  0  0  0  0  0
    0.0001   -2.7712    0.0000 C   0  0  0  0  0  0  0  0  0  0  0  0
    0.8001   -4.1569    0.0000 H   0  0  0  0  0  0  0  0  0  0  0  0
   -1.6001   -2.7712    0.0000 C   0  0  0  0  0  0  0  0  0  0  0  0
   -2.4001   -4.1569    0.0000 H   0  0  0  0  0  0  0  0  0  0  0  0
  1  2  2  0  0  0  0
  2  3  1  0  0  0  0
  3  4  1  0  0  0  0
  4  5  1  0  0  0  0
  4  6  2  0  0  0  0
  6  7  1  0  0  0  0
  6  8  1  0  0  0  0
  8  9  1  0  0  0  0
  8 10  2  0  0  0  0
 10  2  1  0  0  0  0
 10 11  1  0  0  0  0
 11 12  1  0  0  0  0
 11 13  2  0  0  0  0
 13 14  1  0  0  0  0
 13 15  1  0  0  0  0
 15  1  1  0  0  0  0
 15 16  2  0  0  0  0
 16 17  1  0  0  0  0
 16 18  1  0  0  0  0
 18 19  1  0  0  0  0
 18 20  2  0  0  0  0
 20 21  1  0  0  0  0
 20 22  1  0  0  0  0
 22  1  1  0  0  0  0
 22 23  2  0  0  0  0
 23 24  1  0  0  0  0
 23 25  1  0  0  0  0
 25  3  2  0  0  0  0
 25 26  1  0  0  0  0
M  END
> <ChemID>
100199

> <source_casrn>
129-00-0

> <CAS>
129-00-0

> <SMILES>
c1cc2cccc3ccc4cccc1c4c32

> <NAME>
Pyrene

> <preferred_name>
Pyrene

> <iupac>
pyrene

> <MPID>
101832

> <dsstox_substance_id>
DTXSID3024289

> <Canonical_QSARr>
c1cc2cccc3ccc4cccc1c4c32

> <InChI_Code_QSARr>
InChI=1S/C16H10/c1-3-11-7-9-13-5-2-6-14-10-8-12(4-1)15(11)16(13)14/h1-10H

> <InChI Key_QSARr>
BBEAQIROQSPTKN-UHFFFAOYSA-N

> <LogKmHL>
0.32

$$$$
100201
  -INDIGO-08031722222D

 21 23  0  0  0  0  0  0  0  0999 V2000
    3.9650    1.0530    0.0000 C   0  0  0  0  0  0  0  0  0  0  0  0
    4.7650    2.4386    0.0000 H   0  0  0  0  0  0  0  0  0  0  0  0
    4.7650   -0.3327    0.0000 C   0  0  0  0  0  0  0  0  0  0  0  0
    6.3650   -0.3327    0.0000 H   0  0  0  0  0  0  0  0  0  0  0  0
    3.9650   -1.7183    0.0000 C   0  0  0  0  0  0  0  0  0  0  0  0
    4.7650   -3.1039    0.0000 H   0  0  0  0  0  0  0  0  0  0  0  0
    2.3650   -1.7183    0.0000 C   0  0  0  0  0  0  0  0  0  0  0  0
    1.5650   -3.1039    0.0000 H   0  0  0  0  0  0  0  0  0  0  0  0
    1.5650   -0.3327    0.0000 C   0  0  0  0  0  0  0  0  0  0  0  0
    2.3650    1.0530    0.0000 C   0  0  0  0  0  0  0  0  0  0  0  0
    1.2944    2.2420    0.0000 O   0  0  0  0  0  0  0  0  0  0  0  0
   -0.1672    1.5912    0.0000 C   0  0  0  0  0  0  0  0  0  0  0  0
   -0.0000    0.0000    0.0000 C   0  0  0  0  0  0  0  0  0  0  0  0
   -1.2944   -0.9405    0.0000 C   0  0  0  0  0  0  0  0  0  0  0  0
   -1.1271   -2.5317    0.0000 H   0  0  0  0  0  0  0  0  0  0  0  0
   -2.7561   -0.2897    0.0000 C   0  0  0  0  0  0  0  0  0  0  0  0
   -4.0505   -1.2301    0.0000 H   0  0  0  0  0  0  0  0  0  0  0  0
   -2.9233    1.3015    0.0000 C   0  0  0  0  0  0  0  0  0  0  0  0
   -4.3850    1.9523    0.0000 H   0  0  0  0  0  0  0  0  0  0  0  0
   -1.6289    2.2420    0.0000 C   0  0  0  0  0  0  0  0  0  0  0  0
   -1.7962    3.8333    0.0000 H   0  0  0  0  0  0  0  0  0  0  0  0
  1  2  1  0  0  0  0
  1  3  1  0  0  0  0
  3  4  1  0  0  0  0
  3  5  2  0  0  0  0
  5  6  1  0  0  0  0
  5  7  1  0  0  0  0
  7  8  1  0  0  0  0
  7  9  2  0  0  0  0
  9 10  1  0  0  0  0
 10  1  2  0  0  0  0
 10 11  1  0  0  0  0
 11 12  1  0  0  0  0
 12 13  1  0  0  0  0
 13  9  1  0  0  0  0
 13 14  2  0  0  0  0
 14 15  1  0  0  0  0
 14 16  1  0  0  0  0
 16 17  1  0  0  0  0
 16 18  2  0  0  0  0
 18 19  1  0  0  0  0
 18 20  1  0  0  0  0
 20 12  2  0  0  0  0
 20 21  1  0  0  0  0
M  END
> <ChemID>
100201

> <source_casrn>
132-64-9

> <CAS>
132-64-9

> <SMILES>
c1cccc2oc3ccccc3c21

> <NAME>
Dibenzofuran

> <preferred_name>
Dibenzofuran

> <iupac>
dibenzo[b,d]furan

> <MPID>
101834

> <dsstox_substance_id>
DTXSID2021993

> <Canonical_QSARr>
c1cccc2oc3ccccc3c21

> <InChI_Code_QSARr>
InChI=1S/C12H8O/c1-3-7-11-9(5-1)10-6-2-4-8-12(10)13-11/h1-8H

> <InChI Key_QSARr>
TXCDCPKCNAJMEE-UHFFFAOYSA-N

> <LogKmHL>
1.35

$$$$
100202
  -INDIGO-08031722222D

 21 23  0  0  0  0  0  0  0  0999 V2000
   -0.8000    1.3856    0.0000 C   0  0  0  0  0  0  0  0  0  0  0  0
    0.2707    2.5747    0.0000 S   0  0  0  0  0  0  0  0  0  0  0  0
    1.7322    1.9239    0.0000 C   0  0  0  0  0  0  0  0  0  0  0  0
    1.5651    0.3327    0.0000 C   0  0  0  0  0  0  0  0  0  0  0  0
    2.8595   -0.6078    0.0000 C   0  0  0  0  0  0  0  0  0  0  0  0
    2.6921   -2.1990    0.0000 H   0  0  0  0  0  0  0  0  0  0  0  0
    4.3212    0.0430    0.0000 C   0  0  0  0  0  0  0  0  0  0  0  0
    5.6156   -0.8974    0.0000 H   0  0  0  0  0  0  0  0  0  0  0  0
    4.4883    1.6342    0.0000 C   0  0  0  0  0  0  0  0  0  0  0  0
    5.9501    2.2850    0.0000 H   0  0  0  0  0  0  0  0  0  0  0  0
    3.1939    2.5747    0.0000 C   0  0  0  0  0  0  0  0  0  0  0  0
    3.3612    4.1659    0.0000 H   0  0  0  0  0  0  0  0  0  0  0  0
    0.0000    0.0000    0.0000 C   0  0  0  0  0  0  0  0  0  0  0  0
   -0.8000   -1.3856    0.0000 C   0  0  0  0  0  0  0  0  0  0  0  0
    0.0000   -2.7713    0.0000 H   0  0  0  0  0  0  0  0  0  0  0  0
   -2.4000   -1.3856    0.0000 C   0  0  0  0  0  0  0  0  0  0  0  0
   -3.2000   -2.7713    0.0000 H   0  0  0  0  0  0  0  0  0  0  0  0
   -3.2000    0.0000    0.0000 C   0  0  0  0  0  0  0  0  0  0  0  0
   -4.8000    0.0000    0.0000 H   0  0  0  0  0  0  0  0  0  0  0  0
   -2.4000    1.3856    0.0000 C   0  0  0  0  0  0  0  0  0  0  0  0
   -3.2000    2.7713    0.0000 H   0  0  0  0  0  0  0  0  0  0  0  0
  1  2  1  0  0  0  0
  2  3  1  0  0  0  0
  3  4  1  0  0  0  0
  4  5  2  0  0  0  0
  5  6  1  0  0  0  0
  5  7  1  0  0  0  0
  7  8  1  0  0  0  0
  7  9  2  0  0  0  0
  9 10  1  0  0  0  0
  9 11  1  0  0  0  0
 11  3  2  0  0  0  0
 11 12  1  0  0  0  0
  4 13  1  0  0  0  0
 13  1  1  0  0  0  0
 13 14  2  0  0  0  0
 14 15  1  0  0  0  0
 14 16  1  0  0  0  0
 16 17  1  0  0  0  0
 16 18  2  0  0  0  0
 18 19  1  0  0  0  0
 18 20  1  0  0  0  0
 20  1  2  0  0  0  0
 20 21  1  0  0  0  0
M  END
> <ChemID>
100202

> <source_casrn>
132-65-0

> <CAS>
132-65-0

> <SMILES>
c1cccc2[s]c3ccccc3c21

> <NAME>
Dibenzothiophene

> <preferred_name>
Dibenzothiophene

> <iupac>
dibenzo[b,d]thiophene

> <MPID>
101835

> <dsstox_substance_id>
DTXSID0047741

> <Canonical_QSARr>
c1cccc2[s]c3ccccc3c21

> <InChI_Code_QSARr>
InChI=1S/C12H8S/c1-3-7-11-9(5-1)10-6-2-4-8-12(10)13-11/h1-8H

> <InChI Key_QSARr>
IYYZUPMFVPLQIF-UHFFFAOYSA-N

> <LogKmHL>
0.83

$$$$
100203
  -INDIGO-08031722222D

 20 21  0  0  0  0  0  0  0  0999 V2000
   -0.0001    1.6000    0.0000 C   0  0  0  0  0  0  0  0  0  0  0  0
    1.3856    2.4000    0.0000 C   0  0  0  0  0  0  0  0  0  0  0  0
    1.3856    4.0000    0.0000 H   0  0  0  0  0  0  0  0  0  0  0  0
    2.7712    1.6000    0.0000 C   0  0  0  0  0  0  0  0  0  0  0  0
    4.1569    2.4000    0.0000 H   0  0  0  0  0  0  0  0  0  0  0  0
    2.7713    0.0000    0.0000 C   0  0  0  0  0  0  0  0  0  0  0  0
    4.1569   -0.8000    0.0000 H   0  0  0  0  0  0  0  0  0  0  0  0
    1.3856   -0.8000    0.0000 C   0  0  0  0  0  0  0  0  0  0  0  0
    1.3856   -2.4000    0.0000 H   0  0  0  0  0  0  0  0  0  0  0  0
    0.0001    0.0000    0.0000 C   0  0  0  0  0  0  0  0  0  0  0  0
   -1.3856   -0.8000    0.0000 C   0  0  0  0  0  0  0  0  0  0  0  0
   -1.3856   -2.4000    0.0000 N   0  0  0  0  0  0  0  0  0  0  0  0
   -2.7712   -3.2000    0.0000 H   0  0  0  0  0  0  0  0  0  0  0  0
    0.0001   -3.2000    0.0000 H   0  0  0  0  0  0  0  0  0  0  0  0
   -2.7713    0.0000    0.0000 C   0  0  0  0  0  0  0  0  0  0  0  0
   -4.1569   -0.8000    0.0000 H   0  0  0  0  0  0  0  0  0  0  0  0
   -2.7712    1.6000    0.0000 C   0  0  0  0  0  0  0  0  0  0  0  0
   -4.1569    2.4000    0.0000 H   0  0  0  0  0  0  0  0  0  0  0  0
   -1.3856    2.4000    0.0000 C   0  0  0  0  0  0  0  0  0  0  0  0
   -1.3856    4.0000    0.0000 H   0  0  0  0  0  0  0  0  0  0  0  0
  1  2  1  0  0  0  0
  2  3  1  0  0  0  0
  2  4  2  0  0  0  0
  4  5  1  0  0  0  0
  4  6  1  0  0  0  0
  6  7  1  0  0  0  0
  6  8  2  0  0  0  0
  8  9  1  0  0  0  0
  8 10  1  0  0  0  0
 10  1  1  0  0  0  0
 10 11  2  0  0  0  0
 11 12  1  0  0  0  0
 12 13  1  0  0  0  0
 12 14  1  0  0  0  0
 11 15  1  0  0  0  0
 15 16  1  0  0  0  0
 15 17  2  0  0  0  0
 17 18  1  0  0  0  0
 17 19  1  0  0  0  0
 19  1  2  0  0  0  0
 19 20  1  0  0  0  0
M  END
> <ChemID>
100203

> <source_casrn>
134-32-7

> <CAS>
134-32-7

> <SMILES>
Nc1cccc2ccccc21

> <NAME>
1-naphthylamine

> <preferred_name>
1-Naphthylamine

> <iupac>
naphthalen-1-amine

> <MPID>
101836

> <dsstox_substance_id>
DTXSID7020920

> <Canonical_QSARr>
Nc1cccc2ccccc21

> <InChI_Code_QSARr>
InChI=1S/C10H9N/c11-10-7-3-5-8-4-1-2-6-9(8)10/h1-7H,11H2

> <InChI Key_QSARr>
RUFPHBVGCFYCNW-UHFFFAOYSA-N

> <LogKmHL>
-0.24

$$$$
100205
  -INDIGO-08031722222D

 24 23  0  0  0  0  0  0  0  0999 V2000
    5.5426    1.6000    0.0000 S   0  0  0  0  0  0  0  0  0  0  0  0
    5.5426   -0.0000    0.0000 C   0  0  0  0  0  0  0  0  0  0  0  0
    6.9283   -0.8000    0.0000 N   0  0  0  0  0  0  0  0  0  0  0  0
    8.3138   -0.0000    0.0000 C   0  0  0  0  0  0  0  0  0  0  0  0
    9.6995    0.8000    0.0000 H   0  0  0  0  0  0  0  0  0  0  0  0
    9.6995   -0.8000    0.0000 H   0  0  0  0  0  0  0  0  0  0  0  0
    8.3138    1.6000    0.0000 H   0  0  0  0  0  0  0  0  0  0  0  0
    6.9283   -2.4000    0.0000 C   0  0  0  0  0  0  0  0  0  0  0  0
    6.9283   -4.0000    0.0000 H   0  0  0  0  0  0  0  0  0  0  0  0
    8.3138   -3.2000    0.0000 H   0  0  0  0  0  0  0  0  0  0  0  0
    5.5426   -3.2000    0.0000 H   0  0  0  0  0  0  0  0  0  0  0  0
    4.1569   -0.8000    0.0000 S   0  0  0  0  0  0  0  0  0  0  0  0
    2.7713   -0.0000    0.0000 S   0  0  0  0  0  0  0  0  0  0  0  0
    1.3856   -0.8000    0.0000 C   0  0  0  0  0  0  0  0  0  0  0  0
    1.3856   -2.4000    0.0000 S   0  0  0  0  0  0  0  0  0  0  0  0
   -0.0001   -0.0000    0.0000 N   0  0  0  0  0  0  0  0  0  0  0  0
   -0.0001    1.6000    0.0000 C   0  0  0  0  0  0  0  0  0  0  0  0
   -0.0001    3.2000    0.0000 H   0  0  0  0  0  0  0  0  0  0  0  0
    1.3856    2.4000    0.0000 H   0  0  0  0  0  0  0  0  0  0  0  0
   -1.3856    2.4000    0.0000 H   0  0  0  0  0  0  0  0  0  0  0  0
   -1.3856   -0.8000    0.0000 C   0  0  0  0  0  0  0  0  0  0  0  0
   -2.7713   -1.6000    0.0000 H   0  0  0  0  0  0  0  0  0  0  0  0
   -1.3856   -2.4000    0.0000 H   0  0  0  0  0  0  0  0  0  0  0  0
   -2.7713   -0.0000    0.0000 H   0  0  0  0  0  0  0  0  0  0  0  0
  1  2  2  0  0  0  0
  2  3  1  0  0  0  0
  3  4  1  0  0  0  0
  4  5  1  0  0  0  0
  4  6  1  0  0  0  0
  4  7  1  0  0  0  0
  3  8  1  0  0  0  0
  8  9  1  0  0  0  0
  8 10  1  0  0  0  0
  8 11  1  0  0  0  0
  2 12  1  0  0  0  0
 12 13  1  0  0  0  0
 13 14  1  0  0  0  0
 14 15  2  0  0  0  0
 14 16  1  0  0  0  0
 16 17  1  0  0  0  0
 17 18  1  0  0  0  0
 17 19  1  0  0  0  0
 17 20  1  0  0  0  0
 16 21  1  0  0  0  0
 21 22  1  0  0  0  0
 21 23  1  0  0  0  0
 21 24  1  0  0  0  0
M  END
> <ChemID>
100205

> <source_casrn>
137-26-8

> <CAS>
137-26-8

> <SMILES>
N(C(=S)SSC(N(C)C)=S)(C)C

> <NAME>
Thioperoxydicarbonic diamide ([(H2N)C(S)]2S2), t

> <preferred_name>
Thiram

> <iupac>
[disulfanediylbis(carbonothioylnitrilo)]tetramethane

> <MPID>
101838

> <dsstox_substance_id>
DTXSID5021332

> <Canonical_QSARr>
CN(C)C(=S)SSC(=S)N(C)C

> <InChI_Code_QSARr>
InChI=1S/C6H12N2S4/c1-7(2)5(9)11-12-6(10)8(3)4/h1-4H3

> <InChI Key_QSARr>
KUAZQDVKQLNFPE-UHFFFAOYSA-N

> <LogKmHL>
-1.18

$$$$
100206
  -INDIGO-08031722222D

 37 37  0  0  0  0  0  0  0  0999 V2000
   -0.0000    0.0001    0.0000 C   0  0  0  0  0  0  0  0  0  0  0  0
    1.3856   -0.8000    0.0000 C   0  0  0  0  0  0  0  0  0  0  0  0
    2.7714    0.0001    0.0000 C   0  0  0  0  0  0  0  0  0  0  0  0
    2.7714    1.6000    0.0000 H   0  0  0  0  0  0  0  0  0  0  0  0
    4.1570   -0.8000    0.0000 C   0  0  0  0  0  0  0  0  0  0  0  0
    5.5426    0.0001    0.0000 H   0  0  0  0  0  0  0  0  0  0  0  0
    4.1570   -2.4000    0.0000 C   0  0  0  0  0  0  0  0  0  0  0  0
    5.5426   -3.2000    0.0000 O   0  0  0  0  0  0  0  0  0  0  0  0
    6.9282   -2.4000    0.0000 H   0  0  0  0  0  0  0  0  0  0  0  0
    2.7714   -3.2000    0.0000 C   0  0  0  0  0  0  0  0  0  0  0  0
    2.7714   -4.8000    0.0000 H   0  0  0  0  0  0  0  0  0  0  0  0
    1.3856   -2.4000    0.0000 C   0  0  0  0  0  0  0  0  0  0  0  0
   -0.0000   -3.2000    0.0000 H   0  0  0  0  0  0  0  0  0  0  0  0
   -1.5036    0.5472    0.0000 C   0  0  0  0  0  0  0  0  0  0  0  0
   -1.1571    2.1093    0.0000 H   0  0  0  0  0  0  0  0  0  0  0  0
   -2.3632    1.8966    0.0000 H   0  0  0  0  0  0  0  0  0  0  0  0
   -2.7291   -0.4812    0.0000 C   0  0  0  0  0  0  0  0  0  0  0  0
   -3.9548   -1.5097    0.0000 C   0  0  0  0  0  0  0  0  0  0  0  0
   -5.1805   -2.5381    0.0000 H   0  0  0  0  0  0  0  0  0  0  0  0
   -5.4584   -0.9624    0.0000 H   0  0  0  0  0  0  0  0  0  0  0  0
   -3.6770   -3.0854    0.0000 H   0  0  0  0  0  0  0  0  0  0  0  0
   -3.7577    0.7444    0.0000 C   0  0  0  0  0  0  0  0  0  0  0  0
   -4.7861    1.9701    0.0000 H   0  0  0  0  0  0  0  0  0  0  0  0
   -3.2105    2.2479    0.0000 H   0  0  0  0  0  0  0  0  0  0  0  0
   -5.3334    0.4666    0.0000 H   0  0  0  0  0  0  0  0  0  0  0  0
   -1.7007   -1.7069    0.0000 C   0  0  0  0  0  0  0  0  0  0  0  0
   -2.2479   -3.2104    0.0000 H   0  0  0  0  0  0  0  0  0  0  0  0
   -3.2765   -1.9848    0.0000 H   0  0  0  0  0  0  0  0  0  0  0  0
   -2.4000   -1.3856    0.0000 H   0  0  0  0  0  0  0  0  0  0  0  0
    0.8000    1.3856    0.0000 C   0  0  0  0  0  0  0  0  0  0  0  0
   -0.0000    2.7713    0.0000 H   0  0  0  0  0  0  0  0  0  0  0  0
    1.5999    2.7713    0.0000 H   0  0  0  0  0  0  0  0  0  0  0  0
   -0.7999    1.3856    0.0000 H   0  0  0  0  0  0  0  0  0  0  0  0
   -0.7999   -1.3856    0.0000 C   0  0  0  0  0  0  0  0  0  0  0  0
   -1.6000   -2.7713    0.0000 H   0  0  0  0  0  0  0  0  0  0  0  0
   -1.0205   -0.6483    0.0000 H   0  0  0  0  0  0  0  0  0  0  0  0
    0.8000   -1.3856    0.0000 H   0  0  0  0  0  0  0  0  0  0  0  0
  1  2  1  0  0  0  0
  2  3  1  0  0  0  0
  3  4  1  0  0  0  0
  3  5  2  0  0  0  0
  5  6  1  0  0  0  0
  5  7  1  0  0  0  0
  7  8  1  0  0  0  0
  8  9  1  0  0  0  0
  7 10  2  0  0  0  0
 10 11  1  0  0  0  0
 10 12  1  0  0  0  0
 12  2  2  0  0  0  0
 12 13  1  0  0  0  0
  1 14  1  0  0  0  0
 14 15  1  0  0  0  0
 14 16  1  0  0  0  0
 14 17  1  0  0  0  0
 17 18  1  0  0  0  0
 18 19  1  0  0  0  0
 18 20  1  0  0  0  0
 18 21  1  0  0  0  0
 17 22  1  0  0  0  0
 22 23  1  0  0  0  0
 22 24  1  0  0  0  0
 22 25  1  0  0  0  0
 17 26  1  0  0  0  0
 26 27  1  0  0  0  0
 26 28  1  0  0  0  0
 26 29  1  0  0  0  0
  1 30  1  0  0  0  0
 30 31  1  0  0  0  0
 30 32  1  0  0  0  0
 30 33  1  0  0  0  0
  1 34  1  0  0  0  0
 34 35  1  0  0  0  0
 34 36  1  0  0  0  0
 34 37  1  0  0  0  0
M  END
> <ChemID>
100206

> <source_casrn>
140-66-9

> <CAS>
140-66-9

> <SMILES>
CC(C)(C)CC(C)(C)c1ccc(O)cc1

> <NAME>
Phenol, 4-(1,1,3,3-tetramethylbutyl)-

> <preferred_name>
4-(1,1,3,3-Tetramethylbutyl)phenol

> <iupac>
4-(2,4,4-trimethylpentan-2-yl)phenol

> <MPID>
101839

> <dsstox_substance_id>
DTXSID9022360

> <Canonical_QSARr>
CC(C)(C)CC(C)(C)c1ccc(O)cc1

> <InChI_Code_QSARr>
InChI=1S/C14H22O/c1-13(2,3)10-14(4,5)11-6-8-12(15)9-7-11/h6-9,15H,10H2,1-5H3

> <InChI Key_QSARr>
ISAVYTVYFVQUDY-UHFFFAOYSA-N

> <LogKmHL>
-0.04

$$$$
100207
  -INDIGO-08031722222D

 24 24  0  0  0  0  0  0  0  0999 V2000
    2.7713   -0.0000    0.0000 C   0  0  0  0  0  0  0  0  0  0  0  0
    4.1569    0.8000    0.0000 H   0  0  0  0  0  0  0  0  0  0  0  0
    4.1569   -0.8000    0.0000 H   0  0  0  0  0  0  0  0  0  0  0  0
    2.7713    1.6000    0.0000 H   0  0  0  0  0  0  0  0  0  0  0  0
    1.3856    0.8000    0.0000 C   0  0  0  0  0  0  0  0  0  0  0  0
    0.7733    2.2782    0.0000 H   0  0  0  0  0  0  0  0  0  0  0  0
    1.9979    2.2782    0.0000 H   0  0  0  0  0  0  0  0  0  0  0  0
   -0.0001   -0.0000    0.0000 C   0  0  0  0  0  0  0  0  0  0  0  0
   -1.3857    0.8000    0.0000 C   0  0  0  0  0  0  0  0  0  0  0  0
   -1.3857    2.4000    0.0000 H   0  0  0  0  0  0  0  0  0  0  0  0
   -2.7712   -0.0000    0.0000 C   0  0  0  0  0  0  0  0  0  0  0  0
   -4.1569    0.8000    0.0000 C   0  0  0  0  0  0  0  0  0  0  0  0
   -4.7692    2.2782    0.0000 H   0  0  0  0  0  0  0  0  0  0  0  0
   -3.5446    2.2782    0.0000 H   0  0  0  0  0  0  0  0  0  0  0  0
   -5.5425   -0.0000    0.0000 C   0  0  0  0  0  0  0  0  0  0  0  0
   -6.9282    0.8000    0.0000 H   0  0  0  0  0  0  0  0  0  0  0  0
   -6.9282   -0.8000    0.0000 H   0  0  0  0  0  0  0  0  0  0  0  0
   -5.5425    1.6000    0.0000 H   0  0  0  0  0  0  0  0  0  0  0  0
   -2.7712   -1.6000    0.0000 C   0  0  0  0  0  0  0  0  0  0  0  0
   -4.1569   -2.4000    0.0000 H   0  0  0  0  0  0  0  0  0  0  0  0
   -1.3856   -2.4000    0.0000 C   0  0  0  0  0  0  0  0  0  0  0  0
   -1.3857   -4.0000    0.0000 H   0  0  0  0  0  0  0  0  0  0  0  0
   -0.0001   -1.6000    0.0000 C   0  0  0  0  0  0  0  0  0  0  0  0
    1.3856   -2.4000    0.0000 H   0  0  0  0  0  0  0  0  0  0  0  0
  1  2  1  0  0  0  0
  1  3  1  0  0  0  0
  1  4  1  0  0  0  0
  1  5  1  0  0  0  0
  5  6  1  0  0  0  0
  5  7  1  0  0  0  0
  5  8  1  0  0  0  0
  8  9  1  0  0  0  0
  9 10  1  0  0  0  0
  9 11  2  0  0  0  0
 11 12  1  0  0  0  0
 12 13  1  0  0  0  0
 12 14  1  0  0  0  0
 12 15  1  0  0  0  0
 15 16  1  0  0  0  0
 15 17  1  0  0  0  0
 15 18  1  0  0  0  0
 11 19  1  0  0  0  0
 19 20  1  0  0  0  0
 19 21  2  0  0  0  0
 21 22  1  0  0  0  0
 21 23  1  0  0  0  0
 23  8  2  0  0  0  0
 23 24  1  0  0  0  0
M  END
> <ChemID>
100207

> <source_casrn>
141-93-5

> <CAS>
141-93-5

> <SMILES>
CCc1cc(CC)ccc1

> <NAME>
M-diethylbenzene

> <preferred_name>
1,3-Diethylbenzene

> <iupac>
1,3-diethylbenzene

> <MPID>
101840

> <dsstox_substance_id>
DTXSID1022003

> <Canonical_QSARr>
CCc1cc(CC)ccc1

> <InChI_Code_QSARr>
InChI=1S/C10H14/c1-3-9-6-5-7-10(4-2)8-9/h5-8H,3-4H2,1-2H3

> <InChI Key_QSARr>
AFZZYIJIWUTJFO-UHFFFAOYSA-N

> <LogKmHL>
0.09

$$$$
100209
  -INDIGO-08031722222D

 28 27  0  0  0  0  0  0  0  0999 V2000
    1.6001   -0.0000    0.0000 C   0  0  0  0  0  0  0  0  0  0  0  0
    2.8694   -0.9740    0.0000 H   0  0  0  0  0  0  0  0  0  0  0  0
    1.8089   -1.5863    0.0000 H   0  0  0  0  0  0  0  0  0  0  0  0
    0.0000    0.0000    0.0000 C   0  0  0  0  0  0  0  0  0  0  0  0
   -1.6000    0.0000    0.0000 C   0  0  0  0  0  0  0  0  0  0  0  0
   -1.6000    1.6000    0.0000 H   0  0  0  0  0  0  0  0  0  0  0  0
   -3.1999    0.0000    0.0000 C   0  0  0  0  0  0  0  0  0  0  0  0
   -3.1999   -1.6000    0.0000 H   0  0  0  0  0  0  0  0  0  0  0  0
   -4.7757   -0.2779    0.0000 C   0  0  0  0  0  0  0  0  0  0  0  0
   -6.3514   -0.5557    0.0000 H   0  0  0  0  0  0  0  0  0  0  0  0
   -5.8041    0.9478    0.0000 H   0  0  0  0  0  0  0  0  0  0  0  0
   -5.3230   -1.7813    0.0000 H   0  0  0  0  0  0  0  0  0  0  0  0
   -3.1999    1.6000    0.0000 C   0  0  0  0  0  0  0  0  0  0  0  0
   -3.1999    3.2000    0.0000 H   0  0  0  0  0  0  0  0  0  0  0  0
   -4.5856    2.4000    0.0000 H   0  0  0  0  0  0  0  0  0  0  0  0
   -4.5856    0.8000    0.0000 H   0  0  0  0  0  0  0  0  0  0  0  0
   -1.6000   -1.6000    0.0000 O   0  0  0  0  0  0  0  0  0  0  0  0
   -2.8257   -2.6285    0.0000 H   0  0  0  0  0  0  0  0  0  0  0  0
    0.0000    1.6000    0.0000 C   0  0  0  0  0  0  0  0  0  0  0  0
    0.0000    3.2000    0.0000 H   0  0  0  0  0  0  0  0  0  0  0  0
    1.3856    2.4000    0.0000 H   0  0  0  0  0  0  0  0  0  0  0  0
   -1.2257    2.6285    0.0000 H   0  0  0  0  0  0  0  0  0  0  0  0
    0.0000   -1.6000    0.0000 C   0  0  0  0  0  0  0  0  0  0  0  0
    0.0000   -3.2000    0.0000 H   0  0  0  0  0  0  0  0  0  0  0  0
    1.2257   -2.6285    0.0000 H   0  0  0  0  0  0  0  0  0  0  0  0
   -1.2257   -2.6285    0.0000 H   0  0  0  0  0  0  0  0  0  0  0  0
    2.3999    1.3856    0.0000 O   0  0  0  0  0  0  0  0  0  0  0  0
    4.0000    1.3856    0.0000 H   0  0  0  0  0  0  0  0  0  0  0  0
  1  2  1  0  0  0  0
  1  3  1  0  0  0  0
  1  4  1  0  0  0  0
  4  5  1  0  0  0  0
  5  6  1  0  0  0  0
  5  7  1  0  0  0  0
  7  8  1  0  0  0  0
  7  9  1  0  0  0  0
  9 10  1  0  0  0  0
  9 11  1  0  0  0  0
  9 12  1  0  0  0  0
  7 13  1  0  0  0  0
 13 14  1  0  0  0  0
 13 15  1  0  0  0  0
 13 16  1  0  0  0  0
  5 17  1  0  0  0  0
 17 18  1  0  0  0  0
  4 19  1  0  0  0  0
 19 20  1  0  0  0  0
 19 21  1  0  0  0  0
 19 22  1  0  0  0  0
  4 23  1  0  0  0  0
 23 24  1  0  0  0  0
 23 25  1  0  0  0  0
 23 26  1  0  0  0  0
  1 27  1  0  0  0  0
 27 28  1  0  0  0  0
M  END
> <ChemID>
100209

> <source_casrn>
144-19-4

> <CAS>
144-19-4

> <SMILES>
CC(C)C(O)C(C)(C)CO

> <NAME>
1,3-Pentanediol, 2,2,4-trimethyl-

> <preferred_name>
2,2,4-Trimethyl-1,3-pentanediol

> <iupac>
2,2,4-trimethylpentane-1,3-diol

> <MPID>
101842

> <dsstox_substance_id>
DTXSID8027113

> <Canonical_QSARr>
CC(C)C(O)C(C)(C)CO

> <InChI_Code_QSARr>
InChI=1S/C8H18O2/c1-6(2)7(10)8(3,4)5-9/h6-7,9-10H,5H2,1-4H3

> <InChI Key_QSARr>
JCTXKRPTIMZBJT-UHFFFAOYSA-N

> <LogKmHL>
-1.34

$$$$
100210
  -INDIGO-08031722222D

 21 21  0  0  0  0  0  0  0  0999 V2000
   -1.6001    0.0000    0.0000 O   0  0  0  0  0  0  0  0  0  0  0  0
    0.0001    0.0000    0.0000 C   0  0  0  0  0  0  0  0  0  0  0  0
    0.8001    1.3857    0.0000 C   0  0  0  0  0  0  0  0  0  0  0  0
    0.0001    2.7713    0.0000 H   0  0  0  0  0  0  0  0  0  0  0  0
    2.4000    1.3857    0.0000 C   0  0  0  0  0  0  0  0  0  0  0  0
    3.2000    2.7713    0.0000 H   0  0  0  0  0  0  0  0  0  0  0  0
    3.2000    0.0000    0.0000 C   0  0  0  0  0  0  0  0  0  0  0  0
    4.8000    0.0000    0.0000 N   0  0  0  0  0  0  0  0  0  0  0  0
    5.6000   -1.3857    0.0000 H   0  0  0  0  0  0  0  0  0  0  0  0
    5.6000    1.3857    0.0000 H   0  0  0  0  0  0  0  0  0  0  0  0
    2.4000   -1.3857    0.0000 C   0  0  0  0  0  0  0  0  0  0  0  0
    3.2000   -2.7713    0.0000 H   0  0  0  0  0  0  0  0  0  0  0  0
    0.8001   -1.3857    0.0000 C   0  0  0  0  0  0  0  0  0  0  0  0
    0.0001   -2.7713    0.0000 H   0  0  0  0  0  0  0  0  0  0  0  0
   -2.4000    1.3857    0.0000 C   0  0  0  0  0  0  0  0  0  0  0  0
   -1.1306    2.3596    0.0000 H   0  0  0  0  0  0  0  0  0  0  0  0
   -2.1912    2.9720    0.0000 H   0  0  0  0  0  0  0  0  0  0  0  0
   -4.0000    1.3857    0.0000 C   0  0  0  0  0  0  0  0  0  0  0  0
   -5.6000    1.3857    0.0000 H   0  0  0  0  0  0  0  0  0  0  0  0
   -4.8000    2.7713    0.0000 H   0  0  0  0  0  0  0  0  0  0  0  0
   -4.8000    0.0000    0.0000 H   0  0  0  0  0  0  0  0  0  0  0  0
  1  2  1  0  0  0  0
  2  3  1  0  0  0  0
  3  4  1  0  0  0  0
  3  5  2  0  0  0  0
  5  6  1  0  0  0  0
  5  7  1  0  0  0  0
  7  8  1  0  0  0  0
  8  9  1  0  0  0  0
  8 10  1  0  0  0  0
  7 11  2  0  0  0  0
 11 12  1  0  0  0  0
 11 13  1  0  0  0  0
 13  2  2  0  0  0  0
 13 14  1  0  0  0  0
  1 15  1  0  0  0  0
 15 16  1  0  0  0  0
 15 17  1  0  0  0  0
 15 18  1  0  0  0  0
 18 19  1  0  0  0  0
 18 20  1  0  0  0  0
 18 21  1  0  0  0  0
M  END
> <ChemID>
100210

> <source_casrn>
156-43-4

> <CAS>
156-43-4

> <SMILES>
CCOc1ccc(N)cc1

> <NAME>
Benzenamine, 4-ethoxy-

> <preferred_name>
4-Ethoxyaniline

> <iupac>
4-ethoxyaniline

> <MPID>
101843

> <dsstox_substance_id>
DTXSID0025864

> <Canonical_QSARr>
CCOc1ccc(N)cc1

> <InChI_Code_QSARr>
InChI=1S/C8H11NO/c1-2-10-8-5-3-7(9)4-6-8/h3-6H,2,9H2,1H3

> <InChI Key_QSARr>
IMPPGHMHELILKG-UHFFFAOYSA-N

> <LogKmHL>
-1.24

$$$$
100211
  -INDIGO-08031722222D

 32 36  0  0  0  0  0  0  0  0999 V2000
    2.4001    1.3856    0.0000 C   0  0  0  0  0  0  0  0  0  0  0  0
    3.2001    0.0001    0.0000 C   0  0  0  0  0  0  0  0  0  0  0  0
    4.8000    0.0001    0.0000 C   0  0  0  0  0  0  0  0  0  0  0  0
    5.6000   -1.3856    0.0000 C   0  0  0  0  0  0  0  0  0  0  0  0
    7.2000   -1.3856    0.0000 H   0  0  0  0  0  0  0  0  0  0  0  0
    4.8000   -2.7712    0.0000 C   0  0  0  0  0  0  0  0  0  0  0  0
    5.6000   -4.1569    0.0000 H   0  0  0  0  0  0  0  0  0  0  0  0
    3.2001   -2.7712    0.0000 C   0  0  0  0  0  0  0  0  0  0  0  0
    2.4001   -4.1569    0.0000 H   0  0  0  0  0  0  0  0  0  0  0  0
    2.4001   -1.3856    0.0000 C   0  0  0  0  0  0  0  0  0  0  0  0
    0.7999   -1.3856    0.0000 C   0  0  0  0  0  0  0  0  0  0  0  0
   -0.0001   -2.7712    0.0000 C   0  0  0  0  0  0  0  0  0  0  0  0
    0.7999   -4.1569    0.0000 H   0  0  0  0  0  0  0  0  0  0  0  0
   -1.6000   -2.7712    0.0000 C   0  0  0  0  0  0  0  0  0  0  0  0
   -2.4000   -4.1569    0.0000 H   0  0  0  0  0  0  0  0  0  0  0  0
   -2.4000   -1.3856    0.0000 C   0  0  0  0  0  0  0  0  0  0  0  0
   -4.0000   -1.3856    0.0000 H   0  0  0  0  0  0  0  0  0  0  0  0
   -1.6000    0.0001    0.0000 C   0  0  0  0  0  0  0  0  0  0  0  0
   -2.4000    1.3856    0.0000 C   0  0  0  0  0  0  0  0  0  0  0  0
   -4.0000    1.3856    0.0000 H   0  0  0  0  0  0  0  0  0  0  0  0
   -1.6000    2.7712    0.0000 C   0  0  0  0  0  0  0  0  0  0  0  0
   -2.4000    4.1569    0.0000 H   0  0  0  0  0  0  0  0  0  0  0  0
   -0.0001    2.7713    0.0000 C   0  0  0  0  0  0  0  0  0  0  0  0
    0.7999    4.1569    0.0000 H   0  0  0  0  0  0  0  0  0  0  0  0
    0.7999    1.3856    0.0000 C   0  0  0  0  0  0  0  0  0  0  0  0
   -0.0001    0.0001    0.0000 C   0  0  0  0  0  0  0  0  0  0  0  0
    5.6000    1.3856    0.0000 C   0  0  0  0  0  0  0  0  0  0  0  0
    7.2000    1.3856    0.0000 H   0  0  0  0  0  0  0  0  0  0  0  0
    4.8000    2.7712    0.0000 C   0  0  0  0  0  0  0  0  0  0  0  0
    5.6000    4.1569    0.0000 H   0  0  0  0  0  0  0  0  0  0  0  0
    3.2001    2.7713    0.0000 C   0  0  0  0  0  0  0  0  0  0  0  0
    2.4001    4.1569    0.0000 H   0  0  0  0  0  0  0  0  0  0  0  0
  1  2  2  0  0  0  0
  2  3  1  0  0  0  0
  3  4  1  0  0  0  0
  4  5  1  0  0  0  0
  4  6  2  0  0  0  0
  6  7  1  0  0  0  0
  6  8  1  0  0  0  0
  8  9  1  0  0  0  0
  8 10  2  0  0  0  0
 10  2  1  0  0  0  0
 10 11  1  0  0  0  0
 11 12  1  0  0  0  0
 12 13  1  0  0  0  0
 12 14  2  0  0  0  0
 14 15  1  0  0  0  0
 14 16  1  0  0  0  0
 16 17  1  0  0  0  0
 16 18  2  0  0  0  0
 18 19  1  0  0  0  0
 19 20  1  0  0  0  0
 19 21  2  0  0  0  0
 21 22  1  0  0  0  0
 21 23  1  0  0  0  0
 23 24  1  0  0  0  0
 23 25  2  0  0  0  0
 25  1  1  0  0  0  0
 25 26  1  0  0  0  0
 26 11  2  0  0  0  0
 26 18  1  0  0  0  0
  3 27  2  0  0  0  0
 27 28  1  0  0  0  0
 27 29  1  0  0  0  0
 29 30  1  0  0  0  0
 29 31  2  0  0  0  0
 31  1  1  0  0  0  0
 31 32  1  0  0  0  0
M  END
> <ChemID>
100211

> <source_casrn>
198-55-0

> <CAS>
198-55-0

> <SMILES>
c1ccc2c3c(cccc31)c1cccc3cccc2c31

> <NAME>
Perylene

> <preferred_name>
Perylene

> <iupac>
perylene

> <MPID>
101844

> <dsstox_substance_id>
DTXSID4047753

> <Canonical_QSARr>
c1ccc2c3c(cccc31)c1cccc3cccc2c31

> <InChI_Code_QSARr>
InChI=1S/C20H12/c1-5-13-6-2-11-17-18-12-4-8-14-7-3-10-16(20(14)18)15(9-1)19(13)17/h1-12H

> <InChI Key_QSARr>
CSHWQDPOILHKBI-UHFFFAOYSA-N

> <LogKmHL>
-0.06

$$$$
100213
  -INDIGO-08031722222D

 32 36  0  0  0  0  0  0  0  0999 V2000
   -0.0000   -0.0000    0.0000 C   0  0  0  0  0  0  0  0  0  0  0  0
   -1.5913   -0.1673    0.0000 C   0  0  0  0  0  0  0  0  0  0  0  0
   -2.3340    1.2498    0.0000 C   0  0  0  0  0  0  0  0  0  0  0  0
   -3.9334    1.2934    0.0000 H   0  0  0  0  0  0  0  0  0  0  0  0
   -1.5153    2.6245    0.0000 C   0  0  0  0  0  0  0  0  0  0  0  0
   -2.3153    4.0102    0.0000 H   0  0  0  0  0  0  0  0  0  0  0  0
    0.0845    2.6462    0.0000 C   0  0  0  0  0  0  0  0  0  0  0  0
    0.8465    4.0532    0.0000 H   0  0  0  0  0  0  0  0  0  0  0  0
    0.9405    1.2944    0.0000 C   0  0  0  0  0  0  0  0  0  0  0  0
    2.4622    0.8000    0.0000 C   0  0  0  0  0  0  0  0  0  0  0  0
    2.4622   -0.8000    0.0000 C   0  0  0  0  0  0  0  0  0  0  0  0
    0.9405   -1.2944    0.0000 C   0  0  0  0  0  0  0  0  0  0  0  0
    0.2897   -2.7561    0.0000 C   0  0  0  0  0  0  0  0  0  0  0  0
    1.2302   -4.0505    0.0000 H   0  0  0  0  0  0  0  0  0  0  0  0
   -1.3016   -2.9234    0.0000 C   0  0  0  0  0  0  0  0  0  0  0  0
   -1.9524   -4.3850    0.0000 H   0  0  0  0  0  0  0  0  0  0  0  0
   -2.2419   -1.6289    0.0000 C   0  0  0  0  0  0  0  0  0  0  0  0
   -3.8332   -1.7962    0.0000 H   0  0  0  0  0  0  0  0  0  0  0  0
    3.8478   -1.6000    0.0000 C   0  0  0  0  0  0  0  0  0  0  0  0
    3.8478   -3.2001    0.0000 H   0  0  0  0  0  0  0  0  0  0  0  0
    5.2335   -0.8000    0.0000 C   0  0  0  0  0  0  0  0  0  0  0  0
    5.2335    0.8000    0.0000 C   0  0  0  0  0  0  0  0  0  0  0  0
    6.6191    1.6001    0.0000 C   0  0  0  0  0  0  0  0  0  0  0  0
    6.6191    3.2000    0.0000 H   0  0  0  0  0  0  0  0  0  0  0  0
    8.0048    0.8000    0.0000 C   0  0  0  0  0  0  0  0  0  0  0  0
    9.3904    1.6001    0.0000 H   0  0  0  0  0  0  0  0  0  0  0  0
    8.0048   -0.8000    0.0000 C   0  0  0  0  0  0  0  0  0  0  0  0
    9.3904   -1.6000    0.0000 H   0  0  0  0  0  0  0  0  0  0  0  0
    6.6191   -1.6000    0.0000 C   0  0  0  0  0  0  0  0  0  0  0  0
    6.6191   -3.2001    0.0000 H   0  0  0  0  0  0  0  0  0  0  0  0
    3.8478    1.6001    0.0000 C   0  0  0  0  0  0  0  0  0  0  0  0
    3.8478    3.2000    0.0000 H   0  0  0  0  0  0  0  0  0  0  0  0
  1  2  2  0  0  0  0
  2  3  1  0  0  0  0
  3  4  1  0  0  0  0
  3  5  2  0  0  0  0
  5  6  1  0  0  0  0
  5  7  1  0  0  0  0
  7  8  1  0  0  0  0
  7  9  2  0  0  0  0
  9  1  1  0  0  0  0
  9 10  1  0  0  0  0
 10 11  1  0  0  0  0
 11 12  1  0  0  0  0
 12  1  1  0  0  0  0
 12 13  2  0  0  0  0
 13 14  1  0  0  0  0
 13 15  1  0  0  0  0
 15 16  1  0  0  0  0
 15 17  2  0  0  0  0
 17  2  1  0  0  0  0
 17 18  1  0  0  0  0
 11 19  2  0  0  0  0
 19 20  1  0  0  0  0
 19 21  1  0  0  0  0
 21 22  1  0  0  0  0
 22 23  2  0  0  0  0
 23 24  1  0  0  0  0
 23 25  1  0  0  0  0
 25 26  1  0  0  0  0
 25 27  2  0  0  0  0
 27 28  1  0  0  0  0
 27 29  1  0  0  0  0
 29 21  2  0  0  0  0
 29 30  1  0  0  0  0
 22 31  1  0  0  0  0
 31 10  2  0  0  0  0
 31 32  1  0  0  0  0
M  END
> <ChemID>
100213

> <source_casrn>
207-08-9

> <CAS>
207-08-9

> <SMILES>
c1c2-c3cccc4cccc(c43)-c2cc2ccccc21

> <NAME>
Benzo(k)fluoranthene

> <preferred_name>
Benzo(k)fluoranthene

> <iupac>
benzo[k]fluoranthene

> <MPID>
101846

> <dsstox_substance_id>
DTXSID0023909

> <Canonical_QSARr>
c1c2-c3cccc4cccc(c43)-c2cc2ccccc21

> <InChI_Code_QSARr>
InChI=1S/C20H12/c1-2-6-15-12-19-17-10-4-8-13-7-3-9-16(20(13)17)18(19)11-14(15)5-1/h1-12H

> <InChI Key_QSARr>
HAXBIWFMXWRORI-UHFFFAOYSA-N

> <LogKmHL>
-0.06

$$$$
100214
  -INDIGO-08031722222D

 20 22  0  0  0  0  0  0  0  0999 V2000
    0.8000    2.2890    0.0000 C   0  0  0  0  0  0  0  0  0  0  0  0
    1.7008    3.6113    0.0000 H   0  0  0  0  0  0  0  0  0  0  0  0
   -0.8000    2.2890    0.0000 C   0  0  0  0  0  0  0  0  0  0  0  0
   -1.7009    3.6113    0.0000 H   0  0  0  0  0  0  0  0  0  0  0  0
   -1.3856    0.8000    0.0000 C   0  0  0  0  0  0  0  0  0  0  0  0
    0.0001    0.0000    0.0000 C   0  0  0  0  0  0  0  0  0  0  0  0
    0.0001   -1.6000    0.0000 C   0  0  0  0  0  0  0  0  0  0  0  0
   -1.3856   -2.4000    0.0000 C   0  0  0  0  0  0  0  0  0  0  0  0
   -1.3856   -4.0000    0.0000 H   0  0  0  0  0  0  0  0  0  0  0  0
   -2.7713   -1.6000    0.0000 C   0  0  0  0  0  0  0  0  0  0  0  0
   -4.1569   -2.4000    0.0000 H   0  0  0  0  0  0  0  0  0  0  0  0
   -2.7712    0.0000    0.0000 C   0  0  0  0  0  0  0  0  0  0  0  0
   -4.1569    0.8000    0.0000 H   0  0  0  0  0  0  0  0  0  0  0  0
    1.3856   -2.4000    0.0000 C   0  0  0  0  0  0  0  0  0  0  0  0
    1.3856   -4.0000    0.0000 H   0  0  0  0  0  0  0  0  0  0  0  0
    2.7713   -1.6000    0.0000 C   0  0  0  0  0  0  0  0  0  0  0  0
    4.1569   -2.4000    0.0000 H   0  0  0  0  0  0  0  0  0  0  0  0
    2.7713    0.0000    0.0000 C   0  0  0  0  0  0  0  0  0  0  0  0
    4.1569    0.8000    0.0000 H   0  0  0  0  0  0  0  0  0  0  0  0
    1.3856    0.8000    0.0000 C   0  0  0  0  0  0  0  0  0  0  0  0
  1  2  1  0  0  0  0
  1  3  2  0  0  0  0
  3  4  1  0  0  0  0
  3  5  1  0  0  0  0
  5  6  1  0  0  0  0
  6  7  1  0  0  0  0
  7  8  1  0  0  0  0
  8  9  1  0  0  0  0
  8 10  2  0  0  0  0
 10 11  1  0  0  0  0
 10 12  1  0  0  0  0
 12  5  2  0  0  0  0
 12 13  1  0  0  0  0
  7 14  2  0  0  0  0
 14 15  1  0  0  0  0
 14 16  1  0  0  0  0
 16 17  1  0  0  0  0
 16 18  2  0  0  0  0
 18 19  1  0  0  0  0
 18 20  1  0  0  0  0
 20  1  1  0  0  0  0
 20  6  2  0  0  0  0
M  END
> <ChemID>
100214

> <source_casrn>
208-96-8

> <CAS>
208-96-8

> <SMILES>
c1ccc2C=Cc3cccc1c32

> <NAME>
Acenaphthylene

> <preferred_name>
Acenaphthylene

> <iupac>
acenaphthylene

> <MPID>
101847

> <dsstox_substance_id>
DTXSID3023845

> <Canonical_QSARr>
c1ccc2C=Cc3cccc1c32

> <InChI_Code_QSARr>
InChI=1S/C12H8/c1-3-9-4-2-6-11-8-7-10(5-1)12(9)11/h1-8H

> <InChI Key_QSARr>
HXGDTGSAIMULJN-UHFFFAOYSA-N

> <LogKmHL>
0.52

$$$$
100215
  -INDIGO-08031722222D

 36 40  0  0  0  0  0  0  0  0999 V2000
    1.5999    0.0001    0.0000 C   0  0  0  0  0  0  0  0  0  0  0  0
    0.0001    0.0001    0.0000 C   0  0  0  0  0  0  0  0  0  0  0  0
   -0.8000   -1.3856    0.0000 C   0  0  0  0  0  0  0  0  0  0  0  0
   -2.3999   -1.3856    0.0000 C   0  0  0  0  0  0  0  0  0  0  0  0
   -3.1999   -2.7712    0.0000 H   0  0  0  0  0  0  0  0  0  0  0  0
   -3.1999    0.0001    0.0000 C   0  0  0  0  0  0  0  0  0  0  0  0
   -2.4001    1.3856    0.0000 C   0  0  0  0  0  0  0  0  0  0  0  0
   -0.8000    1.3856    0.0000 C   0  0  0  0  0  0  0  0  0  0  0  0
    0.0001    2.7713    0.0000 H   0  0  0  0  0  0  0  0  0  0  0  0
   -3.1999    2.7712    0.0000 C   0  0  0  0  0  0  0  0  0  0  0  0
   -2.4001    4.1569    0.0000 H   0  0  0  0  0  0  0  0  0  0  0  0
   -4.8001    2.7712    0.0000 C   0  0  0  0  0  0  0  0  0  0  0  0
   -5.6001    4.1569    0.0000 H   0  0  0  0  0  0  0  0  0  0  0  0
   -5.5999    1.3856    0.0000 C   0  0  0  0  0  0  0  0  0  0  0  0
   -7.2000    1.3856    0.0000 H   0  0  0  0  0  0  0  0  0  0  0  0
   -4.8001    0.0001    0.0000 C   0  0  0  0  0  0  0  0  0  0  0  0
   -5.5999   -1.3856    0.0000 H   0  0  0  0  0  0  0  0  0  0  0  0
    0.0001   -2.7712    0.0000 C   0  0  0  0  0  0  0  0  0  0  0  0
   -0.8000   -4.1569    0.0000 H   0  0  0  0  0  0  0  0  0  0  0  0
    1.5999   -2.7712    0.0000 C   0  0  0  0  0  0  0  0  0  0  0  0
    2.4000   -4.1569    0.0000 H   0  0  0  0  0  0  0  0  0  0  0  0
    2.4000   -1.3856    0.0000 C   0  0  0  0  0  0  0  0  0  0  0  0
    4.0001   -1.3856    0.0000 C   0  0  0  0  0  0  0  0  0  0  0  0
    4.7999    0.0001    0.0000 C   0  0  0  0  0  0  0  0  0  0  0  0
    6.4001    0.0001    0.0000 C   0  0  0  0  0  0  0  0  0  0  0  0
    7.2001    1.3856    0.0000 H   0  0  0  0  0  0  0  0  0  0  0  0
    7.2001   -1.3856    0.0000 C   0  0  0  0  0  0  0  0  0  0  0  0
    8.8000   -1.3856    0.0000 H   0  0  0  0  0  0  0  0  0  0  0  0
    6.4001   -2.7712    0.0000 C   0  0  0  0  0  0  0  0  0  0  0  0
    7.2001   -4.1569    0.0000 H   0  0  0  0  0  0  0  0  0  0  0  0
    4.7999   -2.7712    0.0000 C   0  0  0  0  0  0  0  0  0  0  0  0
    4.0001   -4.1569    0.0000 H   0  0  0  0  0  0  0  0  0  0  0  0
    4.0001    1.3856    0.0000 C   0  0  0  0  0  0  0  0  0  0  0  0
    4.7999    2.7713    0.0000 H   0  0  0  0  0  0  0  0  0  0  0  0
    2.4000    1.3856    0.0000 C   0  0  0  0  0  0  0  0  0  0  0  0
    1.5999    2.7713    0.0000 H   0  0  0  0  0  0  0  0  0  0  0  0
  1  2  1  0  0  0  0
  2  3  1  0  0  0  0
  3  4  2  0  0  0  0
  4  5  1  0  0  0  0
  4  6  1  0  0  0  0
  6  7  1  0  0  0  0
  7  8  1  0  0  0  0
  8  2  2  0  0  0  0
  8  9  1  0  0  0  0
  7 10  2  0  0  0  0
 10 11  1  0  0  0  0
 10 12  1  0  0  0  0
 12 13  1  0  0  0  0
 12 14  2  0  0  0  0
 14 15  1  0  0  0  0
 14 16  1  0  0  0  0
 16  6  2  0  0  0  0
 16 17  1  0  0  0  0
  3 18  1  0  0  0  0
 18 19  1  0  0  0  0
 18 20  2  0  0  0  0
 20 21  1  0  0  0  0
 20 22  1  0  0  0  0
 22  1  1  0  0  0  0
 22 23  2  0  0  0  0
 23 24  1  0  0  0  0
 24 25  1  0  0  0  0
 25 26  1  0  0  0  0
 25 27  2  0  0  0  0
 27 28  1  0  0  0  0
 27 29  1  0  0  0  0
 29 30  1  0  0  0  0
 29 31  2  0  0  0  0
 31 23  1  0  0  0  0
 31 32  1  0  0  0  0
 24 33  2  0  0  0  0
 33 34  1  0  0  0  0
 33 35  1  0  0  0  0
 35  1  2  0  0  0  0
 35 36  1  0  0  0  0
M  END
> <ChemID>
100215

> <source_casrn>
214-17-5

> <CAS>
214-17-5

> <SMILES>
c1c2c3ccc4ccccc4c3ccc2cc2ccccc21

> <NAME>
Benzo[b]chrysene

> <preferred_name>
Benzo(b)chrysene

> <iupac>


> <MPID>
101848

> <dsstox_substance_id>
DTXSID80175664

> <Canonical_QSARr>
c1c2c3ccc4ccccc4c3ccc2cc2ccccc21

> <InChI_Code_QSARr>
InChI=1S/C22H14/c1-2-7-17-14-22-18(13-16(17)6-1)10-12-20-19-8-4-3-5-15(19)9-11-21(20)22/h1-14H

> <InChI Key_QSARr>
YYGRIGYJXSQDQB-UHFFFAOYSA-N

> <LogKmHL>
0.58

$$$$
100217
  -INDIGO-08031722222D

 30 33  0  0  0  0  0  0  0  0999 V2000
    0.0000    0.0000    0.0000 C   0  0  0  0  0  0  0  0  0  0  0  0
   -0.8000    1.3856    0.0000 C   0  0  0  0  0  0  0  0  0  0  0  0
    0.0000    2.7713    0.0000 H   0  0  0  0  0  0  0  0  0  0  0  0
   -2.4000    1.3856    0.0000 C   0  0  0  0  0  0  0  0  0  0  0  0
   -3.2000    2.7713    0.0000 H   0  0  0  0  0  0  0  0  0  0  0  0
   -3.2000    0.0000    0.0000 C   0  0  0  0  0  0  0  0  0  0  0  0
   -4.8000    0.0000    0.0000 C   0  0  0  0  0  0  0  0  0  0  0  0
   -5.6000    1.3856    0.0000 H   0  0  0  0  0  0  0  0  0  0  0  0
   -5.6000   -1.3856    0.0000 C   0  0  0  0  0  0  0  0  0  0  0  0
   -7.2000   -1.3856    0.0000 H   0  0  0  0  0  0  0  0  0  0  0  0
   -4.8000   -2.7713    0.0000 C   0  0  0  0  0  0  0  0  0  0  0  0
   -5.6000   -4.1569    0.0000 H   0  0  0  0  0  0  0  0  0  0  0  0
   -3.2000   -2.7713    0.0000 C   0  0  0  0  0  0  0  0  0  0  0  0
   -2.4000   -4.1569    0.0000 H   0  0  0  0  0  0  0  0  0  0  0  0
   -2.4000   -1.3856    0.0000 C   0  0  0  0  0  0  0  0  0  0  0  0
   -0.8000   -1.3856    0.0000 C   0  0  0  0  0  0  0  0  0  0  0  0
    0.0000   -2.7713    0.0000 C   0  0  0  0  0  0  0  0  0  0  0  0
   -0.8000   -4.1569    0.0000 H   0  0  0  0  0  0  0  0  0  0  0  0
    1.6000   -2.7713    0.0000 C   0  0  0  0  0  0  0  0  0  0  0  0
    2.4000   -4.1569    0.0000 H   0  0  0  0  0  0  0  0  0  0  0  0
    2.4000   -1.3856    0.0000 C   0  0  0  0  0  0  0  0  0  0  0  0
    1.6000    0.0000    0.0000 C   0  0  0  0  0  0  0  0  0  0  0  0
    2.4000    1.3856    0.0000 C   0  0  0  0  0  0  0  0  0  0  0  0
    1.6000    2.7713    0.0000 H   0  0  0  0  0  0  0  0  0  0  0  0
    4.0000    1.3856    0.0000 C   0  0  0  0  0  0  0  0  0  0  0  0
    4.8000    2.7713    0.0000 H   0  0  0  0  0  0  0  0  0  0  0  0
    4.8000    0.0000    0.0000 C   0  0  0  0  0  0  0  0  0  0  0  0
    6.4000    0.0000    0.0000 H   0  0  0  0  0  0  0  0  0  0  0  0
    4.0000   -1.3856    0.0000 C   0  0  0  0  0  0  0  0  0  0  0  0
    4.8000   -2.7713    0.0000 H   0  0  0  0  0  0  0  0  0  0  0  0
  1  2  1  0  0  0  0
  2  3  1  0  0  0  0
  2  4  2  0  0  0  0
  4  5  1  0  0  0  0
  4  6  1  0  0  0  0
  6  7  1  0  0  0  0
  7  8  1  0  0  0  0
  7  9  2  0  0  0  0
  9 10  1  0  0  0  0
  9 11  1  0  0  0  0
 11 12  1  0  0  0  0
 11 13  2  0  0  0  0
 13 14  1  0  0  0  0
 13 15  1  0  0  0  0
 15  6  2  0  0  0  0
 15 16  1  0  0  0  0
 16  1  1  0  0  0  0
 16 17  2  0  0  0  0
 17 18  1  0  0  0  0
 17 19  1  0  0  0  0
 19 20  1  0  0  0  0
 19 21  2  0  0  0  0
 21 22  1  0  0  0  0
 22  1  2  0  0  0  0
 22 23  1  0  0  0  0
 23 24  1  0  0  0  0
 23 25  2  0  0  0  0
 25 26  1  0  0  0  0
 25 27  1  0  0  0  0
 27 28  1  0  0  0  0
 27 29  2  0  0  0  0
 29 21  1  0  0  0  0
 29 30  1  0  0  0  0
M  END
> <ChemID>
100217

> <source_casrn>
218-01-9

> <CAS>
218-01-9

> <SMILES>
c1cc2c3ccccc3ccc2c2ccccc21

> <NAME>
Chrysene

> <preferred_name>
Chrysene

> <iupac>
chrysene

> <MPID>
101850

> <dsstox_substance_id>
DTXSID0022432

> <Canonical_QSARr>
c1cc2c3ccccc3ccc2c2ccccc21

> <InChI_Code_QSARr>
InChI=1S/C18H12/c1-3-7-15-13(5-1)9-11-18-16-8-4-2-6-14(16)10-12-17(15)18/h1-12H

> <InChI Key_QSARr>
WDECIBYCCFPHNR-UHFFFAOYSA-N

> <LogKmHL>
0.59

$$$$
100218
  -INDIGO-08031722222D

 35 39  0  0  0  0  0  0  0  0999 V2000
    0.0000   -0.0001    0.0000 C   0  0  0  0  0  0  0  0  0  0  0  0
    1.6001    0.0001    0.0000 C   0  0  0  0  0  0  0  0  0  0  0  0
    2.3999    1.3856    0.0000 C   0  0  0  0  0  0  0  0  0  0  0  0
    4.0001    1.3856    0.0000 C   0  0  0  0  0  0  0  0  0  0  0  0
    4.8001    2.7712    0.0000 H   0  0  0  0  0  0  0  0  0  0  0  0
    4.8001   -0.0001    0.0000 C   0  0  0  0  0  0  0  0  0  0  0  0
    6.4000   -0.0001    0.0000 H   0  0  0  0  0  0  0  0  0  0  0  0
    4.0001   -1.3856    0.0000 C   0  0  0  0  0  0  0  0  0  0  0  0
    4.8001   -2.7712    0.0000 H   0  0  0  0  0  0  0  0  0  0  0  0
    2.3999   -1.3856    0.0000 C   0  0  0  0  0  0  0  0  0  0  0  0
    1.6001   -2.7712    0.0000 H   0  0  0  0  0  0  0  0  0  0  0  0
    1.6001    2.7712    0.0000 C   0  0  0  0  0  0  0  0  0  0  0  0
    2.3999    4.1569    0.0000 H   0  0  0  0  0  0  0  0  0  0  0  0
    0.0000    2.7712    0.0000 C   0  0  0  0  0  0  0  0  0  0  0  0
   -0.8001    4.1569    0.0000 H   0  0  0  0  0  0  0  0  0  0  0  0
   -0.8001    1.3856    0.0000 C   0  0  0  0  0  0  0  0  0  0  0  0
   -2.3999    1.3856    0.0000 N   0  0  0  0  0  0  0  0  0  0  0  0
   -3.2000    0.0001    0.0000 C   0  0  0  0  0  0  0  0  0  0  0  0
   -4.7999   -0.0001    0.0000 C   0  0  0  0  0  0  0  0  0  0  0  0
   -5.5999   -1.3856    0.0000 C   0  0  0  0  0  0  0  0  0  0  0  0
   -4.8001   -2.7712    0.0000 C   0  0  0  0  0  0  0  0  0  0  0  0
   -5.5999   -4.1569    0.0000 H   0  0  0  0  0  0  0  0  0  0  0  0
   -3.2000   -2.7712    0.0000 C   0  0  0  0  0  0  0  0  0  0  0  0
   -2.3999   -4.1569    0.0000 H   0  0  0  0  0  0  0  0  0  0  0  0
   -2.3999   -1.3856    0.0000 C   0  0  0  0  0  0  0  0  0  0  0  0
   -0.8001   -1.3856    0.0000 C   0  0  0  0  0  0  0  0  0  0  0  0
    0.0000   -2.7713    0.0000 H   0  0  0  0  0  0  0  0  0  0  0  0
   -7.2001   -1.3856    0.0000 C   0  0  0  0  0  0  0  0  0  0  0  0
   -8.0001   -2.7713    0.0000 H   0  0  0  0  0  0  0  0  0  0  0  0
   -7.9999   -0.0001    0.0000 C   0  0  0  0  0  0  0  0  0  0  0  0
   -9.6000   -0.0001    0.0000 H   0  0  0  0  0  0  0  0  0  0  0  0
   -7.2001    1.3856    0.0000 C   0  0  0  0  0  0  0  0  0  0  0  0
   -8.0001    2.7712    0.0000 H   0  0  0  0  0  0  0  0  0  0  0  0
   -5.5999    1.3856    0.0000 C   0  0  0  0  0  0  0  0  0  0  0  0
   -4.8001    2.7712    0.0000 H   0  0  0  0  0  0  0  0  0  0  0  0
  1  2  1  0  0  0  0
  2  3  1  0  0  0  0
  3  4  2  0  0  0  0
  4  5  1  0  0  0  0
  4  6  1  0  0  0  0
  6  7  1  0  0  0  0
  6  8  2  0  0  0  0
  8  9  1  0  0  0  0
  8 10  1  0  0  0  0
 10  2  2  0  0  0  0
 10 11  1  0  0  0  0
  3 12  1  0  0  0  0
 12 13  1  0  0  0  0
 12 14  2  0  0  0  0
 14 15  1  0  0  0  0
 14 16  1  0  0  0  0
 16  1  1  0  0  0  0
 16 17  2  0  0  0  0
 17 18  1  0  0  0  0
 18 19  1  0  0  0  0
 19 20  1  0  0  0  0
 20 21  1  0  0  0  0
 21 22  1  0  0  0  0
 21 23  2  0  0  0  0
 23 24  1  0  0  0  0
 23 25  1  0  0  0  0
 25 18  2  0  0  0  0
 25 26  1  0  0  0  0
 26  1  2  0  0  0  0
 26 27  1  0  0  0  0
 20 28  2  0  0  0  0
 28 29  1  0  0  0  0
 28 30  1  0  0  0  0
 30 31  1  0  0  0  0
 30 32  2  0  0  0  0
 32 33  1  0  0  0  0
 32 34  1  0  0  0  0
 34 19  2  0  0  0  0
 34 35  1  0  0  0  0
M  END
> <ChemID>
100218

> <source_casrn>
226-36-8

> <CAS>
226-36-8

> <SMILES>
c1c2c(ccc3ccccc32)[n]c2c3ccccc3ccc21

> <NAME>
Dibenz(a,h)acridine

> <preferred_name>
Dibenz[a,h]acridine

> <iupac>


> <MPID>
101851

> <dsstox_substance_id>
DTXSID3059761

> <Canonical_QSARr>
c1c2c(ccc3ccccc32)[n]c2c3ccccc3ccc21

> <InChI_Code_QSARr>
InChI=1S/C21H13N/c1-3-7-17-14(5-1)11-12-20-19(17)13-16-10-9-15-6-2-4-8-18(15)21(16)22-20/h1-13H

> <InChI Key_QSARr>
JNCSIWAONQTVCF-UHFFFAOYSA-N

> <LogKmHL>
-0.14

$$$$
100219
  -INDIGO-08031722222D

 29 32  0  0  0  0  0  0  0  0999 V2000
   -0.0001    1.6000    0.0000 C   0  0  0  0  0  0  0  0  0  0  0  0
   -1.5217    2.0944    0.0000 C   0  0  0  0  0  0  0  0  0  0  0  0
   -2.4622    0.8000    0.0000 C   0  0  0  0  0  0  0  0  0  0  0  0
   -4.0534    0.9672    0.0000 C   0  0  0  0  0  0  0  0  0  0  0  0
   -4.9939   -0.3272    0.0000 H   0  0  0  0  0  0  0  0  0  0  0  0
   -4.7042    2.4289    0.0000 C   0  0  0  0  0  0  0  0  0  0  0  0
   -6.2954    2.5961    0.0000 H   0  0  0  0  0  0  0  0  0  0  0  0
   -3.7637    3.7233    0.0000 C   0  0  0  0  0  0  0  0  0  0  0  0
   -4.4144    5.1850    0.0000 H   0  0  0  0  0  0  0  0  0  0  0  0
   -2.1724    3.5561    0.0000 C   0  0  0  0  0  0  0  0  0  0  0  0
   -1.2319    4.8505    0.0000 H   0  0  0  0  0  0  0  0  0  0  0  0
   -1.5217   -0.4945    0.0000 C   0  0  0  0  0  0  0  0  0  0  0  0
   -2.9073   -1.2945    0.0000 H   0  0  0  0  0  0  0  0  0  0  0  0
   -0.8710   -1.9561    0.0000 H   0  0  0  0  0  0  0  0  0  0  0  0
   -0.0001   -0.0000    0.0000 C   0  0  0  0  0  0  0  0  0  0  0  0
    1.3857   -0.8000    0.0000 C   0  0  0  0  0  0  0  0  0  0  0  0
    1.3857   -2.4000    0.0000 H   0  0  0  0  0  0  0  0  0  0  0  0
    2.7714   -0.0000    0.0000 C   0  0  0  0  0  0  0  0  0  0  0  0
    2.7714    1.6000    0.0000 C   0  0  0  0  0  0  0  0  0  0  0  0
    4.1570    2.4000    0.0000 C   0  0  0  0  0  0  0  0  0  0  0  0
    4.1570    4.0000    0.0000 H   0  0  0  0  0  0  0  0  0  0  0  0
    5.5426    1.6000    0.0000 C   0  0  0  0  0  0  0  0  0  0  0  0
    6.9282    2.4000    0.0000 H   0  0  0  0  0  0  0  0  0  0  0  0
    5.5426   -0.0000    0.0000 C   0  0  0  0  0  0  0  0  0  0  0  0
    6.9282   -0.8000    0.0000 H   0  0  0  0  0  0  0  0  0  0  0  0
    4.1570   -0.8000    0.0000 C   0  0  0  0  0  0  0  0  0  0  0  0
    4.1570   -2.4000    0.0000 H   0  0  0  0  0  0  0  0  0  0  0  0
    1.3857    2.4000    0.0000 C   0  0  0  0  0  0  0  0  0  0  0  0
    1.3857    4.0000    0.0000 H   0  0  0  0  0  0  0  0  0  0  0  0
  1  2  1  0  0  0  0
  2  3  1  0  0  0  0
  3  4  2  0  0  0  0
  4  5  1  0  0  0  0
  4  6  1  0  0  0  0
  6  7  1  0  0  0  0
  6  8  2  0  0  0  0
  8  9  1  0  0  0  0
  8 10  1  0  0  0  0
 10  2  2  0  0  0  0
 10 11  1  0  0  0  0
  3 12  1  0  0  0  0
 12 13  1  0  0  0  0
 12 14  1  0  0  0  0
 12 15  1  0  0  0  0
 15  1  1  0  0  0  0
 15 16  2  0  0  0  0
 16 17  1  0  0  0  0
 16 18  1  0  0  0  0
 18 19  1  0  0  0  0
 19 20  2  0  0  0  0
 20 21  1  0  0  0  0
 20 22  1  0  0  0  0
 22 23  1  0  0  0  0
 22 24  2  0  0  0  0
 24 25  1  0  0  0  0
 24 26  1  0  0  0  0
 26 18  2  0  0  0  0
 26 27  1  0  0  0  0
 19 28  1  0  0  0  0
 28  1  2  0  0  0  0
 28 29  1  0  0  0  0
M  END
> <ChemID>
100219

> <source_casrn>
243-17-4

> <CAS>
243-17-4

> <SMILES>
C1c2ccccc2-c2cc3ccccc3cc21

> <NAME>
Benzo(b)fluorene

> <preferred_name>
2,3-Benzofluorene

> <iupac>
11H-benzo[b]fluorene

> <MPID>
101852

> <dsstox_substance_id>
DTXSID1022477

> <Canonical_QSARr>
C1c2ccccc2-c2cc3ccccc3cc21

> <InChI_Code_QSARr>
InChI=1S/C17H12/c1-2-6-13-11-17-15(9-12(13)5-1)10-14-7-3-4-8-16(14)17/h1-9,11H,10H2

> <InChI Key_QSARr>
HAPOJKSPCGLOOD-UHFFFAOYSA-N

> <LogKmHL>
-0.39

$$$$
100221
  -INDIGO-08031722222D

 26 26  0  0  0  0  0  0  0  0999 V2000
    0.0000    1.6000    0.0000 S   0  0  0  0  0  0  0  0  0  0  0  0
    0.0000   -0.0000    0.0000 P   0  0  0  0  0  0  0  0  0  0  0  0
    1.3857    0.8000    0.0000 O   0  0  0  0  0  0  0  0  0  0  0  0
    2.7712   -0.0000    0.0000 C   0  0  0  0  0  0  0  0  0  0  0  0
    2.7712   -1.6000    0.0000 C   0  0  0  0  0  0  0  0  0  0  0  0
    1.3857   -2.4000    0.0000 H   0  0  0  0  0  0  0  0  0  0  0  0
    4.1569   -2.4000    0.0000 C   0  0  0  0  0  0  0  0  0  0  0  0
    4.1569   -4.0000    0.0000 H   0  0  0  0  0  0  0  0  0  0  0  0
    5.5426   -1.6000    0.0000 C   0  0  0  0  0  0  0  0  0  0  0  0
    6.9281   -2.4000    0.0000 N   0  0  0  0  0  0  0  0  0  0  0  0
    8.3138   -1.6000    0.0000 O   0  0  0  0  0  0  0  0  0  0  0  0
    6.9281   -4.0000    0.0000 O   0  0  0  0  0  0  0  0  0  0  0  0
    5.5426   -0.0000    0.0000 C   0  0  0  0  0  0  0  0  0  0  0  0
    6.9281    0.8000    0.0000 H   0  0  0  0  0  0  0  0  0  0  0  0
    4.1569    0.8000    0.0000 C   0  0  0  0  0  0  0  0  0  0  0  0
    4.1569    2.4000    0.0000 H   0  0  0  0  0  0  0  0  0  0  0  0
   -1.3857    0.8000    0.0000 O   0  0  0  0  0  0  0  0  0  0  0  0
   -2.7712   -0.0000    0.0000 C   0  0  0  0  0  0  0  0  0  0  0  0
   -4.1569    0.8000    0.0000 H   0  0  0  0  0  0  0  0  0  0  0  0
   -4.1569   -0.8000    0.0000 H   0  0  0  0  0  0  0  0  0  0  0  0
   -2.7712    1.6000    0.0000 H   0  0  0  0  0  0  0  0  0  0  0  0
   -1.3857   -0.8000    0.0000 O   0  0  0  0  0  0  0  0  0  0  0  0
   -1.3857   -2.4000    0.0000 C   0  0  0  0  0  0  0  0  0  0  0  0
   -1.3857   -4.0000    0.0000 H   0  0  0  0  0  0  0  0  0  0  0  0
   -2.7712   -3.2000    0.0000 H   0  0  0  0  0  0  0  0  0  0  0  0
    0.0000   -3.2000    0.0000 H   0  0  0  0  0  0  0  0  0  0  0  0
  1  2  2  0  0  0  0
  2  3  1  0  0  0  0
  3  4  1  0  0  0  0
  4  5  1  0  0  0  0
  5  6  1  0  0  0  0
  5  7  2  0  0  0  0
  7  8  1  0  0  0  0
  7  9  1  0  0  0  0
  9 10  1  0  0  0  0
 10 11  2  0  0  0  0
 10 12  1  0  0  0  0
  9 13  2  0  0  0  0
 13 14  1  0  0  0  0
 13 15  1  0  0  0  0
 15  4  2  0  0  0  0
 15 16  1  0  0  0  0
  2 17  1  0  0  0  0
 17 18  1  0  0  0  0
 18 19  1  0  0  0  0
 18 20  1  0  0  0  0
 18 21  1  0  0  0  0
  2 22  1  0  0  0  0
 22 23  1  0  0  0  0
 23 24  1  0  0  0  0
 23 25  1  0  0  0  0
 23 26  1  0  0  0  0
M  CHG  2  10   1  12  -1
M  END
> <ChemID>
100221

> <source_casrn>
298-00-0

> <CAS>
298-00-0

> <SMILES>
COP(=S)(Oc1ccc(cc1)[N+]([O-])=O)OC

> <NAME>
Methyl parathion

> <preferred_name>
Methyl parathion

> <iupac>
O,O-dimethyl O-(4-nitrophenyl) phosphorothioate

> <MPID>
101854

> <dsstox_substance_id>
DTXSID1020855

> <Canonical_QSARr>
COP(=S)(Oc1ccc(cc1)[N+]([O-])=O)OC

> <InChI_Code_QSARr>
InChI=1S/C8H10NO5PS/c1-12-15(16,13-2)14-8-5-3-7(4-6-8)9(10)11/h3-6H,1-2H3

> <InChI Key_QSARr>
RLBIQVVOMOPOHC-UHFFFAOYSA-N

> <LogKmHL>
0.55

$$$$
100222
  -INDIGO-08031722222D

 33 32  0  0  0  0  0  0  0  0999 V2000
    2.7714    3.2001    0.0000 C   0  0  0  0  0  0  0  0  0  0  0  0
    4.1569    4.0000    0.0000 H   0  0  0  0  0  0  0  0  0  0  0  0
    2.7714    4.8000    0.0000 H   0  0  0  0  0  0  0  0  0  0  0  0
    4.1569    2.4000    0.0000 H   0  0  0  0  0  0  0  0  0  0  0  0
    1.3856    2.4000    0.0000 C   0  0  0  0  0  0  0  0  0  0  0  0
    0.4116    3.6694    0.0000 H   0  0  0  0  0  0  0  0  0  0  0  0
   -0.2008    2.6089    0.0000 H   0  0  0  0  0  0  0  0  0  0  0  0
    1.3856    0.8000    0.0000 O   0  0  0  0  0  0  0  0  0  0  0  0
    0.0001    0.0001    0.0000 P   0  0  0  0  0  0  0  0  0  0  0  0
    1.3856   -0.8000    0.0000 O   0  0  0  0  0  0  0  0  0  0  0  0
    1.3856   -2.4000    0.0000 C   0  0  0  0  0  0  0  0  0  0  0  0
   -0.2008   -2.6089    0.0000 H   0  0  0  0  0  0  0  0  0  0  0  0
    0.4116   -3.6694    0.0000 H   0  0  0  0  0  0  0  0  0  0  0  0
    2.7714   -3.2001    0.0000 C   0  0  0  0  0  0  0  0  0  0  0  0
    4.1569   -4.0000    0.0000 H   0  0  0  0  0  0  0  0  0  0  0  0
    2.7714   -4.8000    0.0000 H   0  0  0  0  0  0  0  0  0  0  0  0
    4.1569   -2.4000    0.0000 H   0  0  0  0  0  0  0  0  0  0  0  0
    0.0001   -1.6000    0.0000 S   0  0  0  0  0  0  0  0  0  0  0  0
   -1.3856    0.8000    0.0000 S   0  0  0  0  0  0  0  0  0  0  0  0
   -2.7712    0.0001    0.0000 C   0  0  0  0  0  0  0  0  0  0  0  0
   -3.3835   -1.4783    0.0000 H   0  0  0  0  0  0  0  0  0  0  0  0
   -2.1591   -1.4783    0.0000 H   0  0  0  0  0  0  0  0  0  0  0  0
   -4.1569    0.8000    0.0000 C   0  0  0  0  0  0  0  0  0  0  0  0
   -3.5446    2.2782    0.0000 H   0  0  0  0  0  0  0  0  0  0  0  0
   -4.7692    2.2782    0.0000 H   0  0  0  0  0  0  0  0  0  0  0  0
   -5.5425    0.0001    0.0000 S   0  0  0  0  0  0  0  0  0  0  0  0
   -6.9282    0.8000    0.0000 C   0  0  0  0  0  0  0  0  0  0  0  0
   -6.3159    2.2782    0.0000 H   0  0  0  0  0  0  0  0  0  0  0  0
   -7.5405    2.2782    0.0000 H   0  0  0  0  0  0  0  0  0  0  0  0
   -8.3137    0.0001    0.0000 C   0  0  0  0  0  0  0  0  0  0  0  0
   -9.6995   -0.8000    0.0000 H   0  0  0  0  0  0  0  0  0  0  0  0
   -9.6995    0.8000    0.0000 H   0  0  0  0  0  0  0  0  0  0  0  0
   -8.3137   -1.6000    0.0000 H   0  0  0  0  0  0  0  0  0  0  0  0
  1  2  1  0  0  0  0
  1  3  1  0  0  0  0
  1  4  1  0  0  0  0
  1  5  1  0  0  0  0
  5  6  1  0  0  0  0
  5  7  1  0  0  0  0
  5  8  1  0  0  0  0
  8  9  1  0  0  0  0
  9 10  1  0  0  0  0
 10 11  1  0  0  0  0
 11 12  1  0  0  0  0
 11 13  1  0  0  0  0
 11 14  1  0  0  0  0
 14 15  1  0  0  0  0
 14 16  1  0  0  0  0
 14 17  1  0  0  0  0
  9 18  2  0  0  0  0
  9 19  1  0  0  0  0
 19 20  1  0  0  0  0
 20 21  1  0  0  0  0
 20 22  1  0  0  0  0
 20 23  1  0  0  0  0
 23 24  1  0  0  0  0
 23 25  1  0  0  0  0
 23 26  1  0  0  0  0
 26 27  1  0  0  0  0
 27 28  1  0  0  0  0
 27 29  1  0  0  0  0
 27 30  1  0  0  0  0
 30 31  1  0  0  0  0
 30 32  1  0  0  0  0
 30 33  1  0  0  0  0
M  END
> <ChemID>
100222

> <source_casrn>
298-04-4

> <CAS>
298-04-4

> <SMILES>
CCSCCSP(=S)(OCC)OCC

> <NAME>
Disulfoton

> <preferred_name>
Disulfoton

> <iupac>
O,O-diethyl S-[2-(ethylsulfanyl)ethyl] phosphorodithioate

> <MPID>
101855

> <dsstox_substance_id>
DTXSID0022018

> <Canonical_QSARr>
CCSCCSP(=S)(OCC)OCC

> <InChI_Code_QSARr>
InChI=1S/C8H19O2PS3/c1-4-9-11(12,10-5-2)14-8-7-13-6-3/h4-8H2,1-3H3

> <InChI Key_QSARr>
DOFZAZXDOSGAJZ-UHFFFAOYSA-N

> <LogKmHL>
0.03

$$$$
100223
  -INDIGO-08031722222D

 24 24  0  0  0  0  0  0  0  0999 V2000
    0.0001   -0.0000    0.0000 P   0  0  0  0  0  0  0  0  0  0  0  0
    1.3857    0.8000    0.0000 O   0  0  0  0  0  0  0  0  0  0  0  0
    2.7712   -0.0000    0.0000 C   0  0  0  0  0  0  0  0  0  0  0  0
    2.7712   -1.6000    0.0000 C   0  0  0  0  0  0  0  0  0  0  0  0
    1.3856   -2.4000    0.0000 H   0  0  0  0  0  0  0  0  0  0  0  0
    4.1569   -2.4000    0.0000 C   0  0  0  0  0  0  0  0  0  0  0  0
    4.1569   -4.0000    0.0000 Cl  0  0  0  0  0  0  0  0  0  0  0  0
    5.5425   -1.6000    0.0000 C   0  0  0  0  0  0  0  0  0  0  0  0
    6.9282   -2.4000    0.0000 Cl  0  0  0  0  0  0  0  0  0  0  0  0
    5.5425   -0.0000    0.0000 C   0  0  0  0  0  0  0  0  0  0  0  0
    6.9282    0.8000    0.0000 H   0  0  0  0  0  0  0  0  0  0  0  0
    4.1569    0.8000    0.0000 C   0  0  0  0  0  0  0  0  0  0  0  0
    4.1569    2.4000    0.0000 Cl  0  0  0  0  0  0  0  0  0  0  0  0
    0.0001    1.6000    0.0000 S   0  0  0  0  0  0  0  0  0  0  0  0
   -1.3856    0.8000    0.0000 O   0  0  0  0  0  0  0  0  0  0  0  0
   -2.7713   -0.0000    0.0000 C   0  0  0  0  0  0  0  0  0  0  0  0
   -4.1569    0.8000    0.0000 H   0  0  0  0  0  0  0  0  0  0  0  0
   -4.1569   -0.8000    0.0000 H   0  0  0  0  0  0  0  0  0  0  0  0
   -2.7713    1.6000    0.0000 H   0  0  0  0  0  0  0  0  0  0  0  0
   -1.3856   -0.8000    0.0000 O   0  0  0  0  0  0  0  0  0  0  0  0
   -1.3856   -2.4000    0.0000 C   0  0  0  0  0  0  0  0  0  0  0  0
   -1.3856   -4.0000    0.0000 H   0  0  0  0  0  0  0  0  0  0  0  0
   -2.7713   -3.2000    0.0000 H   0  0  0  0  0  0  0  0  0  0  0  0
    0.0001   -3.2000    0.0000 H   0  0  0  0  0  0  0  0  0  0  0  0
  1  2  1  0  0  0  0
  2  3  1  0  0  0  0
  3  4  1  0  0  0  0
  4  5  1  0  0  0  0
  4  6  2  0  0  0  0
  6  7  1  0  0  0  0
  6  8  1  0  0  0  0
  8  9  1  0  0  0  0
  8 10  2  0  0  0  0
 10 11  1  0  0  0  0
 10 12  1  0  0  0  0
 12  3  2  0  0  0  0
 12 13  1  0  0  0  0
  1 14  2  0  0  0  0
  1 15  1  0  0  0  0
 15 16  1  0  0  0  0
 16 17  1  0  0  0  0
 16 18  1  0  0  0  0
 16 19  1  0  0  0  0
  1 20  1  0  0  0  0
 20 21  1  0  0  0  0
 21 22  1  0  0  0  0
 21 23  1  0  0  0  0
 21 24  1  0  0  0  0
M  END
> <ChemID>
100223

> <source_casrn>
299-84-3

> <CAS>
299-84-3

> <SMILES>
COP(=S)(OC)Oc1cc(Cl)c(Cl)cc1Cl

> <NAME>
Phosphorothioic acid, O,O-Dimethyl O-(2,4,5-tric

> <preferred_name>
Fenchlorphos

> <iupac>
O,O-dimethyl O-(2,4,5-trichlorophenyl) phosphorothioate

> <MPID>
101856

> <dsstox_substance_id>
DTXSID2034885

> <Canonical_QSARr>
COP(=S)(Oc1cc(Cl)c(Cl)cc1Cl)OC

> <InChI_Code_QSARr>
InChI=1S/C8H8Cl3O3PS/c1-12-15(16,13-2)14-8-4-6(10)5(9)3-7(8)11/h3-4H,1-2H3

> <InChI Key_QSARr>
JHJOOSLFWRRSGU-UHFFFAOYSA-N

> <LogKmHL>
0.95

$$$$
100225
  -INDIGO-08031722222D

 27 27  0  0  0  0  0  0  0  0999 V2000
    4.8001    2.7713    0.0000 Br  0  0  0  0  0  0  0  0  0  0  0  0
    4.0000    1.3857    0.0000 C   0  0  0  0  0  0  0  0  0  0  0  0
    4.8001   -0.0000    0.0000 C   0  0  0  0  0  0  0  0  0  0  0  0
    6.4000   -0.0000    0.0000 C   0  0  0  0  0  0  0  0  0  0  0  0
    8.0000   -0.0000    0.0000 H   0  0  0  0  0  0  0  0  0  0  0  0
    7.2001   -1.3857    0.0000 H   0  0  0  0  0  0  0  0  0  0  0  0
    7.2001    1.3857    0.0000 H   0  0  0  0  0  0  0  0  0  0  0  0
    4.0000   -1.3857    0.0000 N   0  0  0  0  0  0  0  0  0  0  0  0
    4.8001   -2.7713    0.0000 H   0  0  0  0  0  0  0  0  0  0  0  0
    2.3999   -1.3857    0.0000 C   0  0  0  0  0  0  0  0  0  0  0  0
    1.6000   -2.7713    0.0000 O   0  0  0  0  0  0  0  0  0  0  0  0
    1.6000   -0.0000    0.0000 N   0  0  0  0  0  0  0  0  0  0  0  0
   -0.0001   -0.0000    0.0000 C   0  0  0  0  0  0  0  0  0  0  0  0
   -0.0001   -1.6000    0.0000 H   0  0  0  0  0  0  0  0  0  0  0  0
   -0.0001    1.6000    0.0000 C   0  0  0  0  0  0  0  0  0  0  0  0
   -1.3856    2.4000    0.0000 H   0  0  0  0  0  0  0  0  0  0  0  0
   -0.0001    3.2000    0.0000 H   0  0  0  0  0  0  0  0  0  0  0  0
   -1.3856    0.8000    0.0000 H   0  0  0  0  0  0  0  0  0  0  0  0
   -1.3856   -0.8000    0.0000 C   0  0  0  0  0  0  0  0  0  0  0  0
   -2.3597    0.4694    0.0000 H   0  0  0  0  0  0  0  0  0  0  0  0
   -2.9720   -0.5911    0.0000 H   0  0  0  0  0  0  0  0  0  0  0  0
   -1.3856   -2.4000    0.0000 C   0  0  0  0  0  0  0  0  0  0  0  0
   -1.3856   -4.0000    0.0000 H   0  0  0  0  0  0  0  0  0  0  0  0
   -2.7712   -3.2000    0.0000 H   0  0  0  0  0  0  0  0  0  0  0  0
   -0.0001   -3.2000    0.0000 H   0  0  0  0  0  0  0  0  0  0  0  0
    2.3999    1.3857    0.0000 C   0  0  0  0  0  0  0  0  0  0  0  0
    1.6000    2.7713    0.0000 O   0  0  0  0  0  0  0  0  0  0  0  0
  1  2  1  0  0  0  0
  2  3  2  0  0  0  0
  3  4  1  0  0  0  0
  4  5  1  0  0  0  0
  4  6  1  0  0  0  0
  4  7  1  0  0  0  0
  3  8  1  0  0  0  0
  8  9  1  0  0  0  0
  8 10  1  0  0  0  0
 10 11  2  0  0  0  0
 10 12  1  0  0  0  0
 12 13  1  0  0  0  0
 13 14  1  0  0  0  0
 13 15  1  0  0  0  0
 15 16  1  0  0  0  0
 15 17  1  0  0  0  0
 15 18  1  0  0  0  0
 13 19  1  0  0  0  0
 19 20  1  0  0  0  0
 19 21  1  0  0  0  0
 19 22  1  0  0  0  0
 22 23  1  0  0  0  0
 22 24  1  0  0  0  0
 22 25  1  0  0  0  0
 12 26  1  0  0  0  0
 26  2  1  0  0  0  0
 26 27  2  0  0  0  0
M  END
> <ChemID>
100225

> <source_casrn>
314-40-9

> <CAS>
314-40-9

> <SMILES>
N1C(=O)N(C(C)CC)C(=O)C(Br)=C1C

> <NAME>
2,4(1H,3H)-Pyrimidinedione, 5-bromo-6-methyl-3-(

> <preferred_name>
Bromacil

> <iupac>
5-bromo-3-(butan-2-yl)-6-methylpyrimidine-2,4(1H,3H)-dione

> <MPID>
101858

> <dsstox_substance_id>
DTXSID4022020

> <Canonical_QSARr>
CC1NC(=O)N(C(C)CC)C(=O)C=1Br

> <InChI_Code_QSARr>
InChI=1S/C9H13BrN2O2/c1-4-5(2)12-8(13)7(10)6(3)11-9(12)14/h5H,4H2,1-3H3,(H,11,14)

> <InChI Key_QSARr>
CTSLUCNDVMMDHG-UHFFFAOYSA-N

> <LogKmHL>
-1.33

$$$$
100229
  -INDIGO-08031722222D

 15 15  0  0  0  0  0  0  0  0999 V2000
    2.4001    1.3856    0.0000 C   0  0  0  0  0  0  0  0  0  0  0  0
    3.2000    2.7713    0.0000 H   0  0  0  0  0  0  0  0  0  0  0  0
    0.7999    1.3856    0.0000 C   0  0  0  0  0  0  0  0  0  0  0  0
    0.0000    2.7713    0.0000 Cl  0  0  0  0  0  0  0  0  0  0  0  0
    0.0000    0.0000    0.0000 C   0  0  0  0  0  0  0  0  0  0  0  0
   -1.6000    0.0000    0.0000 C   0  0  0  0  0  0  0  0  0  0  0  0
   -3.2000    0.0000    0.0000 F   0  0  0  0  0  0  0  0  0  0  0  0
   -2.4001   -1.3856    0.0000 F   0  0  0  0  0  0  0  0  0  0  0  0
   -2.4001    1.3856    0.0000 F   0  0  0  0  0  0  0  0  0  0  0  0
    0.8001   -1.3856    0.0000 C   0  0  0  0  0  0  0  0  0  0  0  0
    0.0000   -2.7713    0.0000 H   0  0  0  0  0  0  0  0  0  0  0  0
    2.4001   -1.3856    0.0000 C   0  0  0  0  0  0  0  0  0  0  0  0
    3.2000   -2.7713    0.0000 H   0  0  0  0  0  0  0  0  0  0  0  0
    3.2000   -0.0000    0.0000 C   0  0  0  0  0  0  0  0  0  0  0  0
    4.8000    0.0000    0.0000 Cl  0  0  0  0  0  0  0  0  0  0  0  0
  1  2  1  0  0  0  0
  1  3  1  0  0  0  0
  3  4  1  0  0  0  0
  3  5  2  0  0  0  0
  5  6  1  0  0  0  0
  6  7  1  0  0  0  0
  6  8  1  0  0  0  0
  6  9  1  0  0  0  0
  5 10  1  0  0  0  0
 10 11  1  0  0  0  0
 10 12  2  0  0  0  0
 12 13  1  0  0  0  0
 12 14  1  0  0  0  0
 14  1  2  0  0  0  0
 14 15  1  0  0  0  0
M  END
> <ChemID>
100229

> <source_casrn>
320-60-5

> <CAS>
320-60-5

> <SMILES>
FC(F)(F)c1ccc(Cl)cc1Cl

> <NAME>
2,4-Dichloro-1-(trifluoromethyl)benzene

> <preferred_name>
2,4-Dichlorobenzotrifluoride

> <iupac>
2,4-dichloro-1-(trifluoromethyl)benzene

> <MPID>
101862

> <dsstox_substance_id>
DTXSID0047959

> <Canonical_QSARr>
FC(F)(F)c1ccc(Cl)cc1Cl

> <InChI_Code_QSARr>
InChI=1S/C7H3Cl2F3/c8-4-1-2-5(6(9)3-4)7(10,11)12/h1-3H

> <InChI Key_QSARr>
KALSHRGEFLVFHE-UHFFFAOYSA-N

> <LogKmHL>
1.81

$$$$
100230
  -INDIGO-08031722222D

 15 15  0  0  0  0  0  0  0  0999 V2000
    3.2000   -0.0000    0.0000 C   0  0  0  0  0  0  0  0  0  0  0  0
    2.4001    1.3856    0.0000 C   0  0  0  0  0  0  0  0  0  0  0  0
    3.2000    2.7713    0.0000 H   0  0  0  0  0  0  0  0  0  0  0  0
    0.7999    1.3856    0.0000 C   0  0  0  0  0  0  0  0  0  0  0  0
    0.0000    2.7713    0.0000 H   0  0  0  0  0  0  0  0  0  0  0  0
    0.0000   -0.0000    0.0000 C   0  0  0  0  0  0  0  0  0  0  0  0
   -1.6000   -0.0000    0.0000 C   0  0  0  0  0  0  0  0  0  0  0  0
   -3.2000   -0.0000    0.0000 F   0  0  0  0  0  0  0  0  0  0  0  0
   -2.4001   -1.3856    0.0000 F   0  0  0  0  0  0  0  0  0  0  0  0
   -2.4001    1.3856    0.0000 F   0  0  0  0  0  0  0  0  0  0  0  0
    0.7999   -1.3856    0.0000 C   0  0  0  0  0  0  0  0  0  0  0  0
    0.0000   -2.7713    0.0000 H   0  0  0  0  0  0  0  0  0  0  0  0
    2.4001   -1.3856    0.0000 C   0  0  0  0  0  0  0  0  0  0  0  0
    3.2000   -2.7713    0.0000 Cl  0  0  0  0  0  0  0  0  0  0  0  0
    4.8000   -0.0000    0.0000 Cl  0  0  0  0  0  0  0  0  0  0  0  0
  1  2  1  0  0  0  0
  2  3  1  0  0  0  0
  2  4  2  0  0  0  0
  4  5  1  0  0  0  0
  4  6  1  0  0  0  0
  6  7  1  0  0  0  0
  7  8  1  0  0  0  0
  7  9  1  0  0  0  0
  7 10  1  0  0  0  0
  6 11  2  0  0  0  0
 11 12  1  0  0  0  0
 11 13  1  0  0  0  0
 13  1  2  0  0  0  0
 13 14  1  0  0  0  0
  1 15  1  0  0  0  0
M  END
> <ChemID>
100230

> <source_casrn>
328-84-7

> <CAS>
328-84-7

> <SMILES>
FC(F)(F)c1cc(Cl)c(Cl)cc1

> <NAME>
3,4-dichlorobenzotrifluoride

> <preferred_name>
1,2-Dichloro-4-(trifluoromethyl)benzene

> <iupac>
1,2-dichloro-4-(trifluoromethyl)benzene

> <MPID>
101863

> <dsstox_substance_id>
DTXSID5027142

> <Canonical_QSARr>
FC(F)(F)c1cc(Cl)c(Cl)cc1

> <InChI_Code_QSARr>
InChI=1S/C7H3Cl2F3/c8-5-2-1-4(3-6(5)9)7(10,11)12/h1-3H

> <InChI Key_QSARr>
XILPLWOGHPSJBK-UHFFFAOYSA-N

> <LogKmHL>
1.52

$$$$
100232
  -INDIGO-08031722222D

 25 25  0  0  0  0  0  0  0  0999 V2000
    2.3999   -1.3856    0.0000 C   0  0  0  0  0  0  0  0  0  0  0  0
    1.6001    0.0000    0.0000 N   0  0  0  0  0  0  0  0  0  0  0  0
    2.3999    1.3856    0.0000 H   0  0  0  0  0  0  0  0  0  0  0  0
    0.0001    0.0000    0.0000 C   0  0  0  0  0  0  0  0  0  0  0  0
   -0.7999    1.3856    0.0000 C   0  0  0  0  0  0  0  0  0  0  0  0
    0.0001    2.7713    0.0000 H   0  0  0  0  0  0  0  0  0  0  0  0
   -2.4000    1.3856    0.0000 C   0  0  0  0  0  0  0  0  0  0  0  0
   -3.2000    2.7713    0.0000 Cl  0  0  0  0  0  0  0  0  0  0  0  0
   -3.2000    0.0000    0.0000 C   0  0  0  0  0  0  0  0  0  0  0  0
   -4.8000    0.0000    0.0000 Cl  0  0  0  0  0  0  0  0  0  0  0  0
   -2.4000   -1.3856    0.0000 C   0  0  0  0  0  0  0  0  0  0  0  0
   -3.2000   -2.7713    0.0000 H   0  0  0  0  0  0  0  0  0  0  0  0
   -0.7999   -1.3856    0.0000 C   0  0  0  0  0  0  0  0  0  0  0  0
    0.0001   -2.7713    0.0000 H   0  0  0  0  0  0  0  0  0  0  0  0
    3.9999   -1.3856    0.0000 N   0  0  0  0  0  0  0  0  0  0  0  0
    4.8000    0.0000    0.0000 O   0  0  0  0  0  0  0  0  0  0  0  0
    6.4000    0.0000    0.0000 C   0  0  0  0  0  0  0  0  0  0  0  0
    8.0000    0.0000    0.0000 H   0  0  0  0  0  0  0  0  0  0  0  0
    7.2000    1.3856    0.0000 H   0  0  0  0  0  0  0  0  0  0  0  0
    5.6000    1.3856    0.0000 H   0  0  0  0  0  0  0  0  0  0  0  0
    4.8000   -2.7713    0.0000 C   0  0  0  0  0  0  0  0  0  0  0  0
    5.6000   -4.1569    0.0000 H   0  0  0  0  0  0  0  0  0  0  0  0
    6.4000   -2.7713    0.0000 H   0  0  0  0  0  0  0  0  0  0  0  0
    3.9999   -4.1569    0.0000 H   0  0  0  0  0  0  0  0  0  0  0  0
    1.6001   -2.7713    0.0000 O   0  0  0  0  0  0  0  0  0  0  0  0
  1  2  1  0  0  0  0
  2  3  1  0  0  0  0
  2  4  1  0  0  0  0
  4  5  1  0  0  0  0
  5  6  1  0  0  0  0
  5  7  2  0  0  0  0
  7  8  1  0  0  0  0
  7  9  1  0  0  0  0
  9 10  1  0  0  0  0
  9 11  2  0  0  0  0
 11 12  1  0  0  0  0
 11 13  1  0  0  0  0
 13  4  2  0  0  0  0
 13 14  1  0  0  0  0
  1 15  1  0  0  0  0
 15 16  1  0  0  0  0
 16 17  1  0  0  0  0
 17 18  1  0  0  0  0
 17 19  1  0  0  0  0
 17 20  1  0  0  0  0
 15 21  1  0  0  0  0
 21 22  1  0  0  0  0
 21 23  1  0  0  0  0
 21 24  1  0  0  0  0
  1 25  2  0  0  0  0
M  END
> <ChemID>
100232

> <source_casrn>
330-55-2

> <CAS>
330-55-2

> <SMILES>
CON(C)C(=O)Nc1cc(Cl)c(Cl)cc1

> <NAME>
Linuron

> <preferred_name>
Linuron

> <iupac>
3-(3,4-dichlorophenyl)-1-methoxy-1-methylurea

> <MPID>
101865

> <dsstox_substance_id>
DTXSID2024163

> <Canonical_QSARr>
CON(C)C(=O)Nc1cc(Cl)c(Cl)cc1

> <InChI_Code_QSARr>
InChI=1S/C9H10Cl2N2O2/c1-13(15-2)9(14)12-6-3-4-7(10)8(11)5-6/h3-5H,1-2H3,(H,12,14)

> <InChI Key_QSARr>
XKJMBINCVNINCA-UHFFFAOYSA-N

> <LogKmHL>
-0.97

$$$$
100233
  -INDIGO-08031722222D

 40 40  0  0  0  0  0  0  0  0999 V2000
   -4.8000    0.0000    0.0000 S   0  0  0  0  0  0  0  0  0  0  0  0
   -5.6000   -1.3856    0.0000 P   0  0  0  0  0  0  0  0  0  0  0  0
   -4.8000   -2.7713    0.0000 O   0  0  0  0  0  0  0  0  0  0  0  0
   -3.2000   -2.7713    0.0000 C   0  0  0  0  0  0  0  0  0  0  0  0
   -2.4000   -1.3856    0.0000 N   0  0  0  0  0  0  0  0  0  0  0  0
   -0.8000   -1.3856    0.0000 C   0  0  0  0  0  0  0  0  0  0  0  0
    0.0000    0.0000    0.0000 C   0  0  0  0  0  0  0  0  0  0  0  0
    1.3856   -0.8001    0.0000 H   0  0  0  0  0  0  0  0  0  0  0  0
    0.8000    1.3857    0.0000 C   0  0  0  0  0  0  0  0  0  0  0  0
    1.6000    2.7713    0.0000 H   0  0  0  0  0  0  0  0  0  0  0  0
    2.4000    1.3857    0.0000 H   0  0  0  0  0  0  0  0  0  0  0  0
    0.0000    2.7713    0.0000 H   0  0  0  0  0  0  0  0  0  0  0  0
   -1.3856    0.8000    0.0000 C   0  0  0  0  0  0  0  0  0  0  0  0
   -2.7713    1.6000    0.0000 H   0  0  0  0  0  0  0  0  0  0  0  0
   -1.3856    2.3999    0.0000 H   0  0  0  0  0  0  0  0  0  0  0  0
   -2.7713    0.0000    0.0000 H   0  0  0  0  0  0  0  0  0  0  0  0
    0.0000   -2.7713    0.0000 N   0  0  0  0  0  0  0  0  0  0  0  0
   -0.8000   -4.1570    0.0000 C   0  0  0  0  0  0  0  0  0  0  0  0
    0.0000   -5.5426    0.0000 C   0  0  0  0  0  0  0  0  0  0  0  0
    0.8000   -6.9282    0.0000 H   0  0  0  0  0  0  0  0  0  0  0  0
    1.6000   -5.5426    0.0000 H   0  0  0  0  0  0  0  0  0  0  0  0
   -0.8000   -6.9282    0.0000 H   0  0  0  0  0  0  0  0  0  0  0  0
   -2.4000   -4.1570    0.0000 C   0  0  0  0  0  0  0  0  0  0  0  0
   -3.2000   -5.5426    0.0000 H   0  0  0  0  0  0  0  0  0  0  0  0
   -7.2000   -1.3856    0.0000 O   0  0  0  0  0  0  0  0  0  0  0  0
   -8.0000   -2.7713    0.0000 C   0  0  0  0  0  0  0  0  0  0  0  0
   -7.7912   -4.3577    0.0000 H   0  0  0  0  0  0  0  0  0  0  0  0
   -6.7306   -3.7454    0.0000 H   0  0  0  0  0  0  0  0  0  0  0  0
   -9.6000   -2.7713    0.0000 C   0  0  0  0  0  0  0  0  0  0  0  0
  -11.2000   -2.7713    0.0000 H   0  0  0  0  0  0  0  0  0  0  0  0
  -10.4000   -4.1570    0.0000 H   0  0  0  0  0  0  0  0  0  0  0  0
  -10.4000   -1.3856    0.0000 H   0  0  0  0  0  0  0  0  0  0  0  0
   -6.4000    0.0000    0.0000 O   0  0  0  0  0  0  0  0  0  0  0  0
   -8.0000    0.0000    0.0000 C   0  0  0  0  0  0  0  0  0  0  0  0
   -9.2694   -0.9740    0.0000 H   0  0  0  0  0  0  0  0  0  0  0  0
   -8.2088   -1.5863    0.0000 H   0  0  0  0  0  0  0  0  0  0  0  0
   -8.8000    1.3857    0.0000 C   0  0  0  0  0  0  0  0  0  0  0  0
   -9.6000    2.7713    0.0000 H   0  0  0  0  0  0  0  0  0  0  0  0
  -10.4000    1.3857    0.0000 H   0  0  0  0  0  0  0  0  0  0  0  0
   -8.0000    2.7713    0.0000 H   0  0  0  0  0  0  0  0  0  0  0  0
  1  2  2  0  0  0  0
  2  3  1  0  0  0  0
  3  4  1  0  0  0  0
  4  5  1  0  0  0  0
  5  6  2  0  0  0  0
  6  7  1  0  0  0  0
  7  8  1  0  0  0  0
  7  9  1  0  0  0  0
  9 10  1  0  0  0  0
  9 11  1  0  0  0  0
  9 12  1  0  0  0  0
  7 13  1  0  0  0  0
 13 14  1  0  0  0  0
 13 15  1  0  0  0  0
 13 16  1  0  0  0  0
  6 17  1  0  0  0  0
 17 18  2  0  0  0  0
 18 19  1  0  0  0  0
 19 20  1  0  0  0  0
 19 21  1  0  0  0  0
 19 22  1  0  0  0  0
 18 23  1  0  0  0  0
 23  4  2  0  0  0  0
 23 24  1  0  0  0  0
  2 25  1  0  0  0  0
 25 26  1  0  0  0  0
 26 27  1  0  0  0  0
 26 28  1  0  0  0  0
 26 29  1  0  0  0  0
 29 30  1  0  0  0  0
 29 31  1  0  0  0  0
 29 32  1  0  0  0  0
  2 33  1  0  0  0  0
 33 34  1  0  0  0  0
 34 35  1  0  0  0  0
 34 36  1  0  0  0  0
 34 37  1  0  0  0  0
 37 38  1  0  0  0  0
 37 39  1  0  0  0  0
 37 40  1  0  0  0  0
M  END
> <ChemID>
100233

> <source_casrn>
333-41-5

> <CAS>
333-41-5

> <SMILES>
Cc1cc([n]c([n]1)C(C)C)OP(=S)(OCC)OCC

> <NAME>
Diazinon

> <preferred_name>
Diazinon

> <iupac>
O,O-diethyl O-[6-methyl-2-(propan-2-yl)pyrimidin-4-yl] phosphorothioate

> <MPID>
101866

> <dsstox_substance_id>
DTXSID9020407

> <Canonical_QSARr>
Cc1cc([n]c([n]1)C(C)C)OP(=S)(OCC)OCC

> <InChI_Code_QSARr>
InChI=1S/C12H21N2O3PS/c1-6-15-18(19,16-7-2)17-11-8-10(5)13-12(14-11)9(3)4/h8-9H,6-7H2,1-5H3

> <InChI Key_QSARr>
FHIVAFMUCKRCQO-UHFFFAOYSA-N

> <LogKmHL>
0.07

$$$$
100234
  -INDIGO-08031722222D

 51 54  0  0  0  0  0  0  0  0999 V2000
   -0.0001    0.0000    0.0000 C   0  0  0  0  0  0  0  0  0  0  0  0
    1.5999    0.0000    0.0000 C   0  0  0  0  0  0  0  0  0  0  0  0
    1.5300   -0.7494    0.0000 H   0  0  0  0  0  0  0  0  0  0  0  0
    2.4000    1.3856    0.0000 C   0  0  0  0  0  0  0  0  0  0  0  0
    3.1999    2.7712    0.0000 H   0  0  0  0  0  0  0  0  0  0  0  0
    4.0000    1.3856    0.0000 C   0  0  0  0  0  0  0  0  0  0  0  0
    3.6129    2.9381    0.0000 H   0  0  0  0  0  0  0  0  0  0  0  0
    4.8001    0.0000    0.0000 C   0  0  0  0  0  0  0  0  0  0  0  0
    4.0000   -1.3856    0.0000 C   0  0  0  0  0  0  0  0  0  0  0  0
    3.7222   -2.9613    0.0000 H   0  0  0  0  0  0  0  0  0  0  0  0
    5.3856   -2.1856    0.0000 H   0  0  0  0  0  0  0  0  0  0  0  0
    2.4000   -1.3856    0.0000 C   0  0  0  0  0  0  0  0  0  0  0  0
    1.3716   -2.6113    0.0000 H   0  0  0  0  0  0  0  0  0  0  0  0
    2.6779   -2.9613    0.0000 H   0  0  0  0  0  0  0  0  0  0  0  0
    5.7404   -1.2945    0.0000 C   0  0  0  0  0  0  0  0  0  0  0  0
    6.8914   -2.4059    0.0000 H   0  0  0  0  0  0  0  0  0  0  0  0
    6.5323   -1.2586    0.0000 H   0  0  0  0  0  0  0  0  0  0  0  0
    5.9076   -2.8856    0.0000 H   0  0  0  0  0  0  0  0  0  0  0  0
    6.3651    0.3327    0.0000 C   0  0  0  0  0  0  0  0  0  0  0  0
    6.8487   -0.2953    0.0000 H   0  0  0  0  0  0  0  0  0  0  0  0
    7.9651    0.3327    0.0000 H   0  0  0  0  0  0  0  0  0  0  0  0
    6.5323    1.9239    0.0000 C   0  0  0  0  0  0  0  0  0  0  0  0
    8.0973    1.5913    0.0000 H   0  0  0  0  0  0  0  0  0  0  0  0
    7.0266    3.4456    0.0000 H   0  0  0  0  0  0  0  0  0  0  0  0
    5.0707    2.5746    0.0000 C   0  0  0  0  0  0  0  0  0  0  0  0
    5.8706    3.9603    0.0000 H   0  0  0  0  0  0  0  0  0  0  0  0
    3.7762    3.5152    0.0000 H   0  0  0  0  0  0  0  0  0  0  0  0
    1.5999    2.7712    0.0000 C   0  0  0  0  0  0  0  0  0  0  0  0
    2.9857    3.5713    0.0000 H   0  0  0  0  0  0  0  0  0  0  0  0
    1.3221    4.3470    0.0000 H   0  0  0  0  0  0  0  0  0  0  0  0
   -0.0001    2.7712    0.0000 C   0  0  0  0  0  0  0  0  0  0  0  0
    0.2778    4.3470    0.0000 H   0  0  0  0  0  0  0  0  0  0  0  0
   -1.5035    3.3186    0.0000 H   0  0  0  0  0  0  0  0  0  0  0  0
   -0.8000    1.3856    0.0000 C   0  0  0  0  0  0  0  0  0  0  0  0
   -1.6000    2.7712    0.0000 H   0  0  0  0  0  0  0  0  0  0  0  0
   -2.3999    1.3856    0.0000 C   0  0  0  0  0  0  0  0  0  0  0  0
   -2.3999    2.9857    0.0000 H   0  0  0  0  0  0  0  0  0  0  0  0
   -3.9034    1.9328    0.0000 H   0  0  0  0  0  0  0  0  0  0  0  0
   -3.2000    0.0000    0.0000 C   0  0  0  0  0  0  0  0  0  0  0  0
   -4.4257    1.0284    0.0000 H   0  0  0  0  0  0  0  0  0  0  0  0
   -4.4257   -1.0285    0.0000 H   0  0  0  0  0  0  0  0  0  0  0  0
   -2.3999   -1.3856    0.0000 C   0  0  0  0  0  0  0  0  0  0  0  0
   -3.9034   -1.9329    0.0000 H   0  0  0  0  0  0  0  0  0  0  0  0
   -2.1221   -2.9613    0.0000 H   0  0  0  0  0  0  0  0  0  0  0  0
   -0.8000   -1.3856    0.0000 C   0  0  0  0  0  0  0  0  0  0  0  0
   -1.0778   -2.9613    0.0000 H   0  0  0  0  0  0  0  0  0  0  0  0
   -0.1359   -1.9938    0.0000 H   0  0  0  0  0  0  0  0  0  0  0  0
    0.4114   -0.4902    0.0000 C   0  0  0  0  0  0  0  0  0  0  0  0
    0.5900   -1.3729    0.0000 H   0  0  0  0  0  0  0  0  0  0  0  0
    0.5715   -1.2257    0.0000 H   0  0  0  0  0  0  0  0  0  0  0  0
   -1.1886   -0.4902    0.0000 H   0  0  0  0  0  0  0  0  0  0  0  0
  1  2  1  0  0  0  0
  2  3  1  0  0  0  0
  2  4  1  0  0  0  0
  4  5  1  0  0  0  0
  4  6  1  0  0  0  0
  6  7  1  0  0  0  0
  6  8  1  0  0  0  0
  8  9  1  0  0  0  0
  9 10  1  0  0  0  0
  9 11  1  0  0  0  0
  9 12  1  0  0  0  0
 12  2  1  0  0  0  0
 12 13  1  0  0  0  0
 12 14  1  0  0  0  0
  8 15  1  0  0  0  0
 15 16  1  0  0  0  0
 15 17  1  0  0  0  0
 15 18  1  0  0  0  0
  8 19  1  0  0  0  0
 19 20  1  0  0  0  0
 19 21  1  0  0  0  0
 19 22  1  0  0  0  0
 22 23  1  0  0  0  0
 22 24  1  0  0  0  0
 22 25  1  0  0  0  0
 25  6  1  0  0  0  0
 25 26  1  0  0  0  0
 25 27  1  0  0  0  0
  4 28  1  0  0  0  0
 28 29  1  0  0  0  0
 28 30  1  0  0  0  0
 28 31  1  0  0  0  0
 31 32  1  0  0  0  0
 31 33  1  0  0  0  0
 31 34  1  0  0  0  0
 34  1  1  0  0  0  0
 34 35  1  0  0  0  0
 34 36  1  0  0  0  0
 36 37  1  0  0  0  0
 36 38  1  0  0  0  0
 36 39  1  0  0  0  0
 39 40  1  0  0  0  0
 39 41  1  0  0  0  0
 39 42  1  0  0  0  0
 42 43  1  0  0  0  0
 42 44  1  0  0  0  0
 42 45  1  0  0  0  0
 45  1  1  0  0  0  0
 45 46  1  0  0  0  0
 45 47  1  0  0  0  0
  1 48  1  0  0  0  0
 48 49  1  0  0  0  0
 48 50  1  0  0  0  0
 48 51  1  0  0  0  0
M  END
> <ChemID>
100234

> <source_casrn>
438-22-2

> <CAS>
438-22-2

> <SMILES>
C(CC1)C(CCC2C(CCC3)(C4C3)C)(C1C2CC4)C

> <NAME>
5?(H)-androstane

> <preferred_name>
5alpha-Androstane

> <iupac>
(5alpha)-androstane

> <MPID>
101867

> <dsstox_substance_id>
DTXSID2036532

> <Canonical_QSARr>
CC12CCCC1C1CCC3CCCCC3(C)C1CC2

> <InChI_Code_QSARr>
InChI=1S/C19H32/c1-18-11-5-7-16(18)15-9-8-14-6-3-4-12-19(14,2)17(15)10-13-18/h14-17H,3-13H2,1-2H3

> <InChI Key_QSARr>
QZLYKIGBANMMBK-UHFFFAOYSA-N

> <LogKmHL>
1.67

$$$$
100236
  -INDIGO-08031722222D

 22 23  0  0  0  0  0  0  0  0999 V2000
    0.0001    0.0001    0.0000 C   0  0  0  0  0  0  0  0  0  0  0  0
    1.3856    0.8000    0.0000 C   0  0  0  0  0  0  0  0  0  0  0  0
    1.3856    2.3999    0.0000 N   0  0  0  0  0  0  0  0  0  0  0  0
    2.7713    3.2000    0.0000 H   0  0  0  0  0  0  0  0  0  0  0  0
    0.0001    3.2000    0.0000 H   0  0  0  0  0  0  0  0  0  0  0  0
    2.7713    0.0001    0.0000 C   0  0  0  0  0  0  0  0  0  0  0  0
    4.1569    0.8000    0.0000 H   0  0  0  0  0  0  0  0  0  0  0  0
    2.7713   -1.6000    0.0000 C   0  0  0  0  0  0  0  0  0  0  0  0
    4.1569   -2.4000    0.0000 H   0  0  0  0  0  0  0  0  0  0  0  0
    1.3856   -2.4000    0.0000 C   0  0  0  0  0  0  0  0  0  0  0  0
    1.3856   -4.0000    0.0000 H   0  0  0  0  0  0  0  0  0  0  0  0
    0.0001   -1.6000    0.0000 C   0  0  0  0  0  0  0  0  0  0  0  0
   -1.3856   -2.4000    0.0000 C   0  0  0  0  0  0  0  0  0  0  0  0
   -1.3856   -4.0000    0.0000 H   0  0  0  0  0  0  0  0  0  0  0  0
   -2.7712   -1.6000    0.0000 C   0  0  0  0  0  0  0  0  0  0  0  0
   -4.1569   -2.4000    0.0000 H   0  0  0  0  0  0  0  0  0  0  0  0
   -2.7712    0.0001    0.0000 C   0  0  0  0  0  0  0  0  0  0  0  0
   -4.1569    0.8000    0.0000 H   0  0  0  0  0  0  0  0  0  0  0  0
   -1.3856    0.8000    0.0000 C   0  0  0  0  0  0  0  0  0  0  0  0
   -1.9329    2.3036    0.0000 N   0  0  0  0  0  0  0  0  0  0  0  0
   -3.5085    2.5814    0.0000 H   0  0  0  0  0  0  0  0  0  0  0  0
   -0.9045    3.5292    0.0000 H   0  0  0  0  0  0  0  0  0  0  0  0
  1  2  1  0  0  0  0
  2  3  1  0  0  0  0
  3  4  1  0  0  0  0
  3  5  1  0  0  0  0
  2  6  2  0  0  0  0
  6  7  1  0  0  0  0
  6  8  1  0  0  0  0
  8  9  1  0  0  0  0
  8 10  2  0  0  0  0
 10 11  1  0  0  0  0
 10 12  1  0  0  0  0
 12  1  1  0  0  0  0
 12 13  2  0  0  0  0
 13 14  1  0  0  0  0
 13 15  1  0  0  0  0
 15 16  1  0  0  0  0
 15 17  2  0  0  0  0
 17 18  1  0  0  0  0
 17 19  1  0  0  0  0
 19  1  2  0  0  0  0
 19 20  1  0  0  0  0
 20 21  1  0  0  0  0
 20 22  1  0  0  0  0
M  END
> <ChemID>
100236

> <source_casrn>
479-27-6

> <CAS>
479-27-6

> <SMILES>
Nc1cccc2cccc(N)c12

> <NAME>
1,8-naphthalenediamine

> <preferred_name>
1,8-Naphthalenediamine

> <iupac>
naphthalene-1,8-diamine

> <MPID>
101869

> <dsstox_substance_id>
DTXSID6044432

> <Canonical_QSARr>
Nc1cccc2cccc(N)c12

> <InChI_Code_QSARr>
InChI=1S/C10H10N2/c11-8-5-1-3-7-4-2-6-9(12)10(7)8/h1-6H,11-12H2

> <InChI Key_QSARr>
YFOOEYJGMMJJLS-UHFFFAOYSA-N

> <LogKmHL>
-0.73

$$$$
100237
  -INDIGO-08031722222D

 24 24  0  0  0  0  0  0  0  0999 V2000
   -0.0000    0.0000    0.0000 C   0  0  0  0  0  0  0  0  0  0  0  0
    1.6000    0.0000    0.0000 C   0  0  0  0  0  0  0  0  0  0  0  0
    2.4000    1.3856    0.0000 C   0  0  0  0  0  0  0  0  0  0  0  0
    3.2000    2.7713    0.0000 H   0  0  0  0  0  0  0  0  0  0  0  0
    4.0001    1.3856    0.0000 H   0  0  0  0  0  0  0  0  0  0  0  0
    1.6000    2.7713    0.0000 H   0  0  0  0  0  0  0  0  0  0  0  0
    2.4000   -1.3856    0.0000 C   0  0  0  0  0  0  0  0  0  0  0  0
    4.0001   -1.3856    0.0000 C   0  0  0  0  0  0  0  0  0  0  0  0
    5.6000   -1.3856    0.0000 H   0  0  0  0  0  0  0  0  0  0  0  0
    4.8000   -2.7713    0.0000 H   0  0  0  0  0  0  0  0  0  0  0  0
    4.8000    0.0000    0.0000 H   0  0  0  0  0  0  0  0  0  0  0  0
    1.6000   -2.7713    0.0000 C   0  0  0  0  0  0  0  0  0  0  0  0
    2.4000   -4.1569    0.0000 H   0  0  0  0  0  0  0  0  0  0  0  0
   -0.0000   -2.7713    0.0000 C   0  0  0  0  0  0  0  0  0  0  0  0
   -0.8000   -4.1569    0.0000 H   0  0  0  0  0  0  0  0  0  0  0  0
   -0.8000   -1.3856    0.0000 C   0  0  0  0  0  0  0  0  0  0  0  0
   -2.4001   -1.3856    0.0000 C   0  0  0  0  0  0  0  0  0  0  0  0
   -4.0000   -1.3856    0.0000 H   0  0  0  0  0  0  0  0  0  0  0  0
   -3.2000   -2.7713    0.0000 H   0  0  0  0  0  0  0  0  0  0  0  0
   -3.2000    0.0000    0.0000 H   0  0  0  0  0  0  0  0  0  0  0  0
   -0.8000    1.3856    0.0000 C   0  0  0  0  0  0  0  0  0  0  0  0
   -1.6000    2.7713    0.0000 H   0  0  0  0  0  0  0  0  0  0  0  0
   -2.4001    1.3856    0.0000 H   0  0  0  0  0  0  0  0  0  0  0  0
   -0.0000    2.7713    0.0000 H   0  0  0  0  0  0  0  0  0  0  0  0
  1  2  1  0  0  0  0
  2  3  1  0  0  0  0
  3  4  1  0  0  0  0
  3  5  1  0  0  0  0
  3  6  1  0  0  0  0
  2  7  2  0  0  0  0
  7  8  1  0  0  0  0
  8  9  1  0  0  0  0
  8 10  1  0  0  0  0
  8 11  1  0  0  0  0
  7 12  1  0  0  0  0
 12 13  1  0  0  0  0
 12 14  2  0  0  0  0
 14 15  1  0  0  0  0
 14 16  1  0  0  0  0
 16  1  2  0  0  0  0
 16 17  1  0  0  0  0
 17 18  1  0  0  0  0
 17 19  1  0  0  0  0
 17 20  1  0  0  0  0
  1 21  1  0  0  0  0
 21 22  1  0  0  0  0
 21 23  1  0  0  0  0
 21 24  1  0  0  0  0
M  END
> <ChemID>
100237

> <source_casrn>
488-23-3

> <CAS>
488-23-3

> <SMILES>
c1(C)c(C)c(C)c(C)cc1

> <NAME>
1,2,3,4 tetramethyl benzene

> <preferred_name>
1,2,3,4-Tetramethylbenzene

> <iupac>
1,2,3,4-TETRAMETHYLBENZENE

> <MPID>
101870

> <dsstox_substance_id>
DTXSID4060072

> <Canonical_QSARr>
Cc1ccc(C)c(C)c1C

> <InChI_Code_QSARr>
InChI=1S/C10H14/c1-7-5-6-8(2)10(4)9(7)3/h5-6H,1-4H3

> <InChI Key_QSARr>
UOHMMEJUHBCKEE-UHFFFAOYSA-N

> <LogKmHL>
1.17

$$$$
100240
  -INDIGO-08031722222D

 26 26  0  0  0  0  0  0  0  0999 V2000
   -6.9281    2.4000    0.0000 N   0  0  0  0  0  0  0  0  0  0  0  0
   -5.5426    1.6000    0.0000 C   0  0  0  0  0  0  0  0  0  0  0  0
   -4.1569    2.4000    0.0000 C   0  0  0  0  0  0  0  0  0  0  0  0
   -4.1569    4.0000    0.0000 Cl  0  0  0  0  0  0  0  0  0  0  0  0
   -2.7712    1.6000    0.0000 C   0  0  0  0  0  0  0  0  0  0  0  0
   -1.3857    2.4000    0.0000 H   0  0  0  0  0  0  0  0  0  0  0  0
   -2.7712    0.0000    0.0000 C   0  0  0  0  0  0  0  0  0  0  0  0
   -1.3857   -0.8000    0.0000 O   0  0  0  0  0  0  0  0  0  0  0  0
    0.0000    0.0000    0.0000 P   0  0  0  0  0  0  0  0  0  0  0  0
    0.0000   -1.6000    0.0000 S   0  0  0  0  0  0  0  0  0  0  0  0
    1.3857   -0.8000    0.0000 O   0  0  0  0  0  0  0  0  0  0  0  0
    2.7712    0.0000    0.0000 C   0  0  0  0  0  0  0  0  0  0  0  0
    4.1569   -0.8000    0.0000 H   0  0  0  0  0  0  0  0  0  0  0  0
    4.1569    0.8000    0.0000 H   0  0  0  0  0  0  0  0  0  0  0  0
    2.7712   -1.6000    0.0000 H   0  0  0  0  0  0  0  0  0  0  0  0
    1.3857    0.8000    0.0000 O   0  0  0  0  0  0  0  0  0  0  0  0
    1.3857    2.4000    0.0000 C   0  0  0  0  0  0  0  0  0  0  0  0
    1.3857    4.0000    0.0000 H   0  0  0  0  0  0  0  0  0  0  0  0
    2.7712    3.2000    0.0000 H   0  0  0  0  0  0  0  0  0  0  0  0
    0.0000    3.2000    0.0000 H   0  0  0  0  0  0  0  0  0  0  0  0
   -4.1569   -0.8000    0.0000 C   0  0  0  0  0  0  0  0  0  0  0  0
   -4.1569   -2.4000    0.0000 H   0  0  0  0  0  0  0  0  0  0  0  0
   -5.5426    0.0000    0.0000 C   0  0  0  0  0  0  0  0  0  0  0  0
   -6.9281   -0.8000    0.0000 H   0  0  0  0  0  0  0  0  0  0  0  0
   -8.3138    1.6000    0.0000 O   0  0  0  0  0  0  0  0  0  0  0  0
   -6.9281    4.0000    0.0000 O   0  0  0  0  0  0  0  0  0  0  0  0
  1  2  1  0  0  0  0
  2  3  1  0  0  0  0
  3  4  1  0  0  0  0
  3  5  2  0  0  0  0
  5  6  1  0  0  0  0
  5  7  1  0  0  0  0
  7  8  1  0  0  0  0
  8  9  1  0  0  0  0
  9 10  2  0  0  0  0
  9 11  1  0  0  0  0
 11 12  1  0  0  0  0
 12 13  1  0  0  0  0
 12 14  1  0  0  0  0
 12 15  1  0  0  0  0
  9 16  1  0  0  0  0
 16 17  1  0  0  0  0
 17 18  1  0  0  0  0
 17 19  1  0  0  0  0
 17 20  1  0  0  0  0
  7 21  2  0  0  0  0
 21 22  1  0  0  0  0
 21 23  1  0  0  0  0
 23  2  2  0  0  0  0
 23 24  1  0  0  0  0
  1 25  1  0  0  0  0
  1 26  2  0  0  0  0
M  CHG  2   1   1  25  -1
M  END
> <ChemID>
100240

> <source_casrn>
500-28-7

> <CAS>
500-28-7

> <SMILES>
COP(=S)(OC)Oc1ccc(N(=O)=O)c(Cl)c1

> <NAME>
3-Chloro-dimethyl parathion

> <preferred_name>
Chlorthion

> <iupac>
O-(3-chloro-4-nitrophenyl) O,O-dimethyl phosphorothioate

> <MPID>
101871

> <dsstox_substance_id>
DTXSID9041784

> <Canonical_QSARr>
COP(=S)(Oc1cc(Cl)c(cc1)[N+]([O-])=O)OC

> <InChI_Code_QSARr>
InChI=1S/C8H9ClNO5PS/c1-13-16(17,14-2)15-6-3-4-8(10(11)12)7(9)5-6/h3-5H,1-2H3

> <InChI Key_QSARr>
NZNRRXXETLSZRO-UHFFFAOYSA-N

> <LogKmHL>
-0.47

$$$$
100242
  -INDIGO-08031722222D

 21 21  0  0  0  0  0  0  0  0999 V2000
    1.5999    0.0000    0.0000 C   0  0  0  0  0  0  0  0  0  0  0  0
    2.4000   -1.3856    0.0000 C   0  0  0  0  0  0  0  0  0  0  0  0
    4.0000   -1.3856    0.0000 H   0  0  0  0  0  0  0  0  0  0  0  0
    1.6001   -2.7713    0.0000 C   0  0  0  0  0  0  0  0  0  0  0  0
    2.4000   -4.1569    0.0000 H   0  0  0  0  0  0  0  0  0  0  0  0
   -0.0001   -2.7713    0.0000 C   0  0  0  0  0  0  0  0  0  0  0  0
   -0.8000   -4.1569    0.0000 H   0  0  0  0  0  0  0  0  0  0  0  0
   -0.8000   -1.3856    0.0000 C   0  0  0  0  0  0  0  0  0  0  0  0
   -2.4000   -1.3856    0.0000 C   0  0  0  0  0  0  0  0  0  0  0  0
   -4.0000   -1.3856    0.0000 H   0  0  0  0  0  0  0  0  0  0  0  0
   -3.2001   -2.7713    0.0000 H   0  0  0  0  0  0  0  0  0  0  0  0
   -3.2001    0.0000    0.0000 H   0  0  0  0  0  0  0  0  0  0  0  0
   -0.0001    0.0000    0.0000 C   0  0  0  0  0  0  0  0  0  0  0  0
   -0.8000    1.3856    0.0000 C   0  0  0  0  0  0  0  0  0  0  0  0
   -1.5999    2.7713    0.0000 H   0  0  0  0  0  0  0  0  0  0  0  0
   -2.4000    1.3856    0.0000 H   0  0  0  0  0  0  0  0  0  0  0  0
    0.0001    2.7713    0.0000 H   0  0  0  0  0  0  0  0  0  0  0  0
    2.4000    1.3856    0.0000 C   0  0  0  0  0  0  0  0  0  0  0  0
    3.1999    2.7713    0.0000 H   0  0  0  0  0  0  0  0  0  0  0  0
    4.0000    1.3856    0.0000 H   0  0  0  0  0  0  0  0  0  0  0  0
    1.5999    2.7713    0.0000 H   0  0  0  0  0  0  0  0  0  0  0  0
  1  2  1  0  0  0  0
  2  3  1  0  0  0  0
  2  4  2  0  0  0  0
  4  5  1  0  0  0  0
  4  6  1  0  0  0  0
  6  7  1  0  0  0  0
  6  8  2  0  0  0  0
  8  9  1  0  0  0  0
  9 10  1  0  0  0  0
  9 11  1  0  0  0  0
  9 12  1  0  0  0  0
  8 13  1  0  0  0  0
 13  1  2  0  0  0  0
 13 14  1  0  0  0  0
 14 15  1  0  0  0  0
 14 16  1  0  0  0  0
 14 17  1  0  0  0  0
  1 18  1  0  0  0  0
 18 19  1  0  0  0  0
 18 20  1  0  0  0  0
 18 21  1  0  0  0  0
M  END
> <ChemID>
100242

> <source_casrn>
526-73-8

> <CAS>
526-73-8

> <SMILES>
Cc1c(C)cccc1C

> <NAME>
Benzene, 1,2,3-trimethyl-

> <preferred_name>
1,2,3-Trimethylbenzene

> <iupac>
1,2,3-trimethylbenzene

> <MPID>
101873

> <dsstox_substance_id>
DTXSID8047769

> <Canonical_QSARr>
Cc1c(C)cccc1C

> <InChI_Code_QSARr>
InChI=1S/C9H12/c1-7-5-4-6-8(2)9(7)3/h4-6H,1-3H3

> <InChI Key_QSARr>
FYGHSUNMUKGBRK-UHFFFAOYSA-N

> <LogKmHL>
-0.22

$$$$
100243
  -INDIGO-08031722222D

 22 22  0  0  0  0  0  0  0  0999 V2000
    1.3857    2.4000    0.0000 O   0  0  0  0  0  0  0  0  0  0  0  0
    1.3857    4.0000    0.0000 H   0  0  0  0  0  0  0  0  0  0  0  0
    0.0000    1.6001    0.0000 C   0  0  0  0  0  0  0  0  0  0  0  0
   -1.3857    2.4000    0.0000 C   0  0  0  0  0  0  0  0  0  0  0  0
   -1.3857    4.0000    0.0000 C   0  0  0  0  0  0  0  0  0  0  0  0
   -1.3857    5.6000    0.0000 H   0  0  0  0  0  0  0  0  0  0  0  0
   -2.7713    4.8001    0.0000 H   0  0  0  0  0  0  0  0  0  0  0  0
    0.0000    4.8001    0.0000 H   0  0  0  0  0  0  0  0  0  0  0  0
   -2.7713    1.6001    0.0000 C   0  0  0  0  0  0  0  0  0  0  0  0
   -4.1570    2.4000    0.0000 H   0  0  0  0  0  0  0  0  0  0  0  0
   -2.7713    0.0001    0.0000 C   0  0  0  0  0  0  0  0  0  0  0  0
   -4.1569   -0.8000    0.0000 C   0  0  0  0  0  0  0  0  0  0  0  0
   -5.5426   -1.6001    0.0000 H   0  0  0  0  0  0  0  0  0  0  0  0
   -4.1569   -2.4000    0.0000 H   0  0  0  0  0  0  0  0  0  0  0  0
   -5.5426   -0.0001    0.0000 H   0  0  0  0  0  0  0  0  0  0  0  0
   -1.3856   -0.8000    0.0000 C   0  0  0  0  0  0  0  0  0  0  0  0
   -1.3856   -2.4000    0.0000 H   0  0  0  0  0  0  0  0  0  0  0  0
    0.0000    0.0001    0.0000 C   0  0  0  0  0  0  0  0  0  0  0  0
    1.3857   -0.8000    0.0000 C   0  0  0  0  0  0  0  0  0  0  0  0
    2.7713   -1.5999    0.0000 H   0  0  0  0  0  0  0  0  0  0  0  0
    1.3857   -2.4000    0.0000 H   0  0  0  0  0  0  0  0  0  0  0  0
    2.7713    0.0001    0.0000 H   0  0  0  0  0  0  0  0  0  0  0  0
  1  2  1  0  0  0  0
  1  3  1  0  0  0  0
  3  4  1  0  0  0  0
  4  5  1  0  0  0  0
  5  6  1  0  0  0  0
  5  7  1  0  0  0  0
  5  8  1  0  0  0  0
  4  9  2  0  0  0  0
  9 10  1  0  0  0  0
  9 11  1  0  0  0  0
 11 12  1  0  0  0  0
 12 13  1  0  0  0  0
 12 14  1  0  0  0  0
 12 15  1  0  0  0  0
 11 16  2  0  0  0  0
 16 17  1  0  0  0  0
 16 18  1  0  0  0  0
 18  3  2  0  0  0  0
 18 19  1  0  0  0  0
 19 20  1  0  0  0  0
 19 21  1  0  0  0  0
 19 22  1  0  0  0  0
M  END
> <ChemID>
100243

> <source_casrn>
527-60-6

> <CAS>
527-60-6

> <SMILES>
Cc1cc(C)c(O)c(C)c1

> <NAME>
2,4,6-trimethylphenol

> <preferred_name>
2,4,6-Trimethylphenol

> <iupac>
2,4,6-trimethylphenol

> <MPID>
101874

> <dsstox_substance_id>
DTXSID7022049

> <Canonical_QSARr>
Cc1cc(C)c(O)c(C)c1

> <InChI_Code_QSARr>
InChI=1S/C9H12O/c1-6-4-7(2)9(10)8(3)5-6/h4-5,10H,1-3H3

> <InChI Key_QSARr>
BPRYUXCVCCNUFE-UHFFFAOYSA-N

> <LogKmHL>
-1.3

$$$$
100244
  -INDIGO-08031722222D

 24 24  0  0  0  0  0  0  0  0999 V2000
   -1.6000   -0.0000    0.0000 C   0  0  0  0  0  0  0  0  0  0  0  0
   -2.4000    1.3857    0.0000 C   0  0  0  0  0  0  0  0  0  0  0  0
   -1.6000    2.7713    0.0000 H   0  0  0  0  0  0  0  0  0  0  0  0
   -4.0000    1.3857    0.0000 C   0  0  0  0  0  0  0  0  0  0  0  0
   -4.8000    2.7713    0.0000 C   0  0  0  0  0  0  0  0  0  0  0  0
   -5.6000    4.1569    0.0000 H   0  0  0  0  0  0  0  0  0  0  0  0
   -6.4000    2.7713    0.0000 H   0  0  0  0  0  0  0  0  0  0  0  0
   -4.0000    4.1569    0.0000 H   0  0  0  0  0  0  0  0  0  0  0  0
   -4.8000   -0.0000    0.0000 C   0  0  0  0  0  0  0  0  0  0  0  0
   -6.4000   -0.0000    0.0000 H   0  0  0  0  0  0  0  0  0  0  0  0
   -4.0000   -1.3857    0.0000 C   0  0  0  0  0  0  0  0  0  0  0  0
   -4.8000   -2.7713    0.0000 H   0  0  0  0  0  0  0  0  0  0  0  0
   -2.4000   -1.3857    0.0000 C   0  0  0  0  0  0  0  0  0  0  0  0
   -1.6000   -2.7713    0.0000 H   0  0  0  0  0  0  0  0  0  0  0  0
   -0.0001   -0.0000    0.0000 C   0  0  0  0  0  0  0  0  0  0  0  0
   -0.0001    1.6000    0.0000 H   0  0  0  0  0  0  0  0  0  0  0  0
    1.5757    0.2778    0.0000 C   0  0  0  0  0  0  0  0  0  0  0  0
    3.1514    0.5556    0.0000 H   0  0  0  0  0  0  0  0  0  0  0  0
    2.1229    1.7814    0.0000 H   0  0  0  0  0  0  0  0  0  0  0  0
    2.6041   -0.9479    0.0000 H   0  0  0  0  0  0  0  0  0  0  0  0
   -0.0001   -1.6000    0.0000 C   0  0  0  0  0  0  0  0  0  0  0  0
   -0.0001   -3.2000    0.0000 H   0  0  0  0  0  0  0  0  0  0  0  0
    1.3857   -2.4000    0.0000 H   0  0  0  0  0  0  0  0  0  0  0  0
    1.3857   -0.8000    0.0000 H   0  0  0  0  0  0  0  0  0  0  0  0
  1  2  1  0  0  0  0
  2  3  1  0  0  0  0
  2  4  2  0  0  0  0
  4  5  1  0  0  0  0
  5  6  1  0  0  0  0
  5  7  1  0  0  0  0
  5  8  1  0  0  0  0
  4  9  1  0  0  0  0
  9 10  1  0  0  0  0
  9 11  2  0  0  0  0
 11 12  1  0  0  0  0
 11 13  1  0  0  0  0
 13  1  2  0  0  0  0
 13 14  1  0  0  0  0
  1 15  1  0  0  0  0
 15 16  1  0  0  0  0
 15 17  1  0  0  0  0
 17 18  1  0  0  0  0
 17 19  1  0  0  0  0
 17 20  1  0  0  0  0
 15 21  1  0  0  0  0
 21 22  1  0  0  0  0
 21 23  1  0  0  0  0
 21 24  1  0  0  0  0
M  END
> <ChemID>
100244

> <source_casrn>
535-77-3

> <CAS>
535-77-3

> <SMILES>
Cc1cccc(c1)C(C)C

> <NAME>
m-cymene

> <preferred_name>
m-Cymene

> <iupac>
1-methyl-3-propan-2-ylbenzene

> <MPID>
101875

> <dsstox_substance_id>
DTXSID2060206

> <Canonical_QSARr>
Cc1cccc(c1)C(C)C

> <InChI_Code_QSARr>
InChI=1S/C10H14/c1-8(2)10-6-4-5-9(3)7-10/h4-8H,1-3H3

> <InChI Key_QSARr>
XCYJPXQACVEIOS-UHFFFAOYSA-N

> <LogKmHL>
0.07

$$$$
100246
  -INDIGO-08031722222D

 50 50  0  0  0  0  0  0  0  0999 V2000
    1.3856    0.8000    0.0000 O   0  0  0  0  0  0  0  0  0  0  0  0
    2.0365    2.2616    0.0000 Si  0  0  0  0  0  0  0  0  0  0  0  0
    3.2255    1.1910    0.0000 C   0  0  0  0  0  0  0  0  0  0  0  0
    4.4144    0.1204    0.0000 H   0  0  0  0  0  0  0  0  0  0  0  0
    4.7471    1.6855    0.0000 H   0  0  0  0  0  0  0  0  0  0  0  0
    2.8928   -0.3739    0.0000 H   0  0  0  0  0  0  0  0  0  0  0  0
    3.4221    3.0617    0.0000 C   0  0  0  0  0  0  0  0  0  0  0  0
    4.8077    3.8617    0.0000 H   0  0  0  0  0  0  0  0  0  0  0  0
    4.9256    2.5145    0.0000 H   0  0  0  0  0  0  0  0  0  0  0  0
    3.4221    4.6616    0.0000 H   0  0  0  0  0  0  0  0  0  0  0  0
    1.7038    3.8267    0.0000 O   0  0  0  0  0  0  0  0  0  0  0  0
    0.5147    4.8973    0.0000 Si  0  0  0  0  0  0  0  0  0  0  0  0
    2.0182    5.4445    0.0000 C   0  0  0  0  0  0  0  0  0  0  0  0
    2.5654    6.9481    0.0000 H   0  0  0  0  0  0  0  0  0  0  0  0
    3.5939    5.7223    0.0000 H   0  0  0  0  0  0  0  0  0  0  0  0
    0.9897    6.6703    0.0000 H   0  0  0  0  0  0  0  0  0  0  0  0
   -0.0846    6.3808    0.0000 C   0  0  0  0  0  0  0  0  0  0  0  0
   -0.6841    7.8643    0.0000 H   0  0  0  0  0  0  0  0  0  0  0  0
    0.9004    7.6416    0.0000 H   0  0  0  0  0  0  0  0  0  0  0  0
   -1.6691    6.6035    0.0000 H   0  0  0  0  0  0  0  0  0  0  0  0
   -1.0766    5.0645    0.0000 O   0  0  0  0  0  0  0  0  0  0  0  0
   -2.4622    4.2646    0.0000 Si  0  0  0  0  0  0  0  0  0  0  0  0
   -2.5180    5.8636    0.0000 C   0  0  0  0  0  0  0  0  0  0  0  0
   -3.7787    6.8487    0.0000 H   0  0  0  0  0  0  0  0  0  0  0  0
   -2.2953    7.4480    0.0000 H   0  0  0  0  0  0  0  0  0  0  0  0
   -4.0015    5.2641    0.0000 H   0  0  0  0  0  0  0  0  0  0  0  0
   -4.0534    4.4318    0.0000 C   0  0  0  0  0  0  0  0  0  0  0  0
   -5.6445    4.5990    0.0000 H   0  0  0  0  0  0  0  0  0  0  0  0
   -4.9939    3.1374    0.0000 H   0  0  0  0  0  0  0  0  0  0  0  0
   -4.7042    5.8934    0.0000 H   0  0  0  0  0  0  0  0  0  0  0  0
   -3.1129    2.8028    0.0000 O   0  0  0  0  0  0  0  0  0  0  0  0
   -2.7802    1.2379    0.0000 Si  0  0  0  0  0  0  0  0  0  0  0  0
   -4.3182    1.6789    0.0000 C   0  0  0  0  0  0  0  0  0  0  0  0
   -5.6447    0.7841    0.0000 H   0  0  0  0  0  0  0  0  0  0  0  0
   -5.7564    2.3803    0.0000 H   0  0  0  0  0  0  0  0  0  0  0  0
   -4.2068    0.0828    0.0000 H   0  0  0  0  0  0  0  0  0  0  0  0
   -3.4311   -0.2239    0.0000 C   0  0  0  0  0  0  0  0  0  0  0  0
   -4.0819   -1.6855    0.0000 H   0  0  0  0  0  0  0  0  0  0  0  0
   -2.4906   -1.5183    0.0000 H   0  0  0  0  0  0  0  0  0  0  0  0
   -5.0222   -0.3911    0.0000 H   0  0  0  0  0  0  0  0  0  0  0  0
   -1.5912    0.1673    0.0000 O   0  0  0  0  0  0  0  0  0  0  0  0
    0.0000   -0.0001    0.0000 Si  0  0  0  0  0  0  0  0  0  0  0  0
   -0.8947   -1.3264    0.0000 C   0  0  0  0  0  0  0  0  0  0  0  0
   -0.1933   -2.7645    0.0000 H   0  0  0  0  0  0  0  0  0  0  0  0
   -1.7894   -2.6529    0.0000 H   0  0  0  0  0  0  0  0  0  0  0  0
   -0.0559   -1.5991    0.0000 H   0  0  0  0  0  0  0  0  0  0  0  0
    1.3569   -0.8478    0.0000 C   0  0  0  0  0  0  0  0  0  0  0  0
    2.7137   -1.6957    0.0000 H   0  0  0  0  0  0  0  0  0  0  0  0
    1.3010   -2.4470    0.0000 H   0  0  0  0  0  0  0  0  0  0  0  0
    0.7014   -1.4380    0.0000 H   0  0  0  0  0  0  0  0  0  0  0  0
  1  2  1  0  0  0  0
  2  3  1  0  0  0  0
  3  4  1  0  0  0  0
  3  5  1  0  0  0  0
  3  6  1  0  0  0  0
  2  7  1  0  0  0  0
  7  8  1  0  0  0  0
  7  9  1  0  0  0  0
  7 10  1  0  0  0  0
  2 11  1  0  0  0  0
 11 12  1  0  0  0  0
 12 13  1  0  0  0  0
 13 14  1  0  0  0  0
 13 15  1  0  0  0  0
 13 16  1  0  0  0  0
 12 17  1  0  0  0  0
 17 18  1  0  0  0  0
 17 19  1  0  0  0  0
 17 20  1  0  0  0  0
 12 21  1  0  0  0  0
 21 22  1  0  0  0  0
 22 23  1  0  0  0  0
 23 24  1  0  0  0  0
 23 25  1  0  0  0  0
 23 26  1  0  0  0  0
 22 27  1  0  0  0  0
 27 28  1  0  0  0  0
 27 29  1  0  0  0  0
 27 30  1  0  0  0  0
 22 31  1  0  0  0  0
 31 32  1  0  0  0  0
 32 33  1  0  0  0  0
 33 34  1  0  0  0  0
 33 35  1  0  0  0  0
 33 36  1  0  0  0  0
 32 37  1  0  0  0  0
 37 38  1  0  0  0  0
 37 39  1  0  0  0  0
 37 40  1  0  0  0  0
 32 41  1  0  0  0  0
 41 42  1  0  0  0  0
 42  1  1  0  0  0  0
 42 43  1  0  0  0  0
 43 44  1  0  0  0  0
 43 45  1  0  0  0  0
 43 46  1  0  0  0  0
 42 47  1  0  0  0  0
 47 48  1  0  0  0  0
 47 49  1  0  0  0  0
 47 50  1  0  0  0  0
M  END
> <ChemID>
100246

> <source_casrn>
541-02-6

> <CAS>
541-02-6

> <SMILES>
C[Si]1(C)O[Si](C)(C)O[Si](C)(C)O[Si](C)(C)O[Si](C)(C)O1

> <NAME>
Decamethylcyclopentasiloxane (D5)

> <preferred_name>
Decamethylcyclopentasiloxane

> <iupac>
2,2,4,4,6,6,8,8,10,10-decamethyl-1,3,5,7,9,2,4,6,8,10-pentoxapentasilecane

> <MPID>
101877

> <dsstox_substance_id>
DTXSID1027184

> <Canonical_QSARr>
C[Si]1(C)O[Si](C)(C)O[Si](C)(C)O[Si](C)(C)O[Si](C)(C)O1

> <InChI_Code_QSARr>
InChI=1S/C10H30O5Si5/c1-16(2)11-17(3,4)13-19(7,8)15-20(9,10)14-18(5,6)12-16/h1-10H3

> <InChI Key_QSARr>
XMSXQFUHVRWGNA-UHFFFAOYSA-N

> <LogKmHL>
2.74

$$$$
100247
  -INDIGO-08031722222D

 12 12  0  0  0  0  0  0  0  0999 V2000
    0.8000    1.3856    0.0000 Cl  0  0  0  0  0  0  0  0  0  0  0  0
   -0.0000   -0.0000    0.0000 C   0  0  0  0  0  0  0  0  0  0  0  0
    0.8000   -1.3857    0.0000 C   0  0  0  0  0  0  0  0  0  0  0  0
    2.4000   -1.3857    0.0000 H   0  0  0  0  0  0  0  0  0  0  0  0
   -0.0000   -2.7713    0.0000 C   0  0  0  0  0  0  0  0  0  0  0  0
    0.8000   -4.1569    0.0000 Cl  0  0  0  0  0  0  0  0  0  0  0  0
   -1.6000   -2.7713    0.0000 C   0  0  0  0  0  0  0  0  0  0  0  0
   -2.4000   -4.1569    0.0000 H   0  0  0  0  0  0  0  0  0  0  0  0
   -2.4000   -1.3856    0.0000 C   0  0  0  0  0  0  0  0  0  0  0  0
   -4.0000   -1.3856    0.0000 H   0  0  0  0  0  0  0  0  0  0  0  0
   -1.6000   -0.0000    0.0000 C   0  0  0  0  0  0  0  0  0  0  0  0
   -2.4000    1.3856    0.0000 H   0  0  0  0  0  0  0  0  0  0  0  0
  1  2  1  0  0  0  0
  2  3  1  0  0  0  0
  3  4  1  0  0  0  0
  3  5  2  0  0  0  0
  5  6  1  0  0  0  0
  5  7  1  0  0  0  0
  7  8  1  0  0  0  0
  7  9  2  0  0  0  0
  9 10  1  0  0  0  0
  9 11  1  0  0  0  0
 11  2  2  0  0  0  0
 11 12  1  0  0  0  0
M  END
> <ChemID>
100247

> <source_casrn>
541-73-1

> <CAS>
541-73-1

> <SMILES>
Clc1cc(Cl)ccc1

> <NAME>
Benzene, 1,3-dichloro-

> <preferred_name>
1,3-Dichlorobenzene

> <iupac>
1,3-dichlorobenzene

> <MPID>
101878

> <dsstox_substance_id>
DTXSID6022056

> <Canonical_QSARr>
Clc1cc(Cl)ccc1

> <InChI_Code_QSARr>
InChI=1S/C6H4Cl2/c7-5-2-1-3-6(8)4-5/h1-4H

> <InChI Key_QSARr>
ZPQOPVIELGIULI-UHFFFAOYSA-N

> <LogKmHL>
-0.21

$$$$
100248
  -INDIGO-08031722222D

 18 18  0  0  0  0  0  0  0  0999 V2000
    0.0000    0.0000    0.0000 C   0  0  0  0  0  0  0  0  0  0  0  0
    1.5757   -0.2778    0.0000 H   0  0  0  0  0  0  0  0  0  0  0  0
   -1.3856    0.8000    0.0000 C   0  0  0  0  0  0  0  0  0  0  0  0
   -0.3571    2.0257    0.0000 H   0  0  0  0  0  0  0  0  0  0  0  0
   -2.4141    2.0257    0.0000 H   0  0  0  0  0  0  0  0  0  0  0  0
   -2.7713    0.0000    0.0000 C   0  0  0  0  0  0  0  0  0  0  0  0
   -3.3185    1.5035    0.0000 H   0  0  0  0  0  0  0  0  0  0  0  0
   -4.3470   -0.2778    0.0000 H   0  0  0  0  0  0  0  0  0  0  0  0
   -2.7713   -1.6000    0.0000 C   0  0  0  0  0  0  0  0  0  0  0  0
   -4.3470   -1.3222    0.0000 H   0  0  0  0  0  0  0  0  0  0  0  0
   -3.3185   -3.1035    0.0000 H   0  0  0  0  0  0  0  0  0  0  0  0
   -1.3856   -2.4000    0.0000 C   0  0  0  0  0  0  0  0  0  0  0  0
   -2.4141   -3.6257    0.0000 H   0  0  0  0  0  0  0  0  0  0  0  0
   -0.3571   -3.6257    0.0000 H   0  0  0  0  0  0  0  0  0  0  0  0
    0.0000   -1.6000    0.0000 C   0  0  0  0  0  0  0  0  0  0  0  0
    0.5472   -3.1035    0.0000 H   0  0  0  0  0  0  0  0  0  0  0  0
    1.5757   -1.3222    0.0000 H   0  0  0  0  0  0  0  0  0  0  0  0
    0.5472    1.5035    0.0000 Cl  0  0  0  0  0  0  0  0  0  0  0  0
  1  2  1  0  0  0  0
  1  3  1  0  0  0  0
  3  4  1  0  0  0  0
  3  5  1  0  0  0  0
  3  6  1  0  0  0  0
  6  7  1  0  0  0  0
  6  8  1  0  0  0  0
  6  9  1  0  0  0  0
  9 10  1  0  0  0  0
  9 11  1  0  0  0  0
  9 12  1  0  0  0  0
 12 13  1  0  0  0  0
 12 14  1  0  0  0  0
 12 15  1  0  0  0  0
 15  1  1  0  0  0  0
 15 16  1  0  0  0  0
 15 17  1  0  0  0  0
  1 18  1  0  0  0  0
M  END
> <ChemID>
100248

> <source_casrn>
542-18-7

> <CAS>
542-18-7

> <SMILES>
ClC1CCCCC1

> <NAME>
Cyclohexane, chloro-

> <preferred_name>
Chlorocyclohexane

> <iupac>
chlorocyclohexane

> <MPID>
101879

> <dsstox_substance_id>
DTXSID3052193

> <Canonical_QSARr>
ClC1CCCCC1

> <InChI_Code_QSARr>
InChI=1S/C6H11Cl/c7-6-4-2-1-3-5-6/h6H,1-5H2

> <InChI Key_QSARr>
UNFUYWDGSFDHCW-UHFFFAOYSA-N

> <LogKmHL>
0.41

$$$$
100250
  -INDIGO-08031722222D

 14 14  0  0  0  0  0  0  0  0999 V2000
    0.0000    2.7713    0.0000 Cl  0  0  0  0  0  0  0  0  0  0  0  0
    0.8000    1.3856    0.0000 C   0  0  0  0  0  0  0  0  0  0  0  0
    2.4000    1.3856    0.0000 C   0  0  0  0  0  0  0  0  0  0  0  0
    3.2000    2.7713    0.0000 H   0  0  0  0  0  0  0  0  0  0  0  0
    3.2000   -0.0000    0.0000 C   0  0  0  0  0  0  0  0  0  0  0  0
    4.8000    0.0000    0.0000 Cl  0  0  0  0  0  0  0  0  0  0  0  0
    2.4000   -1.3856    0.0000 C   0  0  0  0  0  0  0  0  0  0  0  0
    3.2000   -2.7713    0.0000 H   0  0  0  0  0  0  0  0  0  0  0  0
    0.8000   -1.3856    0.0000 C   0  0  0  0  0  0  0  0  0  0  0  0
    0.0000   -2.7713    0.0000 H   0  0  0  0  0  0  0  0  0  0  0  0
    0.0000   -0.0000    0.0000 C   0  0  0  0  0  0  0  0  0  0  0  0
   -1.6000    0.0000    0.0000 N   0  0  0  0  0  0  0  0  0  0  0  0
   -2.4000   -1.3856    0.0000 H   0  0  0  0  0  0  0  0  0  0  0  0
   -2.4000    1.3856    0.0000 H   0  0  0  0  0  0  0  0  0  0  0  0
  1  2  1  0  0  0  0
  2  3  1  0  0  0  0
  3  4  1  0  0  0  0
  3  5  2  0  0  0  0
  5  6  1  0  0  0  0
  5  7  1  0  0  0  0
  7  8  1  0  0  0  0
  7  9  2  0  0  0  0
  9 10  1  0  0  0  0
  9 11  1  0  0  0  0
 11  2  2  0  0  0  0
 11 12  1  0  0  0  0
 12 13  1  0  0  0  0
 12 14  1  0  0  0  0
M  END
> <ChemID>
100250

> <source_casrn>
554-00-7

> <CAS>
554-00-7

> <SMILES>
Nc1ccc(Cl)cc1Cl

> <NAME>
Benzenamine, 2,4-dichloro-

> <preferred_name>
2,4-Dichloroaniline

> <iupac>
2,4-dichloroaniline

> <MPID>
101881

> <dsstox_substance_id>
DTXSID1024966

> <Canonical_QSARr>
Nc1ccc(Cl)cc1Cl

> <InChI_Code_QSARr>
InChI=1S/C6H5Cl2N/c7-4-1-2-6(9)5(8)3-4/h1-3H,9H2

> <InChI Key_QSARr>
KQCMTOWTPBNWDB-UHFFFAOYSA-N

> <LogKmHL>
-0.65

$$$$
100251
  -INDIGO-08031722222D

 15 15  0  0  0  0  0  0  0  0999 V2000
    3.2000    2.7713    0.0000 O   0  0  0  0  0  0  0  0  0  0  0  0
    4.8000    2.7713    0.0000 H   0  0  0  0  0  0  0  0  0  0  0  0
    2.4000    1.3856    0.0000 C   0  0  0  0  0  0  0  0  0  0  0  0
    3.2000   -0.0000    0.0000 C   0  0  0  0  0  0  0  0  0  0  0  0
    4.8000   -0.0000    0.0000 H   0  0  0  0  0  0  0  0  0  0  0  0
    2.4000   -1.3856    0.0000 C   0  0  0  0  0  0  0  0  0  0  0  0
    3.2000   -2.7713    0.0000 H   0  0  0  0  0  0  0  0  0  0  0  0
    0.8000   -1.3856    0.0000 C   0  0  0  0  0  0  0  0  0  0  0  0
    0.0000   -2.7713    0.0000 H   0  0  0  0  0  0  0  0  0  0  0  0
    0.0000   -0.0000    0.0000 C   0  0  0  0  0  0  0  0  0  0  0  0
   -1.6000   -0.0000    0.0000 N   0  0  0  0  0  0  0  0  0  0  0  0
   -2.4000   -1.3856    0.0000 O   0  0  0  0  0  0  0  0  0  0  0  0
   -2.4000    1.3856    0.0000 O   0  0  0  0  0  0  0  0  0  0  0  0
    0.8000    1.3856    0.0000 C   0  0  0  0  0  0  0  0  0  0  0  0
    0.0000    2.7713    0.0000 H   0  0  0  0  0  0  0  0  0  0  0  0
  1  2  1  0  0  0  0
  1  3  1  0  0  0  0
  3  4  1  0  0  0  0
  4  5  1  0  0  0  0
  4  6  2  0  0  0  0
  6  7  1  0  0  0  0
  6  8  1  0  0  0  0
  8  9  1  0  0  0  0
  8 10  2  0  0  0  0
 10 11  1  0  0  0  0
 11 12  1  0  0  0  0
 11 13  2  0  0  0  0
 10 14  1  0  0  0  0
 14  3  2  0  0  0  0
 14 15  1  0  0  0  0
M  CHG  2  11   1  12  -1
M  END
> <ChemID>
100251

> <source_casrn>
554-84-7

> <CAS>
554-84-7

> <SMILES>
[O-][N+](=O)c1cccc(O)c1

> <NAME>
Phenol, 3-nitro-

> <preferred_name>
3-Nitrophenol

> <iupac>
3-nitrophenol

> <MPID>
101882

> <dsstox_substance_id>
DTXSID2025765

> <Canonical_QSARr>
[O-][N+](=O)c1cccc(O)c1

> <InChI_Code_QSARr>
InChI=1S/C6H5NO3/c8-6-3-1-2-5(4-6)7(9)10/h1-4,8H

> <InChI Key_QSARr>
RTZZCYNQPHTPPL-UHFFFAOYSA-N

> <LogKmHL>
-0.49

$$$$
100252
  -INDIGO-08031722222D

 18 18  0  0  0  0  0  0  0  0999 V2000
   -2.7713   -0.0000    0.0000 C   0  0  0  0  0  0  0  0  0  0  0  0
   -1.3857    0.8000    0.0000 C   0  0  0  0  0  0  0  0  0  0  0  0
   -1.3857    2.4000    0.0000 H   0  0  0  0  0  0  0  0  0  0  0  0
    0.0001   -0.0000    0.0000 C   0  0  0  0  0  0  0  0  0  0  0  0
    1.3857    0.8000    0.0000 O   0  0  0  0  0  0  0  0  0  0  0  0
    2.7713   -0.0000    0.0000 C   0  0  0  0  0  0  0  0  0  0  0  0
    4.1569    0.8000    0.0000 H   0  0  0  0  0  0  0  0  0  0  0  0
    4.1569   -0.8000    0.0000 H   0  0  0  0  0  0  0  0  0  0  0  0
    2.7713    1.6000    0.0000 H   0  0  0  0  0  0  0  0  0  0  0  0
    0.0001   -1.6000    0.0000 C   0  0  0  0  0  0  0  0  0  0  0  0
    1.3857   -2.4000    0.0000 H   0  0  0  0  0  0  0  0  0  0  0  0
   -1.3857   -2.4000    0.0000 C   0  0  0  0  0  0  0  0  0  0  0  0
   -1.3857   -4.0000    0.0000 H   0  0  0  0  0  0  0  0  0  0  0  0
   -2.7713   -1.6000    0.0000 C   0  0  0  0  0  0  0  0  0  0  0  0
   -4.1569   -2.4000    0.0000 H   0  0  0  0  0  0  0  0  0  0  0  0
   -4.1569    0.8000    0.0000 N   0  0  0  0  0  0  0  0  0  0  0  0
   -5.5426   -0.0000    0.0000 O   0  0  0  0  0  0  0  0  0  0  0  0
   -4.1569    2.4000    0.0000 O   0  0  0  0  0  0  0  0  0  0  0  0
  1  2  1  0  0  0  0
  2  3  1  0  0  0  0
  2  4  2  0  0  0  0
  4  5  1  0  0  0  0
  5  6  1  0  0  0  0
  6  7  1  0  0  0  0
  6  8  1  0  0  0  0
  6  9  1  0  0  0  0
  4 10  1  0  0  0  0
 10 11  1  0  0  0  0
 10 12  2  0  0  0  0
 12 13  1  0  0  0  0
 12 14  1  0  0  0  0
 14  1  2  0  0  0  0
 14 15  1  0  0  0  0
  1 16  1  0  0  0  0
 16 17  2  0  0  0  0
 16 18  1  0  0  0  0
M  CHG  2  16   1  18  -1
M  END
> <ChemID>
100252

> <source_casrn>
555-03-3

> <CAS>
555-03-3

> <SMILES>
COc1cc(ccc1)[N+]([O-])=O

> <NAME>
m-nitroanisole

> <preferred_name>
Benzene, 1-methoxy-3-nitro-

> <iupac>
1-Methoxy-3-nitrobenzene

> <MPID>
101883

> <dsstox_substance_id>
DTXSID3060295

> <Canonical_QSARr>
COc1cc(ccc1)[N+]([O-])=O

> <InChI_Code_QSARr>
InChI=1S/C7H7NO3/c1-11-7-4-2-3-6(5-7)8(9)10/h2-5H,1H3

> <InChI Key_QSARr>
WGYFINWERLNPHR-UHFFFAOYSA-N

> <LogKmHL>
-1.04

$$$$
100254
  -INDIGO-08031722222D

 24 25  0  0  0  0  0  0  0  0999 V2000
   -0.0001   -0.0001    0.0000 C   0  0  0  0  0  0  0  0  0  0  0  0
    1.3857    0.8000    0.0000 C   0  0  0  0  0  0  0  0  0  0  0  0
    1.3857    2.4000    0.0000 C   0  0  0  0  0  0  0  0  0  0  0  0
    1.3857    4.0000    0.0000 H   0  0  0  0  0  0  0  0  0  0  0  0
    2.7713    3.1999    0.0000 H   0  0  0  0  0  0  0  0  0  0  0  0
   -0.0001    3.1999    0.0000 H   0  0  0  0  0  0  0  0  0  0  0  0
    2.7713    0.0001    0.0000 C   0  0  0  0  0  0  0  0  0  0  0  0
    4.1569    0.8000    0.0000 H   0  0  0  0  0  0  0  0  0  0  0  0
    2.7713   -1.5999    0.0000 C   0  0  0  0  0  0  0  0  0  0  0  0
    4.1569   -2.4000    0.0000 C   0  0  0  0  0  0  0  0  0  0  0  0
    5.5426   -3.1999    0.0000 H   0  0  0  0  0  0  0  0  0  0  0  0
    4.1569   -4.0000    0.0000 H   0  0  0  0  0  0  0  0  0  0  0  0
    5.5426   -1.6001    0.0000 H   0  0  0  0  0  0  0  0  0  0  0  0
    1.3857   -2.4000    0.0000 C   0  0  0  0  0  0  0  0  0  0  0  0
    1.3857   -4.0000    0.0000 H   0  0  0  0  0  0  0  0  0  0  0  0
   -0.0001   -1.5999    0.0000 C   0  0  0  0  0  0  0  0  0  0  0  0
   -1.3857   -2.4000    0.0000 C   0  0  0  0  0  0  0  0  0  0  0  0
   -1.3857   -4.0000    0.0000 H   0  0  0  0  0  0  0  0  0  0  0  0
   -2.7713   -1.5999    0.0000 C   0  0  0  0  0  0  0  0  0  0  0  0
   -4.1569   -2.4000    0.0000 H   0  0  0  0  0  0  0  0  0  0  0  0
   -2.7713   -0.0001    0.0000 C   0  0  0  0  0  0  0  0  0  0  0  0
   -4.1569    0.8000    0.0000 H   0  0  0  0  0  0  0  0  0  0  0  0
   -1.3857    0.8000    0.0000 C   0  0  0  0  0  0  0  0  0  0  0  0
   -1.3857    2.4000    0.0000 H   0  0  0  0  0  0  0  0  0  0  0  0
  1  2  1  0  0  0  0
  2  3  1  0  0  0  0
  3  4  1  0  0  0  0
  3  5  1  0  0  0  0
  3  6  1  0  0  0  0
  2  7  2  0  0  0  0
  7  8  1  0  0  0  0
  7  9  1  0  0  0  0
  9 10  1  0  0  0  0
 10 11  1  0  0  0  0
 10 12  1  0  0  0  0
 10 13  1  0  0  0  0
  9 14  2  0  0  0  0
 14 15  1  0  0  0  0
 14 16  1  0  0  0  0
 16  1  1  0  0  0  0
 16 17  2  0  0  0  0
 17 18  1  0  0  0  0
 17 19  1  0  0  0  0
 19 20  1  0  0  0  0
 19 21  2  0  0  0  0
 21 22  1  0  0  0  0
 21 23  1  0  0  0  0
 23  1  2  0  0  0  0
 23 24  1  0  0  0  0
M  END
> <ChemID>
100254

> <source_casrn>
575-41-7

> <CAS>
575-41-7

> <SMILES>
Cc1cc2ccccc2c(C)c1

> <NAME>
1,3-dimethylnaphthalene

> <preferred_name>
1,3-Dimethylnaphthalene

> <iupac>
1,3-Dimethylnaphthalene

> <MPID>
101885

> <dsstox_substance_id>
DTXSID9060360

> <Canonical_QSARr>
Cc1cc2ccccc2c(C)c1

> <InChI_Code_QSARr>
InChI=1S/C12H12/c1-9-7-10(2)12-6-4-3-5-11(12)8-9/h3-8H,1-2H3

> <InChI Key_QSARr>
QHJMFSMPSZREIF-UHFFFAOYSA-N

> <LogKmHL>
0.51

$$$$
100255
  -INDIGO-08031722222D

 22 22  0  0  0  0  0  0  0  0999 V2000
   -1.3857   -0.7999    0.0000 C   0  0  0  0  0  0  0  0  0  0  0  0
    0.0001    0.0000    0.0000 N   0  0  0  0  0  0  0  0  0  0  0  0
    1.3857   -0.7999    0.0000 C   0  0  0  0  0  0  0  0  0  0  0  0
    2.7713    0.0000    0.0000 C   0  0  0  0  0  0  0  0  0  0  0  0
    4.1569    0.8001    0.0000 H   0  0  0  0  0  0  0  0  0  0  0  0
    4.1569   -0.7999    0.0000 H   0  0  0  0  0  0  0  0  0  0  0  0
    2.7713    1.6000    0.0000 H   0  0  0  0  0  0  0  0  0  0  0  0
    1.3857   -2.3999    0.0000 O   0  0  0  0  0  0  0  0  0  0  0  0
    0.0001    1.6000    0.0000 C   0  0  0  0  0  0  0  0  0  0  0  0
    0.0001    3.2000    0.0000 H   0  0  0  0  0  0  0  0  0  0  0  0
    1.3857    2.4001    0.0000 H   0  0  0  0  0  0  0  0  0  0  0  0
   -1.3857    2.4001    0.0000 H   0  0  0  0  0  0  0  0  0  0  0  0
   -1.3857   -2.4001    0.0000 C   0  0  0  0  0  0  0  0  0  0  0  0
    0.0001   -3.2000    0.0000 H   0  0  0  0  0  0  0  0  0  0  0  0
   -2.7713   -3.2000    0.0000 C   0  0  0  0  0  0  0  0  0  0  0  0
   -2.7713   -4.8000    0.0000 H   0  0  0  0  0  0  0  0  0  0  0  0
   -4.1569   -2.3999    0.0000 C   0  0  0  0  0  0  0  0  0  0  0  0
   -5.5426   -3.2000    0.0000 H   0  0  0  0  0  0  0  0  0  0  0  0
   -4.1569   -0.7999    0.0000 C   0  0  0  0  0  0  0  0  0  0  0  0
   -5.5426    0.0000    0.0000 H   0  0  0  0  0  0  0  0  0  0  0  0
   -2.7713    0.0000    0.0000 C   0  0  0  0  0  0  0  0  0  0  0  0
   -2.7713    1.6000    0.0000 H   0  0  0  0  0  0  0  0  0  0  0  0
  1  2  1  0  0  0  0
  2  3  1  0  0  0  0
  3  4  1  0  0  0  0
  4  5  1  0  0  0  0
  4  6  1  0  0  0  0
  4  7  1  0  0  0  0
  3  8  2  0  0  0  0
  2  9  1  0  0  0  0
  9 10  1  0  0  0  0
  9 11  1  0  0  0  0
  9 12  1  0  0  0  0
  1 13  1  0  0  0  0
 13 14  1  0  0  0  0
 13 15  2  0  0  0  0
 15 16  1  0  0  0  0
 15 17  1  0  0  0  0
 17 18  1  0  0  0  0
 17 19  2  0  0  0  0
 19 20  1  0  0  0  0
 19 21  1  0  0  0  0
 21  1  2  0  0  0  0
 21 22  1  0  0  0  0
M  END
> <ChemID>
100255

> <source_casrn>
579-10-2

> <CAS>
579-10-2

> <SMILES>
CC(=O)N(C)c1ccccc1

> <NAME>
N-methylacetanilide

> <preferred_name>
Acetamide, N-methyl-N-phenyl-

> <iupac>
N-Methyl-N-phenylacetamide

> <MPID>
101886

> <dsstox_substance_id>
DTXSID8060373

> <Canonical_QSARr>
CC(=O)N(C)c1ccccc1

> <InChI_Code_QSARr>
InChI=1S/C9H11NO/c1-8(11)10(2)9-6-4-3-5-7-9/h3-7H,1-2H3

> <InChI Key_QSARr>
LMTGCJANOQOGPI-UHFFFAOYSA-N

> <LogKmHL>
-1.12

$$$$
100256
  -INDIGO-08031722222D

 24 25  0  0  0  0  0  0  0  0999 V2000
   -2.7713    1.6000    0.0000 C   0  0  0  0  0  0  0  0  0  0  0  0
   -1.3856    2.4000    0.0000 C   0  0  0  0  0  0  0  0  0  0  0  0
   -1.3856    4.0000    0.0000 H   0  0  0  0  0  0  0  0  0  0  0  0
    0.0000    1.6000    0.0000 C   0  0  0  0  0  0  0  0  0  0  0  0
    1.3857    2.4000    0.0000 C   0  0  0  0  0  0  0  0  0  0  0  0
    2.7713    3.2000    0.0000 H   0  0  0  0  0  0  0  0  0  0  0  0
    2.7713    1.6000    0.0000 H   0  0  0  0  0  0  0  0  0  0  0  0
    1.3857    4.0000    0.0000 H   0  0  0  0  0  0  0  0  0  0  0  0
    0.0000    0.0000    0.0000 C   0  0  0  0  0  0  0  0  0  0  0  0
    1.3857   -0.8000    0.0000 C   0  0  0  0  0  0  0  0  0  0  0  0
    2.7713   -1.6000    0.0000 H   0  0  0  0  0  0  0  0  0  0  0  0
    1.3857   -2.4000    0.0000 H   0  0  0  0  0  0  0  0  0  0  0  0
    2.7713    0.0000    0.0000 H   0  0  0  0  0  0  0  0  0  0  0  0
   -1.3856   -0.8000    0.0000 C   0  0  0  0  0  0  0  0  0  0  0  0
   -1.3856   -2.4000    0.0000 H   0  0  0  0  0  0  0  0  0  0  0  0
   -2.7713    0.0000    0.0000 C   0  0  0  0  0  0  0  0  0  0  0  0
   -4.1570   -0.8000    0.0000 C   0  0  0  0  0  0  0  0  0  0  0  0
   -4.1570   -2.4000    0.0000 H   0  0  0  0  0  0  0  0  0  0  0  0
   -5.5426    0.0000    0.0000 C   0  0  0  0  0  0  0  0  0  0  0  0
   -6.9282   -0.8000    0.0000 H   0  0  0  0  0  0  0  0  0  0  0  0
   -5.5426    1.6000    0.0000 C   0  0  0  0  0  0  0  0  0  0  0  0
   -6.9282    2.4000    0.0000 H   0  0  0  0  0  0  0  0  0  0  0  0
   -4.1570    2.4000    0.0000 C   0  0  0  0  0  0  0  0  0  0  0  0
   -4.1570    4.0000    0.0000 H   0  0  0  0  0  0  0  0  0  0  0  0
  1  2  1  0  0  0  0
  2  3  1  0  0  0  0
  2  4  2  0  0  0  0
  4  5  1  0  0  0  0
  5  6  1  0  0  0  0
  5  7  1  0  0  0  0
  5  8  1  0  0  0  0
  4  9  1  0  0  0  0
  9 10  1  0  0  0  0
 10 11  1  0  0  0  0
 10 12  1  0  0  0  0
 10 13  1  0  0  0  0
  9 14  2  0  0  0  0
 14 15  1  0  0  0  0
 14 16  1  0  0  0  0
 16  1  1  0  0  0  0
 16 17  2  0  0  0  0
 17 18  1  0  0  0  0
 17 19  1  0  0  0  0
 19 20  1  0  0  0  0
 19 21  2  0  0  0  0
 21 22  1  0  0  0  0
 21 23  1  0  0  0  0
 23  1  2  0  0  0  0
 23 24  1  0  0  0  0
M  END
> <ChemID>
100256

> <source_casrn>
581-40-8

> <CAS>
581-40-8

> <SMILES>
Cc1cc2ccccc2cc1C

> <NAME>
2,3-dimethylnaphthalene

> <preferred_name>
2,3-Dimethylnaphthalene

> <iupac>
2,3-Dimethylnaphthalene

> <MPID>
101887

> <dsstox_substance_id>
DTXSID2060383

> <Canonical_QSARr>
Cc1cc2ccccc2cc1C

> <InChI_Code_QSARr>
InChI=1S/C12H12/c1-9-7-11-5-3-4-6-12(11)8-10(9)2/h3-8H,1-2H3

> <InChI Key_QSARr>
WWGUMAYGTYQSGA-UHFFFAOYSA-N

> <LogKmHL>
0.03

$$$$
100258
  -INDIGO-08031722222D

 13 13  0  0  0  0  0  0  0  0999 V2000
   -0.0000   -0.0000    0.0000 C   0  0  0  0  0  0  0  0  0  0  0  0
    0.8000   -1.3857    0.0000 C   0  0  0  0  0  0  0  0  0  0  0  0
    2.4000   -1.3857    0.0000 H   0  0  0  0  0  0  0  0  0  0  0  0
   -0.0000   -2.7713    0.0000 C   0  0  0  0  0  0  0  0  0  0  0  0
    0.8000   -4.1569    0.0000 Cl  0  0  0  0  0  0  0  0  0  0  0  0
   -1.6000   -2.7713    0.0000 C   0  0  0  0  0  0  0  0  0  0  0  0
   -2.4000   -4.1569    0.0000 H   0  0  0  0  0  0  0  0  0  0  0  0
   -2.4000   -1.3856    0.0000 C   0  0  0  0  0  0  0  0  0  0  0  0
   -4.0000   -1.3856    0.0000 Cl  0  0  0  0  0  0  0  0  0  0  0  0
   -1.6000   -0.0000    0.0000 C   0  0  0  0  0  0  0  0  0  0  0  0
   -2.4000    1.3856    0.0000 H   0  0  0  0  0  0  0  0  0  0  0  0
    0.8000    1.3856    0.0000 O   0  0  0  0  0  0  0  0  0  0  0  0
    2.4000    1.3856    0.0000 H   0  0  0  0  0  0  0  0  0  0  0  0
  1  2  1  0  0  0  0
  2  3  1  0  0  0  0
  2  4  2  0  0  0  0
  4  5  1  0  0  0  0
  4  6  1  0  0  0  0
  6  7  1  0  0  0  0
  6  8  2  0  0  0  0
  8  9  1  0  0  0  0
  8 10  1  0  0  0  0
 10  1  2  0  0  0  0
 10 11  1  0  0  0  0
  1 12  1  0  0  0  0
 12 13  1  0  0  0  0
M  END
> <ChemID>
100258

> <source_casrn>
591-35-5

> <CAS>
591-35-5

> <SMILES>
Oc1cc(Cl)cc(Cl)c1

> <NAME>
3,5-dichlorophenol

> <preferred_name>
3,5-Dichlorophenol

> <iupac>
3,5-dichlorophenol

> <MPID>
101889

> <dsstox_substance_id>
DTXSID2025006

> <Canonical_QSARr>
Oc1cc(Cl)cc(Cl)c1

> <InChI_Code_QSARr>
InChI=1S/C6H4Cl2O/c7-4-1-5(8)3-6(9)2-4/h1-3,9H

> <InChI Key_QSARr>
VPOMSPZBQMDLTM-UHFFFAOYSA-N

> <LogKmHL>
-0.91

$$$$
100259
  -INDIGO-08031722222D

 20 20  0  0  0  0  0  0  0  0999 V2000
    2.7713   -1.6000    0.0000 O   0  0  0  0  0  0  0  0  0  0  0  0
    1.3856   -2.4001    0.0000 C   0  0  0  0  0  0  0  0  0  0  0  0
    1.3856   -3.9999    0.0000 O   0  0  0  0  0  0  0  0  0  0  0  0
    2.7713   -4.8000    0.0000 H   0  0  0  0  0  0  0  0  0  0  0  0
    0.0000   -1.6000    0.0000 C   0  0  0  0  0  0  0  0  0  0  0  0
    0.0000    0.0000    0.0000 C   0  0  0  0  0  0  0  0  0  0  0  0
    1.3856    0.8001    0.0000 C   0  0  0  0  0  0  0  0  0  0  0  0
    2.7713    0.0000    0.0000 O   0  0  0  0  0  0  0  0  0  0  0  0
    1.3856    2.4001    0.0000 O   0  0  0  0  0  0  0  0  0  0  0  0
    2.7713    3.2000    0.0000 H   0  0  0  0  0  0  0  0  0  0  0  0
   -1.3856    0.8001    0.0000 C   0  0  0  0  0  0  0  0  0  0  0  0
   -1.3856    2.4001    0.0000 N   0  0  0  0  0  0  0  0  0  0  0  0
   -2.7713    3.2000    0.0000 O   0  0  0  0  0  0  0  0  0  0  0  0
    0.0000    3.2000    0.0000 O   0  0  0  0  0  0  0  0  0  0  0  0
   -2.7713    0.0000    0.0000 C   0  0  0  0  0  0  0  0  0  0  0  0
   -4.1569    0.8001    0.0000 H   0  0  0  0  0  0  0  0  0  0  0  0
   -2.7713   -1.6000    0.0000 C   0  0  0  0  0  0  0  0  0  0  0  0
   -4.1569   -2.3999    0.0000 H   0  0  0  0  0  0  0  0  0  0  0  0
   -1.3856   -2.3999    0.0000 C   0  0  0  0  0  0  0  0  0  0  0  0
   -1.3856   -3.9999    0.0000 H   0  0  0  0  0  0  0  0  0  0  0  0
  1  2  2  0  0  0  0
  2  3  1  0  0  0  0
  3  4  1  0  0  0  0
  2  5  1  0  0  0  0
  5  6  1  0  0  0  0
  6  7  1  0  0  0  0
  7  8  2  0  0  0  0
  7  9  1  0  0  0  0
  9 10  1  0  0  0  0
  6 11  2  0  0  0  0
 11 12  1  0  0  0  0
 12 13  1  0  0  0  0
 12 14  2  0  0  0  0
 11 15  1  0  0  0  0
 15 16  1  0  0  0  0
 15 17  2  0  0  0  0
 17 18  1  0  0  0  0
 17 19  1  0  0  0  0
 19  5  2  0  0  0  0
 19 20  1  0  0  0  0
M  CHG  2  12   1  13  -1
M  END
> <ChemID>
100259

> <source_casrn>
603-11-2

> <CAS>
603-11-2

> <SMILES>
[O-][N+](=O)c1cccc(c1C(O)=O)C(O)=O

> <NAME>
1,2-Benzenedicarboxylic acid, 3-nitro-

> <preferred_name>
3-Nitrophthalic acid

> <iupac>
3-Nitrophthalic acid

> <MPID>
101890

> <dsstox_substance_id>
DTXSID9060528

> <Canonical_QSARr>
[O-][N+](=O)c1cccc(c1C(O)=O)C(O)=O

> <InChI_Code_QSARr>
InChI=1S/C8H5NO6/c10-7(11)4-2-1-3-5(9(14)15)6(4)8(12)13/h1-3H,(H,10,11)(H,12,13)

> <InChI Key_QSARr>
KFIRODWJCYBBHY-UHFFFAOYSA-N

> <LogKmHL>
-1.57

$$$$
100260
  -INDIGO-08031722222D

 28 30  0  0  0  0  0  0  0  0999 V2000
   -0.0001    0.0000    0.0000 C   0  0  0  0  0  0  0  0  0  0  0  0
    1.3856    0.8000    0.0000 C   0  0  0  0  0  0  0  0  0  0  0  0
    2.7713    0.0000    0.0000 C   0  0  0  0  0  0  0  0  0  0  0  0
    4.1569    0.8000    0.0000 C   0  0  0  0  0  0  0  0  0  0  0  0
    5.5426    0.0000    0.0000 H   0  0  0  0  0  0  0  0  0  0  0  0
    4.1569    2.4000    0.0000 C   0  0  0  0  0  0  0  0  0  0  0  0
    5.5426    3.2001    0.0000 H   0  0  0  0  0  0  0  0  0  0  0  0
    2.7713    3.2001    0.0000 C   0  0  0  0  0  0  0  0  0  0  0  0
    2.7713    4.8000    0.0000 H   0  0  0  0  0  0  0  0  0  0  0  0
    1.3856    2.4000    0.0000 C   0  0  0  0  0  0  0  0  0  0  0  0
   -0.0001    3.2001    0.0000 H   0  0  0  0  0  0  0  0  0  0  0  0
    2.7713   -1.6000    0.0000 C   0  0  0  0  0  0  0  0  0  0  0  0
    4.1569   -2.4001    0.0000 H   0  0  0  0  0  0  0  0  0  0  0  0
    1.3856   -2.4001    0.0000 C   0  0  0  0  0  0  0  0  0  0  0  0
    1.3856   -4.0000    0.0000 H   0  0  0  0  0  0  0  0  0  0  0  0
   -0.0001   -1.6000    0.0000 C   0  0  0  0  0  0  0  0  0  0  0  0
   -1.3856   -2.4001    0.0000 H   0  0  0  0  0  0  0  0  0  0  0  0
   -1.5036    0.5472    0.0000 C   0  0  0  0  0  0  0  0  0  0  0  0
   -1.7813    2.1229    0.0000 C   0  0  0  0  0  0  0  0  0  0  0  0
   -0.9814    3.5085    0.0000 H   0  0  0  0  0  0  0  0  0  0  0  0
   -3.2848    2.6702    0.0000 C   0  0  0  0  0  0  0  0  0  0  0  0
   -3.5627    4.2458    0.0000 H   0  0  0  0  0  0  0  0  0  0  0  0
   -4.5105    1.6417    0.0000 C   0  0  0  0  0  0  0  0  0  0  0  0
   -6.0140    2.1889    0.0000 H   0  0  0  0  0  0  0  0  0  0  0  0
   -4.2326    0.0660    0.0000 C   0  0  0  0  0  0  0  0  0  0  0  0
   -5.4584   -0.9625    0.0000 H   0  0  0  0  0  0  0  0  0  0  0  0
   -2.7291   -0.4812    0.0000 C   0  0  0  0  0  0  0  0  0  0  0  0
   -2.4514   -2.0570    0.0000 H   0  0  0  0  0  0  0  0  0  0  0  0
  1  2  1  0  0  0  0
  2  3  1  0  0  0  0
  3  4  2  0  0  0  0
  4  5  1  0  0  0  0
  4  6  1  0  0  0  0
  6  7  1  0  0  0  0
  6  8  2  0  0  0  0
  8  9  1  0  0  0  0
  8 10  1  0  0  0  0
 10  2  2  0  0  0  0
 10 11  1  0  0  0  0
  3 12  1  0  0  0  0
 12 13  1  0  0  0  0
 12 14  2  0  0  0  0
 14 15  1  0  0  0  0
 14 16  1  0  0  0  0
 16  1  2  0  0  0  0
 16 17  1  0  0  0  0
  1 18  1  0  0  0  0
 18 19  1  0  0  0  0
 19 20  1  0  0  0  0
 19 21  2  0  0  0  0
 21 22  1  0  0  0  0
 21 23  1  0  0  0  0
 23 24  1  0  0  0  0
 23 25  2  0  0  0  0
 25 26  1  0  0  0  0
 25 27  1  0  0  0  0
 27 18  2  0  0  0  0
 27 28  1  0  0  0  0
M  END
> <ChemID>
100260

> <source_casrn>
605-02-7

> <CAS>
605-02-7

> <SMILES>
c(ccc1c(c2)c(ccc3)cc3)cc1cc2

> <NAME>
1-Phenyl naphthalene

> <preferred_name>
1-Phenylnaphthalene

> <iupac>
1-Phenylnaphthalene

> <MPID>
101891

> <dsstox_substance_id>
DTXSID8060539

> <Canonical_QSARr>
c1ccccc1-c1cccc2ccccc21

> <InChI_Code_QSARr>
InChI=1S/C16H12/c1-2-7-13(8-3-1)16-12-6-10-14-9-4-5-11-15(14)16/h1-12H

> <InChI Key_QSARr>
IYDMICQAKLQHLA-UHFFFAOYSA-N

> <LogKmHL>
1.72

$$$$
100262
  -INDIGO-08031722222D

 12 12  0  0  0  0  0  0  0  0999 V2000
   -0.0000   -0.0000    0.0000 C   0  0  0  0  0  0  0  0  0  0  0  0
    0.8000   -1.3857    0.0000 C   0  0  0  0  0  0  0  0  0  0  0  0
    2.4000   -1.3857    0.0000 Cl  0  0  0  0  0  0  0  0  0  0  0  0
   -0.0000   -2.7713    0.0000 C   0  0  0  0  0  0  0  0  0  0  0  0
    0.8000   -4.1569    0.0000 Cl  0  0  0  0  0  0  0  0  0  0  0  0
   -1.6000   -2.7713    0.0000 C   0  0  0  0  0  0  0  0  0  0  0  0
   -2.4000   -4.1569    0.0000 Cl  0  0  0  0  0  0  0  0  0  0  0  0
   -2.4000   -1.3856    0.0000 C   0  0  0  0  0  0  0  0  0  0  0  0
   -4.0000   -1.3856    0.0000 Cl  0  0  0  0  0  0  0  0  0  0  0  0
   -1.6000   -0.0000    0.0000 C   0  0  0  0  0  0  0  0  0  0  0  0
   -2.4000    1.3856    0.0000 H   0  0  0  0  0  0  0  0  0  0  0  0
    0.8000    1.3856    0.0000 Cl  0  0  0  0  0  0  0  0  0  0  0  0
  1  2  1  0  0  0  0
  2  3  1  0  0  0  0
  2  4  2  0  0  0  0
  4  5  1  0  0  0  0
  4  6  1  0  0  0  0
  6  7  1  0  0  0  0
  6  8  2  0  0  0  0
  8  9  1  0  0  0  0
  8 10  1  0  0  0  0
 10  1  2  0  0  0  0
 10 11  1  0  0  0  0
  1 12  1  0  0  0  0
M  END
> <ChemID>
100262

> <source_casrn>
608-93-5

> <CAS>
608-93-5

> <SMILES>
Clc1c(Cl)c(Cl)cc(Cl)c1Cl

> <NAME>
Benzene, pentachloro-

> <preferred_name>
Pentachlorobenzene

> <iupac>
1,2,3,4,5-pentachlorobenzene

> <MPID>
101893

> <dsstox_substance_id>
DTXSID7024247

> <Canonical_QSARr>
Clc1c(Cl)c(Cl)cc(Cl)c1Cl

> <InChI_Code_QSARr>
InChI=1S/C6HCl5/c7-2-1-3(8)5(10)6(11)4(2)9/h1H

> <InChI Key_QSARr>
CEOCDNVZRAIOQZ-UHFFFAOYSA-N

> <LogKmHL>
1.87

$$$$
100263
  -INDIGO-08031722222D

 19 19  0  0  0  0  0  0  0  0999 V2000
   -2.7713    1.6000    0.0000 C   0  0  0  0  0  0  0  0  0  0  0  0
   -1.3856    2.4000    0.0000 C   0  0  0  0  0  0  0  0  0  0  0  0
   -1.3856    4.0000    0.0000 H   0  0  0  0  0  0  0  0  0  0  0  0
    0.0000    1.6000    0.0000 C   0  0  0  0  0  0  0  0  0  0  0  0
    1.3857    2.4000    0.0000 H   0  0  0  0  0  0  0  0  0  0  0  0
    0.0000    0.0000    0.0000 C   0  0  0  0  0  0  0  0  0  0  0  0
    1.3857   -0.8000    0.0000 C   0  0  0  0  0  0  0  0  0  0  0  0
    2.7713   -1.6000    0.0000 H   0  0  0  0  0  0  0  0  0  0  0  0
    2.7713    0.0000    0.0000 H   0  0  0  0  0  0  0  0  0  0  0  0
    1.3857   -2.4000    0.0000 H   0  0  0  0  0  0  0  0  0  0  0  0
   -1.3856   -0.8000    0.0000 C   0  0  0  0  0  0  0  0  0  0  0  0
   -1.3856   -2.4000    0.0000 H   0  0  0  0  0  0  0  0  0  0  0  0
   -2.7713    0.0000    0.0000 C   0  0  0  0  0  0  0  0  0  0  0  0
   -4.1569   -0.8000    0.0000 N   0  0  0  0  0  0  0  0  0  0  0  0
   -5.5426    0.0000    0.0000 O   0  0  0  0  0  0  0  0  0  0  0  0
   -4.1570   -2.4000    0.0000 O   0  0  0  0  0  0  0  0  0  0  0  0
   -4.1569    2.4000    0.0000 N   0  0  0  0  0  0  0  0  0  0  0  0
   -4.1570    4.0000    0.0000 O   0  0  0  0  0  0  0  0  0  0  0  0
   -5.5426    1.6000    0.0000 O   0  0  0  0  0  0  0  0  0  0  0  0
  1  2  1  0  0  0  0
  2  3  1  0  0  0  0
  2  4  2  0  0  0  0
  4  5  1  0  0  0  0
  4  6  1  0  0  0  0
  6  7  1  0  0  0  0
  7  8  1  0  0  0  0
  7  9  1  0  0  0  0
  7 10  1  0  0  0  0
  6 11  2  0  0  0  0
 11 12  1  0  0  0  0
 11 13  1  0  0  0  0
 13  1  2  0  0  0  0
 13 14  1  0  0  0  0
 14 15  1  0  0  0  0
 14 16  2  0  0  0  0
  1 17  1  0  0  0  0
 17 18  1  0  0  0  0
 17 19  2  0  0  0  0
M  CHG  4  14   1  15  -1  17   1  18  -1
M  END
> <ChemID>
100263

> <source_casrn>
610-39-9

> <CAS>
610-39-9

> <SMILES>
Cc1cc(c(cc1)[N+]([O-])=O)[N+]([O-])=O

> <NAME>
Benzene, 4-methyl-1,2-dinitro-

> <preferred_name>
3,4-Dinitrotoluene

> <iupac>
4-methyl-1,2-dinitrobenzene

> <MPID>
101894

> <dsstox_substance_id>
DTXSID8027240

> <Canonical_QSARr>
Cc1cc(c(cc1)[N+]([O-])=O)[N+]([O-])=O

> <InChI_Code_QSARr>
InChI=1S/C7H6N2O4/c1-5-2-3-6(8(10)11)7(4-5)9(12)13/h2-4H,1H3

> <InChI Key_QSARr>
INYDMNPNDHRJQJ-UHFFFAOYSA-N

> <LogKmHL>
-1.4

$$$$
100264
  -INDIGO-08031722222D

 14 14  0  0  0  0  0  0  0  0999 V2000
    1.6000   -0.0000    0.0000 N   0  0  0  0  0  0  0  0  0  0  0  0
    2.4000    1.3856    0.0000 O   0  0  0  0  0  0  0  0  0  0  0  0
    2.4000   -1.3856    0.0000 O   0  0  0  0  0  0  0  0  0  0  0  0
    0.0000   -0.0000    0.0000 C   0  0  0  0  0  0  0  0  0  0  0  0
   -0.8000    1.3856    0.0000 C   0  0  0  0  0  0  0  0  0  0  0  0
    0.0000    2.7713    0.0000 H   0  0  0  0  0  0  0  0  0  0  0  0
   -2.4000    1.3856    0.0000 C   0  0  0  0  0  0  0  0  0  0  0  0
   -3.2000    2.7713    0.0000 H   0  0  0  0  0  0  0  0  0  0  0  0
   -3.2000   -0.0000    0.0000 C   0  0  0  0  0  0  0  0  0  0  0  0
   -4.8000   -0.0000    0.0000 Cl  0  0  0  0  0  0  0  0  0  0  0  0
   -2.4000   -1.3856    0.0000 C   0  0  0  0  0  0  0  0  0  0  0  0
   -3.2000   -2.7713    0.0000 H   0  0  0  0  0  0  0  0  0  0  0  0
   -0.8000   -1.3856    0.0000 C   0  0  0  0  0  0  0  0  0  0  0  0
    0.0000   -2.7713    0.0000 Cl  0  0  0  0  0  0  0  0  0  0  0  0
  1  2  2  0  0  0  0
  1  3  1  0  0  0  0
  1  4  1  0  0  0  0
  4  5  1  0  0  0  0
  5  6  1  0  0  0  0
  5  7  2  0  0  0  0
  7  8  1  0  0  0  0
  7  9  1  0  0  0  0
  9 10  1  0  0  0  0
  9 11  2  0  0  0  0
 11 12  1  0  0  0  0
 11 13  1  0  0  0  0
 13  4  2  0  0  0  0
 13 14  1  0  0  0  0
M  CHG  2   1   1   3  -1
M  END
> <ChemID>
100264

> <source_casrn>
611-06-3

> <CAS>
611-06-3

> <SMILES>
[O-][N+](=O)c1ccc(Cl)cc1Cl

> <NAME>
2,4-Dichloro-1-nitrobenzene

> <preferred_name>
2,4-Dichloronitrobenzene

> <iupac>
2,4-dichloro-1-nitrobenzene

> <MPID>
101895

> <dsstox_substance_id>
DTXSID3024998

> <Canonical_QSARr>
[O-][N+](=O)c1ccc(Cl)cc1Cl

> <InChI_Code_QSARr>
InChI=1S/C6H3Cl2NO2/c7-4-1-2-6(9(10)11)5(8)3-4/h1-3H

> <InChI Key_QSARr>
QUIMTLZDMCNYGY-UHFFFAOYSA-N

> <LogKmHL>
0.83

$$$$
100266
  -INDIGO-08031722222D

 20 20  0  0  0  0  0  0  0  0999 V2000
    2.4001   -1.3856    0.0000 C   0  0  0  0  0  0  0  0  0  0  0  0
    4.0000   -1.3856    0.0000 H   0  0  0  0  0  0  0  0  0  0  0  0
    3.2000   -2.7713    0.0000 H   0  0  0  0  0  0  0  0  0  0  0  0
    3.2000    0.0000    0.0000 H   0  0  0  0  0  0  0  0  0  0  0  0
    1.6000    0.0000    0.0000 C   0  0  0  0  0  0  0  0  0  0  0  0
    2.8694    0.9740    0.0000 H   0  0  0  0  0  0  0  0  0  0  0  0
    1.8088    1.5863    0.0000 H   0  0  0  0  0  0  0  0  0  0  0  0
   -0.0000    0.0000    0.0000 C   0  0  0  0  0  0  0  0  0  0  0  0
   -0.8000   -1.3856    0.0000 C   0  0  0  0  0  0  0  0  0  0  0  0
   -0.0000   -2.7713    0.0000 H   0  0  0  0  0  0  0  0  0  0  0  0
   -2.4000   -1.3856    0.0000 C   0  0  0  0  0  0  0  0  0  0  0  0
   -3.2001   -2.7713    0.0000 H   0  0  0  0  0  0  0  0  0  0  0  0
   -3.2001    0.0000    0.0000 C   0  0  0  0  0  0  0  0  0  0  0  0
   -4.8000    0.0000    0.0000 H   0  0  0  0  0  0  0  0  0  0  0  0
   -2.4000    1.3856    0.0000 C   0  0  0  0  0  0  0  0  0  0  0  0
   -3.2001    2.7713    0.0000 H   0  0  0  0  0  0  0  0  0  0  0  0
   -0.8000    1.3856    0.0000 C   0  0  0  0  0  0  0  0  0  0  0  0
   -0.0000    2.7713    0.0000 N   0  0  0  0  0  0  0  0  0  0  0  0
   -0.8000    4.1569    0.0000 O   0  0  0  0  0  0  0  0  0  0  0  0
    1.6000    2.7713    0.0000 O   0  0  0  0  0  0  0  0  0  0  0  0
  1  2  1  0  0  0  0
  1  3  1  0  0  0  0
  1  4  1  0  0  0  0
  1  5  1  0  0  0  0
  5  6  1  0  0  0  0
  5  7  1  0  0  0  0
  5  8  1  0  0  0  0
  8  9  1  0  0  0  0
  9 10  1  0  0  0  0
  9 11  2  0  0  0  0
 11 12  1  0  0  0  0
 11 13  1  0  0  0  0
 13 14  1  0  0  0  0
 13 15  2  0  0  0  0
 15 16  1  0  0  0  0
 15 17  1  0  0  0  0
 17  8  2  0  0  0  0
 17 18  1  0  0  0  0
 18 19  1  0  0  0  0
 18 20  2  0  0  0  0
M  CHG  2  18   1  19  -1
M  END
> <ChemID>
100266

> <source_casrn>
612-22-6

> <CAS>
612-22-6

> <SMILES>
CCc1ccccc1[N+]([O-])=O

> <NAME>
2-ethylnitrobenzene

> <preferred_name>
Benzene, 1-ethyl-2-nitro-

> <iupac>
1-Ethyl-2-nitrobenzene

> <MPID>
101897

> <dsstox_substance_id>
DTXSID4073209

> <Canonical_QSARr>
CCc1ccccc1[N+]([O-])=O

> <InChI_Code_QSARr>
InChI=1S/C8H9NO2/c1-2-7-5-3-4-6-8(7)9(10)11/h3-6H,2H2,1H3

> <InChI Key_QSARr>
PXWYZLWEKCMTEZ-UHFFFAOYSA-N

> <LogKmHL>
-0.56

$$$$
100267
  -INDIGO-08031722222D

 27 29  0  0  0  0  0  0  0  0999 V2000
    0.0001   -0.0000    0.0000 C   0  0  0  0  0  0  0  0  0  0  0  0
    1.3856    0.8000    0.0000 C   0  0  0  0  0  0  0  0  0  0  0  0
    1.3856    2.4000    0.0000 H   0  0  0  0  0  0  0  0  0  0  0  0
    2.7713   -0.0000    0.0000 C   0  0  0  0  0  0  0  0  0  0  0  0
    4.1570    0.8000    0.0000 C   0  0  0  0  0  0  0  0  0  0  0  0
    4.1570    2.4000    0.0000 H   0  0  0  0  0  0  0  0  0  0  0  0
    5.5425   -0.0000    0.0000 C   0  0  0  0  0  0  0  0  0  0  0  0
    6.9282    0.8000    0.0000 H   0  0  0  0  0  0  0  0  0  0  0  0
    5.5425   -1.6000    0.0000 C   0  0  0  0  0  0  0  0  0  0  0  0
    6.9282   -2.4000    0.0000 H   0  0  0  0  0  0  0  0  0  0  0  0
    4.1570   -2.4000    0.0000 C   0  0  0  0  0  0  0  0  0  0  0  0
    4.1570   -4.0000    0.0000 H   0  0  0  0  0  0  0  0  0  0  0  0
    2.7713   -1.6000    0.0000 C   0  0  0  0  0  0  0  0  0  0  0  0
    1.3856   -2.4000    0.0000 C   0  0  0  0  0  0  0  0  0  0  0  0
    1.3856   -4.0000    0.0000 H   0  0  0  0  0  0  0  0  0  0  0  0
    0.0001   -1.6000    0.0000 C   0  0  0  0  0  0  0  0  0  0  0  0
   -1.3856   -2.4000    0.0000 C   0  0  0  0  0  0  0  0  0  0  0  0
   -1.3856   -4.0000    0.0000 H   0  0  0  0  0  0  0  0  0  0  0  0
   -2.7713   -1.6000    0.0000 C   0  0  0  0  0  0  0  0  0  0  0  0
   -4.1569   -2.4000    0.0000 H   0  0  0  0  0  0  0  0  0  0  0  0
   -2.7713   -0.0000    0.0000 C   0  0  0  0  0  0  0  0  0  0  0  0
   -4.1569    0.8000    0.0000 C   0  0  0  0  0  0  0  0  0  0  0  0
   -5.5426    1.6000    0.0000 H   0  0  0  0  0  0  0  0  0  0  0  0
   -5.5426   -0.0000    0.0000 H   0  0  0  0  0  0  0  0  0  0  0  0
   -4.1569    2.4000    0.0000 H   0  0  0  0  0  0  0  0  0  0  0  0
   -1.3856    0.8000    0.0000 C   0  0  0  0  0  0  0  0  0  0  0  0
   -1.3856    2.4000    0.0000 H   0  0  0  0  0  0  0  0  0  0  0  0
  1  2  2  0  0  0  0
  2  3  1  0  0  0  0
  2  4  1  0  0  0  0
  4  5  1  0  0  0  0
  5  6  1  0  0  0  0
  5  7  2  0  0  0  0
  7  8  1  0  0  0  0
  7  9  1  0  0  0  0
  9 10  1  0  0  0  0
  9 11  2  0  0  0  0
 11 12  1  0  0  0  0
 11 13  1  0  0  0  0
 13  4  2  0  0  0  0
 13 14  1  0  0  0  0
 14 15  1  0  0  0  0
 14 16  2  0  0  0  0
 16  1  1  0  0  0  0
 16 17  1  0  0  0  0
 17 18  1  0  0  0  0
 17 19  2  0  0  0  0
 19 20  1  0  0  0  0
 19 21  1  0  0  0  0
 21 22  1  0  0  0  0
 22 23  1  0  0  0  0
 22 24  1  0  0  0  0
 22 25  1  0  0  0  0
 21 26  2  0  0  0  0
 26  1  1  0  0  0  0
 26 27  1  0  0  0  0
M  END
> <ChemID>
100267

> <source_casrn>
613-12-7

> <CAS>
613-12-7

> <SMILES>
Cc1cc2cc3ccccc3cc2cc1

> <NAME>
2-Methyl anthracene

> <preferred_name>
2-Methylanthracene

> <iupac>
2-Methylanthracene

> <MPID>
101898

> <dsstox_substance_id>
DTXSID8060616

> <Canonical_QSARr>
Cc1cc2cc3ccccc3cc2cc1

> <InChI_Code_QSARr>
InChI=1S/C15H12/c1-11-6-7-14-9-12-4-2-3-5-13(12)10-15(14)8-11/h2-10H,1H3

> <InChI Key_QSARr>
GYMFBYTZOGMSQJ-UHFFFAOYSA-N

> <LogKmHL>
-0.02

$$$$
100268
  -INDIGO-08031722222D

 12 12  0  0  0  0  0  0  0  0999 V2000
    0.0000    0.0000    0.0000 C   0  0  0  0  0  0  0  0  0  0  0  0
    1.5217    0.4944    0.0000 C   0  0  0  0  0  0  0  0  0  0  0  0
    2.0161    2.0161    0.0000 H   0  0  0  0  0  0  0  0  0  0  0  0
    2.4621   -0.8000    0.0000 C   0  0  0  0  0  0  0  0  0  0  0  0
    4.0621   -0.8000    0.0000 H   0  0  0  0  0  0  0  0  0  0  0  0
    1.5217   -2.0944    0.0000 S   0  0  0  0  0  0  0  0  0  0  0  0
    0.0000   -1.6000    0.0000 C   0  0  0  0  0  0  0  0  0  0  0  0
   -1.2944   -2.5405    0.0000 H   0  0  0  0  0  0  0  0  0  0  0  0
   -1.2944    0.9404    0.0000 C   0  0  0  0  0  0  0  0  0  0  0  0
   -2.5888    1.8809    0.0000 H   0  0  0  0  0  0  0  0  0  0  0  0
   -2.7561    0.2897    0.0000 H   0  0  0  0  0  0  0  0  0  0  0  0
   -1.1271    2.5317    0.0000 H   0  0  0  0  0  0  0  0  0  0  0  0
  1  2  1  0  0  0  0
  2  3  1  0  0  0  0
  2  4  2  0  0  0  0
  4  5  1  0  0  0  0
  4  6  1  0  0  0  0
  6  7  1  0  0  0  0
  7  1  2  0  0  0  0
  7  8  1  0  0  0  0
  1  9  1  0  0  0  0
  9 10  1  0  0  0  0
  9 11  1  0  0  0  0
  9 12  1  0  0  0  0
M  END
> <ChemID>
100268

> <source_casrn>
616-44-4

> <CAS>
616-44-4

> <SMILES>
Cc1c[s]cc1

> <NAME>
Thiophene, 3-methyl-

> <preferred_name>
Thiophene, 3-methyl-

> <iupac>
3-Methylthiophene

> <MPID>
101899

> <dsstox_substance_id>
DTXSID8060666

> <Canonical_QSARr>
Cc1c[s]cc1

> <InChI_Code_QSARr>
InChI=1S/C5H6S/c1-5-2-3-6-4-5/h2-4H,1H3

> <InChI Key_QSARr>
QENGPZGAWFQWCZ-UHFFFAOYSA-N

> <LogKmHL>
-1.27

$$$$
100270
  -INDIGO-08031722222D

 14 14  0  0  0  0  0  0  0  0999 V2000
    0.0000   -0.0000    0.0000 C   0  0  0  0  0  0  0  0  0  0  0  0
   -0.8000    1.3856    0.0000 C   0  0  0  0  0  0  0  0  0  0  0  0
    0.0000    2.7713    0.0000 H   0  0  0  0  0  0  0  0  0  0  0  0
   -2.4000    1.3856    0.0000 C   0  0  0  0  0  0  0  0  0  0  0  0
   -3.2000    2.7713    0.0000 H   0  0  0  0  0  0  0  0  0  0  0  0
   -3.2000   -0.0000    0.0000 C   0  0  0  0  0  0  0  0  0  0  0  0
   -4.7999   -0.0000    0.0000 C   0  0  0  0  0  0  0  0  0  0  0  0
   -6.4000   -0.0000    0.0000 N   0  0  0  0  0  0  0  0  0  0  0  0
   -2.4000   -1.3856    0.0000 C   0  0  0  0  0  0  0  0  0  0  0  0
   -3.2000   -2.7713    0.0000 H   0  0  0  0  0  0  0  0  0  0  0  0
   -0.8000   -1.3856    0.0000 C   0  0  0  0  0  0  0  0  0  0  0  0
    0.0000   -2.7713    0.0000 H   0  0  0  0  0  0  0  0  0  0  0  0
    1.6001   -0.0000    0.0000 C   0  0  0  0  0  0  0  0  0  0  0  0
    3.2000   -0.0000    0.0000 N   0  0  0  0  0  0  0  0  0  0  0  0
  1  2  1  0  0  0  0
  2  3  1  0  0  0  0
  2  4  2  0  0  0  0
  4  5  1  0  0  0  0
  4  6  1  0  0  0  0
  6  7  1  0  0  0  0
  7  8  3  0  0  0  0
  6  9  2  0  0  0  0
  9 10  1  0  0  0  0
  9 11  1  0  0  0  0
 11  1  2  0  0  0  0
 11 12  1  0  0  0  0
  1 13  1  0  0  0  0
 13 14  3  0  0  0  0
M  END
> <ChemID>
100270

> <source_casrn>
623-26-7

> <CAS>
623-26-7

> <SMILES>
N#Cc1ccc(cc1)C#N

> <NAME>
1,4-benzenedicarbonitrile

> <preferred_name>
1,4-Benzenedicarbonitrile

> <iupac>
Terephthalonitrile

> <MPID>
101901

> <dsstox_substance_id>
DTXSID1060768

> <Canonical_QSARr>
N#Cc1ccc(cc1)C#N

> <InChI_Code_QSARr>
InChI=1S/C8H4N2/c9-5-7-1-2-8(6-10)4-3-7/h1-4H

> <InChI Key_QSARr>
BHXFKXOIODIUJO-UHFFFAOYSA-N

> <LogKmHL>
-0.81

$$$$
100271
  -INDIGO-08031722222D

 14 14  0  0  0  0  0  0  0  0999 V2000
    0.0000   -0.0000    0.0000 C   0  0  0  0  0  0  0  0  0  0  0  0
    0.0000   -1.6000    0.0000 C   0  0  0  0  0  0  0  0  0  0  0  0
    1.3857   -2.4000    0.0000 H   0  0  0  0  0  0  0  0  0  0  0  0
   -1.3857   -2.4000    0.0000 C   0  0  0  0  0  0  0  0  0  0  0  0
   -1.3857   -4.0000    0.0000 H   0  0  0  0  0  0  0  0  0  0  0  0
   -2.7713   -1.6000    0.0000 C   0  0  0  0  0  0  0  0  0  0  0  0
   -4.1570   -2.4000    0.0000 H   0  0  0  0  0  0  0  0  0  0  0  0
   -2.7713   -0.0000    0.0000 C   0  0  0  0  0  0  0  0  0  0  0  0
   -4.1570    0.8000    0.0000 C   0  0  0  0  0  0  0  0  0  0  0  0
   -5.5426    1.6000    0.0000 N   0  0  0  0  0  0  0  0  0  0  0  0
   -1.3857    0.8000    0.0000 C   0  0  0  0  0  0  0  0  0  0  0  0
   -1.3856    2.4000    0.0000 H   0  0  0  0  0  0  0  0  0  0  0  0
    1.3856    0.8000    0.0000 C   0  0  0  0  0  0  0  0  0  0  0  0
    2.7713    1.6000    0.0000 N   0  0  0  0  0  0  0  0  0  0  0  0
  1  2  1  0  0  0  0
  2  3  1  0  0  0  0
  2  4  2  0  0  0  0
  4  5  1  0  0  0  0
  4  6  1  0  0  0  0
  6  7  1  0  0  0  0
  6  8  2  0  0  0  0
  8  9  1  0  0  0  0
  9 10  3  0  0  0  0
  8 11  1  0  0  0  0
 11  1  2  0  0  0  0
 11 12  1  0  0  0  0
  1 13  1  0  0  0  0
 13 14  3  0  0  0  0
M  END
> <ChemID>
100271

> <source_casrn>
626-17-5

> <CAS>
626-17-5

> <SMILES>
N#Cc1cc(ccc1)C#N

> <NAME>
1,3-benzenedicarbonitrile

> <preferred_name>
1,3-Benzenedicarbonitrile

> <iupac>
benzene-1,3-dicarbonitrile

> <MPID>
101902

> <dsstox_substance_id>
DTXSID7027259

> <Canonical_QSARr>
N#Cc1cc(ccc1)C#N

> <InChI_Code_QSARr>
InChI=1S/C8H4N2/c9-5-7-2-1-3-8(4-7)6-10/h1-4H

> <InChI Key_QSARr>
LAQPNDIUHRHNCV-UHFFFAOYSA-N

> <LogKmHL>
-0.62

$$$$
100272
  -INDIGO-08031722222D

 12 12  0  0  0  0  0  0  0  0999 V2000
   -0.0000   -0.0000    0.0000 C   0  0  0  0  0  0  0  0  0  0  0  0
    0.8000    1.3856    0.0000 H   0  0  0  0  0  0  0  0  0  0  0  0
    0.8000   -1.3857    0.0000 C   0  0  0  0  0  0  0  0  0  0  0  0
    2.4000   -1.3857    0.0000 Br  0  0  0  0  0  0  0  0  0  0  0  0
   -0.0000   -2.7713    0.0000 C   0  0  0  0  0  0  0  0  0  0  0  0
    0.8000   -4.1569    0.0000 H   0  0  0  0  0  0  0  0  0  0  0  0
   -1.6000   -2.7713    0.0000 C   0  0  0  0  0  0  0  0  0  0  0  0
   -2.4000   -4.1569    0.0000 Br  0  0  0  0  0  0  0  0  0  0  0  0
   -2.4000   -1.3856    0.0000 C   0  0  0  0  0  0  0  0  0  0  0  0
   -4.0000   -1.3856    0.0000 H   0  0  0  0  0  0  0  0  0  0  0  0
   -1.6000   -0.0000    0.0000 C   0  0  0  0  0  0  0  0  0  0  0  0
   -2.4000    1.3856    0.0000 Br  0  0  0  0  0  0  0  0  0  0  0  0
  1  2  1  0  0  0  0
  1  3  1  0  0  0  0
  3  4  1  0  0  0  0
  3  5  2  0  0  0  0
  5  6  1  0  0  0  0
  5  7  1  0  0  0  0
  7  8  1  0  0  0  0
  7  9  2  0  0  0  0
  9 10  1  0  0  0  0
  9 11  1  0  0  0  0
 11  1  2  0  0  0  0
 11 12  1  0  0  0  0
M  END
> <ChemID>
100272

> <source_casrn>
626-39-1

> <CAS>
626-39-1

> <SMILES>
Brc1cc(Br)cc(Br)c1

> <NAME>
Benzene, 1,3,5-tribromo-

> <preferred_name>
1,3,5-Tribromobenzene

> <iupac>
1,3,5-tribromobenzene

> <MPID>
101903

> <dsstox_substance_id>
DTXSID3052307

> <Canonical_QSARr>
Brc1cc(Br)cc(Br)c1

> <InChI_Code_QSARr>
InChI=1S/C6H3Br3/c7-4-1-5(8)3-6(9)2-4/h1-3H

> <InChI Key_QSARr>
YWDUZLFWHVQCHY-UHFFFAOYSA-N

> <LogKmHL>
1.65

$$$$
100274
  -INDIGO-08031722222D

 44 43  0  0  0  0  0  0  0  0999 V2000
    8.3138    0.0000    0.0000 C   0  0  0  0  0  0  0  0  0  0  0  0
    9.6995    0.8000    0.0000 H   0  0  0  0  0  0  0  0  0  0  0  0
    9.6995   -0.8000    0.0000 H   0  0  0  0  0  0  0  0  0  0  0  0
    8.3138    1.6000    0.0000 H   0  0  0  0  0  0  0  0  0  0  0  0
    6.9282   -0.8000    0.0000 C   0  0  0  0  0  0  0  0  0  0  0  0
    6.3158   -2.2782    0.0000 H   0  0  0  0  0  0  0  0  0  0  0  0
    7.5406   -2.2782    0.0000 H   0  0  0  0  0  0  0  0  0  0  0  0
    5.5426    0.0000    0.0000 C   0  0  0  0  0  0  0  0  0  0  0  0
    6.1550    1.4782    0.0000 H   0  0  0  0  0  0  0  0  0  0  0  0
    4.9301    1.4782    0.0000 H   0  0  0  0  0  0  0  0  0  0  0  0
    4.1569   -0.8000    0.0000 C   0  0  0  0  0  0  0  0  0  0  0  0
    3.5445   -2.2782    0.0000 H   0  0  0  0  0  0  0  0  0  0  0  0
    4.7693   -2.2782    0.0000 H   0  0  0  0  0  0  0  0  0  0  0  0
    2.7713    0.0000    0.0000 C   0  0  0  0  0  0  0  0  0  0  0  0
    3.3837    1.4782    0.0000 H   0  0  0  0  0  0  0  0  0  0  0  0
    2.1589    1.4782    0.0000 H   0  0  0  0  0  0  0  0  0  0  0  0
    1.3856   -0.8000    0.0000 C   0  0  0  0  0  0  0  0  0  0  0  0
    0.7732   -2.2782    0.0000 H   0  0  0  0  0  0  0  0  0  0  0  0
    1.9981   -2.2782    0.0000 H   0  0  0  0  0  0  0  0  0  0  0  0
    0.0000    0.0000    0.0000 C   0  0  0  0  0  0  0  0  0  0  0  0
    0.6124    1.4782    0.0000 H   0  0  0  0  0  0  0  0  0  0  0  0
   -0.6124    1.4782    0.0000 H   0  0  0  0  0  0  0  0  0  0  0  0
   -1.3856   -0.8000    0.0000 C   0  0  0  0  0  0  0  0  0  0  0  0
   -1.9981   -2.2782    0.0000 H   0  0  0  0  0  0  0  0  0  0  0  0
   -0.7732   -2.2782    0.0000 H   0  0  0  0  0  0  0  0  0  0  0  0
   -2.7713    0.0000    0.0000 C   0  0  0  0  0  0  0  0  0  0  0  0
   -2.1589    1.4782    0.0000 H   0  0  0  0  0  0  0  0  0  0  0  0
   -3.3837    1.4782    0.0000 H   0  0  0  0  0  0  0  0  0  0  0  0
   -4.1569   -0.8000    0.0000 C   0  0  0  0  0  0  0  0  0  0  0  0
   -4.7693   -2.2782    0.0000 H   0  0  0  0  0  0  0  0  0  0  0  0
   -3.5445   -2.2782    0.0000 H   0  0  0  0  0  0  0  0  0  0  0  0
   -5.5426    0.0000    0.0000 C   0  0  0  0  0  0  0  0  0  0  0  0
   -4.9301    1.4782    0.0000 H   0  0  0  0  0  0  0  0  0  0  0  0
   -6.1550    1.4782    0.0000 H   0  0  0  0  0  0  0  0  0  0  0  0
   -6.9282   -0.8000    0.0000 C   0  0  0  0  0  0  0  0  0  0  0  0
   -7.5406   -2.2782    0.0000 H   0  0  0  0  0  0  0  0  0  0  0  0
   -6.3158   -2.2782    0.0000 H   0  0  0  0  0  0  0  0  0  0  0  0
   -8.3138    0.0000    0.0000 C   0  0  0  0  0  0  0  0  0  0  0  0
   -7.7014    1.4782    0.0000 H   0  0  0  0  0  0  0  0  0  0  0  0
   -8.9263    1.4782    0.0000 H   0  0  0  0  0  0  0  0  0  0  0  0
   -9.6995   -0.8000    0.0000 C   0  0  0  0  0  0  0  0  0  0  0  0
  -11.0851   -1.6000    0.0000 H   0  0  0  0  0  0  0  0  0  0  0  0
  -11.0851    0.0000    0.0000 H   0  0  0  0  0  0  0  0  0  0  0  0
   -9.6995   -2.4000    0.0000 H   0  0  0  0  0  0  0  0  0  0  0  0
  1  2  1  0  0  0  0
  1  3  1  0  0  0  0
  1  4  1  0  0  0  0
  1  5  1  0  0  0  0
  5  6  1  0  0  0  0
  5  7  1  0  0  0  0
  5  8  1  0  0  0  0
  8  9  1  0  0  0  0
  8 10  1  0  0  0  0
  8 11  1  0  0  0  0
 11 12  1  0  0  0  0
 11 13  1  0  0  0  0
 11 14  1  0  0  0  0
 14 15  1  0  0  0  0
 14 16  1  0  0  0  0
 14 17  1  0  0  0  0
 17 18  1  0  0  0  0
 17 19  1  0  0  0  0
 17 20  1  0  0  0  0
 20 21  1  0  0  0  0
 20 22  1  0  0  0  0
 20 23  1  0  0  0  0
 23 24  1  0  0  0  0
 23 25  1  0  0  0  0
 23 26  1  0  0  0  0
 26 27  1  0  0  0  0
 26 28  1  0  0  0  0
 26 29  1  0  0  0  0
 29 30  1  0  0  0  0
 29 31  1  0  0  0  0
 29 32  1  0  0  0  0
 32 33  1  0  0  0  0
 32 34  1  0  0  0  0
 32 35  1  0  0  0  0
 35 36  1  0  0  0  0
 35 37  1  0  0  0  0
 35 38  1  0  0  0  0
 38 39  1  0  0  0  0
 38 40  1  0  0  0  0
 38 41  1  0  0  0  0
 41 42  1  0  0  0  0
 41 43  1  0  0  0  0
 41 44  1  0  0  0  0
M  END
> <ChemID>
100274

> <source_casrn>
629-59-4

> <CAS>
629-59-4

> <SMILES>
CCCCCCCCCCCCCC

> <NAME>
n-tetradecane

> <preferred_name>
Tetradecane

> <iupac>
tetradecane

> <MPID>
101905

> <dsstox_substance_id>
DTXSID1027267

> <Canonical_QSARr>
CCCCCCCCCCCCCC

> <InChI_Code_QSARr>
InChI=1S/C14H30/c1-3-5-7-9-11-13-14-12-10-8-6-4-2/h3-14H2,1-2H3

> <InChI Key_QSARr>
BGHCVCJVXZWKCC-UHFFFAOYSA-N

> <LogKmHL>
1.49

$$$$
100275
  -INDIGO-08031722222D

 48 47  0  0  0  0  0  0  0  0999 V2000
   11.0851    0.0000    0.0000 C   0  0  0  0  0  0  0  0  0  0  0  0
   12.4708    0.8000    0.0000 H   0  0  0  0  0  0  0  0  0  0  0  0
   11.0851   -1.6000    0.0000 H   0  0  0  0  0  0  0  0  0  0  0  0
    9.6995    0.8000    0.0000 C   0  0  0  0  0  0  0  0  0  0  0  0
    9.6995    2.4000    0.0000 H   0  0  0  0  0  0  0  0  0  0  0  0
    8.3138    0.0000    0.0000 C   0  0  0  0  0  0  0  0  0  0  0  0
    7.7017   -1.4782    0.0000 H   0  0  0  0  0  0  0  0  0  0  0  0
    8.9260   -1.4782    0.0000 H   0  0  0  0  0  0  0  0  0  0  0  0
    6.9282    0.8000    0.0000 C   0  0  0  0  0  0  0  0  0  0  0  0
    7.5403    2.2782    0.0000 H   0  0  0  0  0  0  0  0  0  0  0  0
    6.3161    2.2782    0.0000 H   0  0  0  0  0  0  0  0  0  0  0  0
    5.5426    0.0000    0.0000 C   0  0  0  0  0  0  0  0  0  0  0  0
    4.9304   -1.4782    0.0000 H   0  0  0  0  0  0  0  0  0  0  0  0
    6.1547   -1.4782    0.0000 H   0  0  0  0  0  0  0  0  0  0  0  0
    4.1569    0.8000    0.0000 C   0  0  0  0  0  0  0  0  0  0  0  0
    4.7690    2.2782    0.0000 H   0  0  0  0  0  0  0  0  0  0  0  0
    3.5448    2.2782    0.0000 H   0  0  0  0  0  0  0  0  0  0  0  0
    2.7713    0.0000    0.0000 C   0  0  0  0  0  0  0  0  0  0  0  0
    2.1592   -1.4782    0.0000 H   0  0  0  0  0  0  0  0  0  0  0  0
    3.3834   -1.4782    0.0000 H   0  0  0  0  0  0  0  0  0  0  0  0
    1.3856    0.8000    0.0000 C   0  0  0  0  0  0  0  0  0  0  0  0
    1.9978    2.2782    0.0000 H   0  0  0  0  0  0  0  0  0  0  0  0
    0.7735    2.2782    0.0000 H   0  0  0  0  0  0  0  0  0  0  0  0
    0.0000    0.0000    0.0000 C   0  0  0  0  0  0  0  0  0  0  0  0
   -0.6121   -1.4782    0.0000 H   0  0  0  0  0  0  0  0  0  0  0  0
    0.6121   -1.4782    0.0000 H   0  0  0  0  0  0  0  0  0  0  0  0
   -1.3856    0.8000    0.0000 C   0  0  0  0  0  0  0  0  0  0  0  0
   -0.7735    2.2782    0.0000 H   0  0  0  0  0  0  0  0  0  0  0  0
   -1.9978    2.2782    0.0000 H   0  0  0  0  0  0  0  0  0  0  0  0
   -2.7713    0.0000    0.0000 C   0  0  0  0  0  0  0  0  0  0  0  0
   -3.3834   -1.4782    0.0000 H   0  0  0  0  0  0  0  0  0  0  0  0
   -2.1592   -1.4782    0.0000 H   0  0  0  0  0  0  0  0  0  0  0  0
   -4.1569    0.8000    0.0000 C   0  0  0  0  0  0  0  0  0  0  0  0
   -3.5448    2.2782    0.0000 H   0  0  0  0  0  0  0  0  0  0  0  0
   -4.7690    2.2782    0.0000 H   0  0  0  0  0  0  0  0  0  0  0  0
   -5.5426    0.0000    0.0000 C   0  0  0  0  0  0  0  0  0  0  0  0
   -6.1547   -1.4782    0.0000 H   0  0  0  0  0  0  0  0  0  0  0  0
   -4.9304   -1.4782    0.0000 H   0  0  0  0  0  0  0  0  0  0  0  0
   -6.9282    0.8000    0.0000 C   0  0  0  0  0  0  0  0  0  0  0  0
   -6.3161    2.2782    0.0000 H   0  0  0  0  0  0  0  0  0  0  0  0
   -7.5403    2.2782    0.0000 H   0  0  0  0  0  0  0  0  0  0  0  0
   -8.3138    0.0000    0.0000 C   0  0  0  0  0  0  0  0  0  0  0  0
   -8.9260   -1.4782    0.0000 H   0  0  0  0  0  0  0  0  0  0  0  0
   -7.7017   -1.4782    0.0000 H   0  0  0  0  0  0  0  0  0  0  0  0
   -9.6995    0.8000    0.0000 C   0  0  0  0  0  0  0  0  0  0  0  0
  -11.0851    1.6000    0.0000 H   0  0  0  0  0  0  0  0  0  0  0  0
  -11.0851    0.0000    0.0000 H   0  0  0  0  0  0  0  0  0  0  0  0
   -9.6995    2.4000    0.0000 H   0  0  0  0  0  0  0  0  0  0  0  0
  1  2  1  0  0  0  0
  1  3  1  0  0  0  0
  1  4  2  0  0  0  0
  4  5  1  0  0  0  0
  4  6  1  0  0  0  0
  6  7  1  0  0  0  0
  6  8  1  0  0  0  0
  6  9  1  0  0  0  0
  9 10  1  0  0  0  0
  9 11  1  0  0  0  0
  9 12  1  0  0  0  0
 12 13  1  0  0  0  0
 12 14  1  0  0  0  0
 12 15  1  0  0  0  0
 15 16  1  0  0  0  0
 15 17  1  0  0  0  0
 15 18  1  0  0  0  0
 18 19  1  0  0  0  0
 18 20  1  0  0  0  0
 18 21  1  0  0  0  0
 21 22  1  0  0  0  0
 21 23  1  0  0  0  0
 21 24  1  0  0  0  0
 24 25  1  0  0  0  0
 24 26  1  0  0  0  0
 24 27  1  0  0  0  0
 27 28  1  0  0  0  0
 27 29  1  0  0  0  0
 27 30  1  0  0  0  0
 30 31  1  0  0  0  0
 30 32  1  0  0  0  0
 30 33  1  0  0  0  0
 33 34  1  0  0  0  0
 33 35  1  0  0  0  0
 33 36  1  0  0  0  0
 36 37  1  0  0  0  0
 36 38  1  0  0  0  0
 36 39  1  0  0  0  0
 39 40  1  0  0  0  0
 39 41  1  0  0  0  0
 39 42  1  0  0  0  0
 42 43  1  0  0  0  0
 42 44  1  0  0  0  0
 42 45  1  0  0  0  0
 45 46  1  0  0  0  0
 45 47  1  0  0  0  0
 45 48  1  0  0  0  0
M  END
> <ChemID>
100275

> <source_casrn>
629-73-2

> <CAS>
629-73-2

> <SMILES>
CCCCCCCCCCCCCCC=C

> <NAME>
1-hexadecene

> <preferred_name>
1-Hexadecene

> <iupac>
hexadec-1-ene

> <MPID>
101906

> <dsstox_substance_id>
DTXSID1027269

> <Canonical_QSARr>
CCCCCCCCCCCCCCC=C

> <InChI_Code_QSARr>
InChI=1S/C16H32/c1-3-5-7-9-11-13-15-16-14-12-10-8-6-4-2/h3H,1,4-16H2,2H3

> <InChI Key_QSARr>
GQEZCXVZFLOKMC-UHFFFAOYSA-N

> <LogKmHL>
1.67

$$$$
100276
  -INDIGO-08031722222D

 12 12  0  0  0  0  0  0  0  0999 V2000
    0.8000    1.3856    0.0000 Cl  0  0  0  0  0  0  0  0  0  0  0  0
   -0.0000   -0.0000    0.0000 C   0  0  0  0  0  0  0  0  0  0  0  0
    0.8000   -1.3857    0.0000 C   0  0  0  0  0  0  0  0  0  0  0  0
    2.4000   -1.3857    0.0000 Cl  0  0  0  0  0  0  0  0  0  0  0  0
   -0.0000   -2.7713    0.0000 C   0  0  0  0  0  0  0  0  0  0  0  0
    0.8000   -4.1569    0.0000 H   0  0  0  0  0  0  0  0  0  0  0  0
   -1.6000   -2.7713    0.0000 C   0  0  0  0  0  0  0  0  0  0  0  0
   -2.4000   -4.1569    0.0000 H   0  0  0  0  0  0  0  0  0  0  0  0
   -2.4000   -1.3856    0.0000 C   0  0  0  0  0  0  0  0  0  0  0  0
   -4.0000   -1.3856    0.0000 Cl  0  0  0  0  0  0  0  0  0  0  0  0
   -1.6000   -0.0000    0.0000 C   0  0  0  0  0  0  0  0  0  0  0  0
   -2.4000    1.3856    0.0000 Cl  0  0  0  0  0  0  0  0  0  0  0  0
  1  2  1  0  0  0  0
  2  3  1  0  0  0  0
  3  4  1  0  0  0  0
  3  5  2  0  0  0  0
  5  6  1  0  0  0  0
  5  7  1  0  0  0  0
  7  8  1  0  0  0  0
  7  9  2  0  0  0  0
  9 10  1  0  0  0  0
  9 11  1  0  0  0  0
 11  2  2  0  0  0  0
 11 12  1  0  0  0  0
M  END
> <ChemID>
100276

> <source_casrn>
634-66-2

> <CAS>
634-66-2

> <SMILES>
Clc1ccc(Cl)c(Cl)c1Cl

> <NAME>
Benzene, 1,2,3,4-tetrachloro-

> <preferred_name>
1,2,3,4-Tetrachlorobenzene

> <iupac>
1,2,3,4-tetrachlorobenzene

> <MPID>
101907

> <dsstox_substance_id>
DTXSID6026088

> <Canonical_QSARr>
Clc1ccc(Cl)c(Cl)c1Cl

> <InChI_Code_QSARr>
InChI=1S/C6H2Cl4/c7-3-1-2-4(8)6(10)5(3)9/h1-2H

> <InChI Key_QSARr>
GBDZXPJXOMHESU-UHFFFAOYSA-N

> <LogKmHL>
0.69

$$$$
100278
  -INDIGO-08031722222D

 14 14  0  0  0  0  0  0  0  0999 V2000
   -3.2000    2.7713    0.0000 Cl  0  0  0  0  0  0  0  0  0  0  0  0
   -2.4000    1.3856    0.0000 C   0  0  0  0  0  0  0  0  0  0  0  0
   -0.8000    1.3856    0.0000 C   0  0  0  0  0  0  0  0  0  0  0  0
    0.0000    2.7713    0.0000 H   0  0  0  0  0  0  0  0  0  0  0  0
    0.0000    0.0000    0.0000 C   0  0  0  0  0  0  0  0  0  0  0  0
    1.6000    0.0000    0.0000 N   0  0  0  0  0  0  0  0  0  0  0  0
    2.4000   -1.3856    0.0000 H   0  0  0  0  0  0  0  0  0  0  0  0
    2.4000    1.3856    0.0000 H   0  0  0  0  0  0  0  0  0  0  0  0
   -0.8000   -1.3856    0.0000 C   0  0  0  0  0  0  0  0  0  0  0  0
    0.0000   -2.7713    0.0000 H   0  0  0  0  0  0  0  0  0  0  0  0
   -2.4000   -1.3856    0.0000 C   0  0  0  0  0  0  0  0  0  0  0  0
   -3.2000   -2.7713    0.0000 Cl  0  0  0  0  0  0  0  0  0  0  0  0
   -3.2000   -0.0000    0.0000 C   0  0  0  0  0  0  0  0  0  0  0  0
   -4.8000    0.0000    0.0000 Cl  0  0  0  0  0  0  0  0  0  0  0  0
  1  2  1  0  0  0  0
  2  3  1  0  0  0  0
  3  4  1  0  0  0  0
  3  5  2  0  0  0  0
  5  6  1  0  0  0  0
  6  7  1  0  0  0  0
  6  8  1  0  0  0  0
  5  9  1  0  0  0  0
  9 10  1  0  0  0  0
  9 11  2  0  0  0  0
 11 12  1  0  0  0  0
 11 13  1  0  0  0  0
 13  2  2  0  0  0  0
 13 14  1  0  0  0  0
M  END
> <ChemID>
100278

> <source_casrn>
634-91-3

> <CAS>
634-91-3

> <SMILES>
Nc1cc(Cl)c(Cl)c(Cl)c1

> <NAME>
3,4,5-trichloroaniline

> <preferred_name>
3,4,5-Trichloroaniline

> <iupac>
3,4,5-TRICHLOROANILINE

> <MPID>
101909

> <dsstox_substance_id>
DTXSID30212811

> <Canonical_QSARr>
Nc1cc(Cl)c(Cl)c(Cl)c1

> <InChI_Code_QSARr>
InChI=1S/C6H4Cl3N/c7-4-1-3(10)2-5(8)6(4)9/h1-2H,10H2

> <InChI Key_QSARr>
XOGYQVITULCUGU-UHFFFAOYSA-N

> <LogKmHL>
0.28

$$$$
100279
  -INDIGO-08031722222D

 14 14  0  0  0  0  0  0  0  0999 V2000
    1.6000   -0.0000    0.0000 N   0  0  0  0  0  0  0  0  0  0  0  0
    2.4000    1.3856    0.0000 H   0  0  0  0  0  0  0  0  0  0  0  0
    2.4000   -1.3856    0.0000 H   0  0  0  0  0  0  0  0  0  0  0  0
    0.0000   -0.0000    0.0000 C   0  0  0  0  0  0  0  0  0  0  0  0
   -0.8000    1.3856    0.0000 C   0  0  0  0  0  0  0  0  0  0  0  0
    0.0000    2.7713    0.0000 Cl  0  0  0  0  0  0  0  0  0  0  0  0
   -2.4000    1.3856    0.0000 C   0  0  0  0  0  0  0  0  0  0  0  0
   -3.2000    2.7713    0.0000 H   0  0  0  0  0  0  0  0  0  0  0  0
   -3.2000   -0.0000    0.0000 C   0  0  0  0  0  0  0  0  0  0  0  0
   -4.8000   -0.0000    0.0000 Cl  0  0  0  0  0  0  0  0  0  0  0  0
   -2.4000   -1.3856    0.0000 C   0  0  0  0  0  0  0  0  0  0  0  0
   -3.2000   -2.7713    0.0000 H   0  0  0  0  0  0  0  0  0  0  0  0
   -0.8000   -1.3856    0.0000 C   0  0  0  0  0  0  0  0  0  0  0  0
    0.0000   -2.7713    0.0000 Cl  0  0  0  0  0  0  0  0  0  0  0  0
  1  2  1  0  0  0  0
  1  3  1  0  0  0  0
  1  4  1  0  0  0  0
  4  5  1  0  0  0  0
  5  6  1  0  0  0  0
  5  7  2  0  0  0  0
  7  8  1  0  0  0  0
  7  9  1  0  0  0  0
  9 10  1  0  0  0  0
  9 11  2  0  0  0  0
 11 12  1  0  0  0  0
 11 13  1  0  0  0  0
 13  4  2  0  0  0  0
 13 14  1  0  0  0  0
M  END
> <ChemID>
100279

> <source_casrn>
634-93-5

> <CAS>
634-93-5

> <SMILES>
Nc1c(Cl)cc(Cl)cc1Cl

> <NAME>
2,4,6-trichloroaniline

> <preferred_name>
2,4,6-Trichloroaniline

> <iupac>
2,4,6-trichloroaniline

> <MPID>
101910

> <dsstox_substance_id>
DTXSID6021379

> <Canonical_QSARr>
Nc1c(Cl)cc(Cl)cc1Cl

> <InChI_Code_QSARr>
InChI=1S/C6H4Cl3N/c7-3-1-4(8)6(10)5(9)2-3/h1-2H,10H2

> <InChI Key_QSARr>
NATVSFWWYVJTAZ-UHFFFAOYSA-N

> <LogKmHL>
0.67

$$$$
100280
  -INDIGO-08031722222D

 12 12  0  0  0  0  0  0  0  0999 V2000
   -0.0000   -0.0000    0.0000 C   0  0  0  0  0  0  0  0  0  0  0  0
    0.8000   -1.3857    0.0000 C   0  0  0  0  0  0  0  0  0  0  0  0
    2.4000   -1.3857    0.0000 Br  0  0  0  0  0  0  0  0  0  0  0  0
   -0.0000   -2.7713    0.0000 C   0  0  0  0  0  0  0  0  0  0  0  0
    0.8000   -4.1569    0.0000 H   0  0  0  0  0  0  0  0  0  0  0  0
   -1.6000   -2.7713    0.0000 C   0  0  0  0  0  0  0  0  0  0  0  0
   -2.4000   -4.1569    0.0000 Br  0  0  0  0  0  0  0  0  0  0  0  0
   -2.4000   -1.3856    0.0000 C   0  0  0  0  0  0  0  0  0  0  0  0
   -4.0000   -1.3856    0.0000 Br  0  0  0  0  0  0  0  0  0  0  0  0
   -1.6000   -0.0000    0.0000 C   0  0  0  0  0  0  0  0  0  0  0  0
   -2.4000    1.3856    0.0000 H   0  0  0  0  0  0  0  0  0  0  0  0
    0.8000    1.3856    0.0000 Br  0  0  0  0  0  0  0  0  0  0  0  0
  1  2  1  0  0  0  0
  2  3  1  0  0  0  0
  2  4  2  0  0  0  0
  4  5  1  0  0  0  0
  4  6  1  0  0  0  0
  6  7  1  0  0  0  0
  6  8  2  0  0  0  0
  8  9  1  0  0  0  0
  8 10  1  0  0  0  0
 10  1  2  0  0  0  0
 10 11  1  0  0  0  0
  1 12  1  0  0  0  0
M  END
> <ChemID>
100280

> <source_casrn>
636-28-2

> <CAS>
636-28-2

> <SMILES>
Brc1cc(Br)c(Br)cc1Br

> <NAME>
1,2,4,5-tetrabromobenzene

> <preferred_name>
1,2,4,5-Tetrabromobenzene

> <iupac>
1,2,4,5-Tetrabromobenzene

> <MPID>
101911

> <dsstox_substance_id>
DTXSID7060910

> <Canonical_QSARr>
Brc1cc(Br)c(Br)cc1Br

> <InChI_Code_QSARr>
InChI=1S/C6H2Br4/c7-3-1-4(8)6(10)2-5(3)9/h1-2H

> <InChI Key_QSARr>
QCKHVNQHBOGZER-UHFFFAOYSA-N

> <LogKmHL>
1.35

$$$$
100282
  -INDIGO-08031722222D

 20 20  0  0  0  0  0  0  0  0999 V2000
   -1.3857    0.8000    0.0000 N   0  0  0  0  0  0  0  0  0  0  0  0
   -1.3857    2.4000    0.0000 H   0  0  0  0  0  0  0  0  0  0  0  0
   -0.0001   -0.0000    0.0000 C   0  0  0  0  0  0  0  0  0  0  0  0
   -0.0001   -1.6000    0.0000 C   0  0  0  0  0  0  0  0  0  0  0  0
   -1.3857   -2.4000    0.0000 H   0  0  0  0  0  0  0  0  0  0  0  0
    1.3857   -2.4000    0.0000 C   0  0  0  0  0  0  0  0  0  0  0  0
    1.3857   -4.0000    0.0000 H   0  0  0  0  0  0  0  0  0  0  0  0
    2.7713   -1.6000    0.0000 C   0  0  0  0  0  0  0  0  0  0  0  0
    4.1569   -2.4000    0.0000 H   0  0  0  0  0  0  0  0  0  0  0  0
    2.7713   -0.0000    0.0000 C   0  0  0  0  0  0  0  0  0  0  0  0
    4.1569    0.8000    0.0000 C   0  0  0  0  0  0  0  0  0  0  0  0
    5.5426    1.6000    0.0000 H   0  0  0  0  0  0  0  0  0  0  0  0
    5.5426   -0.0000    0.0000 H   0  0  0  0  0  0  0  0  0  0  0  0
    4.1569    2.4000    0.0000 H   0  0  0  0  0  0  0  0  0  0  0  0
    1.3857    0.8000    0.0000 C   0  0  0  0  0  0  0  0  0  0  0  0
    1.3857    2.4000    0.0000 H   0  0  0  0  0  0  0  0  0  0  0  0
   -2.7713   -0.0000    0.0000 C   0  0  0  0  0  0  0  0  0  0  0  0
   -4.1569   -0.8000    0.0000 H   0  0  0  0  0  0  0  0  0  0  0  0
   -4.1569    0.8000    0.0000 H   0  0  0  0  0  0  0  0  0  0  0  0
   -2.7713   -1.6000    0.0000 H   0  0  0  0  0  0  0  0  0  0  0  0
  1  2  1  0  0  0  0
  1  3  1  0  0  0  0
  3  4  1  0  0  0  0
  4  5  1  0  0  0  0
  4  6  2  0  0  0  0
  6  7  1  0  0  0  0
  6  8  1  0  0  0  0
  8  9  1  0  0  0  0
  8 10  2  0  0  0  0
 10 11  1  0  0  0  0
 11 12  1  0  0  0  0
 11 13  1  0  0  0  0
 11 14  1  0  0  0  0
 10 15  1  0  0  0  0
 15  3  2  0  0  0  0
 15 16  1  0  0  0  0
  1 17  1  0  0  0  0
 17 18  1  0  0  0  0
 17 19  1  0  0  0  0
 17 20  1  0  0  0  0
M  END
> <ChemID>
100282

> <source_casrn>
696-44-6

> <CAS>
696-44-6

> <SMILES>
Cc1cccc(c1)NC

> <NAME>
Benzenamine, n,3-dimethyl-

> <preferred_name>
Benzenamine, N,3-dimethyl-

> <iupac>
N,3-Dimethylaniline

> <MPID>
101913

> <dsstox_substance_id>
DTXSID2061014

> <Canonical_QSARr>
Cc1cccc(c1)NC

> <InChI_Code_QSARr>
InChI=1S/C8H11N/c1-7-4-3-5-8(6-7)9-2/h3-6,9H,1-2H3

> <InChI Key_QSARr>
FBGJJTQNZVNEQU-UHFFFAOYSA-N

> <LogKmHL>
-0.79

$$$$
100283
  -INDIGO-08031722222D

 49 49  0  0  0  0  0  0  0  0999 V2000
   -0.0000    3.2000    0.0000 O   0  0  0  0  0  0  0  0  0  0  0  0
   -0.0000    4.8000    0.0000 H   0  0  0  0  0  0  0  0  0  0  0  0
   -1.3857    2.4000    0.0000 C   0  0  0  0  0  0  0  0  0  0  0  0
   -2.7714    3.2000    0.0000 C   0  0  0  0  0  0  0  0  0  0  0  0
   -2.7714    4.8000    0.0000 C   0  0  0  0  0  0  0  0  0  0  0  0
   -2.7714    6.4001    0.0000 C   0  0  0  0  0  0  0  0  0  0  0  0
   -2.7714    8.0000    0.0000 H   0  0  0  0  0  0  0  0  0  0  0  0
   -4.1569    7.2000    0.0000 H   0  0  0  0  0  0  0  0  0  0  0  0
   -1.3857    7.2000    0.0000 H   0  0  0  0  0  0  0  0  0  0  0  0
   -4.3713    4.8000    0.0000 C   0  0  0  0  0  0  0  0  0  0  0  0
   -5.9470    4.5222    0.0000 H   0  0  0  0  0  0  0  0  0  0  0  0
   -5.3998    6.0257    0.0000 H   0  0  0  0  0  0  0  0  0  0  0  0
   -3.8240    6.3035    0.0000 H   0  0  0  0  0  0  0  0  0  0  0  0
   -1.1712    4.8000    0.0000 C   0  0  0  0  0  0  0  0  0  0  0  0
   -0.3713    6.1857    0.0000 H   0  0  0  0  0  0  0  0  0  0  0  0
   -1.7186    6.3035    0.0000 H   0  0  0  0  0  0  0  0  0  0  0  0
   -1.7186    3.2966    0.0000 H   0  0  0  0  0  0  0  0  0  0  0  0
   -4.1569    2.4000    0.0000 C   0  0  0  0  0  0  0  0  0  0  0  0
   -5.5425    3.2000    0.0000 H   0  0  0  0  0  0  0  0  0  0  0  0
   -4.1569    0.8001    0.0000 C   0  0  0  0  0  0  0  0  0  0  0  0
   -5.5425    0.0000    0.0000 C   0  0  0  0  0  0  0  0  0  0  0  0
   -6.9282   -0.8000    0.0000 C   0  0  0  0  0  0  0  0  0  0  0  0
   -8.3138   -1.5999    0.0000 H   0  0  0  0  0  0  0  0  0  0  0  0
   -6.9282   -2.4000    0.0000 H   0  0  0  0  0  0  0  0  0  0  0  0
   -8.3138    0.0000    0.0000 H   0  0  0  0  0  0  0  0  0  0  0  0
   -6.3426    1.3856    0.0000 C   0  0  0  0  0  0  0  0  0  0  0  0
   -7.9182    1.6634    0.0000 H   0  0  0  0  0  0  0  0  0  0  0  0
   -6.8898    2.8892    0.0000 H   0  0  0  0  0  0  0  0  0  0  0  0
   -7.3710    0.1600    0.0000 H   0  0  0  0  0  0  0  0  0  0  0  0
   -4.7426   -1.3856    0.0000 C   0  0  0  0  0  0  0  0  0  0  0  0
   -3.7140   -2.6113    0.0000 H   0  0  0  0  0  0  0  0  0  0  0  0
   -5.2898   -2.8891    0.0000 H   0  0  0  0  0  0  0  0  0  0  0  0
   -6.3182   -1.6634    0.0000 H   0  0  0  0  0  0  0  0  0  0  0  0
   -2.7714    0.0000    0.0000 C   0  0  0  0  0  0  0  0  0  0  0  0
   -2.7714   -1.5999    0.0000 H   0  0  0  0  0  0  0  0  0  0  0  0
   -1.3857    0.8001    0.0000 C   0  0  0  0  0  0  0  0  0  0  0  0
   -0.0000    0.0000    0.0000 C   0  0  0  0  0  0  0  0  0  0  0  0
    1.3856   -0.8000    0.0000 C   0  0  0  0  0  0  0  0  0  0  0  0
    2.7713   -1.5999    0.0000 H   0  0  0  0  0  0  0  0  0  0  0  0
    1.3856   -2.4000    0.0000 H   0  0  0  0  0  0  0  0  0  0  0  0
    2.7713    0.0000    0.0000 H   0  0  0  0  0  0  0  0  0  0  0  0
   -0.7999   -1.3856    0.0000 C   0  0  0  0  0  0  0  0  0  0  0  0
   -1.8285   -2.6113    0.0000 H   0  0  0  0  0  0  0  0  0  0  0  0
   -0.2527   -2.8891    0.0000 H   0  0  0  0  0  0  0  0  0  0  0  0
    0.7757   -1.6634    0.0000 H   0  0  0  0  0  0  0  0  0  0  0  0
    0.8000    1.3856    0.0000 C   0  0  0  0  0  0  0  0  0  0  0  0
    1.3472    2.8892    0.0000 H   0  0  0  0  0  0  0  0  0  0  0  0
    2.3756    1.6634    0.0000 H   0  0  0  0  0  0  0  0  0  0  0  0
    1.8285    0.1600    0.0000 H   0  0  0  0  0  0  0  0  0  0  0  0
  1  2  1  0  0  0  0
  1  3  1  0  0  0  0
  3  4  1  0  0  0  0
  4  5  1  0  0  0  0
  5  6  1  0  0  0  0
  6  7  1  0  0  0  0
  6  8  1  0  0  0  0
  6  9  1  0  0  0  0
  5 10  1  0  0  0  0
 10 11  1  0  0  0  0
 10 12  1  0  0  0  0
 10 13  1  0  0  0  0
  5 14  1  0  0  0  0
 14 15  1  0  0  0  0
 14 16  1  0  0  0  0
 14 17  1  0  0  0  0
  4 18  2  0  0  0  0
 18 19  1  0  0  0  0
 18 20  1  0  0  0  0
 20 21  1  0  0  0  0
 21 22  1  0  0  0  0
 22 23  1  0  0  0  0
 22 24  1  0  0  0  0
 22 25  1  0  0  0  0
 21 26  1  0  0  0  0
 26 27  1  0  0  0  0
 26 28  1  0  0  0  0
 26 29  1  0  0  0  0
 21 30  1  0  0  0  0
 30 31  1  0  0  0  0
 30 32  1  0  0  0  0
 30 33  1  0  0  0  0
 20 34  2  0  0  0  0
 34 35  1  0  0  0  0
 34 36  1  0  0  0  0
 36  3  2  0  0  0  0
 36 37  1  0  0  0  0
 37 38  1  0  0  0  0
 38 39  1  0  0  0  0
 38 40  1  0  0  0  0
 38 41  1  0  0  0  0
 37 42  1  0  0  0  0
 42 43  1  0  0  0  0
 42 44  1  0  0  0  0
 42 45  1  0  0  0  0
 37 46  1  0  0  0  0
 46 47  1  0  0  0  0
 46 48  1  0  0  0  0
 46 49  1  0  0  0  0
M  END
> <ChemID>
100283

> <source_casrn>
732-26-3

> <CAS>
732-26-3

> <SMILES>
CC(C)(C)c1cc(c(O)c(c1)C(C)(C)C)C(C)(C)C

> <NAME>
Phenol, 2,4,6-tris(1,1-dimethylethyl)-

> <preferred_name>
2,4,6-Tris(tert-butyl)phenol

> <iupac>
2,4,6-tri-tert-butylphenol

> <MPID>
101914

> <dsstox_substance_id>
DTXSID2021311

> <Canonical_QSARr>
CC(C)(C)c1cc(c(O)c(c1)C(C)(C)C)C(C)(C)C

> <InChI_Code_QSARr>
InChI=1S/C18H30O/c1-16(2,3)12-10-13(17(4,5)6)15(19)14(11-12)18(7,8)9/h10-11,19H,1-9H3

> <InChI Key_QSARr>
PFEFOYRSMXVNEL-UHFFFAOYSA-N

> <LogKmHL>
1.81

$$$$
100284
  -INDIGO-08031722222D

 12 11  0  0  0  0  0  0  0  0999 V2000
    2.7713    0.0000    0.0000 C   0  0  0  0  0  0  0  0  0  0  0  0
    4.1569    0.8000    0.0000 H   0  0  0  0  0  0  0  0  0  0  0  0
    2.7713   -1.6000    0.0000 H   0  0  0  0  0  0  0  0  0  0  0  0
    1.3856    0.8000    0.0000 C   0  0  0  0  0  0  0  0  0  0  0  0
    1.3856    2.4000    0.0000 H   0  0  0  0  0  0  0  0  0  0  0  0
    0.0000    0.0000    0.0000 C   0  0  0  0  0  0  0  0  0  0  0  0
   -0.6123   -1.4782    0.0000 H   0  0  0  0  0  0  0  0  0  0  0  0
    0.6123   -1.4782    0.0000 Cl  0  0  0  0  0  0  0  0  0  0  0  0
   -1.3856    0.8000    0.0000 C   0  0  0  0  0  0  0  0  0  0  0  0
   -2.7713    1.6000    0.0000 H   0  0  0  0  0  0  0  0  0  0  0  0
   -2.7713    0.0000    0.0000 H   0  0  0  0  0  0  0  0  0  0  0  0
   -1.3856    2.4000    0.0000 Cl  0  0  0  0  0  0  0  0  0  0  0  0
  1  2  1  0  0  0  0
  1  3  1  0  0  0  0
  1  4  2  0  0  0  0
  4  5  1  0  0  0  0
  4  6  1  0  0  0  0
  6  7  1  0  0  0  0
  6  8  1  0  0  0  0
  6  9  1  0  0  0  0
  9 10  1  0  0  0  0
  9 11  1  0  0  0  0
  9 12  1  0  0  0  0
M  END
> <ChemID>
100284

> <source_casrn>
760-23-6

> <CAS>
760-23-6

> <SMILES>
C=CC(Cl)CCl

> <NAME>
3,4-dichloro-1-butene

> <preferred_name>
3,4-Dichloro-1-butene

> <iupac>
3,4-dichlorobut-1-ene

> <MPID>
101915

> <dsstox_substance_id>
DTXSID8022113

> <Canonical_QSARr>
C=CC(Cl)CCl

> <InChI_Code_QSARr>
InChI=1S/C4H6Cl2/c1-2-4(6)3-5/h2,4H,1,3H2

> <InChI Key_QSARr>
XVEASTGLHPVZNA-UHFFFAOYSA-N

> <LogKmHL>
-1.28

$$$$
100286
  -INDIGO-08031722222D

 27 29  0  0  0  0  0  0  0  0999 V2000
   -1.3856    2.4001    0.0000 C   0  0  0  0  0  0  0  0  0  0  0  0
    0.0001    3.2000    0.0000 C   0  0  0  0  0  0  0  0  0  0  0  0
    0.0001    4.8000    0.0000 H   0  0  0  0  0  0  0  0  0  0  0  0
    1.3856    2.4001    0.0000 C   0  0  0  0  0  0  0  0  0  0  0  0
    2.7712    3.2000    0.0000 C   0  0  0  0  0  0  0  0  0  0  0  0
    2.7712    4.8000    0.0000 H   0  0  0  0  0  0  0  0  0  0  0  0
    4.1569    2.3999    0.0000 C   0  0  0  0  0  0  0  0  0  0  0  0
    5.5426    3.2000    0.0000 H   0  0  0  0  0  0  0  0  0  0  0  0
    4.1569    0.8001    0.0000 C   0  0  0  0  0  0  0  0  0  0  0  0
    5.5426    0.0000    0.0000 H   0  0  0  0  0  0  0  0  0  0  0  0
    2.7712    0.0000    0.0000 C   0  0  0  0  0  0  0  0  0  0  0  0
    2.7712   -1.6000    0.0000 H   0  0  0  0  0  0  0  0  0  0  0  0
    1.3856    0.7999    0.0000 C   0  0  0  0  0  0  0  0  0  0  0  0
    0.0001    0.0000    0.0000 C   0  0  0  0  0  0  0  0  0  0  0  0
    0.0001   -1.6000    0.0000 C   0  0  0  0  0  0  0  0  0  0  0  0
   -0.0001   -3.2000    0.0000 H   0  0  0  0  0  0  0  0  0  0  0  0
    1.3856   -2.4001    0.0000 H   0  0  0  0  0  0  0  0  0  0  0  0
   -1.3856   -2.4001    0.0000 H   0  0  0  0  0  0  0  0  0  0  0  0
   -1.3856    0.7999    0.0000 C   0  0  0  0  0  0  0  0  0  0  0  0
   -2.7712    0.0000    0.0000 C   0  0  0  0  0  0  0  0  0  0  0  0
   -2.7712   -1.6000    0.0000 H   0  0  0  0  0  0  0  0  0  0  0  0
   -4.1569    0.8001    0.0000 C   0  0  0  0  0  0  0  0  0  0  0  0
   -5.5426    0.0000    0.0000 H   0  0  0  0  0  0  0  0  0  0  0  0
   -4.1569    2.3999    0.0000 C   0  0  0  0  0  0  0  0  0  0  0  0
   -5.5426    3.2000    0.0000 H   0  0  0  0  0  0  0  0  0  0  0  0
   -2.7712    3.2000    0.0000 C   0  0  0  0  0  0  0  0  0  0  0  0
   -2.7712    4.8000    0.0000 H   0  0  0  0  0  0  0  0  0  0  0  0
  1  2  2  0  0  0  0
  2  3  1  0  0  0  0
  2  4  1  0  0  0  0
  4  5  1  0  0  0  0
  5  6  1  0  0  0  0
  5  7  2  0  0  0  0
  7  8  1  0  0  0  0
  7  9  1  0  0  0  0
  9 10  1  0  0  0  0
  9 11  2  0  0  0  0
 11 12  1  0  0  0  0
 11 13  1  0  0  0  0
 13  4  2  0  0  0  0
 13 14  1  0  0  0  0
 14 15  1  0  0  0  0
 15 16  1  0  0  0  0
 15 17  1  0  0  0  0
 15 18  1  0  0  0  0
 14 19  2  0  0  0  0
 19  1  1  0  0  0  0
 19 20  1  0  0  0  0
 20 21  1  0  0  0  0
 20 22  2  0  0  0  0
 22 23  1  0  0  0  0
 22 24  1  0  0  0  0
 24 25  1  0  0  0  0
 24 26  2  0  0  0  0
 26  1  1  0  0  0  0
 26 27  1  0  0  0  0
M  END
> <ChemID>
100286

> <source_casrn>
779-02-2

> <CAS>
779-02-2

> <SMILES>
Cc1c2ccccc2cc2ccccc21

> <NAME>
9-methylanthracene

> <preferred_name>
9-Methylanthracene

> <iupac>
9-METHYLANTHRACENE

> <MPID>
101917

> <dsstox_substance_id>
DTXSID3061134

> <Canonical_QSARr>
Cc1c2ccccc2cc2ccccc21

> <InChI_Code_QSARr>
InChI=1S/C15H12/c1-11-14-8-4-2-6-12(14)10-13-7-3-5-9-15(11)13/h2-10H,1H3

> <InChI Key_QSARr>
CPGPAVAKSZHMBP-UHFFFAOYSA-N

> <LogKmHL>
0.23

$$$$
100287
  -INDIGO-08031722222D

 28 29  0  0  0  0  0  0  0  0999 V2000
   -1.7813   -2.1229    0.0000 C   0  0  0  0  0  0  0  0  0  0  0  0
   -0.5557   -3.1514    0.0000 H   0  0  0  0  0  0  0  0  0  0  0  0
   -3.2848   -2.6701    0.0000 C   0  0  0  0  0  0  0  0  0  0  0  0
   -3.5627   -4.2459    0.0000 H   0  0  0  0  0  0  0  0  0  0  0  0
   -4.5106   -1.6417    0.0000 C   0  0  0  0  0  0  0  0  0  0  0  0
   -6.0140   -2.1889    0.0000 H   0  0  0  0  0  0  0  0  0  0  0  0
   -4.2327   -0.0660    0.0000 C   0  0  0  0  0  0  0  0  0  0  0  0
   -5.4584    0.9625    0.0000 H   0  0  0  0  0  0  0  0  0  0  0  0
   -2.7292    0.4813    0.0000 C   0  0  0  0  0  0  0  0  0  0  0  0
   -2.4513    2.0569    0.0000 Cl  0  0  0  0  0  0  0  0  0  0  0  0
   -1.5034   -0.5472    0.0000 C   0  0  0  0  0  0  0  0  0  0  0  0
    0.0001   -0.0000    0.0000 C   0  0  0  0  0  0  0  0  0  0  0  0
    0.5473   -1.5035    0.0000 H   0  0  0  0  0  0  0  0  0  0  0  0
   -0.5472    1.5035    0.0000 C   0  0  0  0  0  0  0  0  0  0  0  0
   -1.0945    3.0070    0.0000 Cl  0  0  0  0  0  0  0  0  0  0  0  0
    0.4812    2.7292    0.0000 Cl  0  0  0  0  0  0  0  0  0  0  0  0
    1.0284    1.2256    0.0000 Cl  0  0  0  0  0  0  0  0  0  0  0  0
    1.5999   -0.0000    0.0000 C   0  0  0  0  0  0  0  0  0  0  0  0
    2.4001    1.3857    0.0000 C   0  0  0  0  0  0  0  0  0  0  0  0
    1.5999    2.7713    0.0000 H   0  0  0  0  0  0  0  0  0  0  0  0
    4.0000    1.3857    0.0000 C   0  0  0  0  0  0  0  0  0  0  0  0
    4.7999    2.7713    0.0000 H   0  0  0  0  0  0  0  0  0  0  0  0
    4.7999   -0.0000    0.0000 C   0  0  0  0  0  0  0  0  0  0  0  0
    6.4000   -0.0000    0.0000 Cl  0  0  0  0  0  0  0  0  0  0  0  0
    4.0000   -1.3857    0.0000 C   0  0  0  0  0  0  0  0  0  0  0  0
    4.7999   -2.7713    0.0000 H   0  0  0  0  0  0  0  0  0  0  0  0
    2.4001   -1.3857    0.0000 C   0  0  0  0  0  0  0  0  0  0  0  0
    1.5999   -2.7713    0.0000 H   0  0  0  0  0  0  0  0  0  0  0  0
  1  2  1  0  0  0  0
  1  3  1  0  0  0  0
  3  4  1  0  0  0  0
  3  5  2  0  0  0  0
  5  6  1  0  0  0  0
  5  7  1  0  0  0  0
  7  8  1  0  0  0  0
  7  9  2  0  0  0  0
  9 10  1  0  0  0  0
  9 11  1  0  0  0  0
 11  1  2  0  0  0  0
 11 12  1  0  0  0  0
 12 13  1  0  0  0  0
 12 14  1  0  0  0  0
 14 15  1  0  0  0  0
 14 16  1  0  0  0  0
 14 17  1  0  0  0  0
 12 18  1  0  0  0  0
 18 19  1  0  0  0  0
 19 20  1  0  0  0  0
 19 21  2  0  0  0  0
 21 22  1  0  0  0  0
 21 23  1  0  0  0  0
 23 24  1  0  0  0  0
 23 25  2  0  0  0  0
 25 26  1  0  0  0  0
 25 27  1  0  0  0  0
 27 18  2  0  0  0  0
 27 28  1  0  0  0  0
M  END
> <ChemID>
100287

> <source_casrn>
789-02-6

> <CAS>
789-02-6

> <SMILES>
Clc1ccc(cc1)C(c1ccccc1Cl)C(Cl)(Cl)Cl

> <NAME>
o,p'-DDT

> <preferred_name>
o,p'-DDT

> <iupac>
1-chloro-2-[2,2,2-trichloro-1-(4-chlorophenyl)ethyl]benzene

> <MPID>
101918

> <dsstox_substance_id>
DTXSID6022345

> <Canonical_QSARr>
Clc1ccc(cc1)C(c1ccccc1Cl)C(Cl)(Cl)Cl

> <InChI_Code_QSARr>
InChI=1S/C14H9Cl5/c15-10-7-5-9(6-8-10)13(14(17,18)19)11-3-1-2-4-12(11)16/h1-8,13H

> <InChI Key_QSARr>
CVUGPAFCQJIYDT-UHFFFAOYSA-N

> <LogKmHL>
1.71

$$$$
100288
  -INDIGO-08031722222D

 36 38  0  0  0  0  0  0  0  0999 V2000
    0.0000    0.0000    0.0000 Si  0  0  0  0  0  0  0  0  0  0  0  0
   -0.2778   -1.5757    0.0000 O   0  0  0  0  0  0  0  0  0  0  0  0
    0.9479   -2.6041    0.0000 H   0  0  0  0  0  0  0  0  0  0  0  0
   -1.6001    0.0000    0.0000 C   0  0  0  0  0  0  0  0  0  0  0  0
   -2.3999   -1.3857    0.0000 C   0  0  0  0  0  0  0  0  0  0  0  0
   -1.6001   -2.7713    0.0000 H   0  0  0  0  0  0  0  0  0  0  0  0
   -4.0000   -1.3857    0.0000 C   0  0  0  0  0  0  0  0  0  0  0  0
   -4.8001   -2.7713    0.0000 H   0  0  0  0  0  0  0  0  0  0  0  0
   -4.8001    0.0000    0.0000 C   0  0  0  0  0  0  0  0  0  0  0  0
   -6.4000    0.0000    0.0000 H   0  0  0  0  0  0  0  0  0  0  0  0
   -4.0000    1.3856    0.0000 C   0  0  0  0  0  0  0  0  0  0  0  0
   -4.8001    2.7713    0.0000 H   0  0  0  0  0  0  0  0  0  0  0  0
   -2.3999    1.3856    0.0000 C   0  0  0  0  0  0  0  0  0  0  0  0
   -2.1221    2.9613    0.0000 H   0  0  0  0  0  0  0  0  0  0  0  0
    0.5472    1.5035    0.0000 C   0  0  0  0  0  0  0  0  0  0  0  0
    2.1230    1.7814    0.0000 C   0  0  0  0  0  0  0  0  0  0  0  0
    3.1513    0.5557    0.0000 H   0  0  0  0  0  0  0  0  0  0  0  0
    2.6702    3.2849    0.0000 C   0  0  0  0  0  0  0  0  0  0  0  0
    4.2459    3.5628    0.0000 H   0  0  0  0  0  0  0  0  0  0  0  0
    1.6417    4.5105    0.0000 C   0  0  0  0  0  0  0  0  0  0  0  0
    2.1889    6.0140    0.0000 H   0  0  0  0  0  0  0  0  0  0  0  0
    0.0659    4.2327    0.0000 C   0  0  0  0  0  0  0  0  0  0  0  0
   -0.9624    5.4584    0.0000 H   0  0  0  0  0  0  0  0  0  0  0  0
   -0.4813    2.7291    0.0000 C   0  0  0  0  0  0  0  0  0  0  0  0
   -1.9847    2.1819    0.0000 H   0  0  0  0  0  0  0  0  0  0  0  0
    1.5758   -0.2778    0.0000 C   0  0  0  0  0  0  0  0  0  0  0  0
    2.3756    1.1077    0.0000 C   0  0  0  0  0  0  0  0  0  0  0  0
    1.5758    2.4935    0.0000 H   0  0  0  0  0  0  0  0  0  0  0  0
    3.9757    1.1077    0.0000 C   0  0  0  0  0  0  0  0  0  0  0  0
    4.7758    2.4935    0.0000 H   0  0  0  0  0  0  0  0  0  0  0  0
    4.7758   -0.2778    0.0000 C   0  0  0  0  0  0  0  0  0  0  0  0
    6.3757   -0.2778    0.0000 H   0  0  0  0  0  0  0  0  0  0  0  0
    3.9757   -1.6635    0.0000 C   0  0  0  0  0  0  0  0  0  0  0  0
    4.7758   -3.0491    0.0000 H   0  0  0  0  0  0  0  0  0  0  0  0
    2.3756   -1.6635    0.0000 C   0  0  0  0  0  0  0  0  0  0  0  0
    1.5758   -3.0491    0.0000 H   0  0  0  0  0  0  0  0  0  0  0  0
  1  2  1  0  0  0  0
  2  3  1  0  0  0  0
  1  4  1  0  0  0  0
  4  5  1  0  0  0  0
  5  6  1  0  0  0  0
  5  7  2  0  0  0  0
  7  8  1  0  0  0  0
  7  9  1  0  0  0  0
  9 10  1  0  0  0  0
  9 11  2  0  0  0  0
 11 12  1  0  0  0  0
 11 13  1  0  0  0  0
 13  4  2  0  0  0  0
 13 14  1  0  0  0  0
  1 15  1  0  0  0  0
 15 16  1  0  0  0  0
 16 17  1  0  0  0  0
 16 18  2  0  0  0  0
 18 19  1  0  0  0  0
 18 20  1  0  0  0  0
 20 21  1  0  0  0  0
 20 22  2  0  0  0  0
 22 23  1  0  0  0  0
 22 24  1  0  0  0  0
 24 15  2  0  0  0  0
 24 25  1  0  0  0  0
  1 26  1  0  0  0  0
 26 27  1  0  0  0  0
 27 28  1  0  0  0  0
 27 29  2  0  0  0  0
 29 30  1  0  0  0  0
 29 31  1  0  0  0  0
 31 32  1  0  0  0  0
 31 33  2  0  0  0  0
 33 34  1  0  0  0  0
 33 35  1  0  0  0  0
 35 26  2  0  0  0  0
 35 36  1  0  0  0  0
M  END
> <ChemID>
100288

> <source_casrn>
791-31-1

> <CAS>
791-31-1

> <SMILES>
O[Si](c1ccccc1)(c1ccccc1)c1ccccc1

> <NAME>
Triphenylsilanol

> <preferred_name>
Triphenylsilanol

> <iupac>
triphenylsilanol

> <MPID>
101919

> <dsstox_substance_id>
DTXSID1036545

> <Canonical_QSARr>
O[Si](c1ccccc1)(c1ccccc1)c1ccccc1

> <InChI_Code_QSARr>
InChI=1S/C18H16OSi/c19-20(16-10-4-1-5-11-16,17-12-6-2-7-13-17)18-14-8-3-9-15-18/h1-15,19H

> <InChI Key_QSARr>
NLSXASIDNWDYMI-UHFFFAOYSA-N

> <LogKmHL>
0.07

$$$$
100290
  -INDIGO-08031722222D

 27 29  0  0  0  0  0  0  0  0999 V2000
    4.1569    2.4000    0.0000 C   0  0  0  0  0  0  0  0  0  0  0  0
    5.5426    3.2001    0.0000 H   0  0  0  0  0  0  0  0  0  0  0  0
    4.1569    0.8000    0.0000 C   0  0  0  0  0  0  0  0  0  0  0  0
    5.5426    0.0000    0.0000 H   0  0  0  0  0  0  0  0  0  0  0  0
    2.7712    0.0000    0.0000 C   0  0  0  0  0  0  0  0  0  0  0  0
    2.7712   -1.6000    0.0000 H   0  0  0  0  0  0  0  0  0  0  0  0
    1.3856    0.8000    0.0000 C   0  0  0  0  0  0  0  0  0  0  0  0
    1.3856    2.4000    0.0000 C   0  0  0  0  0  0  0  0  0  0  0  0
   -0.0001    3.2001    0.0000 C   0  0  0  0  0  0  0  0  0  0  0  0
    0.0001    4.8000    0.0000 H   0  0  0  0  0  0  0  0  0  0  0  0
   -1.3856    2.4000    0.0000 C   0  0  0  0  0  0  0  0  0  0  0  0
   -2.7712    3.2001    0.0000 H   0  0  0  0  0  0  0  0  0  0  0  0
   -1.3856    0.8000    0.0000 C   0  0  0  0  0  0  0  0  0  0  0  0
   -0.0001    0.0000    0.0000 C   0  0  0  0  0  0  0  0  0  0  0  0
   -0.0001   -1.6000    0.0000 C   0  0  0  0  0  0  0  0  0  0  0  0
    1.3856   -2.4001    0.0000 H   0  0  0  0  0  0  0  0  0  0  0  0
   -1.3856   -2.4001    0.0000 C   0  0  0  0  0  0  0  0  0  0  0  0
   -1.3856   -4.0000    0.0000 H   0  0  0  0  0  0  0  0  0  0  0  0
   -2.7712   -1.6000    0.0000 C   0  0  0  0  0  0  0  0  0  0  0  0
   -4.1569   -2.4001    0.0000 H   0  0  0  0  0  0  0  0  0  0  0  0
   -2.7712    0.0000    0.0000 C   0  0  0  0  0  0  0  0  0  0  0  0
   -4.1569    0.8000    0.0000 C   0  0  0  0  0  0  0  0  0  0  0  0
   -5.5426    1.6000    0.0000 H   0  0  0  0  0  0  0  0  0  0  0  0
   -5.5426    0.0000    0.0000 H   0  0  0  0  0  0  0  0  0  0  0  0
   -4.1569    2.4000    0.0000 H   0  0  0  0  0  0  0  0  0  0  0  0
    2.7712    3.2001    0.0000 C   0  0  0  0  0  0  0  0  0  0  0  0
    2.7712    4.8000    0.0000 H   0  0  0  0  0  0  0  0  0  0  0  0
  1  2  1  0  0  0  0
  1  3  1  0  0  0  0
  3  4  1  0  0  0  0
  3  5  2  0  0  0  0
  5  6  1  0  0  0  0
  5  7  1  0  0  0  0
  7  8  1  0  0  0  0
  8  9  2  0  0  0  0
  9 10  1  0  0  0  0
  9 11  1  0  0  0  0
 11 12  1  0  0  0  0
 11 13  2  0  0  0  0
 13 14  1  0  0  0  0
 14  7  2  0  0  0  0
 14 15  1  0  0  0  0
 15 16  1  0  0  0  0
 15 17  2  0  0  0  0
 17 18  1  0  0  0  0
 17 19  1  0  0  0  0
 19 20  1  0  0  0  0
 19 21  2  0  0  0  0
 21 13  1  0  0  0  0
 21 22  1  0  0  0  0
 22 23  1  0  0  0  0
 22 24  1  0  0  0  0
 22 25  1  0  0  0  0
  8 26  1  0  0  0  0
 26  1  2  0  0  0  0
 26 27  1  0  0  0  0
M  END
> <ChemID>
100290

> <source_casrn>
832-69-9

> <CAS>
832-69-9

> <SMILES>
Cc1cccc2c3ccccc3ccc21

> <NAME>
1-methylphenanthrene

> <preferred_name>
1-Methyl phenanthrene

> <iupac>
1-methylphenanthrene

> <MPID>
101921

> <dsstox_substance_id>
DTXSID6025648

> <Canonical_QSARr>
Cc1cccc2c3ccccc3ccc21

> <InChI_Code_QSARr>
InChI=1S/C15H12/c1-11-5-4-8-15-13(11)10-9-12-6-2-3-7-14(12)15/h2-10H,1H3

> <InChI Key_QSARr>
DOWJXOHBNXRUOD-UHFFFAOYSA-N

> <LogKmHL>
0.63

$$$$
100291
  -INDIGO-08031722222D

 30 29  0  0  0  0  0  0  0  0999 V2000
    6.9281    0.8000    0.0000 C   0  0  0  0  0  0  0  0  0  0  0  0
    8.3138    0.0000    0.0000 H   0  0  0  0  0  0  0  0  0  0  0  0
    6.9281    2.4000    0.0000 H   0  0  0  0  0  0  0  0  0  0  0  0
    5.5427    0.0000    0.0000 C   0  0  0  0  0  0  0  0  0  0  0  0
    5.5427   -1.6000    0.0000 H   0  0  0  0  0  0  0  0  0  0  0  0
    4.1570    0.8000    0.0000 C   0  0  0  0  0  0  0  0  0  0  0  0
    4.7691    2.2782    0.0000 H   0  0  0  0  0  0  0  0  0  0  0  0
    3.5446    2.2782    0.0000 H   0  0  0  0  0  0  0  0  0  0  0  0
    2.7713    0.0000    0.0000 C   0  0  0  0  0  0  0  0  0  0  0  0
    2.1589   -1.4782    0.0000 H   0  0  0  0  0  0  0  0  0  0  0  0
    3.3836   -1.4782    0.0000 H   0  0  0  0  0  0  0  0  0  0  0  0
    1.3856    0.8000    0.0000 C   0  0  0  0  0  0  0  0  0  0  0  0
    1.9979    2.2782    0.0000 H   0  0  0  0  0  0  0  0  0  0  0  0
    0.7734    2.2782    0.0000 H   0  0  0  0  0  0  0  0  0  0  0  0
    0.0001    0.0000    0.0000 C   0  0  0  0  0  0  0  0  0  0  0  0
   -0.6123   -1.4782    0.0000 H   0  0  0  0  0  0  0  0  0  0  0  0
    0.6122   -1.4782    0.0000 H   0  0  0  0  0  0  0  0  0  0  0  0
   -1.3856    0.8000    0.0000 C   0  0  0  0  0  0  0  0  0  0  0  0
   -0.7732    2.2782    0.0000 H   0  0  0  0  0  0  0  0  0  0  0  0
   -1.9980    2.2782    0.0000 H   0  0  0  0  0  0  0  0  0  0  0  0
   -2.7713    0.0000    0.0000 C   0  0  0  0  0  0  0  0  0  0  0  0
   -3.3835   -1.4782    0.0000 H   0  0  0  0  0  0  0  0  0  0  0  0
   -2.1589   -1.4782    0.0000 H   0  0  0  0  0  0  0  0  0  0  0  0
   -4.1570    0.8000    0.0000 C   0  0  0  0  0  0  0  0  0  0  0  0
   -3.5446    2.2782    0.0000 H   0  0  0  0  0  0  0  0  0  0  0  0
   -4.7692    2.2782    0.0000 H   0  0  0  0  0  0  0  0  0  0  0  0
   -5.5425    0.0000    0.0000 C   0  0  0  0  0  0  0  0  0  0  0  0
   -6.9282   -0.8000    0.0000 H   0  0  0  0  0  0  0  0  0  0  0  0
   -6.9282    0.8000    0.0000 H   0  0  0  0  0  0  0  0  0  0  0  0
   -5.5425   -1.6000    0.0000 H   0  0  0  0  0  0  0  0  0  0  0  0
  1  2  1  0  0  0  0
  1  3  1  0  0  0  0
  1  4  2  0  0  0  0
  4  5  1  0  0  0  0
  4  6  1  0  0  0  0
  6  7  1  0  0  0  0
  6  8  1  0  0  0  0
  6  9  1  0  0  0  0
  9 10  1  0  0  0  0
  9 11  1  0  0  0  0
  9 12  1  0  0  0  0
 12 13  1  0  0  0  0
 12 14  1  0  0  0  0
 12 15  1  0  0  0  0
 15 16  1  0  0  0  0
 15 17  1  0  0  0  0
 15 18  1  0  0  0  0
 18 19  1  0  0  0  0
 18 20  1  0  0  0  0
 18 21  1  0  0  0  0
 21 22  1  0  0  0  0
 21 23  1  0  0  0  0
 21 24  1  0  0  0  0
 24 25  1  0  0  0  0
 24 26  1  0  0  0  0
 24 27  1  0  0  0  0
 27 28  1  0  0  0  0
 27 29  1  0  0  0  0
 27 30  1  0  0  0  0
M  END
> <ChemID>
100291

> <source_casrn>
872-05-9

> <CAS>
872-05-9

> <SMILES>
CCCCCCCCC=C

> <NAME>
1-decene

> <preferred_name>
1-Decene

> <iupac>
dec-1-ene

> <MPID>
101922

> <dsstox_substance_id>
DTXSID8027329

> <Canonical_QSARr>
CCCCCCCCC=C

> <InChI_Code_QSARr>
InChI=1S/C10H20/c1-3-5-7-9-10-8-6-4-2/h3H,1,4-10H2,2H3

> <InChI Key_QSARr>
AFFLGGQVNFXPEV-UHFFFAOYSA-N

> <LogKmHL>
0.65

$$$$
100292
  -INDIGO-08031722222D

 18 18  0  0  0  0  0  0  0  0999 V2000
    3.2000    2.7713    0.0000 Cl  0  0  0  0  0  0  0  0  0  0  0  0
    2.4000    1.3856    0.0000 C   0  0  0  0  0  0  0  0  0  0  0  0
    3.2000   -0.0000    0.0000 C   0  0  0  0  0  0  0  0  0  0  0  0
    4.8001   -0.0000    0.0000 C   0  0  0  0  0  0  0  0  0  0  0  0
    6.4000   -0.0000    0.0000 H   0  0  0  0  0  0  0  0  0  0  0  0
    5.6000    1.3856    0.0000 H   0  0  0  0  0  0  0  0  0  0  0  0
    5.6000   -1.3856    0.0000 H   0  0  0  0  0  0  0  0  0  0  0  0
    2.4000   -1.3856    0.0000 C   0  0  0  0  0  0  0  0  0  0  0  0
    3.2000   -2.7713    0.0000 Cl  0  0  0  0  0  0  0  0  0  0  0  0
    0.8000   -1.3856    0.0000 C   0  0  0  0  0  0  0  0  0  0  0  0
    0.0000   -2.7713    0.0000 Cl  0  0  0  0  0  0  0  0  0  0  0  0
    0.0000    0.0000    0.0000 C   0  0  0  0  0  0  0  0  0  0  0  0
   -1.6001    0.0000    0.0000 C   0  0  0  0  0  0  0  0  0  0  0  0
   -3.2000    0.0000    0.0000 H   0  0  0  0  0  0  0  0  0  0  0  0
   -2.4000   -1.3856    0.0000 H   0  0  0  0  0  0  0  0  0  0  0  0
   -2.4000    1.3856    0.0000 H   0  0  0  0  0  0  0  0  0  0  0  0
    0.8000    1.3856    0.0000 C   0  0  0  0  0  0  0  0  0  0  0  0
    0.0000    2.7713    0.0000 Cl  0  0  0  0  0  0  0  0  0  0  0  0
  1  2  1  0  0  0  0
  2  3  1  0  0  0  0
  3  4  1  0  0  0  0
  4  5  1  0  0  0  0
  4  6  1  0  0  0  0
  4  7  1  0  0  0  0
  3  8  2  0  0  0  0
  8  9  1  0  0  0  0
  8 10  1  0  0  0  0
 10 11  1  0  0  0  0
 10 12  2  0  0  0  0
 12 13  1  0  0  0  0
 13 14  1  0  0  0  0
 13 15  1  0  0  0  0
 13 16  1  0  0  0  0
 12 17  1  0  0  0  0
 17  2  2  0  0  0  0
 17 18  1  0  0  0  0
M  END
> <ChemID>
100292

> <source_casrn>
877-10-1

> <CAS>
877-10-1

> <SMILES>
Cc1c(Cl)c(Cl)c(C)c(Cl)c1Cl

> <NAME>
1,2,4,5-Tetrachloro-3,6-dimethylbenzene

> <preferred_name>
2,3,5,6-Tetrachloro-p-xylene

> <iupac>
1,2,4,5-Tetrachloro-3,6-dimethylbenzene

> <MPID>
101923

> <dsstox_substance_id>
DTXSID60236565

> <Canonical_QSARr>
Cc1c(Cl)c(Cl)c(C)c(Cl)c1Cl

> <InChI_Code_QSARr>
InChI=1S/C8H6Cl4/c1-3-5(9)7(11)4(2)8(12)6(3)10/h1-2H3

> <InChI Key_QSARr>
CTSQZGJZQUVGBQ-UHFFFAOYSA-N

> <LogKmHL>
1.12

$$$$
100295
  -INDIGO-08031722222D

 27 29  0  0  0  0  0  0  0  0999 V2000
   -1.6001    0.0000    0.0000 C   0  0  0  0  0  0  0  0  0  0  0  0
    0.0001    0.0000    0.0000 C   0  0  0  0  0  0  0  0  0  0  0  0
    0.8001   -1.3856    0.0000 C   0  0  0  0  0  0  0  0  0  0  0  0
    2.4000   -1.3856    0.0000 C   0  0  0  0  0  0  0  0  0  0  0  0
    3.2000   -2.7713    0.0000 H   0  0  0  0  0  0  0  0  0  0  0  0
    3.2000    0.0000    0.0000 C   0  0  0  0  0  0  0  0  0  0  0  0
    4.8000    0.0000    0.0000 H   0  0  0  0  0  0  0  0  0  0  0  0
    2.4000    1.3856    0.0000 C   0  0  0  0  0  0  0  0  0  0  0  0
    3.2000    2.7713    0.0000 H   0  0  0  0  0  0  0  0  0  0  0  0
    0.8001    1.3856    0.0000 C   0  0  0  0  0  0  0  0  0  0  0  0
    0.0001    2.7713    0.0000 H   0  0  0  0  0  0  0  0  0  0  0  0
    0.0001   -2.7713    0.0000 C   0  0  0  0  0  0  0  0  0  0  0  0
    0.8001   -4.1569    0.0000 C   0  0  0  0  0  0  0  0  0  0  0  0
    1.6000   -5.5426    0.0000 H   0  0  0  0  0  0  0  0  0  0  0  0
    0.0001   -5.5426    0.0000 H   0  0  0  0  0  0  0  0  0  0  0  0
    2.4000   -4.1569    0.0000 H   0  0  0  0  0  0  0  0  0  0  0  0
   -1.6001   -2.7713    0.0000 C   0  0  0  0  0  0  0  0  0  0  0  0
   -2.4001   -4.1570    0.0000 H   0  0  0  0  0  0  0  0  0  0  0  0
   -2.4001   -1.3856    0.0000 C   0  0  0  0  0  0  0  0  0  0  0  0
   -4.0000   -1.3856    0.0000 C   0  0  0  0  0  0  0  0  0  0  0  0
   -4.8000   -2.7713    0.0000 H   0  0  0  0  0  0  0  0  0  0  0  0
   -4.8000    0.0000    0.0000 C   0  0  0  0  0  0  0  0  0  0  0  0
   -6.4000    0.0000    0.0000 H   0  0  0  0  0  0  0  0  0  0  0  0
   -4.0000    1.3856    0.0000 C   0  0  0  0  0  0  0  0  0  0  0  0
   -4.8000    2.7713    0.0000 H   0  0  0  0  0  0  0  0  0  0  0  0
   -2.4001    1.3856    0.0000 C   0  0  0  0  0  0  0  0  0  0  0  0
   -1.6001    2.7713    0.0000 H   0  0  0  0  0  0  0  0  0  0  0  0
  1  2  1  0  0  0  0
  2  3  1  0  0  0  0
  3  4  2  0  0  0  0
  4  5  1  0  0  0  0
  4  6  1  0  0  0  0
  6  7  1  0  0  0  0
  6  8  2  0  0  0  0
  8  9  1  0  0  0  0
  8 10  1  0  0  0  0
 10  2  2  0  0  0  0
 10 11  1  0  0  0  0
  3 12  1  0  0  0  0
 12 13  1  0  0  0  0
 13 14  1  0  0  0  0
 13 15  1  0  0  0  0
 13 16  1  0  0  0  0
 12 17  2  0  0  0  0
 17 18  1  0  0  0  0
 17 19  1  0  0  0  0
 19  1  1  0  0  0  0
 19 20  2  0  0  0  0
 20 21  1  0  0  0  0
 20 22  1  0  0  0  0
 22 23  1  0  0  0  0
 22 24  2  0  0  0  0
 24 25  1  0  0  0  0
 24 26  1  0  0  0  0
 26  1  2  0  0  0  0
 26 27  1  0  0  0  0
M  END
> <ChemID>
100295

> <source_casrn>
883-20-5

> <CAS>
883-20-5

> <SMILES>
Cc1cc2ccccc2c2ccccc21

> <NAME>
9-methylphenanthrene

> <preferred_name>
9-Methylphenanthrene

> <iupac>
9-METHYLPHENANTHRENE

> <MPID>
101925

> <dsstox_substance_id>
DTXSID4061258

> <Canonical_QSARr>
Cc1cc2ccccc2c2ccccc21

> <InChI_Code_QSARr>
InChI=1S/C15H12/c1-11-10-12-6-2-3-8-14(12)15-9-5-4-7-13(11)15/h2-10H,1H3

> <InChI Key_QSARr>
DALBHIYZSZZWBS-UHFFFAOYSA-N

> <LogKmHL>
0.12

$$$$
100296
  -INDIGO-08031722222D

 12 11  0  0  0  0  0  0  0  0999 V2000
    1.6000    0.0000    0.0000 C   0  0  0  0  0  0  0  0  0  0  0  0
    3.2000    0.0000    0.0000 F   0  0  0  0  0  0  0  0  0  0  0  0
    2.4000   -1.3856    0.0000 F   0  0  0  0  0  0  0  0  0  0  0  0
    2.4000    1.3856    0.0000 F   0  0  0  0  0  0  0  0  0  0  0  0
    0.0000    0.0000    0.0000 C   0  0  0  0  0  0  0  0  0  0  0  0
    0.0000   -1.6000    0.0000 H   0  0  0  0  0  0  0  0  0  0  0  0
    0.0000    1.6000    0.0000 O   0  0  0  0  0  0  0  0  0  0  0  0
    1.3856    2.4000    0.0000 H   0  0  0  0  0  0  0  0  0  0  0  0
   -1.6000    0.0000    0.0000 C   0  0  0  0  0  0  0  0  0  0  0  0
   -3.2000    0.0000    0.0000 F   0  0  0  0  0  0  0  0  0  0  0  0
   -2.4000   -1.3856    0.0000 F   0  0  0  0  0  0  0  0  0  0  0  0
   -2.4000    1.3856    0.0000 F   0  0  0  0  0  0  0  0  0  0  0  0
  1  2  1  0  0  0  0
  1  3  1  0  0  0  0
  1  4  1  0  0  0  0
  1  5  1  0  0  0  0
  5  6  1  0  0  0  0
  5  7  1  0  0  0  0
  7  8  1  0  0  0  0
  5  9  1  0  0  0  0
  9 10  1  0  0  0  0
  9 11  1  0  0  0  0
  9 12  1  0  0  0  0
M  END
> <ChemID>
100296

> <source_casrn>
920-66-1

> <CAS>
920-66-1

> <SMILES>
OC(C(F)(F)F)C(F)(F)F

> <NAME>
2-Propanol, 1,1,1,3,3,3-hexafluoro-

> <preferred_name>
1,1,1,3,3,3-Hexafluoro-2-propanol

> <iupac>
1,1,1,3,3,3-hexafluoropropan-2-ol

> <MPID>
101926

> <dsstox_substance_id>
DTXSID1022134

> <Canonical_QSARr>
OC(C(F)(F)F)C(F)(F)F

> <InChI_Code_QSARr>
InChI=1S/C3H2F6O/c4-2(5,6)1(10)3(7,8)9/h1,10H

> <InChI Key_QSARr>
BYEAHWXPCBROCE-UHFFFAOYSA-N

> <LogKmHL>
-1.32

$$$$
100298
  -INDIGO-08031722222D

 13 13  0  0  0  0  0  0  0  0999 V2000
    2.4000    1.3856    0.0000 Cl  0  0  0  0  0  0  0  0  0  0  0  0
    1.6000   -0.0000    0.0000 C   0  0  0  0  0  0  0  0  0  0  0  0
    2.4000   -1.3857    0.0000 C   0  0  0  0  0  0  0  0  0  0  0  0
    4.0000   -1.3857    0.0000 Cl  0  0  0  0  0  0  0  0  0  0  0  0
    1.6000   -2.7713    0.0000 C   0  0  0  0  0  0  0  0  0  0  0  0
    2.4000   -4.1569    0.0000 H   0  0  0  0  0  0  0  0  0  0  0  0
    0.0000   -2.7713    0.0000 C   0  0  0  0  0  0  0  0  0  0  0  0
   -0.8000   -4.1569    0.0000 Cl  0  0  0  0  0  0  0  0  0  0  0  0
   -0.8000   -1.3856    0.0000 C   0  0  0  0  0  0  0  0  0  0  0  0
   -2.4000   -1.3856    0.0000 Cl  0  0  0  0  0  0  0  0  0  0  0  0
    0.0000   -0.0000    0.0000 C   0  0  0  0  0  0  0  0  0  0  0  0
   -0.8000    1.3856    0.0000 O   0  0  0  0  0  0  0  0  0  0  0  0
   -2.4000    1.3856    0.0000 H   0  0  0  0  0  0  0  0  0  0  0  0
  1  2  1  0  0  0  0
  2  3  1  0  0  0  0
  3  4  1  0  0  0  0
  3  5  2  0  0  0  0
  5  6  1  0  0  0  0
  5  7  1  0  0  0  0
  7  8  1  0  0  0  0
  7  9  2  0  0  0  0
  9 10  1  0  0  0  0
  9 11  1  0  0  0  0
 11  2  2  0  0  0  0
 11 12  1  0  0  0  0
 12 13  1  0  0  0  0
M  END
> <ChemID>
100298

> <source_casrn>
935-95-5

> <CAS>
935-95-5

> <SMILES>
Oc1c(Cl)c(Cl)cc(Cl)c1Cl

> <NAME>
2,3,5,6-tetrachlorophenol

> <preferred_name>
2,3,5,6-Tetrachlorophenol

> <iupac>
2,3,5,6-tetrachlorophenol

> <MPID>
101927

> <dsstox_substance_id>
DTXSID2026101

> <Canonical_QSARr>
Oc1c(Cl)c(Cl)cc(Cl)c1Cl

> <InChI_Code_QSARr>
InChI=1S/C6H2Cl4O/c7-2-1-3(8)5(10)6(11)4(2)9/h1,11H

> <InChI Key_QSARr>
KEWNKZNZRIAIAK-UHFFFAOYSA-N

> <LogKmHL>
-0.1

$$$$
100300
  -INDIGO-08031722222D

 27 27  0  0  0  0  0  0  0  0999 V2000
   -0.6507    1.4616    0.0000 S   0  0  0  0  0  0  0  0  0  0  0  0
   -0.0000    0.0000    0.0000 P   0  0  0  0  0  0  0  0  0  0  0  0
    1.5911   -0.1672    0.0000 S   0  0  0  0  0  0  0  0  0  0  0  0
    2.5316    1.1272    0.0000 C   0  0  0  0  0  0  0  0  0  0  0  0
    2.4899    2.7266    0.0000 H   0  0  0  0  0  0  0  0  0  0  0  0
    1.3711    2.2286    0.0000 H   0  0  0  0  0  0  0  0  0  0  0  0
    4.1230    0.9599    0.0000 N   0  0  0  0  0  0  0  0  0  0  0  0
    5.1936    2.1490    0.0000 C   0  0  0  0  0  0  0  0  0  0  0  0
    4.8610    3.7140    0.0000 O   0  0  0  0  0  0  0  0  0  0  0  0
    6.6553    1.4982    0.0000 S   0  0  0  0  0  0  0  0  0  0  0  0
    6.4879   -0.0930    0.0000 C   0  0  0  0  0  0  0  0  0  0  0  0
    7.6771   -1.1637    0.0000 O   0  0  0  0  0  0  0  0  0  0  0  0
    9.1987   -0.6693    0.0000 C   0  0  0  0  0  0  0  0  0  0  0  0
   10.7204   -0.1748    0.0000 H   0  0  0  0  0  0  0  0  0  0  0  0
   10.3877   -1.7398    0.0000 H   0  0  0  0  0  0  0  0  0  0  0  0
    9.5314    0.8958    0.0000 H   0  0  0  0  0  0  0  0  0  0  0  0
    4.9229   -0.4257    0.0000 N   0  0  0  0  0  0  0  0  0  0  0  0
   -1.5912    0.1672    0.0000 O   0  0  0  0  0  0  0  0  0  0  0  0
   -2.2421    1.6289    0.0000 C   0  0  0  0  0  0  0  0  0  0  0  0
   -3.8332    1.7961    0.0000 H   0  0  0  0  0  0  0  0  0  0  0  0
   -2.8928    3.0906    0.0000 H   0  0  0  0  0  0  0  0  0  0  0  0
   -1.3016    2.9233    0.0000 H   0  0  0  0  0  0  0  0  0  0  0  0
   -0.9405   -1.2944    0.0000 O   0  0  0  0  0  0  0  0  0  0  0  0
   -0.2896   -2.7561    0.0000 C   0  0  0  0  0  0  0  0  0  0  0  0
    0.3611   -4.2178    0.0000 H   0  0  0  0  0  0  0  0  0  0  0  0
   -1.2301   -4.0505    0.0000 H   0  0  0  0  0  0  0  0  0  0  0  0
    1.3015   -2.9233    0.0000 H   0  0  0  0  0  0  0  0  0  0  0  0
  1  2  2  0  0  0  0
  2  3  1  0  0  0  0
  3  4  1  0  0  0  0
  4  5  1  0  0  0  0
  4  6  1  0  0  0  0
  4  7  1  0  0  0  0
  7  8  1  0  0  0  0
  8  9  2  0  0  0  0
  8 10  1  0  0  0  0
 10 11  1  0  0  0  0
 11 12  1  0  0  0  0
 12 13  1  0  0  0  0
 13 14  1  0  0  0  0
 13 15  1  0  0  0  0
 13 16  1  0  0  0  0
 11 17  2  0  0  0  0
 17  7  1  0  0  0  0
  2 18  1  0  0  0  0
 18 19  1  0  0  0  0
 19 20  1  0  0  0  0
 19 21  1  0  0  0  0
 19 22  1  0  0  0  0
  2 23  1  0  0  0  0
 23 24  1  0  0  0  0
 24 25  1  0  0  0  0
 24 26  1  0  0  0  0
 24 27  1  0  0  0  0
M  END
> <ChemID>
100300

> <source_casrn>
950-37-8

> <CAS>
950-37-8

> <SMILES>
COC1=NN(CSP(=S)(OC)OC)C(=O)S1

> <NAME>
Methidathion

> <preferred_name>
Methidathion

> <iupac>
S-[(5-methoxy-2-oxo-1,3,4-thiadiazol-3(2H)-yl)methyl] O,O-dimethyl phosphorodithioate

> <MPID>
101929

> <dsstox_substance_id>
DTXSID5020819

> <Canonical_QSARr>
COC1=NN(CSP(=S)(OC)OC)C(=O)S1

> <InChI_Code_QSARr>
InChI=1S/C6H11N2O4PS3/c1-10-5-7-8(6(9)16-5)4-15-13(14,11-2)12-3/h4H2,1-3H3

> <InChI Key_QSARr>
MEBQXILRKZHVCX-UHFFFAOYSA-N

> <LogKmHL>
-1.15

$$$$
100301
  -INDIGO-08031722222D

 28 28  0  0  0  0  0  0  0  0999 V2000
   -4.1569    2.4000    0.0000 Cl  0  0  0  0  0  0  0  0  0  0  0  0
   -2.7712    1.6000    0.0000 C   0  0  0  0  0  0  0  0  0  0  0  0
   -1.3857    2.4000    0.0000 C   0  0  0  0  0  0  0  0  0  0  0  0
   -1.3857    4.0000    0.0000 H   0  0  0  0  0  0  0  0  0  0  0  0
    0.0000    1.6000    0.0000 C   0  0  0  0  0  0  0  0  0  0  0  0
    1.3857    2.4000    0.0000 Cl  0  0  0  0  0  0  0  0  0  0  0  0
    0.0000    0.0000    0.0000 C   0  0  0  0  0  0  0  0  0  0  0  0
    1.3857   -0.8000    0.0000 C   0  0  0  0  0  0  0  0  0  0  0  0
    2.7712    0.0000    0.0000 O   0  0  0  0  0  0  0  0  0  0  0  0
    4.1569   -0.8000    0.0000 P   0  0  0  0  0  0  0  0  0  0  0  0
    4.1569   -2.4000    0.0000 O   0  0  0  0  0  0  0  0  0  0  0  0
    5.5426   -1.6000    0.0000 O   0  0  0  0  0  0  0  0  0  0  0  0
    6.9281   -0.8000    0.0000 C   0  0  0  0  0  0  0  0  0  0  0  0
    8.3138   -1.6000    0.0000 H   0  0  0  0  0  0  0  0  0  0  0  0
    8.3138    0.0000    0.0000 H   0  0  0  0  0  0  0  0  0  0  0  0
    6.9281   -2.4000    0.0000 H   0  0  0  0  0  0  0  0  0  0  0  0
    5.5426    0.0000    0.0000 O   0  0  0  0  0  0  0  0  0  0  0  0
    5.5426    1.6000    0.0000 C   0  0  0  0  0  0  0  0  0  0  0  0
    5.5426    3.2000    0.0000 H   0  0  0  0  0  0  0  0  0  0  0  0
    6.9281    2.4000    0.0000 H   0  0  0  0  0  0  0  0  0  0  0  0
    4.1569    2.4000    0.0000 H   0  0  0  0  0  0  0  0  0  0  0  0
    1.3857   -2.4000    0.0000 C   0  0  0  0  0  0  0  0  0  0  0  0
    2.7712   -3.2000    0.0000 H   0  0  0  0  0  0  0  0  0  0  0  0
    0.0000   -3.2000    0.0000 Cl  0  0  0  0  0  0  0  0  0  0  0  0
   -1.3857   -0.8000    0.0000 C   0  0  0  0  0  0  0  0  0  0  0  0
   -1.3857   -2.4000    0.0000 H   0  0  0  0  0  0  0  0  0  0  0  0
   -2.7712    0.0000    0.0000 C   0  0  0  0  0  0  0  0  0  0  0  0
   -4.1569   -0.8000    0.0000 Cl  0  0  0  0  0  0  0  0  0  0  0  0
  1  2  1  0  0  0  0
  2  3  1  0  0  0  0
  3  4  1  0  0  0  0
  3  5  2  0  0  0  0
  5  6  1  0  0  0  0
  5  7  1  0  0  0  0
  7  8  1  0  0  0  0
  8  9  1  0  0  0  0
  9 10  1  0  0  0  0
 10 11  2  0  0  0  0
 10 12  1  0  0  0  0
 12 13  1  0  0  0  0
 13 14  1  0  0  0  0
 13 15  1  0  0  0  0
 13 16  1  0  0  0  0
 10 17  1  0  0  0  0
 17 18  1  0  0  0  0
 18 19  1  0  0  0  0
 18 20  1  0  0  0  0
 18 21  1  0  0  0  0
  8 22  2  0  0  0  0
 22 23  1  0  0  0  0
 22 24  1  0  0  0  0
  7 25  2  0  0  0  0
 25 26  1  0  0  0  0
 25 27  1  0  0  0  0
 27  2  2  0  0  0  0
 27 28  1  0  0  0  0
M  END
> <ChemID>
100301

> <source_casrn>
961-11-5

> <CAS>
961-11-5

> <SMILES>
COP(=O)(OC)OC(=CCl)c1cc(Cl)c(Cl)cc1Cl

> <NAME>
Phosphoric acid, 2-chloro-1-(2,4,5-trichlorophen

> <preferred_name>
Tetrachlorovinphos

> <iupac>
C10H9Cl4O4P

> <MPID>
101930

> <dsstox_substance_id>
DTXSID1021320

> <Canonical_QSARr>
COP(=O)(OC(=CCl)c1cc(Cl)c(Cl)cc1Cl)OC

> <InChI_Code_QSARr>
InChI=1S/C10H9Cl4O4P/c1-16-19(15,17-2)18-10(5-11)6-3-8(13)9(14)4-7(6)12/h3-5H,1-2H3/b10-5+

> <InChI Key_QSARr>
UBCKGWBNUIFUST-BJMVGYQFSA-N

> <LogKmHL>
-1.02

$$$$
100302
  -INDIGO-08031722222D

 23 26  0  0  0  0  0  0  0  0999 V2000
   -3.3095    0.9322    0.0000 C   0  0  0  0  0  0  0  0  0  0  0  0
   -1.9239    1.7323    0.0000 C   0  0  0  0  0  0  0  0  0  0  0  0
   -0.3327    1.5651    0.0000 C   0  0  0  0  0  0  0  0  0  0  0  0
   -0.6653    3.1301    0.0000 H   0  0  0  0  0  0  0  0  0  0  0  0
   -0.0000    0.0000    0.0000 C   0  0  0  0  0  0  0  0  0  0  0  0
    0.3326   -1.5651    0.0000 H   0  0  0  0  0  0  0  0  0  0  0  0
   -1.3857   -0.8000    0.0000 C   0  0  0  0  0  0  0  0  0  0  0  0
   -2.5747    0.2706    0.0000 C   0  0  0  0  0  0  0  0  0  0  0  0
   -4.1504    0.5484    0.0000 Cl  0  0  0  0  0  0  0  0  0  0  0  0
   -3.9011   -0.6241    0.0000 Cl  0  0  0  0  0  0  0  0  0  0  0  0
   -1.0530   -2.3650    0.0000 Cl  0  0  0  0  0  0  0  0  0  0  0  0
   -2.9769   -0.6327    0.0000 C   0  0  0  0  0  0  0  0  0  0  0  0
   -4.0475   -1.8217    0.0000 Cl  0  0  0  0  0  0  0  0  0  0  0  0
    1.5912   -0.1672    0.0000 C   0  0  0  0  0  0  0  0  0  0  0  0
    1.5912   -1.7672    0.0000 H   0  0  0  0  0  0  0  0  0  0  0  0
    2.2420    1.2944    0.0000 C   0  0  0  0  0  0  0  0  0  0  0  0
    3.4310    2.3650    0.0000 H   0  0  0  0  0  0  0  0  0  0  0  0
    3.1825    0.0000    0.0000 O   0  0  0  0  0  0  0  0  0  0  0  0
    1.0530    2.3650    0.0000 C   0  0  0  0  0  0  0  0  0  0  0  0
    2.2420    3.4356    0.0000 H   0  0  0  0  0  0  0  0  0  0  0  0
    0.1125    3.6595    0.0000 Cl  0  0  0  0  0  0  0  0  0  0  0  0
   -2.2565    3.2974    0.0000 Cl  0  0  0  0  0  0  0  0  0  0  0  0
   -4.7712    1.5831    0.0000 Cl  0  0  0  0  0  0  0  0  0  0  0  0
  1  2  1  0  0  0  0
  2  3  1  0  0  0  0
  3  4  1  0  0  0  0
  3  5  1  0  0  0  0
  5  6  1  0  0  0  0
  5  7  1  0  0  0  0
  7  8  1  0  0  0  0
  8  2  1  0  0  0  0
  8  9  1  0  0  0  0
  8 10  1  0  0  0  0
  7 11  1  0  0  0  0
  7 12  1  0  0  0  0
 12  1  2  0  0  0  0
 12 13  1  0  0  0  0
  5 14  1  0  0  0  0
 14 15  1  0  0  0  0
 14 16  1  0  0  0  0
 16 17  1  0  0  0  0
 16 18  1  0  0  0  0
 18 14  1  0  0  0  0
 16 19  1  0  0  0  0
 19  3  1  0  0  0  0
 19 20  1  0  0  0  0
 19 21  1  0  0  0  0
  2 22  1  0  0  0  0
  1 23  1  0  0  0  0
M  END
> <ChemID>
100302

> <source_casrn>
1024-57-3

> <CAS>
1024-57-3

> <SMILES>
ClC2C1OC1C3C2C4(Cl)C(=C(Cl)C3(Cl)C4(Cl)Cl)Cl

> <NAME>
2,3,4,5,6,7,7-Heptachloro-hexahydro-methano-2H-i

> <preferred_name>
Heptachlor epoxide

> <iupac>
2,3,4,5,6,7,7-heptachloro-1b,2,5,5a,6,6a-hexahydro-1aH-2,5-methanoindeno[1,2-b]oxirene

> <MPID>
101931

> <dsstox_substance_id>
DTXSID1024126

> <Canonical_QSARr>
ClC1(Cl)C2(Cl)C3C4OC4C(Cl)C3C1(Cl)C(Cl)=C2Cl

> <InChI_Code_QSARr>
InChI=1S/C10H5Cl7O/c11-3-1-2(4-5(3)18-4)9(15)7(13)6(12)8(1,14)10(9,16)17/h1-5H

> <InChI Key_QSARr>
ZXFXBSWRVIQKOD-UHFFFAOYSA-N

> <LogKmHL>
2.2

$$$$
100304
  -INDIGO-08031722222D

 52 53  0  0  0  0  0  0  0  0999 V2000
   -3.9969   -1.0285    0.0000 O   0  0  0  0  0  0  0  0  0  0  0  0
   -4.2747    0.5472    0.0000 P   0  0  0  0  0  0  0  0  0  0  0  0
   -3.0491    1.5757    0.0000 O   0  0  0  0  0  0  0  0  0  0  0  0
   -3.3269    3.1514    0.0000 C   0  0  0  0  0  0  0  0  0  0  0  0
   -2.1013    4.1799    0.0000 C   0  0  0  0  0  0  0  0  0  0  0  0
   -0.5977    3.6327    0.0000 H   0  0  0  0  0  0  0  0  0  0  0  0
   -2.3791    5.7555    0.0000 C   0  0  0  0  0  0  0  0  0  0  0  0
   -1.1535    6.7840    0.0000 H   0  0  0  0  0  0  0  0  0  0  0  0
   -3.8826    6.3027    0.0000 C   0  0  0  0  0  0  0  0  0  0  0  0
   -4.1604    7.8785    0.0000 H   0  0  0  0  0  0  0  0  0  0  0  0
   -5.1082    5.2742    0.0000 C   0  0  0  0  0  0  0  0  0  0  0  0
   -6.6118    5.8215    0.0000 H   0  0  0  0  0  0  0  0  0  0  0  0
   -4.8304    3.6987    0.0000 C   0  0  0  0  0  0  0  0  0  0  0  0
   -6.0563    2.6702    0.0000 H   0  0  0  0  0  0  0  0  0  0  0  0
   -5.5005   -0.4813    0.0000 O   0  0  0  0  0  0  0  0  0  0  0  0
   -7.1005   -0.4813    0.0000 C   0  0  0  0  0  0  0  0  0  0  0  0
   -7.9003    0.9044    0.0000 C   0  0  0  0  0  0  0  0  0  0  0  0
   -7.1005    2.2900    0.0000 H   0  0  0  0  0  0  0  0  0  0  0  0
   -9.5003    0.9044    0.0000 C   0  0  0  0  0  0  0  0  0  0  0  0
  -10.3005    2.2900    0.0000 H   0  0  0  0  0  0  0  0  0  0  0  0
  -10.3005   -0.4813    0.0000 C   0  0  0  0  0  0  0  0  0  0  0  0
  -11.9005   -0.4813    0.0000 H   0  0  0  0  0  0  0  0  0  0  0  0
   -9.5003   -1.8669    0.0000 C   0  0  0  0  0  0  0  0  0  0  0  0
  -10.3005   -3.2524    0.0000 H   0  0  0  0  0  0  0  0  0  0  0  0
   -7.9003   -1.8669    0.0000 C   0  0  0  0  0  0  0  0  0  0  0  0
   -7.1005   -3.2524    0.0000 H   0  0  0  0  0  0  0  0  0  0  0  0
   -2.7714   -0.0001    0.0000 O   0  0  0  0  0  0  0  0  0  0  0  0
   -1.3855    0.8000    0.0000 C   0  0  0  0  0  0  0  0  0  0  0  0
   -1.9980    2.2782    0.0000 H   0  0  0  0  0  0  0  0  0  0  0  0
   -0.7733    2.2782    0.0000 H   0  0  0  0  0  0  0  0  0  0  0  0
    0.0001   -0.0001    0.0000 C   0  0  0  0  0  0  0  0  0  0  0  0
    0.5472    1.5035    0.0000 H   0  0  0  0  0  0  0  0  0  0  0  0
   -0.5474   -1.5035    0.0000 C   0  0  0  0  0  0  0  0  0  0  0  0
   -1.8967   -2.3632    0.0000 H   0  0  0  0  0  0  0  0  0  0  0  0
   -2.1094   -1.1572    0.0000 H   0  0  0  0  0  0  0  0  0  0  0  0
    0.2528   -2.8891    0.0000 C   0  0  0  0  0  0  0  0  0  0  0  0
    1.0529   -4.2748    0.0000 H   0  0  0  0  0  0  0  0  0  0  0  0
   -0.5474   -4.2748    0.0000 H   0  0  0  0  0  0  0  0  0  0  0  0
    1.8528   -2.8891    0.0000 H   0  0  0  0  0  0  0  0  0  0  0  0
    1.5036   -0.5473    0.0000 C   0  0  0  0  0  0  0  0  0  0  0  0
    2.3631   -1.8966    0.0000 H   0  0  0  0  0  0  0  0  0  0  0  0
    1.1571   -2.1093    0.0000 H   0  0  0  0  0  0  0  0  0  0  0  0
    2.7292    0.4812    0.0000 C   0  0  0  0  0  0  0  0  0  0  0  0
    1.8695    1.8307    0.0000 H   0  0  0  0  0  0  0  0  0  0  0  0
    3.0754    2.0434    0.0000 H   0  0  0  0  0  0  0  0  0  0  0  0
    4.2328   -0.0661    0.0000 C   0  0  0  0  0  0  0  0  0  0  0  0
    5.0925   -1.4154    0.0000 H   0  0  0  0  0  0  0  0  0  0  0  0
    3.8865   -1.6281    0.0000 H   0  0  0  0  0  0  0  0  0  0  0  0
    5.4583    0.9624    0.0000 C   0  0  0  0  0  0  0  0  0  0  0  0
    6.6841    1.9909    0.0000 H   0  0  0  0  0  0  0  0  0  0  0  0
    6.9619    0.4152    0.0000 H   0  0  0  0  0  0  0  0  0  0  0  0
    5.1805    2.5382    0.0000 H   0  0  0  0  0  0  0  0  0  0  0  0
  1  2  2  0  0  0  0
  2  3  1  0  0  0  0
  3  4  1  0  0  0  0
  4  5  1  0  0  0  0
  5  6  1  0  0  0  0
  5  7  2  0  0  0  0
  7  8  1  0  0  0  0
  7  9  1  0  0  0  0
  9 10  1  0  0  0  0
  9 11  2  0  0  0  0
 11 12  1  0  0  0  0
 11 13  1  0  0  0  0
 13  4  2  0  0  0  0
 13 14  1  0  0  0  0
  2 15  1  0  0  0  0
 15 16  1  0  0  0  0
 16 17  1  0  0  0  0
 17 18  1  0  0  0  0
 17 19  2  0  0  0  0
 19 20  1  0  0  0  0
 19 21  1  0  0  0  0
 21 22  1  0  0  0  0
 21 23  2  0  0  0  0
 23 24  1  0  0  0  0
 23 25  1  0  0  0  0
 25 16  2  0  0  0  0
 25 26  1  0  0  0  0
  2 27  1  0  0  0  0
 27 28  1  0  0  0  0
 28 29  1  0  0  0  0
 28 30  1  0  0  0  0
 28 31  1  0  0  0  0
 31 32  1  0  0  0  0
 31 33  1  0  0  0  0
 33 34  1  0  0  0  0
 33 35  1  0  0  0  0
 33 36  1  0  0  0  0
 36 37  1  0  0  0  0
 36 38  1  0  0  0  0
 36 39  1  0  0  0  0
 31 40  1  0  0  0  0
 40 41  1  0  0  0  0
 40 42  1  0  0  0  0
 40 43  1  0  0  0  0
 43 44  1  0  0  0  0
 43 45  1  0  0  0  0
 43 46  1  0  0  0  0
 46 47  1  0  0  0  0
 46 48  1  0  0  0  0
 46 49  1  0  0  0  0
 49 50  1  0  0  0  0
 49 51  1  0  0  0  0
 49 52  1  0  0  0  0
M  END
> <ChemID>
100304

> <source_casrn>
1241-94-7

> <CAS>
1241-94-7

> <SMILES>
CCC(COP(=O)(Oc1ccccc1)Oc1ccccc1)CCCC

> <NAME>
Phosphoric acid, 2-ethylhexyl diphenyl ester

> <preferred_name>
2-Ethylhexyl diphenyl phosphate

> <iupac>
2-ethylhexyl diphenyl phosphate

> <MPID>
101933

> <dsstox_substance_id>
DTXSID1025300

> <Canonical_QSARr>
CCC(COP(=O)(Oc1ccccc1)Oc1ccccc1)CCCC

> <InChI_Code_QSARr>
InChI=1S/C20H27O4P/c1-3-5-12-18(4-2)17-22-25(21,23-19-13-8-6-9-14-19)24-20-15-10-7-11-16-20/h6-11,13-16,18H,3-5,12,17H2,1-2H3

> <InChI Key_QSARr>
CGSLYBDCEGBZCG-UHFFFAOYSA-N

> <LogKmHL>
-0.15

$$$$
100306
  -INDIGO-08031722222D

 48 48  0  0  0  0  0  0  0  0999 V2000
    0.0000    0.0000    0.0000 C   0  0  0  0  0  0  0  0  0  0  0  0
    1.3856   -0.8001    0.0000 C   0  0  0  0  0  0  0  0  0  0  0  0
    2.7714    0.0000    0.0000 C   0  0  0  0  0  0  0  0  0  0  0  0
    2.7714    1.5999    0.0000 H   0  0  0  0  0  0  0  0  0  0  0  0
    4.1570   -0.8001    0.0000 C   0  0  0  0  0  0  0  0  0  0  0  0
    5.5425    0.0000    0.0000 C   0  0  0  0  0  0  0  0  0  0  0  0
    6.9281    0.8000    0.0000 C   0  0  0  0  0  0  0  0  0  0  0  0
    8.3139    1.5999    0.0000 H   0  0  0  0  0  0  0  0  0  0  0  0
    8.4317    0.2527    0.0000 H   0  0  0  0  0  0  0  0  0  0  0  0
    7.2061    2.3757    0.0000 H   0  0  0  0  0  0  0  0  0  0  0  0
    4.7426    1.3856    0.0000 C   0  0  0  0  0  0  0  0  0  0  0  0
    3.7140    2.6113    0.0000 H   0  0  0  0  0  0  0  0  0  0  0  0
    5.2898    2.8891    0.0000 H   0  0  0  0  0  0  0  0  0  0  0  0
    6.3182    1.6634    0.0000 H   0  0  0  0  0  0  0  0  0  0  0  0
    6.3425   -1.3856    0.0000 C   0  0  0  0  0  0  0  0  0  0  0  0
    6.8898   -2.8892    0.0000 H   0  0  0  0  0  0  0  0  0  0  0  0
    7.9183   -1.6634    0.0000 H   0  0  0  0  0  0  0  0  0  0  0  0
    7.3711   -0.1600    0.0000 H   0  0  0  0  0  0  0  0  0  0  0  0
    4.1570   -2.4000    0.0000 C   0  0  0  0  0  0  0  0  0  0  0  0
    5.5425   -3.2000    0.0000 H   0  0  0  0  0  0  0  0  0  0  0  0
    2.7714   -3.2000    0.0000 C   0  0  0  0  0  0  0  0  0  0  0  0
    2.7714   -4.8000    0.0000 C   0  0  0  0  0  0  0  0  0  0  0  0
    2.7714   -6.4001    0.0000 C   0  0  0  0  0  0  0  0  0  0  0  0
    2.7714   -8.0000    0.0000 H   0  0  0  0  0  0  0  0  0  0  0  0
    1.5456   -7.4284    0.0000 H   0  0  0  0  0  0  0  0  0  0  0  0
    3.9970   -7.4284    0.0000 H   0  0  0  0  0  0  0  0  0  0  0  0
    1.1712   -4.8000    0.0000 C   0  0  0  0  0  0  0  0  0  0  0  0
   -0.4044   -4.5222    0.0000 H   0  0  0  0  0  0  0  0  0  0  0  0
    0.1429   -6.0257    0.0000 H   0  0  0  0  0  0  0  0  0  0  0  0
    1.7185   -6.3035    0.0000 H   0  0  0  0  0  0  0  0  0  0  0  0
    4.3713   -4.8000    0.0000 C   0  0  0  0  0  0  0  0  0  0  0  0
    5.9469   -4.5222    0.0000 H   0  0  0  0  0  0  0  0  0  0  0  0
    5.3997   -6.0257    0.0000 H   0  0  0  0  0  0  0  0  0  0  0  0
    3.8241   -6.3035    0.0000 H   0  0  0  0  0  0  0  0  0  0  0  0
    1.3856   -2.4000    0.0000 C   0  0  0  0  0  0  0  0  0  0  0  0
    0.0000   -3.2000    0.0000 H   0  0  0  0  0  0  0  0  0  0  0  0
   -1.3856    0.8000    0.0000 C   0  0  0  0  0  0  0  0  0  0  0  0
   -2.7713    1.5999    0.0000 H   0  0  0  0  0  0  0  0  0  0  0  0
   -2.8891    0.2527    0.0000 H   0  0  0  0  0  0  0  0  0  0  0  0
   -1.6635    2.3757    0.0000 H   0  0  0  0  0  0  0  0  0  0  0  0
    0.8000    1.3856    0.0000 C   0  0  0  0  0  0  0  0  0  0  0  0
    0.2527    2.8891    0.0000 H   0  0  0  0  0  0  0  0  0  0  0  0
    1.8285    2.6113    0.0000 H   0  0  0  0  0  0  0  0  0  0  0  0
   -0.7756    1.6634    0.0000 H   0  0  0  0  0  0  0  0  0  0  0  0
   -0.8000   -1.3856    0.0000 C   0  0  0  0  0  0  0  0  0  0  0  0
   -1.3472   -2.8892    0.0000 H   0  0  0  0  0  0  0  0  0  0  0  0
   -2.3757   -1.6634    0.0000 H   0  0  0  0  0  0  0  0  0  0  0  0
   -1.8285   -0.1600    0.0000 H   0  0  0  0  0  0  0  0  0  0  0  0
  1  2  1  0  0  0  0
  2  3  1  0  0  0  0
  3  4  1  0  0  0  0
  3  5  2  0  0  0  0
  5  6  1  0  0  0  0
  6  7  1  0  0  0  0
  7  8  1  0  0  0  0
  7  9  1  0  0  0  0
  7 10  1  0  0  0  0
  6 11  1  0  0  0  0
 11 12  1  0  0  0  0
 11 13  1  0  0  0  0
 11 14  1  0  0  0  0
  6 15  1  0  0  0  0
 15 16  1  0  0  0  0
 15 17  1  0  0  0  0
 15 18  1  0  0  0  0
  5 19  1  0  0  0  0
 19 20  1  0  0  0  0
 19 21  2  0  0  0  0
 21 22  1  0  0  0  0
 22 23  1  0  0  0  0
 23 24  1  0  0  0  0
 23 25  1  0  0  0  0
 23 26  1  0  0  0  0
 22 27  1  0  0  0  0
 27 28  1  0  0  0  0
 27 29  1  0  0  0  0
 27 30  1  0  0  0  0
 22 31  1  0  0  0  0
 31 32  1  0  0  0  0
 31 33  1  0  0  0  0
 31 34  1  0  0  0  0
 21 35  1  0  0  0  0
 35  2  2  0  0  0  0
 35 36  1  0  0  0  0
  1 37  1  0  0  0  0
 37 38  1  0  0  0  0
 37 39  1  0  0  0  0
 37 40  1  0  0  0  0
  1 41  1  0  0  0  0
 41 42  1  0  0  0  0
 41 43  1  0  0  0  0
 41 44  1  0  0  0  0
  1 45  1  0  0  0  0
 45 46  1  0  0  0  0
 45 47  1  0  0  0  0
 45 48  1  0  0  0  0
M  END
> <ChemID>
100306

> <source_casrn>
1460-02-2

> <CAS>
1460-02-2

> <SMILES>
CC(C)(C)c1cc(cc(c1)C(C)(C)C)C(C)(C)C

> <NAME>
1,3,5-tri-tert-butylbenzene

> <preferred_name>
1,3,5-Tri-tert-butylbenzene

> <iupac>
1,3,5-tritert-butylbenzene

> <MPID>
101934

> <dsstox_substance_id>
DTXSID50163255

> <Canonical_QSARr>
CC(C)(C)c1cc(cc(c1)C(C)(C)C)C(C)(C)C

> <InChI_Code_QSARr>
InChI=1S/C18H30/c1-16(2,3)13-10-14(17(4,5)6)12-15(11-13)18(7,8)9/h10-12H,1-9H3

> <InChI Key_QSARr>
GUFMBISUSZUUCB-UHFFFAOYSA-N

> <LogKmHL>
2.7

$$$$
100307
  -INDIGO-08031722222D

 31 31  0  0  0  0  0  0  0  0999 V2000
   -1.0779    2.9613    0.0000 O   0  0  0  0  0  0  0  0  0  0  0  0
    0.1478    3.9898    0.0000 H   0  0  0  0  0  0  0  0  0  0  0  0
   -0.8000    1.3857    0.0000 C   0  0  0  0  0  0  0  0  0  0  0  0
    0.7036    1.9329    0.0000 H   0  0  0  0  0  0  0  0  0  0  0  0
   -2.4000    1.3857    0.0000 C   0  0  0  0  0  0  0  0  0  0  0  0
   -2.1221    2.9613    0.0000 H   0  0  0  0  0  0  0  0  0  0  0  0
   -3.9036    1.9329    0.0000 H   0  0  0  0  0  0  0  0  0  0  0  0
   -3.2001    0.0000    0.0000 C   0  0  0  0  0  0  0  0  0  0  0  0
   -4.4257    1.0285    0.0000 H   0  0  0  0  0  0  0  0  0  0  0  0
   -4.5856   -0.8001    0.0000 C   0  0  0  0  0  0  0  0  0  0  0  0
   -5.9713   -1.6000    0.0000 H   0  0  0  0  0  0  0  0  0  0  0  0
   -4.5856   -2.4000    0.0000 H   0  0  0  0  0  0  0  0  0  0  0  0
   -5.9713    0.0000    0.0000 H   0  0  0  0  0  0  0  0  0  0  0  0
   -2.4000   -1.3857    0.0000 C   0  0  0  0  0  0  0  0  0  0  0  0
   -3.9036   -1.9329    0.0000 H   0  0  0  0  0  0  0  0  0  0  0  0
   -2.1221   -2.9613    0.0000 H   0  0  0  0  0  0  0  0  0  0  0  0
   -0.8000   -1.3857    0.0000 C   0  0  0  0  0  0  0  0  0  0  0  0
   -1.0779   -2.9613    0.0000 H   0  0  0  0  0  0  0  0  0  0  0  0
   -0.0001   -2.0569    0.0000 H   0  0  0  0  0  0  0  0  0  0  0  0
    0.0001    0.0000    0.0000 C   0  0  0  0  0  0  0  0  0  0  0  0
    1.2257    1.0285    0.0000 H   0  0  0  0  0  0  0  0  0  0  0  0
    1.2257   -1.0285    0.0000 C   0  0  0  0  0  0  0  0  0  0  0  0
    0.7036   -1.9329    0.0000 H   0  0  0  0  0  0  0  0  0  0  0  0
    2.0257   -2.4141    0.0000 C   0  0  0  0  0  0  0  0  0  0  0  0
    2.8257   -3.7997    0.0000 H   0  0  0  0  0  0  0  0  0  0  0  0
    3.6257   -2.4141    0.0000 H   0  0  0  0  0  0  0  0  0  0  0  0
    1.2257   -3.7997    0.0000 H   0  0  0  0  0  0  0  0  0  0  0  0
    2.6113   -0.2285    0.0000 C   0  0  0  0  0  0  0  0  0  0  0  0
    3.9970    0.5716    0.0000 H   0  0  0  0  0  0  0  0  0  0  0  0
    2.6113    1.3715    0.0000 H   0  0  0  0  0  0  0  0  0  0  0  0
    3.9970   -1.0285    0.0000 H   0  0  0  0  0  0  0  0  0  0  0  0
  1  2  1  0  0  0  0
  1  3  1  0  0  0  0
  3  4  1  0  0  0  0
  3  5  1  0  0  0  0
  5  6  1  0  0  0  0
  5  7  1  0  0  0  0
  5  8  1  0  0  0  0
  8  9  1  0  0  0  0
  8 10  1  0  0  0  0
 10 11  1  0  0  0  0
 10 12  1  0  0  0  0
 10 13  1  0  0  0  0
  8 14  1  0  0  0  0
 14 15  1  0  0  0  0
 14 16  1  0  0  0  0
 14 17  1  0  0  0  0
 17 18  1  0  0  0  0
 17 19  1  0  0  0  0
 17 20  1  0  0  0  0
 20  3  1  0  0  0  0
 20 21  1  0  0  0  0
 20 22  1  0  0  0  0
 22 23  1  0  0  0  0
 22 24  1  0  0  0  0
 24 25  1  0  0  0  0
 24 26  1  0  0  0  0
 24 27  1  0  0  0  0
 22 28  1  0  0  0  0
 28 29  1  0  0  0  0
 28 30  1  0  0  0  0
 28 31  1  0  0  0  0
M  END
> <ChemID>
100307

> <source_casrn>
1490-04-6

> <CAS>
1490-04-6

> <SMILES>
CC(C)C1CCC(C)CC1O

> <NAME>
Cyclohexanol, 5-methyl-2-(1-methylethyl)-

> <preferred_name>
Menthol

> <iupac>
5-methyl-2-(propan-2-yl)cyclohexanol

> <MPID>
101935

> <dsstox_substance_id>
DTXSID8029650

> <Canonical_QSARr>
CC(C)C1CCC(C)CC1O

> <InChI_Code_QSARr>
InChI=1S/C10H20O/c1-7(2)9-5-4-8(3)6-10(9)11/h7-11H,4-6H2,1-3H3

> <InChI Key_QSARr>
NOOLISFMXDJSKH-UHFFFAOYSA-N

> <LogKmHL>
-1.19

$$$$
100309
  -INDIGO-08031722222D

 16 16  0  0  0  0  0  0  0  0999 V2000
    0.0000   -0.0000    0.0000 C   0  0  0  0  0  0  0  0  0  0  0  0
    0.0000   -1.6000    0.0000 C   0  0  0  0  0  0  0  0  0  0  0  0
    1.3856   -2.4000    0.0000 O   0  0  0  0  0  0  0  0  0  0  0  0
    1.3856   -4.0000    0.0000 H   0  0  0  0  0  0  0  0  0  0  0  0
   -1.3856   -2.4000    0.0000 C   0  0  0  0  0  0  0  0  0  0  0  0
   -1.3856   -4.0000    0.0000 H   0  0  0  0  0  0  0  0  0  0  0  0
   -2.7713   -1.6000    0.0000 C   0  0  0  0  0  0  0  0  0  0  0  0
   -4.1569   -2.4000    0.0000 H   0  0  0  0  0  0  0  0  0  0  0  0
   -2.7713   -0.0000    0.0000 C   0  0  0  0  0  0  0  0  0  0  0  0
   -4.1569    0.8000    0.0000 Cl  0  0  0  0  0  0  0  0  0  0  0  0
   -1.3856    0.8000    0.0000 C   0  0  0  0  0  0  0  0  0  0  0  0
   -1.3856    2.4000    0.0000 H   0  0  0  0  0  0  0  0  0  0  0  0
    1.3856    0.8000    0.0000 C   0  0  0  0  0  0  0  0  0  0  0  0
    2.7713    1.6000    0.0000 H   0  0  0  0  0  0  0  0  0  0  0  0
    1.3856    2.4000    0.0000 H   0  0  0  0  0  0  0  0  0  0  0  0
    2.7713   -0.0000    0.0000 H   0  0  0  0  0  0  0  0  0  0  0  0
  1  2  1  0  0  0  0
  2  3  1  0  0  0  0
  3  4  1  0  0  0  0
  2  5  2  0  0  0  0
  5  6  1  0  0  0  0
  5  7  1  0  0  0  0
  7  8  1  0  0  0  0
  7  9  2  0  0  0  0
  9 10  1  0  0  0  0
  9 11  1  0  0  0  0
 11  1  2  0  0  0  0
 11 12  1  0  0  0  0
  1 13  1  0  0  0  0
 13 14  1  0  0  0  0
 13 15  1  0  0  0  0
 13 16  1  0  0  0  0
M  END
> <ChemID>
100309

> <source_casrn>
1570-64-5

> <CAS>
1570-64-5

> <SMILES>
Cc1cc(Cl)ccc1O

> <NAME>
2-methyl-4-chlorophenol

> <preferred_name>
4-Chloro-2-methylphenol

> <iupac>
4-chloro-2-methylphenol

> <MPID>
101937

> <dsstox_substance_id>
DTXSID5022510

> <Canonical_QSARr>
Cc1cc(Cl)ccc1O

> <InChI_Code_QSARr>
InChI=1S/C7H7ClO/c1-5-4-6(8)2-3-7(5)9/h2-4,9H,1H3

> <InChI Key_QSARr>
RHPUJHQBPORFGV-UHFFFAOYSA-N

> <LogKmHL>
-0.83

$$$$
100310
  -INDIGO-08031722222D

 39 39  0  0  0  0  0  0  0  0999 V2000
   -0.6186    3.5086    0.0000 O   0  0  0  0  0  0  0  0  0  0  0  0
   -2.1222    2.9614    0.0000 N   0  0  0  0  0  0  0  0  0  0  0  0
   -2.3999    1.3856    0.0000 C   0  0  0  0  0  0  0  0  0  0  0  0
   -1.5999   -0.0000    0.0000 C   0  0  0  0  0  0  0  0  0  0  0  0
   -0.0001   -0.0000    0.0000 N   0  0  0  0  0  0  0  0  0  0  0  0
    0.7999    1.3856    0.0000 C   0  0  0  0  0  0  0  0  0  0  0  0
    0.5911    2.9720    0.0000 H   0  0  0  0  0  0  0  0  0  0  0  0
   -0.4694    2.3597    0.0000 H   0  0  0  0  0  0  0  0  0  0  0  0
    2.1857    2.1857    0.0000 C   0  0  0  0  0  0  0  0  0  0  0  0
    3.1597    0.9163    0.0000 H   0  0  0  0  0  0  0  0  0  0  0  0
    3.7719    1.9768    0.0000 H   0  0  0  0  0  0  0  0  0  0  0  0
    2.1857    3.7857    0.0000 C   0  0  0  0  0  0  0  0  0  0  0  0
    2.1857    5.3856    0.0000 H   0  0  0  0  0  0  0  0  0  0  0  0
    3.5713    4.5857    0.0000 H   0  0  0  0  0  0  0  0  0  0  0  0
    0.7999    4.5857    0.0000 H   0  0  0  0  0  0  0  0  0  0  0  0
    0.7999   -1.3857    0.0000 C   0  0  0  0  0  0  0  0  0  0  0  0
   -0.4694   -2.3597    0.0000 H   0  0  0  0  0  0  0  0  0  0  0  0
    0.5911   -2.9719    0.0000 H   0  0  0  0  0  0  0  0  0  0  0  0
    2.4000   -1.3857    0.0000 C   0  0  0  0  0  0  0  0  0  0  0  0
    3.6693   -0.4117    0.0000 H   0  0  0  0  0  0  0  0  0  0  0  0
    2.3302    0.2128    0.0000 H   0  0  0  0  0  0  0  0  0  0  0  0
    3.2000   -2.7713    0.0000 C   0  0  0  0  0  0  0  0  0  0  0  0
    4.0000   -4.1569    0.0000 H   0  0  0  0  0  0  0  0  0  0  0  0
    4.8000   -2.7713    0.0000 H   0  0  0  0  0  0  0  0  0  0  0  0
    2.4000   -4.1569    0.0000 H   0  0  0  0  0  0  0  0  0  0  0  0
   -2.3999   -1.3857    0.0000 C   0  0  0  0  0  0  0  0  0  0  0  0
   -2.1222   -2.9613    0.0000 N   0  0  0  0  0  0  0  0  0  0  0  0
   -0.6186   -3.5085    0.0000 O   0  0  0  0  0  0  0  0  0  0  0  0
   -3.3478   -3.9898    0.0000 O   0  0  0  0  0  0  0  0  0  0  0  0
   -3.9999   -1.3857    0.0000 C   0  0  0  0  0  0  0  0  0  0  0  0
   -4.8000   -2.7713    0.0000 H   0  0  0  0  0  0  0  0  0  0  0  0
   -4.8000   -0.0000    0.0000 C   0  0  0  0  0  0  0  0  0  0  0  0
   -6.4000   -0.0000    0.0000 C   0  0  0  0  0  0  0  0  0  0  0  0
   -8.0000   -0.0000    0.0000 F   0  0  0  0  0  0  0  0  0  0  0  0
   -7.2000   -1.3857    0.0000 F   0  0  0  0  0  0  0  0  0  0  0  0
   -7.2000    1.3856    0.0000 F   0  0  0  0  0  0  0  0  0  0  0  0
   -3.9999    1.3856    0.0000 C   0  0  0  0  0  0  0  0  0  0  0  0
   -4.8000    2.7712    0.0000 H   0  0  0  0  0  0  0  0  0  0  0  0
   -3.3478    3.9898    0.0000 O   0  0  0  0  0  0  0  0  0  0  0  0
  1  2  2  0  0  0  0
  2  3  1  0  0  0  0
  3  4  1  0  0  0  0
  4  5  1  0  0  0  0
  5  6  1  0  0  0  0
  6  7  1  0  0  0  0
  6  8  1  0  0  0  0
  6  9  1  0  0  0  0
  9 10  1  0  0  0  0
  9 11  1  0  0  0  0
  9 12  1  0  0  0  0
 12 13  1  0  0  0  0
 12 14  1  0  0  0  0
 12 15  1  0  0  0  0
  5 16  1  0  0  0  0
 16 17  1  0  0  0  0
 16 18  1  0  0  0  0
 16 19  1  0  0  0  0
 19 20  1  0  0  0  0
 19 21  1  0  0  0  0
 19 22  1  0  0  0  0
 22 23  1  0  0  0  0
 22 24  1  0  0  0  0
 22 25  1  0  0  0  0
  4 26  2  0  0  0  0
 26 27  1  0  0  0  0
 27 28  2  0  0  0  0
 27 29  1  0  0  0  0
 26 30  1  0  0  0  0
 30 31  1  0  0  0  0
 30 32  2  0  0  0  0
 32 33  1  0  0  0  0
 33 34  1  0  0  0  0
 33 35  1  0  0  0  0
 33 36  1  0  0  0  0
 32 37  1  0  0  0  0
 37  3  2  0  0  0  0
 37 38  1  0  0  0  0
  2 39  1  0  0  0  0
M  CHG  4   2   1  27   1  29  -1  39  -1
M  END
> <ChemID>
100310

> <source_casrn>
1582-09-8

> <CAS>
1582-09-8

> <SMILES>
CCCN(CCC)c1c(cc(cc1[N+]([O-])=O)C(F)(F)F)[N+]([O-])=O

> <NAME>
Trifluralin

> <preferred_name>
Trifluralin

> <iupac>
2,6-dinitro-N,N-dipropyl-4-(trifluoromethyl)aniline

> <MPID>
101938

> <dsstox_substance_id>
DTXSID4021395

> <Canonical_QSARr>
CCCN(CCC)c1c(cc(cc1[N+]([O-])=O)C(F)(F)F)[N+]([O-])=O

> <InChI_Code_QSARr>
InChI=1S/C13H16F3N3O4/c1-3-5-17(6-4-2)12-10(18(20)21)7-9(13(14,15)16)8-11(12)19(22)23/h7-8H,3-6H2,1-2H3

> <InChI Key_QSARr>
ZSDSQXJSNMTJDA-UHFFFAOYSA-N

> <LogKmHL>
0.62

$$$$
100311
  -INDIGO-08031722222D

 18 17  0  0  0  0  0  0  0  0999 V2000
    1.3856   -0.8000    0.0000 C   0  0  0  0  0  0  0  0  0  0  0  0
    2.7713   -1.6000    0.0000 H   0  0  0  0  0  0  0  0  0  0  0  0
    2.7713    0.0000    0.0000 H   0  0  0  0  0  0  0  0  0  0  0  0
    1.3856   -2.4000    0.0000 H   0  0  0  0  0  0  0  0  0  0  0  0
    0.0001    0.0000    0.0000 C   0  0  0  0  0  0  0  0  0  0  0  0
    0.8000    1.3856    0.0000 O   0  0  0  0  0  0  0  0  0  0  0  0
    2.4000    1.3856    0.0000 C   0  0  0  0  0  0  0  0  0  0  0  0
    3.2000    2.7713    0.0000 H   0  0  0  0  0  0  0  0  0  0  0  0
    4.0000    1.3856    0.0000 H   0  0  0  0  0  0  0  0  0  0  0  0
    1.6000    2.7713    0.0000 H   0  0  0  0  0  0  0  0  0  0  0  0
   -1.3856    0.8000    0.0000 C   0  0  0  0  0  0  0  0  0  0  0  0
   -2.7713    1.6000    0.0000 H   0  0  0  0  0  0  0  0  0  0  0  0
   -1.3856    2.4000    0.0000 H   0  0  0  0  0  0  0  0  0  0  0  0
   -2.7713    0.0000    0.0000 H   0  0  0  0  0  0  0  0  0  0  0  0
   -0.8000   -1.3856    0.0000 C   0  0  0  0  0  0  0  0  0  0  0  0
   -1.6000   -2.7713    0.0000 H   0  0  0  0  0  0  0  0  0  0  0  0
   -0.0001   -2.7713    0.0000 H   0  0  0  0  0  0  0  0  0  0  0  0
   -2.4000   -1.3856    0.0000 H   0  0  0  0  0  0  0  0  0  0  0  0
  1  2  1  0  0  0  0
  1  3  1  0  0  0  0
  1  4  1  0  0  0  0
  1  5  1  0  0  0  0
  5  6  1  0  0  0  0
  6  7  1  0  0  0  0
  7  8  1  0  0  0  0
  7  9  1  0  0  0  0
  7 10  1  0  0  0  0
  5 11  1  0  0  0  0
 11 12  1  0  0  0  0
 11 13  1  0  0  0  0
 11 14  1  0  0  0  0
  5 15  1  0  0  0  0
 15 16  1  0  0  0  0
 15 17  1  0  0  0  0
 15 18  1  0  0  0  0
M  END
> <ChemID>
100311

> <source_casrn>
1634-04-4

> <CAS>
1634-04-4

> <SMILES>
COC(C)(C)C

> <NAME>
Propane, 2-methoxy-2-methyl-

> <preferred_name>
Methyl tert-butyl ether

> <iupac>
tert-butyl methyl ether

> <MPID>
101939

> <dsstox_substance_id>
DTXSID3020833

> <Canonical_QSARr>
COC(C)(C)C

> <InChI_Code_QSARr>
InChI=1S/C5H12O/c1-5(2,3)6-4/h1-4H3

> <InChI Key_QSARr>
BZLVMXJERCGZMT-UHFFFAOYSA-N

> <LogKmHL>
-0.88

$$$$
100313
  -INDIGO-08031722222D

 30 30  0  0  0  0  0  0  0  0999 V2000
    0.0001   -0.0000    0.0000 C   0  0  0  0  0  0  0  0  0  0  0  0
    1.2257   -1.0285    0.0000 H   0  0  0  0  0  0  0  0  0  0  0  0
   -0.8001    1.3856    0.0000 C   0  0  0  0  0  0  0  0  0  0  0  0
    0.7757    1.6634    0.0000 H   0  0  0  0  0  0  0  0  0  0  0  0
   -1.0778    2.9613    0.0000 H   0  0  0  0  0  0  0  0  0  0  0  0
   -2.4000    1.3856    0.0000 C   0  0  0  0  0  0  0  0  0  0  0  0
   -2.1221    2.9613    0.0000 H   0  0  0  0  0  0  0  0  0  0  0  0
   -3.9036    1.9329    0.0000 H   0  0  0  0  0  0  0  0  0  0  0  0
   -3.2001   -0.0000    0.0000 C   0  0  0  0  0  0  0  0  0  0  0  0
   -4.4257    1.0285    0.0000 H   0  0  0  0  0  0  0  0  0  0  0  0
   -4.4257   -1.0285    0.0000 H   0  0  0  0  0  0  0  0  0  0  0  0
   -2.4000   -1.3856    0.0000 C   0  0  0  0  0  0  0  0  0  0  0  0
   -3.9036   -1.9329    0.0000 H   0  0  0  0  0  0  0  0  0  0  0  0
   -2.1221   -2.9613    0.0000 H   0  0  0  0  0  0  0  0  0  0  0  0
   -0.8001   -1.3856    0.0000 C   0  0  0  0  0  0  0  0  0  0  0  0
   -1.0778   -2.9613    0.0000 H   0  0  0  0  0  0  0  0  0  0  0  0
    0.7036   -1.9329    0.0000 H   0  0  0  0  0  0  0  0  0  0  0  0
    1.2257    1.0285    0.0000 C   0  0  0  0  0  0  0  0  0  0  0  0
    0.3660    2.3778    0.0000 H   0  0  0  0  0  0  0  0  0  0  0  0
    1.5719    2.5905    0.0000 H   0  0  0  0  0  0  0  0  0  0  0  0
    2.7291    0.4812    0.0000 C   0  0  0  0  0  0  0  0  0  0  0  0
    2.1819   -1.0223    0.0000 H   0  0  0  0  0  0  0  0  0  0  0  0
    4.2327   -0.0660    0.0000 C   0  0  0  0  0  0  0  0  0  0  0  0
    5.7362   -0.6133    0.0000 H   0  0  0  0  0  0  0  0  0  0  0  0
    5.4583    0.9624    0.0000 H   0  0  0  0  0  0  0  0  0  0  0  0
    4.5106   -1.6417    0.0000 H   0  0  0  0  0  0  0  0  0  0  0  0
    3.2765    1.9848    0.0000 C   0  0  0  0  0  0  0  0  0  0  0  0
    3.8237    3.4882    0.0000 H   0  0  0  0  0  0  0  0  0  0  0  0
    4.8520    2.2626    0.0000 H   0  0  0  0  0  0  0  0  0  0  0  0
    2.2480    3.2104    0.0000 H   0  0  0  0  0  0  0  0  0  0  0  0
  1  2  1  0  0  0  0
  1  3  1  0  0  0  0
  3  4  1  0  0  0  0
  3  5  1  0  0  0  0
  3  6  1  0  0  0  0
  6  7  1  0  0  0  0
  6  8  1  0  0  0  0
  6  9  1  0  0  0  0
  9 10  1  0  0  0  0
  9 11  1  0  0  0  0
  9 12  1  0  0  0  0
 12 13  1  0  0  0  0
 12 14  1  0  0  0  0
 12 15  1  0  0  0  0
 15  1  1  0  0  0  0
 15 16  1  0  0  0  0
 15 17  1  0  0  0  0
  1 18  1  0  0  0  0
 18 19  1  0  0  0  0
 18 20  1  0  0  0  0
 18 21  1  0  0  0  0
 21 22  1  0  0  0  0
 21 23  1  0  0  0  0
 23 24  1  0  0  0  0
 23 25  1  0  0  0  0
 23 26  1  0  0  0  0
 21 27  1  0  0  0  0
 27 28  1  0  0  0  0
 27 29  1  0  0  0  0
 27 30  1  0  0  0  0
M  END
> <ChemID>
100313

> <source_casrn>
1678-98-4

> <CAS>
1678-98-4

> <SMILES>
C(C)(C)CC1CCCCC1

> <NAME>
Iso-butyl cyclohexane

> <preferred_name>
Isobutylcyclohexane

> <iupac>
2-methylpropylcyclohexane

> <MPID>
101941

> <dsstox_substance_id>
DTXSID80168374

> <Canonical_QSARr>
CC(C)CC1CCCCC1

> <InChI_Code_QSARr>
InChI=1S/C10H20/c1-9(2)8-10-6-4-3-5-7-10/h9-10H,3-8H2,1-2H3

> <InChI Key_QSARr>
FFROMNOQCNVNIH-UHFFFAOYSA-N

> <LogKmHL>
0.91

$$$$
100314
  -INDIGO-08031722222D

 19 19  0  0  0  0  0  0  0  0999 V2000
   -4.8000   -0.0000    0.0000 Cl  0  0  0  0  0  0  0  0  0  0  0  0
   -3.2001   -0.0000    0.0000 C   0  0  0  0  0  0  0  0  0  0  0  0
   -2.4000    1.3856    0.0000 C   0  0  0  0  0  0  0  0  0  0  0  0
   -3.2001    2.7713    0.0000 H   0  0  0  0  0  0  0  0  0  0  0  0
   -0.8000    1.3856    0.0000 C   0  0  0  0  0  0  0  0  0  0  0  0
   -0.0000    2.7713    0.0000 H   0  0  0  0  0  0  0  0  0  0  0  0
   -0.0000    0.0000    0.0000 C   0  0  0  0  0  0  0  0  0  0  0  0
    1.6000   -0.0000    0.0000 C   0  0  0  0  0  0  0  0  0  0  0  0
    2.4001    1.3856    0.0000 C   0  0  0  0  0  0  0  0  0  0  0  0
    3.2000    2.7713    0.0000 H   0  0  0  0  0  0  0  0  0  0  0  0
    4.0000    1.3856    0.0000 H   0  0  0  0  0  0  0  0  0  0  0  0
    1.6000    2.7713    0.0000 H   0  0  0  0  0  0  0  0  0  0  0  0
    2.4001   -1.3856    0.0000 C   0  0  0  0  0  0  0  0  0  0  0  0
    4.0000   -1.3856    0.0000 H   0  0  0  0  0  0  0  0  0  0  0  0
    1.6000   -2.7713    0.0000 H   0  0  0  0  0  0  0  0  0  0  0  0
   -0.8000   -1.3856    0.0000 C   0  0  0  0  0  0  0  0  0  0  0  0
   -0.0000   -2.7713    0.0000 H   0  0  0  0  0  0  0  0  0  0  0  0
   -2.4000   -1.3856    0.0000 C   0  0  0  0  0  0  0  0  0  0  0  0
   -3.2001   -2.7713    0.0000 H   0  0  0  0  0  0  0  0  0  0  0  0
  1  2  1  0  0  0  0
  2  3  1  0  0  0  0
  3  4  1  0  0  0  0
  3  5  2  0  0  0  0
  5  6  1  0  0  0  0
  5  7  1  0  0  0  0
  7  8  1  0  0  0  0
  8  9  1  0  0  0  0
  9 10  1  0  0  0  0
  9 11  1  0  0  0  0
  9 12  1  0  0  0  0
  8 13  2  0  0  0  0
 13 14  1  0  0  0  0
 13 15  1  0  0  0  0
  7 16  2  0  0  0  0
 16 17  1  0  0  0  0
 16 18  1  0  0  0  0
 18  2  2  0  0  0  0
 18 19  1  0  0  0  0
M  END
> <ChemID>
100314

> <source_casrn>
1712-70-5

> <CAS>
1712-70-5

> <SMILES>
CC(=C)c1ccc(Cl)cc1

> <NAME>
4-isopropenyl-chlorobenzene

> <preferred_name>
4-Chloro-alpha-methylstyrene

> <iupac>
1-chloro-4-prop-1-en-2-ylbenzene

> <MPID>
101942

> <dsstox_substance_id>
DTXSID40169024

> <Canonical_QSARr>
CC(=C)c1ccc(Cl)cc1

> <InChI_Code_QSARr>
InChI=1S/C9H9Cl/c1-7(2)8-3-5-9(10)6-4-8/h3-6H,1H2,2H3

> <InChI Key_QSARr>
WQDGTJOEMPEHHL-UHFFFAOYSA-N

> <LogKmHL>
1.3

$$$$
100315
  -INDIGO-08031722222D

 32 35  0  0  0  0  0  0  0  0999 V2000
    0.0000    0.0001    0.0000 C   0  0  0  0  0  0  0  0  0  0  0  0
   -1.6000   -0.0001    0.0000 C   0  0  0  0  0  0  0  0  0  0  0  0
   -2.4000    1.3856    0.0000 C   0  0  0  0  0  0  0  0  0  0  0  0
   -4.0000    1.3856    0.0000 C   0  0  0  0  0  0  0  0  0  0  0  0
   -5.5035    1.9329    0.0000 H   0  0  0  0  0  0  0  0  0  0  0  0
   -3.7222    2.9614    0.0000 H   0  0  0  0  0  0  0  0  0  0  0  0
   -4.7999    0.0001    0.0000 C   0  0  0  0  0  0  0  0  0  0  0  0
   -6.0257   -1.0284    0.0000 H   0  0  0  0  0  0  0  0  0  0  0  0
   -6.0257    1.0284    0.0000 H   0  0  0  0  0  0  0  0  0  0  0  0
   -4.0000   -1.3856    0.0000 C   0  0  0  0  0  0  0  0  0  0  0  0
   -3.7222   -2.9614    0.0000 H   0  0  0  0  0  0  0  0  0  0  0  0
   -5.5035   -1.9329    0.0000 H   0  0  0  0  0  0  0  0  0  0  0  0
   -2.4000   -1.3856    0.0000 C   0  0  0  0  0  0  0  0  0  0  0  0
   -1.6000   -2.7713    0.0000 C   0  0  0  0  0  0  0  0  0  0  0  0
   -2.4000   -4.1569    0.0000 H   0  0  0  0  0  0  0  0  0  0  0  0
    0.0000   -2.7712    0.0000 C   0  0  0  0  0  0  0  0  0  0  0  0
    0.8000   -4.1569    0.0000 H   0  0  0  0  0  0  0  0  0  0  0  0
    0.8000   -1.3856    0.0000 C   0  0  0  0  0  0  0  0  0  0  0  0
    2.4000   -1.3856    0.0000 C   0  0  0  0  0  0  0  0  0  0  0  0
    3.9035   -1.9329    0.0000 H   0  0  0  0  0  0  0  0  0  0  0  0
    2.1222   -2.9614    0.0000 H   0  0  0  0  0  0  0  0  0  0  0  0
    3.1999    0.0001    0.0000 C   0  0  0  0  0  0  0  0  0  0  0  0
    4.4257    1.0284    0.0000 H   0  0  0  0  0  0  0  0  0  0  0  0
    4.4257   -1.0284    0.0000 H   0  0  0  0  0  0  0  0  0  0  0  0
    2.4000    1.3856    0.0000 C   0  0  0  0  0  0  0  0  0  0  0  0
    2.1222    2.9614    0.0000 H   0  0  0  0  0  0  0  0  0  0  0  0
    3.9035    1.9329    0.0000 H   0  0  0  0  0  0  0  0  0  0  0  0
    0.8000    1.3856    0.0000 C   0  0  0  0  0  0  0  0  0  0  0  0
    0.0000    2.7712    0.0000 C   0  0  0  0  0  0  0  0  0  0  0  0
    0.8000    4.1569    0.0000 H   0  0  0  0  0  0  0  0  0  0  0  0
   -1.6000    2.7712    0.0000 C   0  0  0  0  0  0  0  0  0  0  0  0
   -2.4000    4.1569    0.0000 H   0  0  0  0  0  0  0  0  0  0  0  0
  1  2  1  0  0  0  0
  2  3  2  0  0  0  0
  3  4  1  0  0  0  0
  4  5  1  0  0  0  0
  4  6  1  0  0  0  0
  4  7  1  0  0  0  0
  7  8  1  0  0  0  0
  7  9  1  0  0  0  0
  7 10  1  0  0  0  0
 10 11  1  0  0  0  0
 10 12  1  0  0  0  0
 10 13  1  0  0  0  0
 13  2  1  0  0  0  0
 13 14  2  0  0  0  0
 14 15  1  0  0  0  0
 14 16  1  0  0  0  0
 16 17  1  0  0  0  0
 16 18  2  0  0  0  0
 18  1  1  0  0  0  0
 18 19  1  0  0  0  0
 19 20  1  0  0  0  0
 19 21  1  0  0  0  0
 19 22  1  0  0  0  0
 22 23  1  0  0  0  0
 22 24  1  0  0  0  0
 22 25  1  0  0  0  0
 25 26  1  0  0  0  0
 25 27  1  0  0  0  0
 25 28  1  0  0  0  0
 28  1  2  0  0  0  0
 28 29  1  0  0  0  0
 29 30  1  0  0  0  0
 29 31  2  0  0  0  0
 31  3  1  0  0  0  0
 31 32  1  0  0  0  0
M  END
> <ChemID>
100315

> <source_casrn>
1732-13-4

> <CAS>
1732-13-4

> <SMILES>
c1c(CC3)c2c(C3)ccc(CC4)c2c(C4)c1

> <NAME>
1,2,3,6,7,8 hexahydropyrene

> <preferred_name>
1,2,3,6,7,8-Hexahydropyrene

> <iupac>
1,2,3,6,7,8-Hexahydropyrene

> <MPID>
101943

> <dsstox_substance_id>
DTXSID60169541

> <Canonical_QSARr>
C1CCc2ccc3CCCc4ccc1c2c34

> <InChI_Code_QSARr>
InChI=1S/C16H16/c1-3-11-7-9-13-5-2-6-14-10-8-12(4-1)15(11)16(13)14/h7-10H,1-6H2

> <InChI Key_QSARr>
MBAIEZXRGAOPKH-UHFFFAOYSA-N

> <LogKmHL>
0.42

$$$$
100317
  -INDIGO-08031722222D

 42 42  0  0  0  0  0  0  0  0999 V2000
    0.0000    0.0000    0.0000 C   0  0  0  0  0  0  0  0  0  0  0  0
    1.2256    1.0285    0.0000 H   0  0  0  0  0  0  0  0  0  0  0  0
    1.2256   -1.0285    0.0000 C   0  0  0  0  0  0  0  0  0  0  0  0
    1.5719   -2.5905    0.0000 H   0  0  0  0  0  0  0  0  0  0  0  0
    0.3660   -2.3779    0.0000 H   0  0  0  0  0  0  0  0  0  0  0  0
    2.7291   -0.4812    0.0000 C   0  0  0  0  0  0  0  0  0  0  0  0
    2.3829    1.0808    0.0000 H   0  0  0  0  0  0  0  0  0  0  0  0
    3.5890    0.8682    0.0000 H   0  0  0  0  0  0  0  0  0  0  0  0
    3.9547   -1.5097    0.0000 C   0  0  0  0  0  0  0  0  0  0  0  0
    4.3012   -3.0718    0.0000 H   0  0  0  0  0  0  0  0  0  0  0  0
    3.0952   -2.8592    0.0000 H   0  0  0  0  0  0  0  0  0  0  0  0
    5.4582   -0.9624    0.0000 C   0  0  0  0  0  0  0  0  0  0  0  0
    5.1120    0.5996    0.0000 H   0  0  0  0  0  0  0  0  0  0  0  0
    6.3181    0.3870    0.0000 H   0  0  0  0  0  0  0  0  0  0  0  0
    6.6841   -1.9909    0.0000 C   0  0  0  0  0  0  0  0  0  0  0  0
    7.0304   -3.5530    0.0000 H   0  0  0  0  0  0  0  0  0  0  0  0
    5.8243   -3.3404    0.0000 H   0  0  0  0  0  0  0  0  0  0  0  0
    8.1876   -1.4437    0.0000 C   0  0  0  0  0  0  0  0  0  0  0  0
    7.8414    0.1184    0.0000 H   0  0  0  0  0  0  0  0  0  0  0  0
    9.0472   -0.0942    0.0000 H   0  0  0  0  0  0  0  0  0  0  0  0
    9.4132   -2.4721    0.0000 C   0  0  0  0  0  0  0  0  0  0  0  0
    9.7595   -4.0342    0.0000 H   0  0  0  0  0  0  0  0  0  0  0  0
    8.5537   -3.8216    0.0000 H   0  0  0  0  0  0  0  0  0  0  0  0
   10.9167   -1.9249    0.0000 C   0  0  0  0  0  0  0  0  0  0  0  0
   12.4202   -1.3776    0.0000 H   0  0  0  0  0  0  0  0  0  0  0  0
   12.1424   -2.9534    0.0000 H   0  0  0  0  0  0  0  0  0  0  0  0
   11.1946   -0.3493    0.0000 H   0  0  0  0  0  0  0  0  0  0  0  0
   -0.8000    1.3857    0.0000 C   0  0  0  0  0  0  0  0  0  0  0  0
    0.7035    1.9328    0.0000 H   0  0  0  0  0  0  0  0  0  0  0  0
   -1.0778    2.9613    0.0000 H   0  0  0  0  0  0  0  0  0  0  0  0
   -2.4001    1.3857    0.0000 C   0  0  0  0  0  0  0  0  0  0  0  0
   -2.1222    2.9613    0.0000 H   0  0  0  0  0  0  0  0  0  0  0  0
   -3.9036    1.9328    0.0000 H   0  0  0  0  0  0  0  0  0  0  0  0
   -3.2000    0.0000    0.0000 C   0  0  0  0  0  0  0  0  0  0  0  0
   -4.4257    1.0285    0.0000 H   0  0  0  0  0  0  0  0  0  0  0  0
   -4.4257   -1.0285    0.0000 H   0  0  0  0  0  0  0  0  0  0  0  0
   -2.4001   -1.3857    0.0000 C   0  0  0  0  0  0  0  0  0  0  0  0
   -3.9036   -1.9328    0.0000 H   0  0  0  0  0  0  0  0  0  0  0  0
   -2.1222   -2.9613    0.0000 H   0  0  0  0  0  0  0  0  0  0  0  0
   -0.8000   -1.3857    0.0000 C   0  0  0  0  0  0  0  0  0  0  0  0
   -1.0778   -2.9613    0.0000 H   0  0  0  0  0  0  0  0  0  0  0  0
    0.7758   -1.6635    0.0000 H   0  0  0  0  0  0  0  0  0  0  0  0
  1  2  1  0  0  0  0
  1  3  1  0  0  0  0
  3  4  1  0  0  0  0
  3  5  1  0  0  0  0
  3  6  1  0  0  0  0
  6  7  1  0  0  0  0
  6  8  1  0  0  0  0
  6  9  1  0  0  0  0
  9 10  1  0  0  0  0
  9 11  1  0  0  0  0
  9 12  1  0  0  0  0
 12 13  1  0  0  0  0
 12 14  1  0  0  0  0
 12 15  1  0  0  0  0
 15 16  1  0  0  0  0
 15 17  1  0  0  0  0
 15 18  1  0  0  0  0
 18 19  1  0  0  0  0
 18 20  1  0  0  0  0
 18 21  1  0  0  0  0
 21 22  1  0  0  0  0
 21 23  1  0  0  0  0
 21 24  1  0  0  0  0
 24 25  1  0  0  0  0
 24 26  1  0  0  0  0
 24 27  1  0  0  0  0
  1 28  1  0  0  0  0
 28 29  1  0  0  0  0
 28 30  1  0  0  0  0
 28 31  1  0  0  0  0
 31 32  1  0  0  0  0
 31 33  1  0  0  0  0
 31 34  1  0  0  0  0
 34 35  1  0  0  0  0
 34 36  1  0  0  0  0
 34 37  1  0  0  0  0
 37 38  1  0  0  0  0
 37 39  1  0  0  0  0
 37 40  1  0  0  0  0
 40  1  1  0  0  0  0
 40 41  1  0  0  0  0
 40 42  1  0  0  0  0
M  END
> <ChemID>
100317

> <source_casrn>
1795-15-9

> <CAS>
1795-15-9

> <SMILES>
C(CCCC1)(C1)CCCCCCCC

> <NAME>
n - Octyl Cyclohexane

> <preferred_name>
Cyclohexane, octyl-

> <iupac>
Octylcyclohexane

> <MPID>
101945

> <dsstox_substance_id>
DTXSID3061972

> <Canonical_QSARr>
CCCCCCCCC1CCCCC1

> <InChI_Code_QSARr>
InChI=1S/C14H28/c1-2-3-4-5-6-8-11-14-12-9-7-10-13-14/h14H,2-13H2,1H3

> <InChI Key_QSARr>
FBXWCEKQCVOOLT-UHFFFAOYSA-N

> <LogKmHL>
1.1

$$$$
100318
  -INDIGO-08031722222D

 16 16  0  0  0  0  0  0  0  0999 V2000
    0.0000    2.7713    0.0000 Cl  0  0  0  0  0  0  0  0  0  0  0  0
    0.8000    1.3856    0.0000 C   0  0  0  0  0  0  0  0  0  0  0  0
    2.4000    1.3856    0.0000 C   0  0  0  0  0  0  0  0  0  0  0  0
    3.2001    2.7713    0.0000 Cl  0  0  0  0  0  0  0  0  0  0  0  0
    3.2001    0.0000    0.0000 C   0  0  0  0  0  0  0  0  0  0  0  0
    4.8000    0.0000    0.0000 Cl  0  0  0  0  0  0  0  0  0  0  0  0
    2.4000   -1.3856    0.0000 C   0  0  0  0  0  0  0  0  0  0  0  0
    3.2001   -2.7713    0.0000 Cl  0  0  0  0  0  0  0  0  0  0  0  0
    0.8000   -1.3856    0.0000 C   0  0  0  0  0  0  0  0  0  0  0  0
    0.0000   -2.7713    0.0000 Cl  0  0  0  0  0  0  0  0  0  0  0  0
    0.0000   -0.0000    0.0000 C   0  0  0  0  0  0  0  0  0  0  0  0
   -1.6000    0.0000    0.0000 O   0  0  0  0  0  0  0  0  0  0  0  0
   -2.4001   -1.3856    0.0000 C   0  0  0  0  0  0  0  0  0  0  0  0
   -4.0000   -1.3856    0.0000 H   0  0  0  0  0  0  0  0  0  0  0  0
   -3.2000   -2.7713    0.0000 H   0  0  0  0  0  0  0  0  0  0  0  0
   -3.2000    0.0000    0.0000 H   0  0  0  0  0  0  0  0  0  0  0  0
  1  2  1  0  0  0  0
  2  3  1  0  0  0  0
  3  4  1  0  0  0  0
  3  5  2  0  0  0  0
  5  6  1  0  0  0  0
  5  7  1  0  0  0  0
  7  8  1  0  0  0  0
  7  9  2  0  0  0  0
  9 10  1  0  0  0  0
  9 11  1  0  0  0  0
 11  2  2  0  0  0  0
 11 12  1  0  0  0  0
 12 13  1  0  0  0  0
 13 14  1  0  0  0  0
 13 15  1  0  0  0  0
 13 16  1  0  0  0  0
M  END
> <ChemID>
100318

> <source_casrn>
1825-21-4

> <CAS>
1825-21-4

> <SMILES>
COc1c(Cl)c(Cl)c(Cl)c(Cl)c1Cl

> <NAME>
Pentachloroanisole

> <preferred_name>
Pentachloroanisole

> <iupac>
methyl pentachlorophenyl ether

> <MPID>
101946

> <dsstox_substance_id>
DTXSID2021103

> <Canonical_QSARr>
COc1c(Cl)c(Cl)c(Cl)c(Cl)c1Cl

> <InChI_Code_QSARr>
InChI=1S/C7H3Cl5O/c1-13-7-5(11)3(9)2(8)4(10)6(7)12/h1H3

> <InChI Key_QSARr>
BBABSCYTNHOKOG-UHFFFAOYSA-N

> <LogKmHL>
2.67

$$$$
100319
  -INDIGO-08031722222D

 18 19  0  0  0  0  0  0  0  0999 V2000
    0.0001   -0.0000    0.0000 C   0  0  0  0  0  0  0  0  0  0  0  0
    1.3856    0.8000    0.0000 C   0  0  0  0  0  0  0  0  0  0  0  0
    1.3856    2.4000    0.0000 Cl  0  0  0  0  0  0  0  0  0  0  0  0
    2.7713   -0.0000    0.0000 C   0  0  0  0  0  0  0  0  0  0  0  0
    4.1569    0.8000    0.0000 H   0  0  0  0  0  0  0  0  0  0  0  0
    2.7713   -1.6000    0.0000 C   0  0  0  0  0  0  0  0  0  0  0  0
    4.1569   -2.4000    0.0000 H   0  0  0  0  0  0  0  0  0  0  0  0
    1.3856   -2.4000    0.0000 C   0  0  0  0  0  0  0  0  0  0  0  0
    1.3856   -4.0000    0.0000 Cl  0  0  0  0  0  0  0  0  0  0  0  0
    0.0001   -1.6000    0.0000 C   0  0  0  0  0  0  0  0  0  0  0  0
   -1.3856   -2.4000    0.0000 C   0  0  0  0  0  0  0  0  0  0  0  0
   -1.3856   -4.0000    0.0000 H   0  0  0  0  0  0  0  0  0  0  0  0
   -2.7712   -1.6000    0.0000 C   0  0  0  0  0  0  0  0  0  0  0  0
   -4.1569   -2.4000    0.0000 H   0  0  0  0  0  0  0  0  0  0  0  0
   -2.7712   -0.0000    0.0000 C   0  0  0  0  0  0  0  0  0  0  0  0
   -4.1569    0.8000    0.0000 H   0  0  0  0  0  0  0  0  0  0  0  0
   -1.3856    0.8000    0.0000 C   0  0  0  0  0  0  0  0  0  0  0  0
   -1.3856    2.4000    0.0000 H   0  0  0  0  0  0  0  0  0  0  0  0
  1  2  1  0  0  0  0
  2  3  1  0  0  0  0
  2  4  2  0  0  0  0
  4  5  1  0  0  0  0
  4  6  1  0  0  0  0
  6  7  1  0  0  0  0
  6  8  2  0  0  0  0
  8  9  1  0  0  0  0
  8 10  1  0  0  0  0
 10  1  1  0  0  0  0
 10 11  2  0  0  0  0
 11 12  1  0  0  0  0
 11 13  1  0  0  0  0
 13 14  1  0  0  0  0
 13 15  2  0  0  0  0
 15 16  1  0  0  0  0
 15 17  1  0  0  0  0
 17  1  2  0  0  0  0
 17 18  1  0  0  0  0
M  END
> <ChemID>
100319

> <source_casrn>
1825-31-6

> <CAS>
1825-31-6

> <SMILES>
Clc1ccc(Cl)c2ccccc12

> <NAME>
1,4-dichloronaphthalene

> <preferred_name>
Naphthalene, 1,4-dichloro-

> <iupac>
1,4-DICHLORONAPHTHALENE

> <MPID>
101947

> <dsstox_substance_id>
DTXSID6061999

> <Canonical_QSARr>
Clc1ccc(Cl)c2ccccc12

> <InChI_Code_QSARr>
InChI=1S/C10H6Cl2/c11-9-5-6-10(12)8-4-2-1-3-7(8)9/h1-6H

> <InChI Key_QSARr>
JDPKCYMVSKDOGS-UHFFFAOYSA-N

> <LogKmHL>
2.37

$$$$
100322
  -INDIGO-08031722222D

 40 41  0  0  0  0  0  0  0  0999 V2000
    1.6000   -0.0000    0.0000 C   0  0  0  0  0  0  0  0  0  0  0  0
    2.4000   -1.3856    0.0000 C   0  0  0  0  0  0  0  0  0  0  0  0
    2.1221   -2.9613    0.0000 H   0  0  0  0  0  0  0  0  0  0  0  0
    4.0001   -1.3856    0.0000 C   0  0  0  0  0  0  0  0  0  0  0  0
    4.7999   -2.7713    0.0000 H   0  0  0  0  0  0  0  0  0  0  0  0
    4.7999   -0.0000    0.0000 C   0  0  0  0  0  0  0  0  0  0  0  0
    6.4000   -0.0000    0.0000 H   0  0  0  0  0  0  0  0  0  0  0  0
    3.9999    1.3856    0.0000 C   0  0  0  0  0  0  0  0  0  0  0  0
    4.7999    2.7713    0.0000 H   0  0  0  0  0  0  0  0  0  0  0  0
    2.4000    1.3856    0.0000 C   0  0  0  0  0  0  0  0  0  0  0  0
    1.6000    2.7713    0.0000 H   0  0  0  0  0  0  0  0  0  0  0  0
   -0.0001    0.0000    0.0000 C   0  0  0  0  0  0  0  0  0  0  0  0
   -1.5999    0.0000    0.0000 C   0  0  0  0  0  0  0  0  0  0  0  0
   -3.2000    0.0000    0.0000 C   0  0  0  0  0  0  0  0  0  0  0  0
   -4.0000    1.3856    0.0000 C   0  0  0  0  0  0  0  0  0  0  0  0
   -3.2000    2.7713    0.0000 H   0  0  0  0  0  0  0  0  0  0  0  0
   -5.6001    1.3856    0.0000 C   0  0  0  0  0  0  0  0  0  0  0  0
   -6.3999    2.7713    0.0000 H   0  0  0  0  0  0  0  0  0  0  0  0
   -6.3999    0.0000    0.0000 C   0  0  0  0  0  0  0  0  0  0  0  0
   -8.0000    0.0000    0.0000 H   0  0  0  0  0  0  0  0  0  0  0  0
   -5.6001   -1.3856    0.0000 C   0  0  0  0  0  0  0  0  0  0  0  0
   -6.3999   -2.7713    0.0000 H   0  0  0  0  0  0  0  0  0  0  0  0
   -4.0000   -1.3856    0.0000 C   0  0  0  0  0  0  0  0  0  0  0  0
   -3.2000   -2.7713    0.0000 H   0  0  0  0  0  0  0  0  0  0  0  0
   -1.5999    1.6000    0.0000 C   0  0  0  0  0  0  0  0  0  0  0  0
   -1.5999    3.2000    0.0000 H   0  0  0  0  0  0  0  0  0  0  0  0
   -1.1077    2.3757    0.0000 H   0  0  0  0  0  0  0  0  0  0  0  0
   -2.9855    0.8000    0.0000 H   0  0  0  0  0  0  0  0  0  0  0  0
   -1.5999   -1.6000    0.0000 C   0  0  0  0  0  0  0  0  0  0  0  0
   -1.5999   -3.2000    0.0000 H   0  0  0  0  0  0  0  0  0  0  0  0
   -0.2143   -2.4000    0.0000 H   0  0  0  0  0  0  0  0  0  0  0  0
   -2.9855   -0.8000    0.0000 H   0  0  0  0  0  0  0  0  0  0  0  0
    0.2779    1.5757    0.0000 C   0  0  0  0  0  0  0  0  0  0  0  0
   -0.2060    2.3566    0.0000 H   0  0  0  0  0  0  0  0  0  0  0  0
    0.5556    3.1514    0.0000 H   0  0  0  0  0  0  0  0  0  0  0  0
   -1.1077    0.7756    0.0000 H   0  0  0  0  0  0  0  0  0  0  0  0
   -0.0001   -1.6000    0.0000 C   0  0  0  0  0  0  0  0  0  0  0  0
    1.3855   -2.4000    0.0000 H   0  0  0  0  0  0  0  0  0  0  0  0
   -0.0001   -3.2000    0.0000 H   0  0  0  0  0  0  0  0  0  0  0  0
    1.5035   -1.0528    0.0000 H   0  0  0  0  0  0  0  0  0  0  0  0
  1  2  1  0  0  0  0
  2  3  1  0  0  0  0
  2  4  2  0  0  0  0
  4  5  1  0  0  0  0
  4  6  1  0  0  0  0
  6  7  1  0  0  0  0
  6  8  2  0  0  0  0
  8  9  1  0  0  0  0
  8 10  1  0  0  0  0
 10  1  2  0  0  0  0
 10 11  1  0  0  0  0
  1 12  1  0  0  0  0
 12 13  1  0  0  0  0
 13 14  1  0  0  0  0
 14 15  1  0  0  0  0
 15 16  1  0  0  0  0
 15 17  2  0  0  0  0
 17 18  1  0  0  0  0
 17 19  1  0  0  0  0
 19 20  1  0  0  0  0
 19 21  2  0  0  0  0
 21 22  1  0  0  0  0
 21 23  1  0  0  0  0
 23 14  2  0  0  0  0
 23 24  1  0  0  0  0
 13 25  1  0  0  0  0
 25 26  1  0  0  0  0
 25 27  1  0  0  0  0
 25 28  1  0  0  0  0
 13 29  1  0  0  0  0
 29 30  1  0  0  0  0
 29 31  1  0  0  0  0
 29 32  1  0  0  0  0
 12 33  1  0  0  0  0
 33 34  1  0  0  0  0
 33 35  1  0  0  0  0
 33 36  1  0  0  0  0
 12 37  1  0  0  0  0
 37 38  1  0  0  0  0
 37 39  1  0  0  0  0
 37 40  1  0  0  0  0
M  END
> <ChemID>
100322

> <source_casrn>
1889-67-4

> <CAS>
1889-67-4

> <SMILES>
c(cccc1)(c1)C(C(c(cccc2)c2)(C)C)(C)C

> <NAME>
Benzene, 1,1'-(1,1,2,2-tetramethyl-1,2-ethanediy

> <preferred_name>
2,3-Dimethyl-2,3-diphenylbutane

> <iupac>
(2,3-dimethyl-3-phenylbutan-2-yl)benzene

> <MPID>
101949

> <dsstox_substance_id>
DTXSID1062043

> <Canonical_QSARr>
CC(C)(c1ccccc1)C(C)(C)c1ccccc1

> <InChI_Code_QSARr>
InChI=1S/C18H22/c1-17(2,15-11-7-5-8-12-15)18(3,4)16-13-9-6-10-14-16/h5-14H,1-4H3

> <InChI Key_QSARr>
HGTUJZTUQFXBIH-UHFFFAOYSA-N

> <LogKmHL>
0.87

$$$$
100323
  -INDIGO-08031722222D

 14 14  0  0  0  0  0  0  0  0999 V2000
    1.3856    2.4000    0.0000 Cl  0  0  0  0  0  0  0  0  0  0  0  0
    1.3856    0.8000    0.0000 C   0  0  0  0  0  0  0  0  0  0  0  0
    2.7713   -0.0000    0.0000 C   0  0  0  0  0  0  0  0  0  0  0  0
    4.1570    0.8000    0.0000 C   0  0  0  0  0  0  0  0  0  0  0  0
    5.5426    1.6000    0.0000 N   0  0  0  0  0  0  0  0  0  0  0  0
    2.7713   -1.6000    0.0000 C   0  0  0  0  0  0  0  0  0  0  0  0
    4.1569   -2.4000    0.0000 Cl  0  0  0  0  0  0  0  0  0  0  0  0
    1.3856   -2.4000    0.0000 C   0  0  0  0  0  0  0  0  0  0  0  0
    1.3856   -4.0000    0.0000 Cl  0  0  0  0  0  0  0  0  0  0  0  0
    0.0000   -1.6000    0.0000 C   0  0  0  0  0  0  0  0  0  0  0  0
   -1.3857   -2.4000    0.0000 Cl  0  0  0  0  0  0  0  0  0  0  0  0
    0.0000   -0.0000    0.0000 C   0  0  0  0  0  0  0  0  0  0  0  0
   -1.3857    0.8000    0.0000 C   0  0  0  0  0  0  0  0  0  0  0  0
   -2.7713    1.6000    0.0000 N   0  0  0  0  0  0  0  0  0  0  0  0
  1  2  1  0  0  0  0
  2  3  1  0  0  0  0
  3  4  1  0  0  0  0
  4  5  3  0  0  0  0
  3  6  2  0  0  0  0
  6  7  1  0  0  0  0
  6  8  1  0  0  0  0
  8  9  1  0  0  0  0
  8 10  2  0  0  0  0
 10 11  1  0  0  0  0
 10 12  1  0  0  0  0
 12  2  2  0  0  0  0
 12 13  1  0  0  0  0
 13 14  3  0  0  0  0
M  END
> <ChemID>
100323

> <source_casrn>
1897-45-6

> <CAS>
1897-45-6

> <SMILES>
N#Cc1c(Cl)c(Cl)c(Cl)c(C#N)c1Cl

> <NAME>
1,3-Benzenedicarbonitrile, 2,4,5,6-tetrachloro-

> <preferred_name>
Chlorothalonil

> <iupac>
2,4,5,6-tetrachlorobenzene-1,3-dicarbonitrile

> <MPID>
101950

> <dsstox_substance_id>
DTXSID0020319

> <Canonical_QSARr>
N#Cc1c(Cl)c(Cl)c(Cl)c(C#N)c1Cl

> <InChI_Code_QSARr>
InChI=1S/C8Cl4N2/c9-5-3(1-13)6(10)8(12)7(11)4(5)2-14

> <InChI Key_QSARr>
CRQQGFGUEAVUIL-UHFFFAOYSA-N

> <LogKmHL>
0.27

$$$$
100324
  -INDIGO-08031722222D

 28 28  0  0  0  0  0  0  0  0999 V2000
    4.1568    4.0000    0.0000 Cl  0  0  0  0  0  0  0  0  0  0  0  0
    4.1570    2.4000    0.0000 C   0  0  0  0  0  0  0  0  0  0  0  0
    5.5426    1.6000    0.0000 N   0  0  0  0  0  0  0  0  0  0  0  0
    5.5426   -0.0001    0.0000 C   0  0  0  0  0  0  0  0  0  0  0  0
    6.9283   -0.8000    0.0000 N   0  0  0  0  0  0  0  0  0  0  0  0
    6.9283   -2.4000    0.0000 H   0  0  0  0  0  0  0  0  0  0  0  0
    8.3138    0.0001    0.0000 C   0  0  0  0  0  0  0  0  0  0  0  0
    8.9262    1.4782    0.0000 H   0  0  0  0  0  0  0  0  0  0  0  0
    7.7015    1.4782    0.0000 H   0  0  0  0  0  0  0  0  0  0  0  0
    9.6996   -0.8000    0.0000 C   0  0  0  0  0  0  0  0  0  0  0  0
   11.0851   -1.6000    0.0000 H   0  0  0  0  0  0  0  0  0  0  0  0
   11.0851    0.0001    0.0000 H   0  0  0  0  0  0  0  0  0  0  0  0
    9.6996   -2.4000    0.0000 H   0  0  0  0  0  0  0  0  0  0  0  0
    4.1570   -0.8000    0.0000 N   0  0  0  0  0  0  0  0  0  0  0  0
    2.7713   -0.0001    0.0000 C   0  0  0  0  0  0  0  0  0  0  0  0
    1.3857   -0.8000    0.0000 N   0  0  0  0  0  0  0  0  0  0  0  0
    1.3857   -2.4000    0.0000 H   0  0  0  0  0  0  0  0  0  0  0  0
    0.0000   -0.0001    0.0000 C   0  0  0  0  0  0  0  0  0  0  0  0
    0.8001    1.3856    0.0000 H   0  0  0  0  0  0  0  0  0  0  0  0
   -1.3855    0.8000    0.0000 C   0  0  0  0  0  0  0  0  0  0  0  0
   -2.7713    1.6000    0.0000 H   0  0  0  0  0  0  0  0  0  0  0  0
   -2.7713   -0.0001    0.0000 H   0  0  0  0  0  0  0  0  0  0  0  0
   -1.3855    2.4000    0.0000 H   0  0  0  0  0  0  0  0  0  0  0  0
   -0.8001   -1.3856    0.0000 C   0  0  0  0  0  0  0  0  0  0  0  0
   -1.5999   -2.7713    0.0000 H   0  0  0  0  0  0  0  0  0  0  0  0
   -2.4000   -1.3856    0.0000 H   0  0  0  0  0  0  0  0  0  0  0  0
    0.0000   -2.7713    0.0000 H   0  0  0  0  0  0  0  0  0  0  0  0
    2.7713    1.6000    0.0000 N   0  0  0  0  0  0  0  0  0  0  0  0
  1  2  1  0  0  0  0
  2  3  1  0  0  0  0
  3  4  2  0  0  0  0
  4  5  1  0  0  0  0
  5  6  1  0  0  0  0
  5  7  1  0  0  0  0
  7  8  1  0  0  0  0
  7  9  1  0  0  0  0
  7 10  1  0  0  0  0
 10 11  1  0  0  0  0
 10 12  1  0  0  0  0
 10 13  1  0  0  0  0
  4 14  1  0  0  0  0
 14 15  2  0  0  0  0
 15 16  1  0  0  0  0
 16 17  1  0  0  0  0
 16 18  1  0  0  0  0
 18 19  1  0  0  0  0
 18 20  1  0  0  0  0
 20 21  1  0  0  0  0
 20 22  1  0  0  0  0
 20 23  1  0  0  0  0
 18 24  1  0  0  0  0
 24 25  1  0  0  0  0
 24 26  1  0  0  0  0
 24 27  1  0  0  0  0
 15 28  1  0  0  0  0
 28  2  2  0  0  0  0
M  END
> <ChemID>
100324

> <source_casrn>
1912-24-9

> <CAS>
1912-24-9

> <SMILES>
n(c(nc(n1)NC(C)C)NCC)c1Cl

> <NAME>
1,3,5-Triazine-2,4-diamine, 6-chloro-N-ethyl-N-(

> <preferred_name>
Atrazine

> <iupac>
6-chloro-N-ethyl-N'-(propan-2-yl)-1,3,5-triazine-2,4-diamine

> <MPID>
101951

> <dsstox_substance_id>
DTXSID9020112

> <Canonical_QSARr>
CCNc1[n]c(Cl)[n]c(NC(C)C)[n]1

> <InChI_Code_QSARr>
InChI=1S/C8H14ClN5/c1-4-10-7-12-6(9)13-8(14-7)11-5(2)3/h5H,4H2,1-3H3,(H2,10,11,12,13,14)

> <InChI Key_QSARr>
MXWJVTOOROXGIU-UHFFFAOYSA-N

> <LogKmHL>
-1.05

$$$$
100326
  -INDIGO-08031722222D

 18 18  0  0  0  0  0  0  0  0999 V2000
   -2.7713    1.6000    0.0000 C   0  0  0  0  0  0  0  0  0  0  0  0
   -1.3856    2.4000    0.0000 C   0  0  0  0  0  0  0  0  0  0  0  0
   -1.3856    4.0000    0.0000 H   0  0  0  0  0  0  0  0  0  0  0  0
    0.0000    1.6000    0.0000 C   0  0  0  0  0  0  0  0  0  0  0  0
    1.3857    2.4000    0.0000 N   0  0  0  0  0  0  0  0  0  0  0  0
    1.3856    4.0000    0.0000 O   0  0  0  0  0  0  0  0  0  0  0  0
    2.7713    1.6000    0.0000 O   0  0  0  0  0  0  0  0  0  0  0  0
    0.0000    0.0000    0.0000 C   0  0  0  0  0  0  0  0  0  0  0  0
    1.3857   -0.8000    0.0000 C   0  0  0  0  0  0  0  0  0  0  0  0
    2.7713   -1.6000    0.0000 H   0  0  0  0  0  0  0  0  0  0  0  0
    1.3857   -2.4000    0.0000 H   0  0  0  0  0  0  0  0  0  0  0  0
    2.7713    0.0000    0.0000 H   0  0  0  0  0  0  0  0  0  0  0  0
   -1.3856   -0.8000    0.0000 C   0  0  0  0  0  0  0  0  0  0  0  0
   -1.3856   -2.4000    0.0000 H   0  0  0  0  0  0  0  0  0  0  0  0
   -2.7713    0.0000    0.0000 C   0  0  0  0  0  0  0  0  0  0  0  0
   -4.1570   -0.8000    0.0000 H   0  0  0  0  0  0  0  0  0  0  0  0
   -4.1570    2.4000    0.0000 O   0  0  0  0  0  0  0  0  0  0  0  0
   -5.5426    1.6000    0.0000 H   0  0  0  0  0  0  0  0  0  0  0  0
  1  2  1  0  0  0  0
  2  3  1  0  0  0  0
  2  4  2  0  0  0  0
  4  5  1  0  0  0  0
  5  6  1  0  0  0  0
  5  7  2  0  0  0  0
  4  8  1  0  0  0  0
  8  9  1  0  0  0  0
  9 10  1  0  0  0  0
  9 11  1  0  0  0  0
  9 12  1  0  0  0  0
  8 13  2  0  0  0  0
 13 14  1  0  0  0  0
 13 15  1  0  0  0  0
 15  1  2  0  0  0  0
 15 16  1  0  0  0  0
  1 17  1  0  0  0  0
 17 18  1  0  0  0  0
M  CHG  2   5   1   6  -1
M  END
> <ChemID>
100326

> <source_casrn>
2042-14-0

> <CAS>
2042-14-0

> <SMILES>
c1c(O)ccc(C)c1N(=O)=O

> <NAME>
3-nitro-p-cresol

> <preferred_name>


> <iupac>


> <MPID>
101953

> <dsstox_substance_id>
DTXSID90879085

> <Canonical_QSARr>
Cc1ccc(O)cc1[N+]([O-])=O

> <InChI_Code_QSARr>
InChI=1S/C7H7NO3/c1-5-2-3-6(9)4-7(5)8(10)11/h2-4,9H,1H3

> <InChI Key_QSARr>
BQEXDUKMTVYBRK-UHFFFAOYSA-N

> <LogKmHL>
-0.8

$$$$
100327
  -INDIGO-08031722222D

 22 23  0  0  0  0  0  0  0  0999 V2000
   -0.0001    0.0000    0.0000 C   0  0  0  0  0  0  0  0  0  0  0  0
    1.6001   -0.0000    0.0000 C   0  0  0  0  0  0  0  0  0  0  0  0
    2.4001   -1.3856    0.0000 C   0  0  0  0  0  0  0  0  0  0  0  0
    1.6001   -2.7713    0.0000 Cl  0  0  0  0  0  0  0  0  0  0  0  0
    4.0000   -1.3856    0.0000 C   0  0  0  0  0  0  0  0  0  0  0  0
    4.8000   -2.7713    0.0000 Cl  0  0  0  0  0  0  0  0  0  0  0  0
    4.8000    0.0000    0.0000 C   0  0  0  0  0  0  0  0  0  0  0  0
    6.4000    0.0000    0.0000 Cl  0  0  0  0  0  0  0  0  0  0  0  0
    4.0000    1.3856    0.0000 C   0  0  0  0  0  0  0  0  0  0  0  0
    4.8000    2.7713    0.0000 Cl  0  0  0  0  0  0  0  0  0  0  0  0
    2.4001    1.3856    0.0000 C   0  0  0  0  0  0  0  0  0  0  0  0
    1.6001    2.7713    0.0000 Cl  0  0  0  0  0  0  0  0  0  0  0  0
   -0.8001    1.3856    0.0000 C   0  0  0  0  0  0  0  0  0  0  0  0
   -0.0001    2.7713    0.0000 Cl  0  0  0  0  0  0  0  0  0  0  0  0
   -2.4000    1.3856    0.0000 C   0  0  0  0  0  0  0  0  0  0  0  0
   -3.2000    2.7713    0.0000 Cl  0  0  0  0  0  0  0  0  0  0  0  0
   -3.2000    0.0000    0.0000 C   0  0  0  0  0  0  0  0  0  0  0  0
   -4.8000   -0.0000    0.0000 Cl  0  0  0  0  0  0  0  0  0  0  0  0
   -2.4000   -1.3856    0.0000 C   0  0  0  0  0  0  0  0  0  0  0  0
   -3.2000   -2.7713    0.0000 Cl  0  0  0  0  0  0  0  0  0  0  0  0
   -0.8001   -1.3856    0.0000 C   0  0  0  0  0  0  0  0  0  0  0  0
   -0.0001   -2.7713    0.0000 Cl  0  0  0  0  0  0  0  0  0  0  0  0
  1  2  1  0  0  0  0
  2  3  1  0  0  0  0
  3  4  1  0  0  0  0
  3  5  2  0  0  0  0
  5  6  1  0  0  0  0
  5  7  1  0  0  0  0
  7  8  1  0  0  0  0
  7  9  2  0  0  0  0
  9 10  1  0  0  0  0
  9 11  1  0  0  0  0
 11  2  2  0  0  0  0
 11 12  1  0  0  0  0
  1 13  1  0  0  0  0
 13 14  1  0  0  0  0
 13 15  2  0  0  0  0
 15 16  1  0  0  0  0
 15 17  1  0  0  0  0
 17 18  1  0  0  0  0
 17 19  2  0  0  0  0
 19 20  1  0  0  0  0
 19 21  1  0  0  0  0
 21  1  2  0  0  0  0
 21 22  1  0  0  0  0
M  END
> <ChemID>
100327

> <source_casrn>
2051-24-3

> <CAS>
2051-24-3

> <SMILES>
Clc1c(-c2c(Cl)c(Cl)c(Cl)c(Cl)c2Cl)c(Cl)c(Cl)c(Cl)c1Cl

> <NAME>
Decachlorobiphenyl

> <preferred_name>
Decachlorobiphenyl

> <iupac>
decachlorobiphenyl

> <MPID>
101954

> <dsstox_substance_id>
DTXSID4047541

> <Canonical_QSARr>
Clc1c(-c2c(Cl)c(Cl)c(Cl)c(Cl)c2Cl)c(Cl)c(Cl)c(Cl)c1Cl

> <InChI_Code_QSARr>
InChI=1S/C12Cl10/c13-3-1(4(14)8(18)11(21)7(3)17)2-5(15)9(19)12(22)10(20)6(2)16

> <InChI Key_QSARr>
ONXPZLFXDMAPRO-UHFFFAOYSA-N

> <LogKmHL>
2.86

$$$$
100328
  -INDIGO-08031722222D

 32 31  0  0  0  0  0  0  0  0999 V2000
   -1.3856    0.8000    0.0000 C   0  0  0  0  0  0  0  0  0  0  0  0
   -0.7734    2.2782    0.0000 H   0  0  0  0  0  0  0  0  0  0  0  0
   -1.9979    2.2782    0.0000 H   0  0  0  0  0  0  0  0  0  0  0  0
    0.0000   -0.0000    0.0000 C   0  0  0  0  0  0  0  0  0  0  0  0
   -0.8000   -1.3857    0.0000 H   0  0  0  0  0  0  0  0  0  0  0  0
    1.2257   -1.0284    0.0000 C   0  0  0  0  0  0  0  0  0  0  0  0
    2.8241   -1.0982    0.0000 H   0  0  0  0  0  0  0  0  0  0  0  0
    2.4053    0.0525    0.0000 H   0  0  0  0  0  0  0  0  0  0  0  0
    0.9478   -2.6041    0.0000 C   0  0  0  0  0  0  0  0  0  0  0  0
    0.6700   -4.1798    0.0000 H   0  0  0  0  0  0  0  0  0  0  0  0
    2.1735   -3.6326    0.0000 H   0  0  0  0  0  0  0  0  0  0  0  0
   -0.5557   -3.1513    0.0000 H   0  0  0  0  0  0  0  0  0  0  0  0
    0.8000    1.3856    0.0000 C   0  0  0  0  0  0  0  0  0  0  0  0
    1.6000    2.7713    0.0000 H   0  0  0  0  0  0  0  0  0  0  0  0
    2.4000    1.3856    0.0000 H   0  0  0  0  0  0  0  0  0  0  0  0
    0.2528    2.8891    0.0000 H   0  0  0  0  0  0  0  0  0  0  0  0
   -2.7713   -0.0000    0.0000 C   0  0  0  0  0  0  0  0  0  0  0  0
   -3.3835   -1.4782    0.0000 H   0  0  0  0  0  0  0  0  0  0  0  0
   -2.1591   -1.4782    0.0000 H   0  0  0  0  0  0  0  0  0  0  0  0
   -4.1569    0.8000    0.0000 C   0  0  0  0  0  0  0  0  0  0  0  0
   -3.5447    2.2782    0.0000 H   0  0  0  0  0  0  0  0  0  0  0  0
   -4.7692    2.2782    0.0000 H   0  0  0  0  0  0  0  0  0  0  0  0
   -5.5426   -0.0000    0.0000 C   0  0  0  0  0  0  0  0  0  0  0  0
   -4.5140   -1.2257    0.0000 H   0  0  0  0  0  0  0  0  0  0  0  0
   -6.7682   -1.0284    0.0000 C   0  0  0  0  0  0  0  0  0  0  0  0
   -7.9939   -2.0569    0.0000 H   0  0  0  0  0  0  0  0  0  0  0  0
   -8.2717   -0.4812    0.0000 H   0  0  0  0  0  0  0  0  0  0  0  0
   -6.4904   -2.6041    0.0000 H   0  0  0  0  0  0  0  0  0  0  0  0
   -6.5710    1.2256    0.0000 C   0  0  0  0  0  0  0  0  0  0  0  0
   -7.5994    2.4513    0.0000 H   0  0  0  0  0  0  0  0  0  0  0  0
   -6.0238    2.7292    0.0000 H   0  0  0  0  0  0  0  0  0  0  0  0
   -8.1468    0.9479    0.0000 H   0  0  0  0  0  0  0  0  0  0  0  0
  1  2  1  0  0  0  0
  1  3  1  0  0  0  0
  1  4  1  0  0  0  0
  4  5  1  0  0  0  0
  4  6  1  0  0  0  0
  6  7  1  0  0  0  0
  6  8  1  0  0  0  0
  6  9  1  0  0  0  0
  9 10  1  0  0  0  0
  9 11  1  0  0  0  0
  9 12  1  0  0  0  0
  4 13  1  0  0  0  0
 13 14  1  0  0  0  0
 13 15  1  0  0  0  0
 13 16  1  0  0  0  0
  1 17  1  0  0  0  0
 17 18  1  0  0  0  0
 17 19  1  0  0  0  0
 17 20  1  0  0  0  0
 20 21  1  0  0  0  0
 20 22  1  0  0  0  0
 20 23  1  0  0  0  0
 23 24  1  0  0  0  0
 23 25  1  0  0  0  0
 25 26  1  0  0  0  0
 25 27  1  0  0  0  0
 25 28  1  0  0  0  0
 23 29  1  0  0  0  0
 29 30  1  0  0  0  0
 29 31  1  0  0  0  0
 29 32  1  0  0  0  0
M  END
> <ChemID>
100328

> <source_casrn>
2051-30-1

> <CAS>
2051-30-1

> <SMILES>
CCC(C)CCCC(C)C

> <NAME>
2,6-dimethyl octane

> <preferred_name>
2,6-Dimethyloctane

> <iupac>
2,6-Dimethyloctane

> <MPID>
101955

> <dsstox_substance_id>
DTXSID7058628

> <Canonical_QSARr>
CC(C)CCCC(C)CC

> <InChI_Code_QSARr>
InChI=1S/C10H22/c1-5-10(4)8-6-7-9(2)3/h9-10H,5-8H2,1-4H3

> <InChI Key_QSARr>
ZALHPSXXQIPKTQ-UHFFFAOYSA-N

> <LogKmHL>
0.61

$$$$
100330
  -INDIGO-08031722222D

 24 24  0  0  0  0  0  0  0  0999 V2000
    0.0001   -0.0000    0.0000 P   0  0  0  0  0  0  0  0  0  0  0  0
    1.3857    0.8000    0.0000 O   0  0  0  0  0  0  0  0  0  0  0  0
    2.7712   -0.0000    0.0000 C   0  0  0  0  0  0  0  0  0  0  0  0
    2.7712   -1.6000    0.0000 C   0  0  0  0  0  0  0  0  0  0  0  0
    1.3856   -2.4000    0.0000 H   0  0  0  0  0  0  0  0  0  0  0  0
    4.1569   -2.4000    0.0000 C   0  0  0  0  0  0  0  0  0  0  0  0
    4.1569   -4.0000    0.0000 Cl  0  0  0  0  0  0  0  0  0  0  0  0
    5.5425   -1.6000    0.0000 C   0  0  0  0  0  0  0  0  0  0  0  0
    6.9282   -2.4000    0.0000 Br  0  0  0  0  0  0  0  0  0  0  0  0
    5.5425   -0.0000    0.0000 C   0  0  0  0  0  0  0  0  0  0  0  0
    6.9282    0.8000    0.0000 H   0  0  0  0  0  0  0  0  0  0  0  0
    4.1569    0.8000    0.0000 C   0  0  0  0  0  0  0  0  0  0  0  0
    4.1569    2.4000    0.0000 Cl  0  0  0  0  0  0  0  0  0  0  0  0
    0.0001    1.6000    0.0000 S   0  0  0  0  0  0  0  0  0  0  0  0
   -1.3856    0.8000    0.0000 O   0  0  0  0  0  0  0  0  0  0  0  0
   -2.7713   -0.0000    0.0000 C   0  0  0  0  0  0  0  0  0  0  0  0
   -4.1569    0.8000    0.0000 H   0  0  0  0  0  0  0  0  0  0  0  0
   -4.1569   -0.8000    0.0000 H   0  0  0  0  0  0  0  0  0  0  0  0
   -2.7713    1.6000    0.0000 H   0  0  0  0  0  0  0  0  0  0  0  0
   -1.3856   -0.8000    0.0000 O   0  0  0  0  0  0  0  0  0  0  0  0
   -1.3856   -2.4000    0.0000 C   0  0  0  0  0  0  0  0  0  0  0  0
   -1.3856   -4.0000    0.0000 H   0  0  0  0  0  0  0  0  0  0  0  0
   -2.7713   -3.2000    0.0000 H   0  0  0  0  0  0  0  0  0  0  0  0
    0.0001   -3.2000    0.0000 H   0  0  0  0  0  0  0  0  0  0  0  0
  1  2  1  0  0  0  0
  2  3  1  0  0  0  0
  3  4  1  0  0  0  0
  4  5  1  0  0  0  0
  4  6  2  0  0  0  0
  6  7  1  0  0  0  0
  6  8  1  0  0  0  0
  8  9  1  0  0  0  0
  8 10  2  0  0  0  0
 10 11  1  0  0  0  0
 10 12  1  0  0  0  0
 12  3  2  0  0  0  0
 12 13  1  0  0  0  0
  1 14  2  0  0  0  0
  1 15  1  0  0  0  0
 15 16  1  0  0  0  0
 16 17  1  0  0  0  0
 16 18  1  0  0  0  0
 16 19  1  0  0  0  0
  1 20  1  0  0  0  0
 20 21  1  0  0  0  0
 21 22  1  0  0  0  0
 21 23  1  0  0  0  0
 21 24  1  0  0  0  0
M  END
> <ChemID>
100330

> <source_casrn>
2104-96-3

> <CAS>
2104-96-3

> <SMILES>
COP(=S)(Oc1cc(Cl)c(Br)cc1Cl)OC

> <NAME>
Bromophos

> <preferred_name>
Bromofos

> <iupac>
O-(4-bromo-2,5-dichlorophenyl) O,O-dimethyl phosphorothioate

> <MPID>
101957

> <dsstox_substance_id>
DTXSID1041683

> <Canonical_QSARr>
COP(=S)(Oc1cc(Cl)c(Br)cc1Cl)OC

> <InChI_Code_QSARr>
InChI=1S/C8H8BrCl2O3PS/c1-12-15(16,13-2)14-8-4-6(10)5(9)3-7(8)11/h3-4H,1-2H3

> <InChI Key_QSARr>
NYQDCVLCJXRDSK-UHFFFAOYSA-N

> <LogKmHL>
0.97

$$$$
100331
  -INDIGO-08031722222D

 31 32  0  0  0  0  0  0  0  0999 V2000
   -6.4000    2.7713    0.0000 C   0  0  0  0  0  0  0  0  0  0  0  0
   -7.2000    4.1569    0.0000 C   0  0  0  0  0  0  0  0  0  0  0  0
   -6.4000    5.5426    0.0000 H   0  0  0  0  0  0  0  0  0  0  0  0
   -8.8001    4.1569    0.0000 C   0  0  0  0  0  0  0  0  0  0  0  0
   -9.5999    5.5426    0.0000 H   0  0  0  0  0  0  0  0  0  0  0  0
   -9.5999    2.7713    0.0000 C   0  0  0  0  0  0  0  0  0  0  0  0
  -11.2000    2.7713    0.0000 H   0  0  0  0  0  0  0  0  0  0  0  0
   -8.8001    1.3856    0.0000 C   0  0  0  0  0  0  0  0  0  0  0  0
   -9.5999   -0.0000    0.0000 H   0  0  0  0  0  0  0  0  0  0  0  0
   -7.2000    1.3856    0.0000 C   0  0  0  0  0  0  0  0  0  0  0  0
   -6.4000   -0.0000    0.0000 C   0  0  0  0  0  0  0  0  0  0  0  0
   -7.2000   -1.3856    0.0000 H   0  0  0  0  0  0  0  0  0  0  0  0
   -4.7999   -0.0000    0.0000 C   0  0  0  0  0  0  0  0  0  0  0  0
   -3.9999   -1.3856    0.0000 H   0  0  0  0  0  0  0  0  0  0  0  0
   -3.9999    1.3856    0.0000 C   0  0  0  0  0  0  0  0  0  0  0  0
   -2.4000    1.3856    0.0000 O   0  0  0  0  0  0  0  0  0  0  0  0
   -1.6000   -0.0000    0.0000 C   0  0  0  0  0  0  0  0  0  0  0  0
   -1.8087   -1.5863    0.0000 H   0  0  0  0  0  0  0  0  0  0  0  0
   -2.8694   -0.9740    0.0000 H   0  0  0  0  0  0  0  0  0  0  0  0
    0.0001   -0.0000    0.0000 C   0  0  0  0  0  0  0  0  0  0  0  0
    0.0001   -1.6000    0.0000 H   0  0  0  0  0  0  0  0  0  0  0  0
    1.5999   -0.0000    0.0000 C   0  0  0  0  0  0  0  0  0  0  0  0
    3.2000   -0.0000    0.0000 H   0  0  0  0  0  0  0  0  0  0  0  0
    2.4000    1.3856    0.0000 H   0  0  0  0  0  0  0  0  0  0  0  0
    2.4000   -1.3856    0.0000 H   0  0  0  0  0  0  0  0  0  0  0  0
    0.0001    1.6000    0.0000 C   0  0  0  0  0  0  0  0  0  0  0  0
    0.0001    3.2000    0.0000 H   0  0  0  0  0  0  0  0  0  0  0  0
   -1.3855    2.4000    0.0000 H   0  0  0  0  0  0  0  0  0  0  0  0
    1.3857    2.4000    0.0000 H   0  0  0  0  0  0  0  0  0  0  0  0
   -4.7999    2.7713    0.0000 C   0  0  0  0  0  0  0  0  0  0  0  0
   -4.0001    4.1569    0.0000 H   0  0  0  0  0  0  0  0  0  0  0  0
  1  2  1  0  0  0  0
  2  3  1  0  0  0  0
  2  4  2  0  0  0  0
  4  5  1  0  0  0  0
  4  6  1  0  0  0  0
  6  7  1  0  0  0  0
  6  8  2  0  0  0  0
  8  9  1  0  0  0  0
  8 10  1  0  0  0  0
 10  1  1  0  0  0  0
 10 11  2  0  0  0  0
 11 12  1  0  0  0  0
 11 13  1  0  0  0  0
 13 14  1  0  0  0  0
 13 15  2  0  0  0  0
 15 16  1  0  0  0  0
 16 17  1  0  0  0  0
 17 18  1  0  0  0  0
 17 19  1  0  0  0  0
 17 20  1  0  0  0  0
 20 21  1  0  0  0  0
 20 22  1  0  0  0  0
 22 23  1  0  0  0  0
 22 24  1  0  0  0  0
 22 25  1  0  0  0  0
 20 26  1  0  0  0  0
 26 27  1  0  0  0  0
 26 28  1  0  0  0  0
 26 29  1  0  0  0  0
 15 30  1  0  0  0  0
 30  1  2  0  0  0  0
 30 31  1  0  0  0  0
M  END
> <ChemID>
100331

> <source_casrn>
2173-57-1

> <CAS>
2173-57-1

> <SMILES>
CC(C)COc1cc2ccccc2cc1

> <NAME>
Naphthalene, 2-(2-methylpropoxy)-

> <preferred_name>
Isobutyl 2-naphthyl ether

> <iupac>
2-isobutoxynaphthalene

> <MPID>
101958

> <dsstox_substance_id>
DTXSID1051484

> <Canonical_QSARr>
CC(C)COc1cc2ccccc2cc1

> <InChI_Code_QSARr>
InChI=1S/C14H16O/c1-11(2)10-15-14-8-7-12-5-3-4-6-13(12)9-14/h3-9,11H,10H2,1-2H3

> <InChI Key_QSARr>
XOHIHZHSDMWWMS-UHFFFAOYSA-N

> <LogKmHL>
0.23

$$$$
100332
  -INDIGO-08031722222D

 36 36  0  0  0  0  0  0  0  0999 V2000
   -5.5425   -0.0000    0.0000 C   0  0  0  0  0  0  0  0  0  0  0  0
   -4.1569    0.8000    0.0000 C   0  0  0  0  0  0  0  0  0  0  0  0
   -3.5447    2.2782    0.0000 H   0  0  0  0  0  0  0  0  0  0  0  0
   -4.7692    2.2782    0.0000 H   0  0  0  0  0  0  0  0  0  0  0  0
   -2.7713   -0.0000    0.0000 C   0  0  0  0  0  0  0  0  0  0  0  0
   -3.3836   -1.4782    0.0000 H   0  0  0  0  0  0  0  0  0  0  0  0
   -2.1591   -1.4782    0.0000 H   0  0  0  0  0  0  0  0  0  0  0  0
   -1.3855    0.8000    0.0000 C   0  0  0  0  0  0  0  0  0  0  0  0
   -0.7733    2.2782    0.0000 H   0  0  0  0  0  0  0  0  0  0  0  0
   -1.9980    2.2782    0.0000 H   0  0  0  0  0  0  0  0  0  0  0  0
    0.0001   -0.0000    0.0000 C   0  0  0  0  0  0  0  0  0  0  0  0
   -0.6122   -1.4782    0.0000 H   0  0  0  0  0  0  0  0  0  0  0  0
    0.6123   -1.4782    0.0000 H   0  0  0  0  0  0  0  0  0  0  0  0
    1.3856    0.8000    0.0000 C   0  0  0  0  0  0  0  0  0  0  0  0
    1.9979    2.2782    0.0000 H   0  0  0  0  0  0  0  0  0  0  0  0
    0.7734    2.2782    0.0000 H   0  0  0  0  0  0  0  0  0  0  0  0
    2.7712   -0.0000    0.0000 C   0  0  0  0  0  0  0  0  0  0  0  0
    2.1590   -1.4782    0.0000 H   0  0  0  0  0  0  0  0  0  0  0  0
    3.3835   -1.4782    0.0000 H   0  0  0  0  0  0  0  0  0  0  0  0
    4.1570    0.8000    0.0000 C   0  0  0  0  0  0  0  0  0  0  0  0
    4.7693    2.2782    0.0000 H   0  0  0  0  0  0  0  0  0  0  0  0
    3.5446    2.2782    0.0000 H   0  0  0  0  0  0  0  0  0  0  0  0
    5.5426   -0.0000    0.0000 C   0  0  0  0  0  0  0  0  0  0  0  0
    6.9282   -0.8000    0.0000 H   0  0  0  0  0  0  0  0  0  0  0  0
    6.9282    0.8000    0.0000 H   0  0  0  0  0  0  0  0  0  0  0  0
    5.5426   -1.6000    0.0000 H   0  0  0  0  0  0  0  0  0  0  0  0
   -5.5425   -1.6000    0.0000 C   0  0  0  0  0  0  0  0  0  0  0  0
   -4.1569   -2.4000    0.0000 H   0  0  0  0  0  0  0  0  0  0  0  0
   -6.9281   -2.4000    0.0000 C   0  0  0  0  0  0  0  0  0  0  0  0
   -6.9281   -4.0000    0.0000 H   0  0  0  0  0  0  0  0  0  0  0  0
   -8.3139   -1.6000    0.0000 C   0  0  0  0  0  0  0  0  0  0  0  0
   -9.6995   -2.4000    0.0000 H   0  0  0  0  0  0  0  0  0  0  0  0
   -8.3139   -0.0000    0.0000 C   0  0  0  0  0  0  0  0  0  0  0  0
   -9.6995    0.8000    0.0000 H   0  0  0  0  0  0  0  0  0  0  0  0
   -6.9281    0.8000    0.0000 C   0  0  0  0  0  0  0  0  0  0  0  0
   -6.9281    2.4000    0.0000 H   0  0  0  0  0  0  0  0  0  0  0  0
  1  2  1  0  0  0  0
  2  3  1  0  0  0  0
  2  4  1  0  0  0  0
  2  5  1  0  0  0  0
  5  6  1  0  0  0  0
  5  7  1  0  0  0  0
  5  8  1  0  0  0  0
  8  9  1  0  0  0  0
  8 10  1  0  0  0  0
  8 11  1  0  0  0  0
 11 12  1  0  0  0  0
 11 13  1  0  0  0  0
 11 14  1  0  0  0  0
 14 15  1  0  0  0  0
 14 16  1  0  0  0  0
 14 17  1  0  0  0  0
 17 18  1  0  0  0  0
 17 19  1  0  0  0  0
 17 20  1  0  0  0  0
 20 21  1  0  0  0  0
 20 22  1  0  0  0  0
 20 23  1  0  0  0  0
 23 24  1  0  0  0  0
 23 25  1  0  0  0  0
 23 26  1  0  0  0  0
  1 27  1  0  0  0  0
 27 28  1  0  0  0  0
 27 29  2  0  0  0  0
 29 30  1  0  0  0  0
 29 31  1  0  0  0  0
 31 32  1  0  0  0  0
 31 33  2  0  0  0  0
 33 34  1  0  0  0  0
 33 35  1  0  0  0  0
 35  1  2  0  0  0  0
 35 36  1  0  0  0  0
M  END
> <ChemID>
100332

> <source_casrn>
2189-60-8

> <CAS>
2189-60-8

> <SMILES>
c(cccc1)(c1)CCCCCCCC

> <NAME>
n-octyl benzene

> <preferred_name>
Benzene, octyl-

> <iupac>
OCTYLBENZENE

> <MPID>
101959

> <dsstox_substance_id>
DTXSID2062240

> <Canonical_QSARr>
CCCCCCCCc1ccccc1

> <InChI_Code_QSARr>
InChI=1S/C14H22/c1-2-3-4-5-6-8-11-14-12-9-7-10-13-14/h7,9-10,12-13H,2-6,8,11H2,1H3

> <InChI Key_QSARr>
CDKDZKXSXLNROY-UHFFFAOYSA-N

> <LogKmHL>
0.22

$$$$
100334
  -INDIGO-08031722222D

 22 23  0  0  0  0  0  0  0  0999 V2000
    0.0000    0.0000    0.0000 C   0  0  0  0  0  0  0  0  0  0  0  0
    1.6000    0.0000    0.0000 C   0  0  0  0  0  0  0  0  0  0  0  0
    2.3999    1.3856    0.0000 O   0  0  0  0  0  0  0  0  0  0  0  0
    4.0001    1.3856    0.0000 C   0  0  0  0  0  0  0  0  0  0  0  0
    4.8000    2.7713    0.0000 H   0  0  0  0  0  0  0  0  0  0  0  0
    5.6000    1.3856    0.0000 H   0  0  0  0  0  0  0  0  0  0  0  0
    3.2001    2.7713    0.0000 H   0  0  0  0  0  0  0  0  0  0  0  0
    2.3999   -1.3856    0.0000 C   0  0  0  0  0  0  0  0  0  0  0  0
    4.0001   -1.3856    0.0000 H   0  0  0  0  0  0  0  0  0  0  0  0
    1.6000   -2.7713    0.0000 C   0  0  0  0  0  0  0  0  0  0  0  0
    2.3999   -4.1569    0.0000 H   0  0  0  0  0  0  0  0  0  0  0  0
    0.0000   -2.7713    0.0000 C   0  0  0  0  0  0  0  0  0  0  0  0
   -0.8000   -4.1569    0.0000 H   0  0  0  0  0  0  0  0  0  0  0  0
   -0.8000   -1.3856    0.0000 C   0  0  0  0  0  0  0  0  0  0  0  0
   -2.4001   -1.3856    0.0000 C   0  0  0  0  0  0  0  0  0  0  0  0
   -3.2000   -2.7713    0.0000 H   0  0  0  0  0  0  0  0  0  0  0  0
   -3.2000    0.0000    0.0000 C   0  0  0  0  0  0  0  0  0  0  0  0
   -4.8000    0.0000    0.0000 H   0  0  0  0  0  0  0  0  0  0  0  0
   -2.4001    1.3856    0.0000 C   0  0  0  0  0  0  0  0  0  0  0  0
   -3.2000    2.7713    0.0000 H   0  0  0  0  0  0  0  0  0  0  0  0
   -0.8000    1.3856    0.0000 C   0  0  0  0  0  0  0  0  0  0  0  0
    0.0000    2.7713    0.0000 H   0  0  0  0  0  0  0  0  0  0  0  0
  1  2  1  0  0  0  0
  2  3  1  0  0  0  0
  3  4  1  0  0  0  0
  4  5  1  0  0  0  0
  4  6  1  0  0  0  0
  4  7  1  0  0  0  0
  2  8  2  0  0  0  0
  8  9  1  0  0  0  0
  8 10  1  0  0  0  0
 10 11  1  0  0  0  0
 10 12  2  0  0  0  0
 12 13  1  0  0  0  0
 12 14  1  0  0  0  0
 14  1  1  0  0  0  0
 14 15  2  0  0  0  0
 15 16  1  0  0  0  0
 15 17  1  0  0  0  0
 17 18  1  0  0  0  0
 17 19  2  0  0  0  0
 19 20  1  0  0  0  0
 19 21  1  0  0  0  0
 21  1  2  0  0  0  0
 21 22  1  0  0  0  0
M  END
> <ChemID>
100334

> <source_casrn>
2216-69-5

> <CAS>
2216-69-5

> <SMILES>
COc1cccc2ccccc21

> <NAME>
Naphthalene, 1-methoxy-

> <preferred_name>
Naphthalene, 1-methoxy-

> <iupac>
1-Methoxynaphthalene

> <MPID>
101961

> <dsstox_substance_id>
DTXSID5062263

> <Canonical_QSARr>
COc1cccc2ccccc21

> <InChI_Code_QSARr>
InChI=1S/C11H10O/c1-12-11-8-4-6-9-5-2-3-7-10(9)11/h2-8H,1H3

> <InChI Key_QSARr>
NQMUGNMMFTYOHK-UHFFFAOYSA-N

> <LogKmHL>
0.39

$$$$
100336
  -INDIGO-08031722222D

 18 19  0  0  0  0  0  0  0  0999 V2000
    0.0001   -0.0000    0.0000 C   0  0  0  0  0  0  0  0  0  0  0  0
    1.3856    0.8000    0.0000 C   0  0  0  0  0  0  0  0  0  0  0  0
    1.3856    2.4000    0.0000 Cl  0  0  0  0  0  0  0  0  0  0  0  0
    2.7713   -0.0000    0.0000 C   0  0  0  0  0  0  0  0  0  0  0  0
    4.1569    0.8000    0.0000 Cl  0  0  0  0  0  0  0  0  0  0  0  0
    2.7713   -1.6000    0.0000 C   0  0  0  0  0  0  0  0  0  0  0  0
    4.1569   -2.4000    0.0000 Cl  0  0  0  0  0  0  0  0  0  0  0  0
    1.3856   -2.4000    0.0000 C   0  0  0  0  0  0  0  0  0  0  0  0
    1.3856   -4.0000    0.0000 Cl  0  0  0  0  0  0  0  0  0  0  0  0
    0.0001   -1.6000    0.0000 C   0  0  0  0  0  0  0  0  0  0  0  0
   -1.3856   -2.4000    0.0000 C   0  0  0  0  0  0  0  0  0  0  0  0
   -1.3856   -4.0000    0.0000 Cl  0  0  0  0  0  0  0  0  0  0  0  0
   -2.7712   -1.6000    0.0000 C   0  0  0  0  0  0  0  0  0  0  0  0
   -4.1569   -2.4000    0.0000 Cl  0  0  0  0  0  0  0  0  0  0  0  0
   -2.7712   -0.0000    0.0000 C   0  0  0  0  0  0  0  0  0  0  0  0
   -4.1569    0.8000    0.0000 Cl  0  0  0  0  0  0  0  0  0  0  0  0
   -1.3856    0.8000    0.0000 C   0  0  0  0  0  0  0  0  0  0  0  0
   -1.3856    2.4000    0.0000 Cl  0  0  0  0  0  0  0  0  0  0  0  0
  1  2  1  0  0  0  0
  2  3  1  0  0  0  0
  2  4  2  0  0  0  0
  4  5  1  0  0  0  0
  4  6  1  0  0  0  0
  6  7  1  0  0  0  0
  6  8  2  0  0  0  0
  8  9  1  0  0  0  0
  8 10  1  0  0  0  0
 10  1  1  0  0  0  0
 10 11  2  0  0  0  0
 11 12  1  0  0  0  0
 11 13  1  0  0  0  0
 13 14  1  0  0  0  0
 13 15  2  0  0  0  0
 15 16  1  0  0  0  0
 15 17  1  0  0  0  0
 17  1  2  0  0  0  0
 17 18  1  0  0  0  0
M  END
> <ChemID>
100336

> <source_casrn>
2234-13-1

> <CAS>
2234-13-1

> <SMILES>
Clc1c2c(c(Cl)c(Cl)c1Cl)c(Cl)c(Cl)c(Cl)c2Cl

> <NAME>
Octachloronaphthalene

> <preferred_name>
Octachloronaphthalene

> <iupac>
octachloronaphthalene

> <MPID>
101962

> <dsstox_substance_id>
DTXSID6025800

> <Canonical_QSARr>
Clc1c2c(c(Cl)c(Cl)c1Cl)c(Cl)c(Cl)c(Cl)c2Cl

> <InChI_Code_QSARr>
InChI=1S/C10Cl8/c11-3-1-2(5(13)9(17)7(3)15)6(14)10(18)8(16)4(1)12

> <InChI Key_QSARr>
RTNLUFLDZOAXIC-UHFFFAOYSA-N

> <LogKmHL>
1.62

$$$$
100337
  -INDIGO-08031722222D

 22 23  0  0  0  0  0  0  0  0999 V2000
    3.2001    2.7713    0.0000 N   0  0  0  0  0  0  0  0  0  0  0  0
    4.8000    2.7713    0.0000 H   0  0  0  0  0  0  0  0  0  0  0  0
    2.4000    4.1569    0.0000 H   0  0  0  0  0  0  0  0  0  0  0  0
    2.4000    1.3856    0.0000 C   0  0  0  0  0  0  0  0  0  0  0  0
    0.8000    1.3856    0.0000 C   0  0  0  0  0  0  0  0  0  0  0  0
    0.0000    0.0000    0.0000 C   0  0  0  0  0  0  0  0  0  0  0  0
   -1.6000    0.0000    0.0000 C   0  0  0  0  0  0  0  0  0  0  0  0
   -2.4001    1.3856    0.0000 C   0  0  0  0  0  0  0  0  0  0  0  0
   -4.0000    1.3856    0.0000 H   0  0  0  0  0  0  0  0  0  0  0  0
   -1.6000    2.7713    0.0000 C   0  0  0  0  0  0  0  0  0  0  0  0
   -2.4001    4.1569    0.0000 H   0  0  0  0  0  0  0  0  0  0  0  0
    0.0000    2.7713    0.0000 C   0  0  0  0  0  0  0  0  0  0  0  0
    0.8000    4.1569    0.0000 H   0  0  0  0  0  0  0  0  0  0  0  0
   -2.4001   -1.3856    0.0000 N   0  0  0  0  0  0  0  0  0  0  0  0
   -4.0000   -1.3856    0.0000 H   0  0  0  0  0  0  0  0  0  0  0  0
   -1.6000   -2.7713    0.0000 H   0  0  0  0  0  0  0  0  0  0  0  0
    0.8000   -1.3856    0.0000 C   0  0  0  0  0  0  0  0  0  0  0  0
    0.0000   -2.7713    0.0000 H   0  0  0  0  0  0  0  0  0  0  0  0
    2.4000   -1.3856    0.0000 C   0  0  0  0  0  0  0  0  0  0  0  0
    3.2001   -2.7713    0.0000 H   0  0  0  0  0  0  0  0  0  0  0  0
    3.2001    0.0000    0.0000 C   0  0  0  0  0  0  0  0  0  0  0  0
    4.8000    0.0000    0.0000 H   0  0  0  0  0  0  0  0  0  0  0  0
  1  2  1  0  0  0  0
  1  3  1  0  0  0  0
  1  4  1  0  0  0  0
  4  5  1  0  0  0  0
  5  6  1  0  0  0  0
  6  7  2  0  0  0  0
  7  8  1  0  0  0  0
  8  9  1  0  0  0  0
  8 10  2  0  0  0  0
 10 11  1  0  0  0  0
 10 12  1  0  0  0  0
 12  5  2  0  0  0  0
 12 13  1  0  0  0  0
  7 14  1  0  0  0  0
 14 15  1  0  0  0  0
 14 16  1  0  0  0  0
  6 17  1  0  0  0  0
 17 18  1  0  0  0  0
 17 19  2  0  0  0  0
 19 20  1  0  0  0  0
 19 21  1  0  0  0  0
 21  4  2  0  0  0  0
 21 22  1  0  0  0  0
M  END
> <ChemID>
100337

> <source_casrn>
2243-62-1

> <CAS>
2243-62-1

> <SMILES>
Nc1cccc2c1cccc2N

> <NAME>
1,5-diaminonaphthalene

> <preferred_name>
1,5-Naphthalenediamine

> <iupac>
naphthalene-1,5-diamine

> <MPID>
101963

> <dsstox_substance_id>
DTXSID3020916

> <Canonical_QSARr>
Nc1cccc2c1cccc2N

> <InChI_Code_QSARr>
InChI=1S/C10H10N2/c11-9-5-1-3-7-8(9)4-2-6-10(7)12/h1-6H,11-12H2

> <InChI Key_QSARr>
KQSABULTKYLFEV-UHFFFAOYSA-N

> <LogKmHL>
-0.52

$$$$
100339
  -INDIGO-08031722222D

 29 32  0  0  0  0  0  0  0  0999 V2000
    4.1569   -0.8000    0.0000 C   0  0  0  0  0  0  0  0  0  0  0  0
    5.5426   -1.6000    0.0000 H   0  0  0  0  0  0  0  0  0  0  0  0
    5.5426   -0.0000    0.0000 H   0  0  0  0  0  0  0  0  0  0  0  0
    4.1569   -2.4000    0.0000 H   0  0  0  0  0  0  0  0  0  0  0  0
    2.7712   -0.0000    0.0000 C   0  0  0  0  0  0  0  0  0  0  0  0
    2.7712    1.6000    0.0000 C   0  0  0  0  0  0  0  0  0  0  0  0
    4.1569    2.4001    0.0000 H   0  0  0  0  0  0  0  0  0  0  0  0
    1.3856    2.4001    0.0000 C   0  0  0  0  0  0  0  0  0  0  0  0
    1.3856    4.0000    0.0000 H   0  0  0  0  0  0  0  0  0  0  0  0
   -0.0001    1.6000    0.0000 C   0  0  0  0  0  0  0  0  0  0  0  0
    0.0001   -0.0000    0.0000 C   0  0  0  0  0  0  0  0  0  0  0  0
   -1.3856   -0.8000    0.0000 C   0  0  0  0  0  0  0  0  0  0  0  0
   -2.7712   -0.0000    0.0000 C   0  0  0  0  0  0  0  0  0  0  0  0
   -2.7712    1.6000    0.0000 C   0  0  0  0  0  0  0  0  0  0  0  0
   -4.1569    2.4001    0.0000 H   0  0  0  0  0  0  0  0  0  0  0  0
   -1.3856    2.4001    0.0000 C   0  0  0  0  0  0  0  0  0  0  0  0
   -1.3856    4.0000    0.0000 H   0  0  0  0  0  0  0  0  0  0  0  0
   -4.1569   -0.8000    0.0000 C   0  0  0  0  0  0  0  0  0  0  0  0
   -5.5426   -0.0000    0.0000 H   0  0  0  0  0  0  0  0  0  0  0  0
   -4.1569   -2.4000    0.0000 C   0  0  0  0  0  0  0  0  0  0  0  0
   -5.5426   -3.2001    0.0000 H   0  0  0  0  0  0  0  0  0  0  0  0
   -2.7712   -3.2001    0.0000 C   0  0  0  0  0  0  0  0  0  0  0  0
   -2.7712   -4.8000    0.0000 H   0  0  0  0  0  0  0  0  0  0  0  0
   -1.3856   -2.4000    0.0000 C   0  0  0  0  0  0  0  0  0  0  0  0
    0.0001   -3.2001    0.0000 C   0  0  0  0  0  0  0  0  0  0  0  0
    0.0001   -4.8000    0.0000 H   0  0  0  0  0  0  0  0  0  0  0  0
    1.3856   -2.4000    0.0000 C   0  0  0  0  0  0  0  0  0  0  0  0
    2.7712   -3.2001    0.0000 H   0  0  0  0  0  0  0  0  0  0  0  0
    1.3856   -0.8000    0.0000 C   0  0  0  0  0  0  0  0  0  0  0  0
  1  2  1  0  0  0  0
  1  3  1  0  0  0  0
  1  4  1  0  0  0  0
  1  5  1  0  0  0  0
  5  6  2  0  0  0  0
  6  7  1  0  0  0  0
  6  8  1  0  0  0  0
  8  9  1  0  0  0  0
  8 10  2  0  0  0  0
 10 11  1  0  0  0  0
 11 12  1  0  0  0  0
 12 13  1  0  0  0  0
 13 14  1  0  0  0  0
 14 15  1  0  0  0  0
 14 16  2  0  0  0  0
 16 10  1  0  0  0  0
 16 17  1  0  0  0  0
 13 18  2  0  0  0  0
 18 19  1  0  0  0  0
 18 20  1  0  0  0  0
 20 21  1  0  0  0  0
 20 22  2  0  0  0  0
 22 23  1  0  0  0  0
 22 24  1  0  0  0  0
 24 12  2  0  0  0  0
 24 25  1  0  0  0  0
 25 26  1  0  0  0  0
 25 27  2  0  0  0  0
 27 28  1  0  0  0  0
 27 29  1  0  0  0  0
 29  5  1  0  0  0  0
 29 11  2  0  0  0  0
M  END
> <ChemID>
100339

> <source_casrn>
2381-21-7

> <CAS>
2381-21-7

> <SMILES>
Cc1ccc2ccc3cccc4ccc1c2c34

> <NAME>
1-methylpyrene

> <preferred_name>
1-Methylpyrene

> <iupac>
1-methylpyrene

> <MPID>
101965

> <dsstox_substance_id>
DTXSID0025654

> <Canonical_QSARr>
Cc1ccc2ccc3cccc4ccc1c2c34

> <InChI_Code_QSARr>
InChI=1S/C17H12/c1-11-5-6-14-8-7-12-3-2-4-13-9-10-15(11)17(14)16(12)13/h2-10H,1H3

> <InChI Key_QSARr>
KBSPJIWZDWBDGM-UHFFFAOYSA-N

> <LogKmHL>
0.11

$$$$
100340
  -INDIGO-08031722222D

 22 26  0  0  0  0  0  0  0  0999 V2000
   -0.0000    0.0000    0.0000 C   0  0  0  0  0  0  0  0  0  0  0  0
   -1.5913    0.1672    0.0000 C   0  0  0  0  0  0  0  0  0  0  0  0
   -2.9769   -0.6328    0.0000 C   0  0  0  0  0  0  0  0  0  0  0  0
   -2.6442   -2.1978    0.0000 C   0  0  0  0  0  0  0  0  0  0  0  0
   -3.7148   -3.3868    0.0000 Cl  0  0  0  0  0  0  0  0  0  0  0  0
    1.9239   -1.7322    0.0000 C   0  0  0  0  0  0  0  0  0  0  0  0
    0.3327   -1.5650    0.0000 C   0  0  0  0  0  0  0  0  0  0  0  0
   -0.3516   -0.9270    0.0000 Cl  0  0  0  0  0  0  0  0  0  0  0  0
   -1.0530   -2.3650    0.0000 C   0  0  0  0  0  0  0  0  0  0  0  0
   -1.1832   -1.4386    0.0000 Cl  0  0  0  0  0  0  0  0  0  0  0  0
   -2.2420   -1.2944    0.0000 C   0  0  0  0  0  0  0  0  0  0  0  0
   -3.8177   -1.0166    0.0000 Cl  0  0  0  0  0  0  0  0  0  0  0  0
   -3.5685   -2.1891    0.0000 Cl  0  0  0  0  0  0  0  0  0  0  0  0
    2.8623   -3.0282    0.0000 Cl  0  0  0  0  0  0  0  0  0  0  0  0
    2.5747   -0.2706    0.0000 C   0  0  0  0  0  0  0  0  0  0  0  0
    3.9603   -1.0706    0.0000 Cl  0  0  0  0  0  0  0  0  0  0  0  0
    3.5151    1.0238    0.0000 Cl  0  0  0  0  0  0  0  0  0  0  0  0
    1.3856    0.8000    0.0000 C   0  0  0  0  0  0  0  0  0  0  0  0
    1.7159    2.3656    0.0000 Cl  0  0  0  0  0  0  0  0  0  0  0  0
   -4.4385    0.0180    0.0000 Cl  0  0  0  0  0  0  0  0  0  0  0  0
   -1.9240    1.7323    0.0000 Cl  0  0  0  0  0  0  0  0  0  0  0  0
    1.4616   -0.6508    0.0000 Cl  0  0  0  0  0  0  0  0  0  0  0  0
  1  2  1  0  0  0  0
  2  3  1  0  0  0  0
  3  4  1  0  0  0  0
  4  5  1  0  0  0  0
  4  6  1  0  0  0  0
  6  7  1  0  0  0  0
  7  1  1  0  0  0  0
  7  8  1  0  0  0  0
  7  9  1  0  0  0  0
  9  4  1  0  0  0  0
  9 10  1  0  0  0  0
  9 11  1  0  0  0  0
 11  2  1  0  0  0  0
 11 12  1  0  0  0  0
 11 13  1  0  0  0  0
  6 14  1  0  0  0  0
  6 15  1  0  0  0  0
 15 16  1  0  0  0  0
 15 17  1  0  0  0  0
 15 18  1  0  0  0  0
 18  1  1  0  0  0  0
 18  3  1  0  0  0  0
 18 19  1  0  0  0  0
  3 20  1  0  0  0  0
  2 21  1  0  0  0  0
  1 22  1  0  0  0  0
M  END
> <ChemID>
100340

> <source_casrn>
2385-85-5

> <CAS>
2385-85-5

> <SMILES>
ClC1(Cl)C2(Cl)C3(Cl)C4(Cl)C2(Cl)C2(Cl)C(Cl)(C3(Cl)C12Cl)C4(Cl)Cl

> <NAME>
Mirex

> <preferred_name>
Mirex

> <iupac>
C10Cl12

> <MPID>
101966

> <dsstox_substance_id>
DTXSID7020895

> <Canonical_QSARr>
ClC1(Cl)C2(Cl)C3(Cl)C4(Cl)C2(Cl)C2(Cl)C(Cl)(C3(Cl)C12Cl)C4(Cl)Cl

> <InChI_Code_QSARr>
InChI=1S/C10Cl12/c11-1-2(12)7(17)4(14)3(13,5(1,15)9(7,19)20)6(1,16)10(21,22)8(2,4)18

> <InChI Key_QSARr>
GVYLCNUFSHDAAW-UHFFFAOYSA-N

> <LogKmHL>
1.8

$$$$
100341
  -INDIGO-08031722222D

 39 38  0  0  0  0  0  0  0  0999 V2000
    9.6995    0.8000    0.0000 C   0  0  0  0  0  0  0  0  0  0  0  0
   11.0851    0.0000    0.0000 H   0  0  0  0  0  0  0  0  0  0  0  0
    9.6995    2.4000    0.0000 H   0  0  0  0  0  0  0  0  0  0  0  0
    8.3139    0.0000    0.0000 C   0  0  0  0  0  0  0  0  0  0  0  0
    8.3139   -1.6000    0.0000 H   0  0  0  0  0  0  0  0  0  0  0  0
    6.9283    0.8000    0.0000 C   0  0  0  0  0  0  0  0  0  0  0  0
    6.3158    2.2782    0.0000 H   0  0  0  0  0  0  0  0  0  0  0  0
    7.5404    2.2782    0.0000 H   0  0  0  0  0  0  0  0  0  0  0  0
    5.5426    0.0000    0.0000 C   0  0  0  0  0  0  0  0  0  0  0  0
    6.1548   -1.4782    0.0000 H   0  0  0  0  0  0  0  0  0  0  0  0
    4.9302   -1.4782    0.0000 H   0  0  0  0  0  0  0  0  0  0  0  0
    4.1570    0.8000    0.0000 C   0  0  0  0  0  0  0  0  0  0  0  0
    3.5446    2.2782    0.0000 H   0  0  0  0  0  0  0  0  0  0  0  0
    4.7692    2.2782    0.0000 H   0  0  0  0  0  0  0  0  0  0  0  0
    2.7714    0.0000    0.0000 C   0  0  0  0  0  0  0  0  0  0  0  0
    3.3836   -1.4782    0.0000 H   0  0  0  0  0  0  0  0  0  0  0  0
    2.1590   -1.4782    0.0000 H   0  0  0  0  0  0  0  0  0  0  0  0
    1.3858    0.8000    0.0000 C   0  0  0  0  0  0  0  0  0  0  0  0
    0.7733    2.2782    0.0000 H   0  0  0  0  0  0  0  0  0  0  0  0
    1.9979    2.2782    0.0000 H   0  0  0  0  0  0  0  0  0  0  0  0
   -0.0001    0.0000    0.0000 C   0  0  0  0  0  0  0  0  0  0  0  0
    0.6123   -1.4782    0.0000 H   0  0  0  0  0  0  0  0  0  0  0  0
   -0.6123   -1.4782    0.0000 H   0  0  0  0  0  0  0  0  0  0  0  0
   -1.3857    0.8000    0.0000 C   0  0  0  0  0  0  0  0  0  0  0  0
   -1.9979    2.2782    0.0000 H   0  0  0  0  0  0  0  0  0  0  0  0
   -0.7733    2.2782    0.0000 H   0  0  0  0  0  0  0  0  0  0  0  0
   -2.7714    0.0000    0.0000 C   0  0  0  0  0  0  0  0  0  0  0  0
   -2.1589   -1.4782    0.0000 H   0  0  0  0  0  0  0  0  0  0  0  0
   -3.3835   -1.4782    0.0000 H   0  0  0  0  0  0  0  0  0  0  0  0
   -4.1570    0.8000    0.0000 C   0  0  0  0  0  0  0  0  0  0  0  0
   -4.7691    2.2782    0.0000 H   0  0  0  0  0  0  0  0  0  0  0  0
   -3.5445    2.2782    0.0000 H   0  0  0  0  0  0  0  0  0  0  0  0
   -5.5426    0.0000    0.0000 C   0  0  0  0  0  0  0  0  0  0  0  0
   -4.9302   -1.4782    0.0000 H   0  0  0  0  0  0  0  0  0  0  0  0
   -6.1548   -1.4782    0.0000 H   0  0  0  0  0  0  0  0  0  0  0  0
   -6.9282    0.8000    0.0000 C   0  0  0  0  0  0  0  0  0  0  0  0
   -8.3138    1.6000    0.0000 H   0  0  0  0  0  0  0  0  0  0  0  0
   -8.3138    0.0000    0.0000 H   0  0  0  0  0  0  0  0  0  0  0  0
   -6.9282    2.4000    0.0000 H   0  0  0  0  0  0  0  0  0  0  0  0
  1  2  1  0  0  0  0
  1  3  1  0  0  0  0
  1  4  2  0  0  0  0
  4  5  1  0  0  0  0
  4  6  1  0  0  0  0
  6  7  1  0  0  0  0
  6  8  1  0  0  0  0
  6  9  1  0  0  0  0
  9 10  1  0  0  0  0
  9 11  1  0  0  0  0
  9 12  1  0  0  0  0
 12 13  1  0  0  0  0
 12 14  1  0  0  0  0
 12 15  1  0  0  0  0
 15 16  1  0  0  0  0
 15 17  1  0  0  0  0
 15 18  1  0  0  0  0
 18 19  1  0  0  0  0
 18 20  1  0  0  0  0
 18 21  1  0  0  0  0
 21 22  1  0  0  0  0
 21 23  1  0  0  0  0
 21 24  1  0  0  0  0
 24 25  1  0  0  0  0
 24 26  1  0  0  0  0
 24 27  1  0  0  0  0
 27 28  1  0  0  0  0
 27 29  1  0  0  0  0
 27 30  1  0  0  0  0
 30 31  1  0  0  0  0
 30 32  1  0  0  0  0
 30 33  1  0  0  0  0
 33 34  1  0  0  0  0
 33 35  1  0  0  0  0
 33 36  1  0  0  0  0
 36 37  1  0  0  0  0
 36 38  1  0  0  0  0
 36 39  1  0  0  0  0
M  END
> <ChemID>
100341

> <source_casrn>
2437-56-1

> <CAS>
2437-56-1

> <SMILES>
CCCCCCCCCCCC=C

> <NAME>
1-tridecene

> <preferred_name>
1-Tridecene

> <iupac>
tridec-1-ene

> <MPID>
101967

> <dsstox_substance_id>
DTXSID3029235

> <Canonical_QSARr>
CCCCCCCCCCCC=C

> <InChI_Code_QSARr>
InChI=1S/C13H26/c1-3-5-7-9-11-13-12-10-8-6-4-2/h3H,1,4-13H2,2H3

> <InChI Key_QSARr>
VQOXUMQBYILCKR-UHFFFAOYSA-N

> <LogKmHL>
0.73

$$$$
100343
  -INDIGO-08031722222D

 26 26  0  0  0  0  0  0  0  0999 V2000
   -6.9281    2.4000    0.0000 N   0  0  0  0  0  0  0  0  0  0  0  0
   -5.5426    1.6000    0.0000 C   0  0  0  0  0  0  0  0  0  0  0  0
   -4.1569    2.4000    0.0000 C   0  0  0  0  0  0  0  0  0  0  0  0
   -4.1569    4.0000    0.0000 H   0  0  0  0  0  0  0  0  0  0  0  0
   -2.7712    1.6000    0.0000 C   0  0  0  0  0  0  0  0  0  0  0  0
   -1.3857    2.4000    0.0000 Cl  0  0  0  0  0  0  0  0  0  0  0  0
   -2.7712    0.0000    0.0000 C   0  0  0  0  0  0  0  0  0  0  0  0
   -1.3857   -0.8000    0.0000 O   0  0  0  0  0  0  0  0  0  0  0  0
    0.0000    0.0000    0.0000 P   0  0  0  0  0  0  0  0  0  0  0  0
    0.0000   -1.6000    0.0000 S   0  0  0  0  0  0  0  0  0  0  0  0
    1.3857   -0.8000    0.0000 O   0  0  0  0  0  0  0  0  0  0  0  0
    2.7712    0.0000    0.0000 C   0  0  0  0  0  0  0  0  0  0  0  0
    4.1569   -0.8000    0.0000 H   0  0  0  0  0  0  0  0  0  0  0  0
    4.1569    0.8000    0.0000 H   0  0  0  0  0  0  0  0  0  0  0  0
    2.7712   -1.6000    0.0000 H   0  0  0  0  0  0  0  0  0  0  0  0
    1.3857    0.8000    0.0000 O   0  0  0  0  0  0  0  0  0  0  0  0
    1.3857    2.4000    0.0000 C   0  0  0  0  0  0  0  0  0  0  0  0
    1.3857    4.0000    0.0000 H   0  0  0  0  0  0  0  0  0  0  0  0
    2.7712    3.2000    0.0000 H   0  0  0  0  0  0  0  0  0  0  0  0
    0.0000    3.2000    0.0000 H   0  0  0  0  0  0  0  0  0  0  0  0
   -4.1569   -0.8000    0.0000 C   0  0  0  0  0  0  0  0  0  0  0  0
   -4.1569   -2.4000    0.0000 H   0  0  0  0  0  0  0  0  0  0  0  0
   -5.5426    0.0000    0.0000 C   0  0  0  0  0  0  0  0  0  0  0  0
   -6.9281   -0.8000    0.0000 H   0  0  0  0  0  0  0  0  0  0  0  0
   -8.3138    1.6000    0.0000 O   0  0  0  0  0  0  0  0  0  0  0  0
   -6.9281    4.0000    0.0000 O   0  0  0  0  0  0  0  0  0  0  0  0
  1  2  1  0  0  0  0
  2  3  1  0  0  0  0
  3  4  1  0  0  0  0
  3  5  2  0  0  0  0
  5  6  1  0  0  0  0
  5  7  1  0  0  0  0
  7  8  1  0  0  0  0
  8  9  1  0  0  0  0
  9 10  2  0  0  0  0
  9 11  1  0  0  0  0
 11 12  1  0  0  0  0
 12 13  1  0  0  0  0
 12 14  1  0  0  0  0
 12 15  1  0  0  0  0
  9 16  1  0  0  0  0
 16 17  1  0  0  0  0
 17 18  1  0  0  0  0
 17 19  1  0  0  0  0
 17 20  1  0  0  0  0
  7 21  2  0  0  0  0
 21 22  1  0  0  0  0
 21 23  1  0  0  0  0
 23  2  2  0  0  0  0
 23 24  1  0  0  0  0
  1 25  1  0  0  0  0
  1 26  2  0  0  0  0
M  CHG  2   1   1  25  -1
M  END
> <ChemID>
100343

> <source_casrn>
2463-84-5

> <CAS>
2463-84-5

> <SMILES>
COP(=S)(Oc1ccc(cc1Cl)[N+]([O-])=O)OC

> <NAME>
Dicapthon

> <preferred_name>
Dicapthon

> <iupac>
O-(2-chloro-4-nitrophenyl) O,O-dimethyl phosphorothioate

> <MPID>
101969

> <dsstox_substance_id>
DTXSID0041850

> <Canonical_QSARr>
COP(=S)(Oc1ccc(cc1Cl)[N+]([O-])=O)OC

> <InChI_Code_QSARr>
InChI=1S/C8H9ClNO5PS/c1-13-16(17,14-2)15-8-4-3-6(10(11)12)5-7(8)9/h3-5H,1-2H3

> <InChI Key_QSARr>
OTKXWJHPGBRXCR-UHFFFAOYSA-N

> <LogKmHL>
0.01

$$$$
100344
  -INDIGO-08031722222D

 35 34  0  0  0  0  0  0  0  0999 V2000
    5.5427   -0.0001    0.0000 P   0  0  0  0  0  0  0  0  0  0  0  0
    5.5427    1.6000    0.0000 S   0  0  0  0  0  0  0  0  0  0  0  0
    4.1569   -0.8000    0.0000 S   0  0  0  0  0  0  0  0  0  0  0  0
    2.7714   -0.0001    0.0000 C   0  0  0  0  0  0  0  0  0  0  0  0
    2.1591    1.4783    0.0000 H   0  0  0  0  0  0  0  0  0  0  0  0
    3.3835    1.4783    0.0000 H   0  0  0  0  0  0  0  0  0  0  0  0
    1.3856   -0.8000    0.0000 C   0  0  0  0  0  0  0  0  0  0  0  0
    1.9980   -2.2782    0.0000 H   0  0  0  0  0  0  0  0  0  0  0  0
    0.7733   -2.2782    0.0000 H   0  0  0  0  0  0  0  0  0  0  0  0
    0.0001   -0.0001    0.0000 S   0  0  0  0  0  0  0  0  0  0  0  0
   -1.3856    0.8000    0.0000 C   0  0  0  0  0  0  0  0  0  0  0  0
   -1.9980    2.2782    0.0000 H   0  0  0  0  0  0  0  0  0  0  0  0
   -0.7733    2.2782    0.0000 H   0  0  0  0  0  0  0  0  0  0  0  0
   -2.7712   -0.0001    0.0000 C   0  0  0  0  0  0  0  0  0  0  0  0
   -4.1569   -0.8000    0.0000 H   0  0  0  0  0  0  0  0  0  0  0  0
   -4.1569    0.8000    0.0000 H   0  0  0  0  0  0  0  0  0  0  0  0
   -2.7712   -1.6000    0.0000 H   0  0  0  0  0  0  0  0  0  0  0  0
    0.8000    1.3857    0.0000 O   0  0  0  0  0  0  0  0  0  0  0  0
   -0.8000   -1.3857    0.0000 O   0  0  0  0  0  0  0  0  0  0  0  0
    6.9282    0.8000    0.0000 O   0  0  0  0  0  0  0  0  0  0  0  0
    6.9282    2.4000    0.0000 C   0  0  0  0  0  0  0  0  0  0  0  0
    5.3418    2.6089    0.0000 H   0  0  0  0  0  0  0  0  0  0  0  0
    5.9541    3.6694    0.0000 H   0  0  0  0  0  0  0  0  0  0  0  0
    8.3139    3.2001    0.0000 C   0  0  0  0  0  0  0  0  0  0  0  0
    9.6995    4.0000    0.0000 H   0  0  0  0  0  0  0  0  0  0  0  0
    8.3139    4.8000    0.0000 H   0  0  0  0  0  0  0  0  0  0  0  0
    9.6995    2.4000    0.0000 H   0  0  0  0  0  0  0  0  0  0  0  0
    6.9282   -0.8000    0.0000 O   0  0  0  0  0  0  0  0  0  0  0  0
    6.9282   -2.4000    0.0000 C   0  0  0  0  0  0  0  0  0  0  0  0
    5.9541   -3.6694    0.0000 H   0  0  0  0  0  0  0  0  0  0  0  0
    5.3418   -2.6089    0.0000 H   0  0  0  0  0  0  0  0  0  0  0  0
    8.3139   -3.1999    0.0000 C   0  0  0  0  0  0  0  0  0  0  0  0
    9.6995   -4.0000    0.0000 H   0  0  0  0  0  0  0  0  0  0  0  0
    8.3139   -4.8000    0.0000 H   0  0  0  0  0  0  0  0  0  0  0  0
    9.6995   -2.4000    0.0000 H   0  0  0  0  0  0  0  0  0  0  0  0
  1  2  2  0  0  0  0
  1  3  1  0  0  0  0
  3  4  1  0  0  0  0
  4  5  1  0  0  0  0
  4  6  1  0  0  0  0
  4  7  1  0  0  0  0
  7  8  1  0  0  0  0
  7  9  1  0  0  0  0
  7 10  1  0  0  0  0
 10 11  1  0  0  0  0
 11 12  1  0  0  0  0
 11 13  1  0  0  0  0
 11 14  1  0  0  0  0
 14 15  1  0  0  0  0
 14 16  1  0  0  0  0
 14 17  1  0  0  0  0
 10 18  2  0  0  0  0
 10 19  2  0  0  0  0
  1 20  1  0  0  0  0
 20 21  1  0  0  0  0
 21 22  1  0  0  0  0
 21 23  1  0  0  0  0
 21 24  1  0  0  0  0
 24 25  1  0  0  0  0
 24 26  1  0  0  0  0
 24 27  1  0  0  0  0
  1 28  1  0  0  0  0
 28 29  1  0  0  0  0
 29 30  1  0  0  0  0
 29 31  1  0  0  0  0
 29 32  1  0  0  0  0
 32 33  1  0  0  0  0
 32 34  1  0  0  0  0
 32 35  1  0  0  0  0
M  END
> <ChemID>
100344

> <source_casrn>
2497-06-5

> <CAS>
2497-06-5

> <SMILES>
CCS(=O)(=O)CCSP(=S)(OCC)OCC

> <NAME>
Disulfoton sulfone

> <preferred_name>
Disulfoton sulfone

> <iupac>
O,O-diethyl S-[2-(ethylsulfonyl)ethyl] phosphorodithioate

> <MPID>
101970

> <dsstox_substance_id>
DTXSID8041901

> <Canonical_QSARr>
CCS(=O)(=O)CCSP(=S)(OCC)OCC

> <InChI_Code_QSARr>
InChI=1S/C8H19O4PS3/c1-4-11-13(14,12-5-2)15-7-8-16(9,10)6-3/h4-8H2,1-3H3

> <InChI Key_QSARr>
BKVJOVPVLOJPKJ-UHFFFAOYSA-N

> <LogKmHL>
-0.67

$$$$
100345
  -INDIGO-08031722222D

 30 33  0  0  0  0  0  0  0  0999 V2000
   -2.4000    1.3856    0.0000 C   0  0  0  0  0  0  0  0  0  0  0  0
   -3.2000    2.7713    0.0000 C   0  0  0  0  0  0  0  0  0  0  0  0
   -2.4000    4.1569    0.0000 H   0  0  0  0  0  0  0  0  0  0  0  0
   -4.8000    2.7712    0.0000 C   0  0  0  0  0  0  0  0  0  0  0  0
   -5.6000    4.1569    0.0000 H   0  0  0  0  0  0  0  0  0  0  0  0
   -5.6000    1.3856    0.0000 C   0  0  0  0  0  0  0  0  0  0  0  0
   -7.2000    1.3856    0.0000 H   0  0  0  0  0  0  0  0  0  0  0  0
   -4.8000    0.0001    0.0000 C   0  0  0  0  0  0  0  0  0  0  0  0
   -5.6000   -1.3856    0.0000 H   0  0  0  0  0  0  0  0  0  0  0  0
   -3.2000   -0.0001    0.0000 C   0  0  0  0  0  0  0  0  0  0  0  0
   -2.4000   -1.3856    0.0000 C   0  0  0  0  0  0  0  0  0  0  0  0
   -3.2000   -2.7713    0.0000 O   0  0  0  0  0  0  0  0  0  0  0  0
   -0.8000   -1.3856    0.0000 C   0  0  0  0  0  0  0  0  0  0  0  0
    0.0000    0.0001    0.0000 C   0  0  0  0  0  0  0  0  0  0  0  0
    1.6000   -0.0001    0.0000 C   0  0  0  0  0  0  0  0  0  0  0  0
    2.4000   -1.3856    0.0000 C   0  0  0  0  0  0  0  0  0  0  0  0
    1.6000   -2.7712    0.0000 C   0  0  0  0  0  0  0  0  0  0  0  0
    2.4000   -4.1569    0.0000 H   0  0  0  0  0  0  0  0  0  0  0  0
    0.0000   -2.7712    0.0000 C   0  0  0  0  0  0  0  0  0  0  0  0
   -0.8000   -4.1569    0.0000 H   0  0  0  0  0  0  0  0  0  0  0  0
    4.0000   -1.3856    0.0000 C   0  0  0  0  0  0  0  0  0  0  0  0
    4.8000   -2.7713    0.0000 H   0  0  0  0  0  0  0  0  0  0  0  0
    4.8000   -0.0001    0.0000 C   0  0  0  0  0  0  0  0  0  0  0  0
    6.4000   -0.0001    0.0000 H   0  0  0  0  0  0  0  0  0  0  0  0
    4.0000    1.3856    0.0000 C   0  0  0  0  0  0  0  0  0  0  0  0
    4.8000    2.7712    0.0000 H   0  0  0  0  0  0  0  0  0  0  0  0
    2.4000    1.3856    0.0000 C   0  0  0  0  0  0  0  0  0  0  0  0
    1.6000    2.7712    0.0000 H   0  0  0  0  0  0  0  0  0  0  0  0
   -0.8000    1.3856    0.0000 C   0  0  0  0  0  0  0  0  0  0  0  0
    0.0000    2.7713    0.0000 O   0  0  0  0  0  0  0  0  0  0  0  0
  1  2  1  0  0  0  0
  2  3  1  0  0  0  0
  2  4  2  0  0  0  0
  4  5  1  0  0  0  0
  4  6  1  0  0  0  0
  6  7  1  0  0  0  0
  6  8  2  0  0  0  0
  8  9  1  0  0  0  0
  8 10  1  0  0  0  0
 10  1  2  0  0  0  0
 10 11  1  0  0  0  0
 11 12  2  0  0  0  0
 11 13  1  0  0  0  0
 13 14  1  0  0  0  0
 14 15  2  0  0  0  0
 15 16  1  0  0  0  0
 16 17  2  0  0  0  0
 17 18  1  0  0  0  0
 17 19  1  0  0  0  0
 19 13  2  0  0  0  0
 19 20  1  0  0  0  0
 16 21  1  0  0  0  0
 21 22  1  0  0  0  0
 21 23  2  0  0  0  0
 23 24  1  0  0  0  0
 23 25  1  0  0  0  0
 25 26  1  0  0  0  0
 25 27  2  0  0  0  0
 27 15  1  0  0  0  0
 27 28  1  0  0  0  0
 14 29  1  0  0  0  0
 29  1  1  0  0  0  0
 29 30  2  0  0  0  0
M  END
> <ChemID>
100345

> <source_casrn>
2498-66-0

> <CAS>
2498-66-0

> <SMILES>
O=C(c(c(c(c(c1)ccc2)c2)C(=O)c3cccc4)c1)c34

> <NAME>
Benz (a) anthracene-7,12-dione

> <preferred_name>
7,12-Benz(a)anthraquinone

> <iupac>
tetraphene-7,12-dione

> <MPID>
101971

> <dsstox_substance_id>
DTXSID8051916

> <Canonical_QSARr>
O=C1c2ccc3ccccc3c2C(=O)c2ccccc12

> <InChI_Code_QSARr>
InChI=1S/C18H10O2/c19-17-13-7-3-4-8-14(13)18(20)16-12-6-2-1-5-11(12)9-10-15(16)17/h1-10H

> <InChI Key_QSARr>
LHMRXAIRPKSGDE-UHFFFAOYSA-N

> <LogKmHL>
-0.84

$$$$
100347
  -INDIGO-08031722222D

 36 36  0  0  0  0  0  0  0  0999 V2000
   -1.6000    0.0000    0.0000 C   0  0  0  0  0  0  0  0  0  0  0  0
   -2.4000    1.3856    0.0000 C   0  0  0  0  0  0  0  0  0  0  0  0
   -1.6000    2.7713    0.0000 H   0  0  0  0  0  0  0  0  0  0  0  0
   -4.0001    1.3856    0.0000 C   0  0  0  0  0  0  0  0  0  0  0  0
   -4.7999    2.7713    0.0000 H   0  0  0  0  0  0  0  0  0  0  0  0
   -4.7999    0.0000    0.0000 C   0  0  0  0  0  0  0  0  0  0  0  0
   -6.4000    0.0000    0.0000 H   0  0  0  0  0  0  0  0  0  0  0  0
   -4.0001   -1.3857    0.0000 C   0  0  0  0  0  0  0  0  0  0  0  0
   -4.7999   -2.7712    0.0000 H   0  0  0  0  0  0  0  0  0  0  0  0
   -2.4000   -1.3857    0.0000 C   0  0  0  0  0  0  0  0  0  0  0  0
   -1.6000   -2.7712    0.0000 H   0  0  0  0  0  0  0  0  0  0  0  0
   -0.0001    0.0000    0.0000 C   0  0  0  0  0  0  0  0  0  0  0  0
   -0.0001   -1.6000    0.0000 H   0  0  0  0  0  0  0  0  0  0  0  0
    1.5758   -0.2778    0.0000 C   0  0  0  0  0  0  0  0  0  0  0  0
    2.6042    0.9478    0.0000 O   0  0  0  0  0  0  0  0  0  0  0  0
    2.1229   -1.7813    0.0000 O   0  0  0  0  0  0  0  0  0  0  0  0
    3.6986   -2.0591    0.0000 C   0  0  0  0  0  0  0  0  0  0  0  0
    4.1797   -0.5333    0.0000 H   0  0  0  0  0  0  0  0  0  0  0  0
    5.1179   -1.3204    0.0000 H   0  0  0  0  0  0  0  0  0  0  0  0
    4.2459   -3.5627    0.0000 C   0  0  0  0  0  0  0  0  0  0  0  0
    4.7931   -5.0662    0.0000 H   0  0  0  0  0  0  0  0  0  0  0  0
    5.8215   -3.8406    0.0000 H   0  0  0  0  0  0  0  0  0  0  0  0
    3.2174   -4.7884    0.0000 H   0  0  0  0  0  0  0  0  0  0  0  0
   -0.0001    1.6001    0.0000 S   0  0  0  0  0  0  0  0  0  0  0  0
    1.3857    2.4000    0.0000 P   0  0  0  0  0  0  0  0  0  0  0  0
    1.3857    4.0000    0.0000 O   0  0  0  0  0  0  0  0  0  0  0  0
    2.7713    4.8000    0.0000 C   0  0  0  0  0  0  0  0  0  0  0  0
    2.7713    6.4000    0.0000 H   0  0  0  0  0  0  0  0  0  0  0  0
    4.1569    5.6001    0.0000 H   0  0  0  0  0  0  0  0  0  0  0  0
    1.3857    5.6001    0.0000 H   0  0  0  0  0  0  0  0  0  0  0  0
    2.7713    3.1999    0.0000 O   0  0  0  0  0  0  0  0  0  0  0  0
    4.1569    2.4000    0.0000 C   0  0  0  0  0  0  0  0  0  0  0  0
    5.5426    3.1999    0.0000 H   0  0  0  0  0  0  0  0  0  0  0  0
    5.5426    1.6001    0.0000 H   0  0  0  0  0  0  0  0  0  0  0  0
    4.1569    0.8000    0.0000 H   0  0  0  0  0  0  0  0  0  0  0  0
   -0.0001    3.1999    0.0000 S   0  0  0  0  0  0  0  0  0  0  0  0
  1  2  1  0  0  0  0
  2  3  1  0  0  0  0
  2  4  2  0  0  0  0
  4  5  1  0  0  0  0
  4  6  1  0  0  0  0
  6  7  1  0  0  0  0
  6  8  2  0  0  0  0
  8  9  1  0  0  0  0
  8 10  1  0  0  0  0
 10  1  2  0  0  0  0
 10 11  1  0  0  0  0
  1 12  1  0  0  0  0
 12 13  1  0  0  0  0
 12 14  1  0  0  0  0
 14 15  2  0  0  0  0
 14 16  1  0  0  0  0
 16 17  1  0  0  0  0
 17 18  1  0  0  0  0
 17 19  1  0  0  0  0
 17 20  1  0  0  0  0
 20 21  1  0  0  0  0
 20 22  1  0  0  0  0
 20 23  1  0  0  0  0
 12 24  1  0  0  0  0
 24 25  1  0  0  0  0
 25 26  1  0  0  0  0
 26 27  1  0  0  0  0
 27 28  1  0  0  0  0
 27 29  1  0  0  0  0
 27 30  1  0  0  0  0
 25 31  1  0  0  0  0
 31 32  1  0  0  0  0
 32 33  1  0  0  0  0
 32 34  1  0  0  0  0
 32 35  1  0  0  0  0
 25 36  2  0  0  0  0
M  END
> <ChemID>
100347

> <source_casrn>
2597-03-7

> <CAS>
2597-03-7

> <SMILES>
CCOC(=O)C(SP(=S)(OC)OC)c1ccccc1

> <NAME>
Fenthoate

> <preferred_name>
Phenthoate

> <iupac>
ethyl [(dimethoxyphosphorothioyl)sulfanyl](phenyl)acetate

> <MPID>
101973

> <dsstox_substance_id>
DTXSID6042280

> <Canonical_QSARr>
CCOC(=O)C(SP(=S)(OC)OC)c1ccccc1

> <InChI_Code_QSARr>
InChI=1S/C12H17O4PS2/c1-4-16-12(13)11(10-8-6-5-7-9-10)19-17(18,14-2)15-3/h5-9,11H,4H2,1-3H3

> <InChI Key_QSARr>
XAMUDJHXFNRLCY-UHFFFAOYSA-N

> <LogKmHL>
-0.75

$$$$
100348
  -INDIGO-08031722222D

 29 29  0  0  0  0  0  0  0  0999 V2000
    4.8001   -0.0000    0.0000 C   0  0  0  0  0  0  0  0  0  0  0  0
    5.6001   -1.3856    0.0000 O   0  0  0  0  0  0  0  0  0  0  0  0
    3.2000   -0.0000    0.0000 O   0  0  0  0  0  0  0  0  0  0  0  0
    2.4000   -1.3856    0.0000 C   0  0  0  0  0  0  0  0  0  0  0  0
    0.8000   -1.3856    0.0000 C   0  0  0  0  0  0  0  0  0  0  0  0
   -0.0001   -0.0000    0.0000 C   0  0  0  0  0  0  0  0  0  0  0  0
    1.3856    0.8001    0.0000 H   0  0  0  0  0  0  0  0  0  0  0  0
   -0.5473    1.5035    0.0000 C   0  0  0  0  0  0  0  0  0  0  0  0
   -1.0944    3.0070    0.0000 H   0  0  0  0  0  0  0  0  0  0  0  0
    0.4812    2.7291    0.0000 H   0  0  0  0  0  0  0  0  0  0  0  0
   -2.1229    1.7814    0.0000 H   0  0  0  0  0  0  0  0  0  0  0  0
   -1.3856   -0.8000    0.0000 C   0  0  0  0  0  0  0  0  0  0  0  0
   -2.7713   -1.6000    0.0000 H   0  0  0  0  0  0  0  0  0  0  0  0
   -2.7713   -0.0000    0.0000 H   0  0  0  0  0  0  0  0  0  0  0  0
   -1.3856    0.8001    0.0000 H   0  0  0  0  0  0  0  0  0  0  0  0
   -0.0001   -2.7712    0.0000 C   0  0  0  0  0  0  0  0  0  0  0  0
   -1.5999   -2.7712    0.0000 H   0  0  0  0  0  0  0  0  0  0  0  0
    0.8000   -4.1570    0.0000 C   0  0  0  0  0  0  0  0  0  0  0  0
   -0.0001   -5.5426    0.0000 H   0  0  0  0  0  0  0  0  0  0  0  0
    2.4000   -4.1570    0.0000 C   0  0  0  0  0  0  0  0  0  0  0  0
    3.2000   -5.5426    0.0000 H   0  0  0  0  0  0  0  0  0  0  0  0
    3.2000   -2.7712    0.0000 C   0  0  0  0  0  0  0  0  0  0  0  0
    4.8001   -2.7712    0.0000 H   0  0  0  0  0  0  0  0  0  0  0  0
    5.6001    1.3857    0.0000 N   0  0  0  0  0  0  0  0  0  0  0  0
    4.8001    2.7713    0.0000 H   0  0  0  0  0  0  0  0  0  0  0  0
    7.2000    1.3857    0.0000 C   0  0  0  0  0  0  0  0  0  0  0  0
    8.8000    1.3857    0.0000 H   0  0  0  0  0  0  0  0  0  0  0  0
    8.0000    2.7713    0.0000 H   0  0  0  0  0  0  0  0  0  0  0  0
    8.0000   -0.0000    0.0000 H   0  0  0  0  0  0  0  0  0  0  0  0
  1  2  2  0  0  0  0
  1  3  1  0  0  0  0
  3  4  1  0  0  0  0
  4  5  1  0  0  0  0
  5  6  1  0  0  0  0
  6  7  1  0  0  0  0
  6  8  1  0  0  0  0
  8  9  1  0  0  0  0
  8 10  1  0  0  0  0
  8 11  1  0  0  0  0
  6 12  1  0  0  0  0
 12 13  1  0  0  0  0
 12 14  1  0  0  0  0
 12 15  1  0  0  0  0
  5 16  2  0  0  0  0
 16 17  1  0  0  0  0
 16 18  1  0  0  0  0
 18 19  1  0  0  0  0
 18 20  2  0  0  0  0
 20 21  1  0  0  0  0
 20 22  1  0  0  0  0
 22  4  2  0  0  0  0
 22 23  1  0  0  0  0
  1 24  1  0  0  0  0
 24 25  1  0  0  0  0
 24 26  1  0  0  0  0
 26 27  1  0  0  0  0
 26 28  1  0  0  0  0
 26 29  1  0  0  0  0
M  END
> <ChemID>
100348

> <source_casrn>
2631-40-5

> <CAS>
2631-40-5

> <SMILES>
O=C(Oc(c(ccc1)C(C)C)c1)NC

> <NAME>
n-methyl-2-isopropylphenylcarbamate

> <preferred_name>
Isoprocarb

> <iupac>
2-(propan-2-yl)phenyl methylcarbamate

> <MPID>
101974

> <dsstox_substance_id>
DTXSID6042072

> <Canonical_QSARr>
CNC(=O)Oc1ccccc1C(C)C

> <InChI_Code_QSARr>
InChI=1S/C11H15NO2/c1-8(2)9-6-4-5-7-10(9)14-11(13)12-3/h4-8H,1-3H3,(H,12,13)

> <InChI Key_QSARr>
QBSJMKIUCUGGNG-UHFFFAOYSA-N

> <LogKmHL>
-1.25

$$$$
100349
  -INDIGO-08031722222D

 25 25  0  0  0  0  0  0  0  0999 V2000
    0.0000   -0.0000    0.0000 P   0  0  0  0  0  0  0  0  0  0  0  0
    0.0000    1.6000    0.0000 S   0  0  0  0  0  0  0  0  0  0  0  0
    1.3857    0.8000    0.0000 O   0  0  0  0  0  0  0  0  0  0  0  0
    2.7712   -0.0000    0.0000 C   0  0  0  0  0  0  0  0  0  0  0  0
    2.7712   -1.6000    0.0000 C   0  0  0  0  0  0  0  0  0  0  0  0
    1.3857   -2.4000    0.0000 H   0  0  0  0  0  0  0  0  0  0  0  0
    4.1569   -2.4000    0.0000 C   0  0  0  0  0  0  0  0  0  0  0  0
    4.1569   -4.0000    0.0000 H   0  0  0  0  0  0  0  0  0  0  0  0
    5.5426   -1.6000    0.0000 C   0  0  0  0  0  0  0  0  0  0  0  0
    6.9281   -2.4000    0.0000 C   0  0  0  0  0  0  0  0  0  0  0  0
    8.3138   -3.2000    0.0000 N   0  0  0  0  0  0  0  0  0  0  0  0
    5.5426   -0.0000    0.0000 C   0  0  0  0  0  0  0  0  0  0  0  0
    6.9281    0.8000    0.0000 H   0  0  0  0  0  0  0  0  0  0  0  0
    4.1569    0.8000    0.0000 C   0  0  0  0  0  0  0  0  0  0  0  0
    4.1569    2.4000    0.0000 H   0  0  0  0  0  0  0  0  0  0  0  0
   -1.3857    0.8000    0.0000 O   0  0  0  0  0  0  0  0  0  0  0  0
   -2.7712   -0.0000    0.0000 C   0  0  0  0  0  0  0  0  0  0  0  0
   -4.1569    0.8000    0.0000 H   0  0  0  0  0  0  0  0  0  0  0  0
   -4.1569   -0.8000    0.0000 H   0  0  0  0  0  0  0  0  0  0  0  0
   -2.7712    1.6000    0.0000 H   0  0  0  0  0  0  0  0  0  0  0  0
   -1.3857   -0.8000    0.0000 O   0  0  0  0  0  0  0  0  0  0  0  0
   -1.3857   -2.4000    0.0000 C   0  0  0  0  0  0  0  0  0  0  0  0
   -1.3857   -4.0000    0.0000 H   0  0  0  0  0  0  0  0  0  0  0  0
   -2.7712   -3.2000    0.0000 H   0  0  0  0  0  0  0  0  0  0  0  0
    0.0000   -3.2000    0.0000 H   0  0  0  0  0  0  0  0  0  0  0  0
  1  2  2  0  0  0  0
  1  3  1  0  0  0  0
  3  4  1  0  0  0  0
  4  5  1  0  0  0  0
  5  6  1  0  0  0  0
  5  7  2  0  0  0  0
  7  8  1  0  0  0  0
  7  9  1  0  0  0  0
  9 10  1  0  0  0  0
 10 11  3  0  0  0  0
  9 12  2  0  0  0  0
 12 13  1  0  0  0  0
 12 14  1  0  0  0  0
 14  4  2  0  0  0  0
 14 15  1  0  0  0  0
  1 16  1  0  0  0  0
 16 17  1  0  0  0  0
 17 18  1  0  0  0  0
 17 19  1  0  0  0  0
 17 20  1  0  0  0  0
  1 21  1  0  0  0  0
 21 22  1  0  0  0  0
 22 23  1  0  0  0  0
 22 24  1  0  0  0  0
 22 25  1  0  0  0  0
M  END
> <ChemID>
100349

> <source_casrn>
2636-26-2

> <CAS>
2636-26-2

> <SMILES>
COP(=S)(Oc1ccc(cc1)C#N)OC

> <NAME>
Cyanophos

> <preferred_name>
Cyanophos

> <iupac>
O-(4-cyanophenyl) O,O-dimethyl phosphorothioate

> <MPID>
101975

> <dsstox_substance_id>
DTXSID0041806

> <Canonical_QSARr>
COP(=S)(Oc1ccc(cc1)C#N)OC

> <InChI_Code_QSARr>
InChI=1S/C9H10NO3PS/c1-11-14(15,12-2)13-9-5-3-8(7-10)4-6-9/h3-6H,1-2H3

> <InChI Key_QSARr>
SCKHCCSZFPSHGR-UHFFFAOYSA-N

> <LogKmHL>
0.23

$$$$
100351
  -INDIGO-08031722222D

 29 29  0  0  0  0  0  0  0  0999 V2000
    0.0001   -1.6000    0.0000 S   0  0  0  0  0  0  0  0  0  0  0  0
    0.0001    0.0000    0.0000 P   0  0  0  0  0  0  0  0  0  0  0  0
    1.3856    0.8000    0.0000 O   0  0  0  0  0  0  0  0  0  0  0  0
    2.7713    0.0000    0.0000 C   0  0  0  0  0  0  0  0  0  0  0  0
    2.7713   -1.6000    0.0000 N   0  0  0  0  0  0  0  0  0  0  0  0
    4.1570   -2.4001    0.0000 C   0  0  0  0  0  0  0  0  0  0  0  0
    4.1570   -4.0000    0.0000 Cl  0  0  0  0  0  0  0  0  0  0  0  0
    5.5425   -1.6000    0.0000 C   0  0  0  0  0  0  0  0  0  0  0  0
    6.9282   -2.4001    0.0000 Cl  0  0  0  0  0  0  0  0  0  0  0  0
    5.5425    0.0000    0.0000 C   0  0  0  0  0  0  0  0  0  0  0  0
    6.9282    0.8000    0.0000 H   0  0  0  0  0  0  0  0  0  0  0  0
    4.1570    0.8000    0.0000 C   0  0  0  0  0  0  0  0  0  0  0  0
    4.1570    2.4000    0.0000 Cl  0  0  0  0  0  0  0  0  0  0  0  0
   -1.3856   -0.8000    0.0000 O   0  0  0  0  0  0  0  0  0  0  0  0
   -2.7713    0.0000    0.0000 C   0  0  0  0  0  0  0  0  0  0  0  0
   -3.3835    1.4782    0.0000 H   0  0  0  0  0  0  0  0  0  0  0  0
   -2.1590    1.4782    0.0000 H   0  0  0  0  0  0  0  0  0  0  0  0
   -4.1569   -0.8000    0.0000 C   0  0  0  0  0  0  0  0  0  0  0  0
   -5.5426   -1.6000    0.0000 H   0  0  0  0  0  0  0  0  0  0  0  0
   -5.5426    0.0000    0.0000 H   0  0  0  0  0  0  0  0  0  0  0  0
   -4.1569   -2.4001    0.0000 H   0  0  0  0  0  0  0  0  0  0  0  0
   -1.3856    0.8000    0.0000 O   0  0  0  0  0  0  0  0  0  0  0  0
   -1.3856    2.4000    0.0000 C   0  0  0  0  0  0  0  0  0  0  0  0
   -0.4115    3.6694    0.0000 H   0  0  0  0  0  0  0  0  0  0  0  0
    0.2006    2.6088    0.0000 H   0  0  0  0  0  0  0  0  0  0  0  0
   -2.7713    3.2001    0.0000 C   0  0  0  0  0  0  0  0  0  0  0  0
   -2.7713    4.8000    0.0000 H   0  0  0  0  0  0  0  0  0  0  0  0
   -4.1569    4.0000    0.0000 H   0  0  0  0  0  0  0  0  0  0  0  0
   -4.1569    2.4000    0.0000 H   0  0  0  0  0  0  0  0  0  0  0  0
  1  2  2  0  0  0  0
  2  3  1  0  0  0  0
  3  4  1  0  0  0  0
  4  5  1  0  0  0  0
  5  6  2  0  0  0  0
  6  7  1  0  0  0  0
  6  8  1  0  0  0  0
  8  9  1  0  0  0  0
  8 10  2  0  0  0  0
 10 11  1  0  0  0  0
 10 12  1  0  0  0  0
 12  4  2  0  0  0  0
 12 13  1  0  0  0  0
  2 14  1  0  0  0  0
 14 15  1  0  0  0  0
 15 16  1  0  0  0  0
 15 17  1  0  0  0  0
 15 18  1  0  0  0  0
 18 19  1  0  0  0  0
 18 20  1  0  0  0  0
 18 21  1  0  0  0  0
  2 22  1  0  0  0  0
 22 23  1  0  0  0  0
 23 24  1  0  0  0  0
 23 25  1  0  0  0  0
 23 26  1  0  0  0  0
 26 27  1  0  0  0  0
 26 28  1  0  0  0  0
 26 29  1  0  0  0  0
M  END
> <ChemID>
100351

> <source_casrn>
2921-88-2

> <CAS>
2921-88-2

> <SMILES>
CCOP(=S)(Oc1[n]c(Cl)c(Cl)cc1Cl)OCC

> <NAME>
Chlorpyrifos

> <preferred_name>
Chlorpyrifos

> <iupac>
O,O-diethyl O-(3,5,6-trichloropyridin-2-yl) phosphorothioate

> <MPID>
101977

> <dsstox_substance_id>
DTXSID4020458

> <Canonical_QSARr>
CCOP(=S)(Oc1[n]c(Cl)c(Cl)cc1Cl)OCC

> <InChI_Code_QSARr>
InChI=1S/C9H11Cl3NO3PS/c1-3-14-17(18,15-4-2)16-9-7(11)5-6(10)8(12)13-9/h5H,3-4H2,1-2H3

> <InChI Key_QSARr>
SBPBAQFWLVIOKP-UHFFFAOYSA-N

> <LogKmHL>
0.77

$$$$
100352
  -INDIGO-08031722222D

 30 29  0  0  0  0  0  0  0  0999 V2000
    0.0001    0.0000    0.0000 C   0  0  0  0  0  0  0  0  0  0  0  0
    0.6122   -1.4782    0.0000 H   0  0  0  0  0  0  0  0  0  0  0  0
   -0.6122   -1.4782    0.0000 H   0  0  0  0  0  0  0  0  0  0  0  0
    1.3856    0.8000    0.0000 C   0  0  0  0  0  0  0  0  0  0  0  0
    0.7733    2.2782    0.0000 H   0  0  0  0  0  0  0  0  0  0  0  0
    1.9980    2.2782    0.0000 H   0  0  0  0  0  0  0  0  0  0  0  0
    2.7714    0.0000    0.0000 C   0  0  0  0  0  0  0  0  0  0  0  0
    3.3835   -1.4782    0.0000 H   0  0  0  0  0  0  0  0  0  0  0  0
    2.1591   -1.4782    0.0000 H   0  0  0  0  0  0  0  0  0  0  0  0
    4.1569    0.8000    0.0000 C   0  0  0  0  0  0  0  0  0  0  0  0
    3.5446    2.2782    0.0000 H   0  0  0  0  0  0  0  0  0  0  0  0
    4.7692    2.2782    0.0000 H   0  0  0  0  0  0  0  0  0  0  0  0
    5.5427    0.0000    0.0000 C   0  0  0  0  0  0  0  0  0  0  0  0
    6.9282   -0.8000    0.0000 H   0  0  0  0  0  0  0  0  0  0  0  0
    6.9282    0.8000    0.0000 H   0  0  0  0  0  0  0  0  0  0  0  0
    5.5427   -1.6000    0.0000 H   0  0  0  0  0  0  0  0  0  0  0  0
   -1.3856    0.8000    0.0000 C   0  0  0  0  0  0  0  0  0  0  0  0
   -1.9980    2.2782    0.0000 H   0  0  0  0  0  0  0  0  0  0  0  0
   -0.7733    2.2782    0.0000 H   0  0  0  0  0  0  0  0  0  0  0  0
   -2.7712    0.0000    0.0000 C   0  0  0  0  0  0  0  0  0  0  0  0
   -2.1591   -1.4782    0.0000 H   0  0  0  0  0  0  0  0  0  0  0  0
   -3.3835   -1.4782    0.0000 H   0  0  0  0  0  0  0  0  0  0  0  0
   -4.1569    0.8000    0.0000 C   0  0  0  0  0  0  0  0  0  0  0  0
   -5.5425    0.0000    0.0000 C   0  0  0  0  0  0  0  0  0  0  0  0
   -6.9282   -0.8000    0.0000 H   0  0  0  0  0  0  0  0  0  0  0  0
   -6.9282    0.8000    0.0000 H   0  0  0  0  0  0  0  0  0  0  0  0
   -5.5425   -1.6000    0.0000 H   0  0  0  0  0  0  0  0  0  0  0  0
   -4.1569    2.4000    0.0000 C   0  0  0  0  0  0  0  0  0  0  0  0
   -5.5427    3.2000    0.0000 H   0  0  0  0  0  0  0  0  0  0  0  0
   -2.7714    3.2000    0.0000 H   0  0  0  0  0  0  0  0  0  0  0  0
  1  2  1  0  0  0  0
  1  3  1  0  0  0  0
  1  4  1  0  0  0  0
  4  5  1  0  0  0  0
  4  6  1  0  0  0  0
  4  7  1  0  0  0  0
  7  8  1  0  0  0  0
  7  9  1  0  0  0  0
  7 10  1  0  0  0  0
 10 11  1  0  0  0  0
 10 12  1  0  0  0  0
 10 13  1  0  0  0  0
 13 14  1  0  0  0  0
 13 15  1  0  0  0  0
 13 16  1  0  0  0  0
  1 17  1  0  0  0  0
 17 18  1  0  0  0  0
 17 19  1  0  0  0  0
 17 20  1  0  0  0  0
 20 21  1  0  0  0  0
 20 22  1  0  0  0  0
 20 23  1  0  0  0  0
 23 24  1  0  0  0  0
 24 25  1  0  0  0  0
 24 26  1  0  0  0  0
 24 27  1  0  0  0  0
 23 28  2  0  0  0  0
 28 29  1  0  0  0  0
 28 30  1  0  0  0  0
M  END
> <ChemID>
100352

> <source_casrn>
2980-71-4

> <CAS>
2980-71-4

> <SMILES>
CCCCCCCC(C)=C

> <NAME>
2-methyl-1-nonene

> <preferred_name>
2-Methyl-1-nonene

> <iupac>
2-methylnon-1-ene

> <MPID>
101978

> <dsstox_substance_id>
DTXSID40183942

> <Canonical_QSARr>
CCCCCCCC(C)=C

> <InChI_Code_QSARr>
InChI=1S/C10H20/c1-4-5-6-7-8-9-10(2)3/h2,4-9H2,1,3H3

> <InChI Key_QSARr>
YLZQHQUVNZVGOK-UHFFFAOYSA-N

> <LogKmHL>
-0.06

$$$$
100353
  -INDIGO-08031722222D

 29 28  0  0  0  0  0  0  0  0999 V2000
   -0.8384   -2.3035    0.0000 C   0  0  0  0  0  0  0  0  0  0  0  0
   -0.2912   -3.8070    0.0000 H   0  0  0  0  0  0  0  0  0  0  0  0
   -1.8669   -3.5292    0.0000 H   0  0  0  0  0  0  0  0  0  0  0  0
    0.7374   -2.5813    0.0000 H   0  0  0  0  0  0  0  0  0  0  0  0
   -1.3857   -0.7999    0.0000 C   0  0  0  0  0  0  0  0  0  0  0  0
   -1.9329    0.7035    0.0000 H   0  0  0  0  0  0  0  0  0  0  0  0
    0.0001    0.0000    0.0000 C   0  0  0  0  0  0  0  0  0  0  0  0
    0.8001   -1.3856    0.0000 H   0  0  0  0  0  0  0  0  0  0  0  0
    1.3857    0.8000    0.0000 C   0  0  0  0  0  0  0  0  0  0  0  0
    1.9979    2.2782    0.0000 H   0  0  0  0  0  0  0  0  0  0  0  0
    0.7733    2.2782    0.0000 H   0  0  0  0  0  0  0  0  0  0  0  0
    2.7713    0.0000    0.0000 C   0  0  0  0  0  0  0  0  0  0  0  0
    2.1591   -1.4782    0.0000 H   0  0  0  0  0  0  0  0  0  0  0  0
    3.3836   -1.4782    0.0000 H   0  0  0  0  0  0  0  0  0  0  0  0
    4.1569    0.8000    0.0000 C   0  0  0  0  0  0  0  0  0  0  0  0
    4.7692    2.2782    0.0000 H   0  0  0  0  0  0  0  0  0  0  0  0
    3.5446    2.2782    0.0000 H   0  0  0  0  0  0  0  0  0  0  0  0
    5.5426    0.0000    0.0000 C   0  0  0  0  0  0  0  0  0  0  0  0
    6.9282   -0.7999    0.0000 H   0  0  0  0  0  0  0  0  0  0  0  0
    6.9282    0.8000    0.0000 H   0  0  0  0  0  0  0  0  0  0  0  0
    5.5426   -1.6000    0.0000 H   0  0  0  0  0  0  0  0  0  0  0  0
   -0.8001    1.3856    0.0000 C   0  0  0  0  0  0  0  0  0  0  0  0
   -1.6001    2.7712    0.0000 H   0  0  0  0  0  0  0  0  0  0  0  0
   -0.2528    2.8891    0.0000 H   0  0  0  0  0  0  0  0  0  0  0  0
   -2.3757    1.6634    0.0000 H   0  0  0  0  0  0  0  0  0  0  0  0
   -2.8891   -1.3472    0.0000 C   0  0  0  0  0  0  0  0  0  0  0  0
   -4.3927   -1.8945    0.0000 H   0  0  0  0  0  0  0  0  0  0  0  0
   -3.1670   -2.9229    0.0000 H   0  0  0  0  0  0  0  0  0  0  0  0
   -4.1149   -0.3188    0.0000 H   0  0  0  0  0  0  0  0  0  0  0  0
  1  2  1  0  0  0  0
  1  3  1  0  0  0  0
  1  4  1  0  0  0  0
  1  5  1  0  0  0  0
  5  6  1  0  0  0  0
  5  7  1  0  0  0  0
  7  8  1  0  0  0  0
  7  9  1  0  0  0  0
  9 10  1  0  0  0  0
  9 11  1  0  0  0  0
  9 12  1  0  0  0  0
 12 13  1  0  0  0  0
 12 14  1  0  0  0  0
 12 15  1  0  0  0  0
 15 16  1  0  0  0  0
 15 17  1  0  0  0  0
 15 18  1  0  0  0  0
 18 19  1  0  0  0  0
 18 20  1  0  0  0  0
 18 21  1  0  0  0  0
  7 22  1  0  0  0  0
 22 23  1  0  0  0  0
 22 24  1  0  0  0  0
 22 25  1  0  0  0  0
  5 26  1  0  0  0  0
 26 27  1  0  0  0  0
 26 28  1  0  0  0  0
 26 29  1  0  0  0  0
M  END
> <ChemID>
100353

> <source_casrn>
3074-71-3

> <CAS>
3074-71-3

> <SMILES>
CCCCC(C)C(C)C

> <NAME>
2,3-dimethylheptane

> <preferred_name>


> <iupac>


> <MPID>
101979

> <dsstox_substance_id>
DTXSID30871008

> <Canonical_QSARr>
CC(C)C(C)CCCC

> <InChI_Code_QSARr>
InChI=1S/C9H20/c1-5-6-7-9(4)8(2)3/h8-9H,5-7H2,1-4H3

> <InChI Key_QSARr>
WBRFDUJXCLCKPX-UHFFFAOYSA-N

> <LogKmHL>
1.28

$$$$
100356
  -INDIGO-08031722222D

 17 16  0  0  0  0  0  0  0  0999 V2000
   -2.4000   -1.3856    0.0000 Br  0  0  0  0  0  0  0  0  0  0  0  0
   -0.8000   -1.3856    0.0000 C   0  0  0  0  0  0  0  0  0  0  0  0
   -1.6000   -2.7713    0.0000 H   0  0  0  0  0  0  0  0  0  0  0  0
    0.0000   -2.7713    0.0000 H   0  0  0  0  0  0  0  0  0  0  0  0
    0.0000    0.0000    0.0000 C   0  0  0  0  0  0  0  0  0  0  0  0
    0.8000    1.3856    0.0000 C   0  0  0  0  0  0  0  0  0  0  0  0
    1.6000    2.7713    0.0000 H   0  0  0  0  0  0  0  0  0  0  0  0
    2.4000    1.3856    0.0000 H   0  0  0  0  0  0  0  0  0  0  0  0
    0.0000    2.7713    0.0000 Br  0  0  0  0  0  0  0  0  0  0  0  0
   -1.3856    0.8000    0.0000 C   0  0  0  0  0  0  0  0  0  0  0  0
   -2.7713    1.6000    0.0000 H   0  0  0  0  0  0  0  0  0  0  0  0
   -2.7713    0.0000    0.0000 H   0  0  0  0  0  0  0  0  0  0  0  0
   -1.3856    2.4000    0.0000 Br  0  0  0  0  0  0  0  0  0  0  0  0
    1.3856   -0.8000    0.0000 C   0  0  0  0  0  0  0  0  0  0  0  0
    2.7713   -1.6000    0.0000 H   0  0  0  0  0  0  0  0  0  0  0  0
    1.3856   -2.4000    0.0000 H   0  0  0  0  0  0  0  0  0  0  0  0
    2.7713    0.0000    0.0000 Br  0  0  0  0  0  0  0  0  0  0  0  0
  1  2  1  0  0  0  0
  2  3  1  0  0  0  0
  2  4  1  0  0  0  0
  2  5  1  0  0  0  0
  5  6  1  0  0  0  0
  6  7  1  0  0  0  0
  6  8  1  0  0  0  0
  6  9  1  0  0  0  0
  5 10  1  0  0  0  0
 10 11  1  0  0  0  0
 10 12  1  0  0  0  0
 10 13  1  0  0  0  0
  5 14  1  0  0  0  0
 14 15  1  0  0  0  0
 14 16  1  0  0  0  0
 14 17  1  0  0  0  0
M  END
> <ChemID>
100356

> <source_casrn>
3229-00-3

> <CAS>
3229-00-3

> <SMILES>
BrCC(CBr)(CBr)CBr

> <NAME>
Propane, 1,3-dibromo-2,2-bis(bromomethyl)-

> <preferred_name>
Propane, 1,3-dibromo-2,2-bis(bromomethyl)-

> <iupac>
1,3-Dibromo-2,2-bis(bromomethyl)propane

> <MPID>
101981

> <dsstox_substance_id>
DTXSID1062916

> <Canonical_QSARr>
BrCC(CBr)(CBr)CBr

> <InChI_Code_QSARr>
InChI=1S/C5H8Br4/c6-1-5(2-7,3-8)4-9/h1-4H2

> <InChI Key_QSARr>
OYSVBCSOQFXYHK-UHFFFAOYSA-N

> <LogKmHL>
0.76

$$$$
100357
  -INDIGO-08031722222D

 22 24  0  0  0  0  0  0  0  0999 V2000
    1.3856    2.4000    0.0000 Cl  0  0  0  0  0  0  0  0  0  0  0  0
    1.3856    0.8000    0.0000 C   0  0  0  0  0  0  0  0  0  0  0  0
    2.7713   -0.0000    0.0000 C   0  0  0  0  0  0  0  0  0  0  0  0
    4.1569    0.8000    0.0000 Cl  0  0  0  0  0  0  0  0  0  0  0  0
    2.7713   -1.6000    0.0000 C   0  0  0  0  0  0  0  0  0  0  0  0
    4.1569   -2.4000    0.0000 Cl  0  0  0  0  0  0  0  0  0  0  0  0
    1.3856   -2.4000    0.0000 C   0  0  0  0  0  0  0  0  0  0  0  0
    1.3856   -4.0000    0.0000 Cl  0  0  0  0  0  0  0  0  0  0  0  0
   -0.0001   -1.6000    0.0000 C   0  0  0  0  0  0  0  0  0  0  0  0
   -0.0001   -0.0000    0.0000 C   0  0  0  0  0  0  0  0  0  0  0  0
   -1.3856    0.8000    0.0000 O   0  0  0  0  0  0  0  0  0  0  0  0
   -2.7712   -0.0000    0.0000 C   0  0  0  0  0  0  0  0  0  0  0  0
   -2.7712   -1.6000    0.0000 C   0  0  0  0  0  0  0  0  0  0  0  0
   -1.3856   -2.4000    0.0000 O   0  0  0  0  0  0  0  0  0  0  0  0
   -4.1569   -2.4000    0.0000 C   0  0  0  0  0  0  0  0  0  0  0  0
   -4.1569   -4.0000    0.0000 Cl  0  0  0  0  0  0  0  0  0  0  0  0
   -5.5425   -1.6000    0.0000 C   0  0  0  0  0  0  0  0  0  0  0  0
   -6.9282   -2.4000    0.0000 Cl  0  0  0  0  0  0  0  0  0  0  0  0
   -5.5425   -0.0000    0.0000 C   0  0  0  0  0  0  0  0  0  0  0  0
   -6.9282    0.8000    0.0000 Cl  0  0  0  0  0  0  0  0  0  0  0  0
   -4.1569    0.8000    0.0000 C   0  0  0  0  0  0  0  0  0  0  0  0
   -4.1569    2.4000    0.0000 Cl  0  0  0  0  0  0  0  0  0  0  0  0
  1  2  1  0  0  0  0
  2  3  1  0  0  0  0
  3  4  1  0  0  0  0
  3  5  2  0  0  0  0
  5  6  1  0  0  0  0
  5  7  1  0  0  0  0
  7  8  1  0  0  0  0
  7  9  2  0  0  0  0
  9 10  1  0  0  0  0
 10  2  2  0  0  0  0
 10 11  1  0  0  0  0
 11 12  1  0  0  0  0
 12 13  1  0  0  0  0
 13 14  1  0  0  0  0
 14  9  1  0  0  0  0
 13 15  2  0  0  0  0
 15 16  1  0  0  0  0
 15 17  1  0  0  0  0
 17 18  1  0  0  0  0
 17 19  2  0  0  0  0
 19 20  1  0  0  0  0
 19 21  1  0  0  0  0
 21 12  2  0  0  0  0
 21 22  1  0  0  0  0
M  END
> <ChemID>
100357

> <source_casrn>
3268-87-9

> <CAS>
3268-87-9

> <SMILES>
Clc1c2Oc3c(Oc2c(Cl)c(Cl)c1Cl)c(Cl)c(Cl)c(Cl)c3Cl

> <NAME>
Octachlorodibenzo-p-dioxin

> <preferred_name>
Octachlorodibenzo-p-dioxin

> <iupac>
octachlorooxanthrene

> <MPID>
101982

> <dsstox_substance_id>
DTXSID4025799

> <Canonical_QSARr>
Clc1c2Oc3c(Oc2c(Cl)c(Cl)c1Cl)c(Cl)c(Cl)c(Cl)c3Cl

> <InChI_Code_QSARr>
InChI=1S/C12Cl8O2/c13-1-2(14)6(18)10-9(5(1)17)21-11-7(19)3(15)4(16)8(20)12(11)22-10

> <InChI Key_QSARr>
FOIBFBMSLDGNHL-UHFFFAOYSA-N

> <LogKmHL>
1.16

$$$$
100358
  -INDIGO-08031722222D

 19 18  0  0  0  0  0  0  0  0999 V2000
    2.7713    0.0000    0.0000 O   0  0  0  0  0  0  0  0  0  0  0  0
    4.1569   -0.8000    0.0000 H   0  0  0  0  0  0  0  0  0  0  0  0
    1.3856   -0.8000    0.0000 C   0  0  0  0  0  0  0  0  0  0  0  0
    1.9979   -2.2782    0.0000 H   0  0  0  0  0  0  0  0  0  0  0  0
    0.7734   -2.2782    0.0000 H   0  0  0  0  0  0  0  0  0  0  0  0
    0.0001    0.0000    0.0000 C   0  0  0  0  0  0  0  0  0  0  0  0
   -1.3856    0.8000    0.0000 C   0  0  0  0  0  0  0  0  0  0  0  0
   -1.9979    2.2782    0.0000 H   0  0  0  0  0  0  0  0  0  0  0  0
   -0.7734    2.2782    0.0000 H   0  0  0  0  0  0  0  0  0  0  0  0
   -2.7712    0.0000    0.0000 O   0  0  0  0  0  0  0  0  0  0  0  0
   -4.1569    0.8000    0.0000 H   0  0  0  0  0  0  0  0  0  0  0  0
    0.8000    1.3857    0.0000 C   0  0  0  0  0  0  0  0  0  0  0  0
    1.6000    2.7713    0.0000 H   0  0  0  0  0  0  0  0  0  0  0  0
    0.2528    2.8891    0.0000 H   0  0  0  0  0  0  0  0  0  0  0  0
    2.4000    1.3857    0.0000 Br  0  0  0  0  0  0  0  0  0  0  0  0
   -0.8000   -1.3857    0.0000 C   0  0  0  0  0  0  0  0  0  0  0  0
   -1.6000   -2.7713    0.0000 H   0  0  0  0  0  0  0  0  0  0  0  0
   -0.2528   -2.8891    0.0000 H   0  0  0  0  0  0  0  0  0  0  0  0
   -2.4000   -1.3857    0.0000 Br  0  0  0  0  0  0  0  0  0  0  0  0
  1  2  1  0  0  0  0
  1  3  1  0  0  0  0
  3  4  1  0  0  0  0
  3  5  1  0  0  0  0
  3  6  1  0  0  0  0
  6  7  1  0  0  0  0
  7  8  1  0  0  0  0
  7  9  1  0  0  0  0
  7 10  1  0  0  0  0
 10 11  1  0  0  0  0
  6 12  1  0  0  0  0
 12 13  1  0  0  0  0
 12 14  1  0  0  0  0
 12 15  1  0  0  0  0
  6 16  1  0  0  0  0
 16 17  1  0  0  0  0
 16 18  1  0  0  0  0
 16 19  1  0  0  0  0
M  END
> <ChemID>
100358

> <source_casrn>
3296-90-0

> <CAS>
3296-90-0

> <SMILES>
OCC(CBr)(CBr)CO

> <NAME>
1,3-Propanediol, 2,2-bis(bromomethyl)-

> <preferred_name>
2,2-Bis(bromomethyl)-1,3-propanediol

> <iupac>
2,2-bis(bromomethyl)propane-1,3-diol

> <MPID>
101983

> <dsstox_substance_id>
DTXSID9020164

> <Canonical_QSARr>
OCC(CBr)(CBr)CO

> <InChI_Code_QSARr>
InChI=1S/C5H10Br2O2/c6-1-5(2-7,3-8)4-9/h8-9H,1-4H2

> <InChI Key_QSARr>
CHUGKEQJSLOLHL-UHFFFAOYSA-N

> <LogKmHL>
-1.4

$$$$
100360
  -INDIGO-08031722222D

 30 32  0  0  0  0  0  0  0  0999 V2000
    0.7999    1.3857    0.0000 C   0  0  0  0  0  0  0  0  0  0  0  0
   -0.0001   -0.0001    0.0000 C   0  0  0  0  0  0  0  0  0  0  0  0
   -1.6000   -0.0001    0.0000 C   0  0  0  0  0  0  0  0  0  0  0  0
   -2.8693    0.9740    0.0000 H   0  0  0  0  0  0  0  0  0  0  0  0
   -1.8089    1.5863    0.0000 H   0  0  0  0  0  0  0  0  0  0  0  0
   -2.4000   -1.3857    0.0000 C   0  0  0  0  0  0  0  0  0  0  0  0
   -4.0000   -1.3857    0.0000 H   0  0  0  0  0  0  0  0  0  0  0  0
   -3.2000   -2.7713    0.0000 H   0  0  0  0  0  0  0  0  0  0  0  0
   -3.2000   -0.0001    0.0000 H   0  0  0  0  0  0  0  0  0  0  0  0
    0.7999   -1.3857    0.0000 C   0  0  0  0  0  0  0  0  0  0  0  0
   -0.0001   -2.7713    0.0000 H   0  0  0  0  0  0  0  0  0  0  0  0
    2.4001   -1.3857    0.0000 C   0  0  0  0  0  0  0  0  0  0  0  0
    3.2001   -0.0001    0.0000 C   0  0  0  0  0  0  0  0  0  0  0  0
    4.8000   -0.0001    0.0000 C   0  0  0  0  0  0  0  0  0  0  0  0
    5.6000    1.3857    0.0000 H   0  0  0  0  0  0  0  0  0  0  0  0
    5.6000   -1.3857    0.0000 C   0  0  0  0  0  0  0  0  0  0  0  0
    7.2000   -1.3857    0.0000 H   0  0  0  0  0  0  0  0  0  0  0  0
    4.8000   -2.7713    0.0000 C   0  0  0  0  0  0  0  0  0  0  0  0
    5.6000   -4.1569    0.0000 H   0  0  0  0  0  0  0  0  0  0  0  0
    3.2001   -2.7713    0.0000 C   0  0  0  0  0  0  0  0  0  0  0  0
    2.4001   -4.1569    0.0000 H   0  0  0  0  0  0  0  0  0  0  0  0
    2.4001    1.3857    0.0000 C   0  0  0  0  0  0  0  0  0  0  0  0
    3.2001    2.7713    0.0000 C   0  0  0  0  0  0  0  0  0  0  0  0
    4.8000    2.7713    0.0000 H   0  0  0  0  0  0  0  0  0  0  0  0
    2.4001    4.1569    0.0000 C   0  0  0  0  0  0  0  0  0  0  0  0
    3.2001    5.5426    0.0000 H   0  0  0  0  0  0  0  0  0  0  0  0
    0.7999    4.1569    0.0000 C   0  0  0  0  0  0  0  0  0  0  0  0
   -0.0001    5.5426    0.0000 H   0  0  0  0  0  0  0  0  0  0  0  0
   -0.0001    2.7713    0.0000 C   0  0  0  0  0  0  0  0  0  0  0  0
   -1.6000    2.7713    0.0000 H   0  0  0  0  0  0  0  0  0  0  0  0
  1  2  1  0  0  0  0
  2  3  1  0  0  0  0
  3  4  1  0  0  0  0
  3  5  1  0  0  0  0
  3  6  1  0  0  0  0
  6  7  1  0  0  0  0
  6  8  1  0  0  0  0
  6  9  1  0  0  0  0
  2 10  2  0  0  0  0
 10 11  1  0  0  0  0
 10 12  1  0  0  0  0
 12 13  1  0  0  0  0
 13 14  2  0  0  0  0
 14 15  1  0  0  0  0
 14 16  1  0  0  0  0
 16 17  1  0  0  0  0
 16 18  2  0  0  0  0
 18 19  1  0  0  0  0
 18 20  1  0  0  0  0
 20 12  2  0  0  0  0
 20 21  1  0  0  0  0
 13 22  1  0  0  0  0
 22  1  1  0  0  0  0
 22 23  2  0  0  0  0
 23 24  1  0  0  0  0
 23 25  1  0  0  0  0
 25 26  1  0  0  0  0
 25 27  2  0  0  0  0
 27 28  1  0  0  0  0
 27 29  1  0  0  0  0
 29  1  2  0  0  0  0
 29 30  1  0  0  0  0
M  END
> <ChemID>
100360

> <source_casrn>
3674-75-7

> <CAS>
3674-75-7

> <SMILES>
CCc1cc2ccccc2c2ccccc21

> <NAME>
9-ethylphenanthrene

> <preferred_name>
Phenanthrene, 9-ethyl- (8CI)(9CI)

> <iupac>
9-Ethylphenanthrene

> <MPID>
101985

> <dsstox_substance_id>
DTXSID90190202

> <Canonical_QSARr>
CCc1cc2ccccc2c2ccccc21

> <InChI_Code_QSARr>
InChI=1S/C16H14/c1-2-12-11-13-7-3-4-9-15(13)16-10-6-5-8-14(12)16/h3-11H,2H2,1H3

> <InChI Key_QSARr>
ZWANHXINCHPSIK-UHFFFAOYSA-N

> <LogKmHL>
0.29

$$$$
100361
  -INDIGO-08031722222D

 32 32  0  0  0  0  0  0  0  0999 V2000
    1.3856    0.8000    0.0000 C   0  0  0  0  0  0  0  0  0  0  0  0
    2.7713    1.6001    0.0000 H   0  0  0  0  0  0  0  0  0  0  0  0
    1.3856    2.4000    0.0000 H   0  0  0  0  0  0  0  0  0  0  0  0
    2.7713   -0.0001    0.0000 H   0  0  0  0  0  0  0  0  0  0  0  0
    0.0001    0.0001    0.0000 C   0  0  0  0  0  0  0  0  0  0  0  0
   -1.3856    0.8000    0.0000 C   0  0  0  0  0  0  0  0  0  0  0  0
   -1.3856    2.4000    0.0000 H   0  0  0  0  0  0  0  0  0  0  0  0
   -2.7713    0.0001    0.0000 C   0  0  0  0  0  0  0  0  0  0  0  0
   -4.1569    0.8000    0.0000 O   0  0  0  0  0  0  0  0  0  0  0  0
   -5.5426    0.0001    0.0000 P   0  0  0  0  0  0  0  0  0  0  0  0
   -6.9283    0.8000    0.0000 O   0  0  0  0  0  0  0  0  0  0  0  0
   -8.3138    0.0001    0.0000 C   0  0  0  0  0  0  0  0  0  0  0  0
   -9.6995    0.8000    0.0000 H   0  0  0  0  0  0  0  0  0  0  0  0
   -9.6995   -0.8000    0.0000 H   0  0  0  0  0  0  0  0  0  0  0  0
   -8.3138    1.6001    0.0000 H   0  0  0  0  0  0  0  0  0  0  0  0
   -6.9283   -0.8000    0.0000 O   0  0  0  0  0  0  0  0  0  0  0  0
   -6.9283   -2.4000    0.0000 C   0  0  0  0  0  0  0  0  0  0  0  0
   -6.9283   -4.0000    0.0000 H   0  0  0  0  0  0  0  0  0  0  0  0
   -8.3138   -3.1999    0.0000 H   0  0  0  0  0  0  0  0  0  0  0  0
   -5.5426   -3.1999    0.0000 H   0  0  0  0  0  0  0  0  0  0  0  0
   -5.5426    1.6001    0.0000 S   0  0  0  0  0  0  0  0  0  0  0  0
   -2.7713   -1.5999    0.0000 C   0  0  0  0  0  0  0  0  0  0  0  0
   -4.1569   -2.4000    0.0000 H   0  0  0  0  0  0  0  0  0  0  0  0
   -1.3856   -2.4000    0.0000 C   0  0  0  0  0  0  0  0  0  0  0  0
   -1.3856   -4.0000    0.0000 H   0  0  0  0  0  0  0  0  0  0  0  0
    0.0001   -1.5999    0.0000 C   0  0  0  0  0  0  0  0  0  0  0  0
    1.3856   -2.4000    0.0000 S   0  0  0  0  0  0  0  0  0  0  0  0
    1.3856   -4.0000    0.0000 C   0  0  0  0  0  0  0  0  0  0  0  0
    1.3856   -5.6000    0.0000 H   0  0  0  0  0  0  0  0  0  0  0  0
    2.7713   -4.7999    0.0000 H   0  0  0  0  0  0  0  0  0  0  0  0
    0.0001   -4.7999    0.0000 H   0  0  0  0  0  0  0  0  0  0  0  0
    2.7713   -1.5999    0.0000 O   0  0  0  0  0  0  0  0  0  0  0  0
  1  2  1  0  0  0  0
  1  3  1  0  0  0  0
  1  4  1  0  0  0  0
  1  5  1  0  0  0  0
  5  6  1  0  0  0  0
  6  7  1  0  0  0  0
  6  8  2  0  0  0  0
  8  9  1  0  0  0  0
  9 10  1  0  0  0  0
 10 11  1  0  0  0  0
 11 12  1  0  0  0  0
 12 13  1  0  0  0  0
 12 14  1  0  0  0  0
 12 15  1  0  0  0  0
 10 16  1  0  0  0  0
 16 17  1  0  0  0  0
 17 18  1  0  0  0  0
 17 19  1  0  0  0  0
 17 20  1  0  0  0  0
 10 21  2  0  0  0  0
  8 22  1  0  0  0  0
 22 23  1  0  0  0  0
 22 24  2  0  0  0  0
 24 25  1  0  0  0  0
 24 26  1  0  0  0  0
 26  5  2  0  0  0  0
 26 27  1  0  0  0  0
 27 28  1  0  0  0  0
 28 29  1  0  0  0  0
 28 30  1  0  0  0  0
 28 31  1  0  0  0  0
 27 32  2  0  0  0  0
M  END
> <ChemID>
100361

> <source_casrn>
3761-41-9

> <CAS>
3761-41-9

> <SMILES>
Cc1cc(ccc1S(C)=O)OP(=S)(OC)OC

> <NAME>
Fenthion sulfoxide

> <preferred_name>
Mesulfenfos

> <iupac>
O,O-dimethyl O-[3-methyl-4-(methylsulfinyl)phenyl] phosphorothioate

> <MPID>
101986

> <dsstox_substance_id>
DTXSID9058076

> <Canonical_QSARr>
Cc1cc(ccc1S(C)=O)OP(=S)(OC)OC

> <InChI_Code_QSARr>
InChI=1S/C10H15O4PS2/c1-8-7-9(5-6-10(8)17(4)11)14-15(16,12-2)13-3/h5-7H,1-4H3

> <InChI Key_QSARr>
DLAPIMGBBDILHJ-UHFFFAOYSA-N

> <LogKmHL>
-0.38

$$$$
100362
  -INDIGO-08031722222D

 33 33  0  0  0  0  0  0  0  0999 V2000
   -5.5425    3.2000    0.0000 S   0  0  0  0  0  0  0  0  0  0  0  0
   -5.5425    1.6000    0.0000 P   0  0  0  0  0  0  0  0  0  0  0  0
   -4.1569    2.4000    0.0000 O   0  0  0  0  0  0  0  0  0  0  0  0
   -2.7712    1.6000    0.0000 C   0  0  0  0  0  0  0  0  0  0  0  0
   -1.3856    2.4000    0.0000 C   0  0  0  0  0  0  0  0  0  0  0  0
   -1.3856    4.0000    0.0000 H   0  0  0  0  0  0  0  0  0  0  0  0
    0.0001    1.6000    0.0000 C   0  0  0  0  0  0  0  0  0  0  0  0
    1.3856    2.4000    0.0000 C   0  0  0  0  0  0  0  0  0  0  0  0
    2.7714    3.2000    0.0000 H   0  0  0  0  0  0  0  0  0  0  0  0
    1.3856    4.0000    0.0000 H   0  0  0  0  0  0  0  0  0  0  0  0
    2.7714    1.6000    0.0000 H   0  0  0  0  0  0  0  0  0  0  0  0
    0.0001    0.0000    0.0000 C   0  0  0  0  0  0  0  0  0  0  0  0
    1.3856   -0.8000    0.0000 S   0  0  0  0  0  0  0  0  0  0  0  0
    2.7714   -1.6000    0.0000 C   0  0  0  0  0  0  0  0  0  0  0  0
    4.1569   -2.4000    0.0000 H   0  0  0  0  0  0  0  0  0  0  0  0
    2.7714   -3.2000    0.0000 H   0  0  0  0  0  0  0  0  0  0  0  0
    4.1569   -0.8000    0.0000 H   0  0  0  0  0  0  0  0  0  0  0  0
    0.5856   -2.1856    0.0000 O   0  0  0  0  0  0  0  0  0  0  0  0
    2.1857    0.5856    0.0000 O   0  0  0  0  0  0  0  0  0  0  0  0
   -1.3856   -0.8000    0.0000 C   0  0  0  0  0  0  0  0  0  0  0  0
   -1.3856   -2.4000    0.0000 H   0  0  0  0  0  0  0  0  0  0  0  0
   -2.7712    0.0000    0.0000 C   0  0  0  0  0  0  0  0  0  0  0  0
   -4.1569   -0.8000    0.0000 H   0  0  0  0  0  0  0  0  0  0  0  0
   -6.9282    2.4000    0.0000 O   0  0  0  0  0  0  0  0  0  0  0  0
   -8.3139    1.6000    0.0000 C   0  0  0  0  0  0  0  0  0  0  0  0
   -9.6995    2.4000    0.0000 H   0  0  0  0  0  0  0  0  0  0  0  0
   -9.6995    0.8000    0.0000 H   0  0  0  0  0  0  0  0  0  0  0  0
   -8.3139    3.2000    0.0000 H   0  0  0  0  0  0  0  0  0  0  0  0
   -6.9282    0.8000    0.0000 O   0  0  0  0  0  0  0  0  0  0  0  0
   -6.9282   -0.8000    0.0000 C   0  0  0  0  0  0  0  0  0  0  0  0
   -6.9282   -2.4000    0.0000 H   0  0  0  0  0  0  0  0  0  0  0  0
   -8.3139   -1.6000    0.0000 H   0  0  0  0  0  0  0  0  0  0  0  0
   -5.5425   -1.6000    0.0000 H   0  0  0  0  0  0  0  0  0  0  0  0
  1  2  2  0  0  0  0
  2  3  1  0  0  0  0
  3  4  1  0  0  0  0
  4  5  1  0  0  0  0
  5  6  1  0  0  0  0
  5  7  2  0  0  0  0
  7  8  1  0  0  0  0
  8  9  1  0  0  0  0
  8 10  1  0  0  0  0
  8 11  1  0  0  0  0
  7 12  1  0  0  0  0
 12 13  1  0  0  0  0
 13 14  1  0  0  0  0
 14 15  1  0  0  0  0
 14 16  1  0  0  0  0
 14 17  1  0  0  0  0
 13 18  2  0  0  0  0
 13 19  2  0  0  0  0
 12 20  2  0  0  0  0
 20 21  1  0  0  0  0
 20 22  1  0  0  0  0
 22  4  2  0  0  0  0
 22 23  1  0  0  0  0
  2 24  1  0  0  0  0
 24 25  1  0  0  0  0
 25 26  1  0  0  0  0
 25 27  1  0  0  0  0
 25 28  1  0  0  0  0
  2 29  1  0  0  0  0
 29 30  1  0  0  0  0
 30 31  1  0  0  0  0
 30 32  1  0  0  0  0
 30 33  1  0  0  0  0
M  END
> <ChemID>
100362

> <source_casrn>
3761-42-0

> <CAS>
3761-42-0

> <SMILES>
S(=O)(=O)(C)c1c(C)cc(OP(=S)(OC)OC)cc1

> <NAME>
Fenthion sulfone

> <preferred_name>
Fenthion sulfone

> <iupac>
O,O-dimethyl O-[3-methyl-4-(methylsulfonyl)phenyl] phosphorothioate

> <MPID>
101987

> <dsstox_substance_id>
DTXSID6041975

> <Canonical_QSARr>
Cc1cc(ccc1S(C)(=O)=O)OP(=S)(OC)OC

> <InChI_Code_QSARr>
InChI=1S/C10H15O5PS2/c1-8-7-9(15-16(17,13-2)14-3)5-6-10(8)18(4,11)12/h5-7H,1-4H3

> <InChI Key_QSARr>
ZDHYERRNXRANLI-UHFFFAOYSA-N

> <LogKmHL>
-0.03

$$$$
100364
  -INDIGO-08031722222D

 22 23  0  0  0  0  0  0  0  0999 V2000
   -2.3999    1.3857    0.0000 O   0  0  0  0  0  0  0  0  0  0  0  0
   -3.2000    0.0000    0.0000 P   0  0  0  0  0  0  0  0  0  0  0  0
   -4.4257   -1.0285    0.0000 S   0  0  0  0  0  0  0  0  0  0  0  0
   -4.4257    1.0284    0.0000 O   0  0  0  0  0  0  0  0  0  0  0  0
   -5.9293    0.4812    0.0000 C   0  0  0  0  0  0  0  0  0  0  0  0
   -7.4327   -0.0660    0.0000 H   0  0  0  0  0  0  0  0  0  0  0  0
   -7.1548    1.5097    0.0000 H   0  0  0  0  0  0  0  0  0  0  0  0
   -6.2070   -1.0944    0.0000 H   0  0  0  0  0  0  0  0  0  0  0  0
   -2.3999   -1.3856    0.0000 O   0  0  0  0  0  0  0  0  0  0  0  0
   -0.8000   -1.3856    0.0000 C   0  0  0  0  0  0  0  0  0  0  0  0
   -1.0778   -2.9613    0.0000 H   0  0  0  0  0  0  0  0  0  0  0  0
    0.7036   -1.9328    0.0000 H   0  0  0  0  0  0  0  0  0  0  0  0
    0.0000    0.0000    0.0000 C   0  0  0  0  0  0  0  0  0  0  0  0
   -0.8000    1.3857    0.0000 C   0  0  0  0  0  0  0  0  0  0  0  0
    0.0000    2.7713    0.0000 C   0  0  0  0  0  0  0  0  0  0  0  0
   -0.8000    4.1569    0.0000 H   0  0  0  0  0  0  0  0  0  0  0  0
    1.6001    2.7713    0.0000 C   0  0  0  0  0  0  0  0  0  0  0  0
    2.3999    4.1569    0.0000 H   0  0  0  0  0  0  0  0  0  0  0  0
    2.3999    1.3857    0.0000 C   0  0  0  0  0  0  0  0  0  0  0  0
    4.0000    1.3857    0.0000 H   0  0  0  0  0  0  0  0  0  0  0  0
    1.6001    0.0000    0.0000 C   0  0  0  0  0  0  0  0  0  0  0  0
    2.3999   -1.3856    0.0000 H   0  0  0  0  0  0  0  0  0  0  0  0
  1  2  1  0  0  0  0
  2  3  2  0  0  0  0
  2  4  1  0  0  0  0
  4  5  1  0  0  0  0
  5  6  1  0  0  0  0
  5  7  1  0  0  0  0
  5  8  1  0  0  0  0
  2  9  1  0  0  0  0
  9 10  1  0  0  0  0
 10 11  1  0  0  0  0
 10 12  1  0  0  0  0
 10 13  1  0  0  0  0
 13 14  1  0  0  0  0
 14  1  1  0  0  0  0
 14 15  2  0  0  0  0
 15 16  1  0  0  0  0
 15 17  1  0  0  0  0
 17 18  1  0  0  0  0
 17 19  2  0  0  0  0
 19 20  1  0  0  0  0
 19 21  1  0  0  0  0
 21 13  2  0  0  0  0
 21 22  1  0  0  0  0
M  END
> <ChemID>
100364

> <source_casrn>
3811-49-2

> <CAS>
3811-49-2

> <SMILES>
COP1(=S)OCc2ccccc2O1

> <NAME>
Salithion

> <preferred_name>
Dioxabenzofos

> <iupac>
2-methoxy-4H-1,3,2-benzodioxaphosphinine 2-sulfide

> <MPID>
101989

> <dsstox_substance_id>
DTXSID7041885

> <Canonical_QSARr>
COP1(=S)OCc2ccccc2O1

> <InChI_Code_QSARr>
InChI=1S/C8H9O3PS/c1-9-12(13)10-6-7-4-2-3-5-8(7)11-12/h2-5H,6H2,1H3

> <InChI Key_QSARr>
OUNSASXJZHBGAI-UHFFFAOYSA-N

> <LogKmHL>
-1.15

$$$$
100365
  -INDIGO-08031722222D

 49 51  0  0  0  0  0  0  0  0999 V2000
   10.0333   -1.9712    0.0000 C   0  0  0  0  0  0  0  0  0  0  0  0
   11.4191   -1.1712    0.0000 H   0  0  0  0  0  0  0  0  0  0  0  0
   10.0333   -3.5714    0.0000 C   0  0  0  0  0  0  0  0  0  0  0  0
   11.4191   -4.3713    0.0000 H   0  0  0  0  0  0  0  0  0  0  0  0
    8.6478   -4.3713    0.0000 C   0  0  0  0  0  0  0  0  0  0  0  0
    8.6478   -5.9713    0.0000 H   0  0  0  0  0  0  0  0  0  0  0  0
    7.2621   -3.5714    0.0000 C   0  0  0  0  0  0  0  0  0  0  0  0
    7.2621   -1.9712    0.0000 C   0  0  0  0  0  0  0  0  0  0  0  0
    5.7405   -1.4768    0.0000 N   0  0  0  0  0  0  0  0  0  0  0  0
    4.8000   -2.7714    0.0000 N   0  0  0  0  0  0  0  0  0  0  0  0
    5.7405   -4.0657    0.0000 N   0  0  0  0  0  0  0  0  0  0  0  0
    3.2001   -2.7714    0.0000 C   0  0  0  0  0  0  0  0  0  0  0  0
    2.4001   -4.1570    0.0000 C   0  0  0  0  0  0  0  0  0  0  0  0
    3.2001   -5.5425    0.0000 H   0  0  0  0  0  0  0  0  0  0  0  0
    0.8000   -4.1570    0.0000 C   0  0  0  0  0  0  0  0  0  0  0  0
    0.0000   -5.5425    0.0000 C   0  0  0  0  0  0  0  0  0  0  0  0
   -0.8000   -6.9281    0.0000 C   0  0  0  0  0  0  0  0  0  0  0  0
   -1.5999   -8.3139    0.0000 H   0  0  0  0  0  0  0  0  0  0  0  0
   -2.3756   -7.2061    0.0000 H   0  0  0  0  0  0  0  0  0  0  0  0
   -0.2528   -8.4317    0.0000 H   0  0  0  0  0  0  0  0  0  0  0  0
   -1.3857   -4.7426    0.0000 C   0  0  0  0  0  0  0  0  0  0  0  0
   -2.8892   -5.2898    0.0000 H   0  0  0  0  0  0  0  0  0  0  0  0
   -2.6112   -3.7140    0.0000 H   0  0  0  0  0  0  0  0  0  0  0  0
   -1.6635   -6.3182    0.0000 H   0  0  0  0  0  0  0  0  0  0  0  0
    1.3857   -6.3425    0.0000 C   0  0  0  0  0  0  0  0  0  0  0  0
    2.8892   -6.8898    0.0000 H   0  0  0  0  0  0  0  0  0  0  0  0
    1.6634   -7.9183    0.0000 H   0  0  0  0  0  0  0  0  0  0  0  0
    0.1600   -7.3711    0.0000 H   0  0  0  0  0  0  0  0  0  0  0  0
    0.0000   -2.7714    0.0000 C   0  0  0  0  0  0  0  0  0  0  0  0
   -1.5999   -2.7712    0.0000 H   0  0  0  0  0  0  0  0  0  0  0  0
    0.8000   -1.3856    0.0000 C   0  0  0  0  0  0  0  0  0  0  0  0
    0.0000   -0.0000    0.0000 C   0  0  0  0  0  0  0  0  0  0  0  0
   -0.8000    1.3856    0.0000 C   0  0  0  0  0  0  0  0  0  0  0  0
   -1.5999    2.7713    0.0000 H   0  0  0  0  0  0  0  0  0  0  0  0
   -0.2528    2.8891    0.0000 H   0  0  0  0  0  0  0  0  0  0  0  0
   -2.3756    1.6635    0.0000 H   0  0  0  0  0  0  0  0  0  0  0  0
   -1.3857   -0.8000    0.0000 C   0  0  0  0  0  0  0  0  0  0  0  0
   -2.6112   -1.8285    0.0000 H   0  0  0  0  0  0  0  0  0  0  0  0
   -2.8892   -0.2527    0.0000 H   0  0  0  0  0  0  0  0  0  0  0  0
   -1.6635    0.7756    0.0000 H   0  0  0  0  0  0  0  0  0  0  0  0
    1.3857    0.8000    0.0000 C   0  0  0  0  0  0  0  0  0  0  0  0
    2.8892    1.3472    0.0000 H   0  0  0  0  0  0  0  0  0  0  0  0
    1.6634    2.3758    0.0000 H   0  0  0  0  0  0  0  0  0  0  0  0
    0.1600    1.8285    0.0000 H   0  0  0  0  0  0  0  0  0  0  0  0
    2.4001   -1.3856    0.0000 C   0  0  0  0  0  0  0  0  0  0  0  0
    3.2001   -0.0000    0.0000 O   0  0  0  0  0  0  0  0  0  0  0  0
    4.8000   -0.0000    0.0000 H   0  0  0  0  0  0  0  0  0  0  0  0
    8.6478   -1.1712    0.0000 C   0  0  0  0  0  0  0  0  0  0  0  0
    8.6478    0.4287    0.0000 H   0  0  0  0  0  0  0  0  0  0  0  0
  1  2  1  0  0  0  0
  1  3  1  0  0  0  0
  3  4  1  0  0  0  0
  3  5  2  0  0  0  0
  5  6  1  0  0  0  0
  5  7  1  0  0  0  0
  7  8  1  0  0  0  0
  8  9  2  0  0  0  0
  9 10  1  0  0  0  0
 10 11  1  0  0  0  0
 11  7  2  0  0  0  0
 10 12  1  0  0  0  0
 12 13  1  0  0  0  0
 13 14  1  0  0  0  0
 13 15  2  0  0  0  0
 15 16  1  0  0  0  0
 16 17  1  0  0  0  0
 17 18  1  0  0  0  0
 17 19  1  0  0  0  0
 17 20  1  0  0  0  0
 16 21  1  0  0  0  0
 21 22  1  0  0  0  0
 21 23  1  0  0  0  0
 21 24  1  0  0  0  0
 16 25  1  0  0  0  0
 25 26  1  0  0  0  0
 25 27  1  0  0  0  0
 25 28  1  0  0  0  0
 15 29  1  0  0  0  0
 29 30  1  0  0  0  0
 29 31  2  0  0  0  0
 31 32  1  0  0  0  0
 32 33  1  0  0  0  0
 33 34  1  0  0  0  0
 33 35  1  0  0  0  0
 33 36  1  0  0  0  0
 32 37  1  0  0  0  0
 37 38  1  0  0  0  0
 37 39  1  0  0  0  0
 37 40  1  0  0  0  0
 32 41  1  0  0  0  0
 41 42  1  0  0  0  0
 41 43  1  0  0  0  0
 41 44  1  0  0  0  0
 31 45  1  0  0  0  0
 45 12  2  0  0  0  0
 45 46  1  0  0  0  0
 46 47  1  0  0  0  0
  8 48  1  0  0  0  0
 48  1  2  0  0  0  0
 48 49  1  0  0  0  0
M  END
> <ChemID>
100365

> <source_casrn>
3846-71-7

> <CAS>
3846-71-7

> <SMILES>
Oc(c(cc(c1)C(C)(C)C)C(C)(C)C)c1n(nc(c2ccc3)c3)n2

> <NAME>
Phenol, 2-(2H-benzotriazol-2-yl)-4,6-bis(1,1-dim

> <preferred_name>
2-Benzotriazol-2-yl-4,6-di-tert-butylphenol

> <iupac>
2-(2H-benzotriazol-2-yl)-4,6-di-tert-butylphenol

> <MPID>
101990

> <dsstox_substance_id>
DTXSID4052059

> <Canonical_QSARr>
CC(C)(C)c1cc(cc(c1O)-[n]1[n]c2ccccc2[n]1)C(C)(C)C

> <InChI_Code_QSARr>
InChI=1S/C20H25N3O/c1-19(2,3)13-11-14(20(4,5)6)18(24)17(12-13)23-21-15-9-7-8-10-16(15)22-23/h7-12,24H,1-6H3

> <InChI Key_QSARr>
LHPPDQUVECZQSW-UHFFFAOYSA-N

> <LogKmHL>
0.89

$$$$
100366
  -INDIGO-08031722222D

 49 51  0  0  0  0  0  0  0  0999 V2000
    2.4001    1.3856    0.0000 C   0  0  0  0  0  0  0  0  0  0  0  0
    3.2001    0.0000    0.0000 O   0  0  0  0  0  0  0  0  0  0  0  0
    4.8000    0.0000    0.0000 H   0  0  0  0  0  0  0  0  0  0  0  0
    3.2001    2.7714    0.0000 C   0  0  0  0  0  0  0  0  0  0  0  0
    4.8000    2.7712    0.0000 N   0  0  0  0  0  0  0  0  0  0  0  0
    5.7405    1.4768    0.0000 N   0  0  0  0  0  0  0  0  0  0  0  0
    7.2621    1.9712    0.0000 C   0  0  0  0  0  0  0  0  0  0  0  0
    7.2621    3.5714    0.0000 C   0  0  0  0  0  0  0  0  0  0  0  0
    8.6478    4.3713    0.0000 C   0  0  0  0  0  0  0  0  0  0  0  0
    8.6478    5.9713    0.0000 H   0  0  0  0  0  0  0  0  0  0  0  0
   10.0333    3.5714    0.0000 C   0  0  0  0  0  0  0  0  0  0  0  0
   11.4191    4.3713    0.0000 H   0  0  0  0  0  0  0  0  0  0  0  0
   10.0333    1.9712    0.0000 C   0  0  0  0  0  0  0  0  0  0  0  0
    8.6478    1.1712    0.0000 C   0  0  0  0  0  0  0  0  0  0  0  0
    8.6478   -0.4287    0.0000 H   0  0  0  0  0  0  0  0  0  0  0  0
   11.4191    1.1712    0.0000 Cl  0  0  0  0  0  0  0  0  0  0  0  0
    5.7405    4.0657    0.0000 N   0  0  0  0  0  0  0  0  0  0  0  0
    2.4001    4.1570    0.0000 C   0  0  0  0  0  0  0  0  0  0  0  0
    3.2001    5.5425    0.0000 H   0  0  0  0  0  0  0  0  0  0  0  0
    0.8000    4.1570    0.0000 C   0  0  0  0  0  0  0  0  0  0  0  0
    0.0000    5.5425    0.0000 C   0  0  0  0  0  0  0  0  0  0  0  0
   -0.8000    6.9281    0.0000 C   0  0  0  0  0  0  0  0  0  0  0  0
   -1.5999    8.3139    0.0000 H   0  0  0  0  0  0  0  0  0  0  0  0
   -2.3756    7.2061    0.0000 H   0  0  0  0  0  0  0  0  0  0  0  0
   -0.2528    8.4317    0.0000 H   0  0  0  0  0  0  0  0  0  0  0  0
   -1.3857    4.7426    0.0000 C   0  0  0  0  0  0  0  0  0  0  0  0
   -2.8891    5.2898    0.0000 H   0  0  0  0  0  0  0  0  0  0  0  0
   -2.6112    3.7140    0.0000 H   0  0  0  0  0  0  0  0  0  0  0  0
   -1.6634    6.3182    0.0000 H   0  0  0  0  0  0  0  0  0  0  0  0
    1.3857    6.3425    0.0000 C   0  0  0  0  0  0  0  0  0  0  0  0
    2.8892    6.8898    0.0000 H   0  0  0  0  0  0  0  0  0  0  0  0
    1.6635    7.9183    0.0000 H   0  0  0  0  0  0  0  0  0  0  0  0
    0.1600    7.3711    0.0000 H   0  0  0  0  0  0  0  0  0  0  0  0
    0.0000    2.7714    0.0000 C   0  0  0  0  0  0  0  0  0  0  0  0
   -1.5999    2.7714    0.0000 H   0  0  0  0  0  0  0  0  0  0  0  0
    0.8000    1.3856    0.0000 C   0  0  0  0  0  0  0  0  0  0  0  0
    0.0000    0.0000    0.0000 C   0  0  0  0  0  0  0  0  0  0  0  0
   -0.8000   -1.3856    0.0000 C   0  0  0  0  0  0  0  0  0  0  0  0
   -1.5999   -2.7713    0.0000 H   0  0  0  0  0  0  0  0  0  0  0  0
   -0.2528   -2.8891    0.0000 H   0  0  0  0  0  0  0  0  0  0  0  0
   -2.3756   -1.6635    0.0000 H   0  0  0  0  0  0  0  0  0  0  0  0
   -1.3857    0.8000    0.0000 C   0  0  0  0  0  0  0  0  0  0  0  0
   -2.6112    1.8285    0.0000 H   0  0  0  0  0  0  0  0  0  0  0  0
   -2.8891    0.2527    0.0000 H   0  0  0  0  0  0  0  0  0  0  0  0
   -1.6634   -0.7756    0.0000 H   0  0  0  0  0  0  0  0  0  0  0  0
    1.3857   -0.8000    0.0000 C   0  0  0  0  0  0  0  0  0  0  0  0
    2.8892   -1.3472    0.0000 H   0  0  0  0  0  0  0  0  0  0  0  0
    1.6635   -2.3758    0.0000 H   0  0  0  0  0  0  0  0  0  0  0  0
    0.1600   -1.8285    0.0000 H   0  0  0  0  0  0  0  0  0  0  0  0
  1  2  1  0  0  0  0
  2  3  1  0  0  0  0
  1  4  1  0  0  0  0
  4  5  1  0  0  0  0
  5  6  1  0  0  0  0
  6  7  2  0  0  0  0
  7  8  1  0  0  0  0
  8  9  1  0  0  0  0
  9 10  1  0  0  0  0
  9 11  2  0  0  0  0
 11 12  1  0  0  0  0
 11 13  1  0  0  0  0
 13 14  2  0  0  0  0
 14  7  1  0  0  0  0
 14 15  1  0  0  0  0
 13 16  1  0  0  0  0
  8 17  2  0  0  0  0
 17  5  1  0  0  0  0
  4 18  2  0  0  0  0
 18 19  1  0  0  0  0
 18 20  1  0  0  0  0
 20 21  1  0  0  0  0
 21 22  1  0  0  0  0
 22 23  1  0  0  0  0
 22 24  1  0  0  0  0
 22 25  1  0  0  0  0
 21 26  1  0  0  0  0
 26 27  1  0  0  0  0
 26 28  1  0  0  0  0
 26 29  1  0  0  0  0
 21 30  1  0  0  0  0
 30 31  1  0  0  0  0
 30 32  1  0  0  0  0
 30 33  1  0  0  0  0
 20 34  2  0  0  0  0
 34 35  1  0  0  0  0
 34 36  1  0  0  0  0
 36  1  2  0  0  0  0
 36 37  1  0  0  0  0
 37 38  1  0  0  0  0
 38 39  1  0  0  0  0
 38 40  1  0  0  0  0
 38 41  1  0  0  0  0
 37 42  1  0  0  0  0
 42 43  1  0  0  0  0
 42 44  1  0  0  0  0
 42 45  1  0  0  0  0
 37 46  1  0  0  0  0
 46 47  1  0  0  0  0
 46 48  1  0  0  0  0
 46 49  1  0  0  0  0
M  END
> <ChemID>
100366

> <source_casrn>
3864-99-1

> <CAS>
3864-99-1

> <SMILES>
Oc(c(cc(c1)C(C)(C)C)C(C)(C)C)c1n(nc(c2cc(c3)Cl)c3)n2

> <NAME>
Phenol, 2-(5-chloro-2H-benzotriazol-2-yl)-4,6-bi

> <preferred_name>
Phenol, 2-(5-chloro-2H-benzotriazol-2-yl)-4,6-bis(1,1-dimethylethyl)-

> <iupac>
2,4-di-tert-butyl-6-(5-chloro-2H-benzotriazol-2-yl)phenol

> <MPID>
101991

> <dsstox_substance_id>
DTXSID4038893

> <Canonical_QSARr>
CC(C)(C)c1cc(cc(c1O)-[n]1[n]c2ccc(Cl)cc2[n]1)C(C)(C)C

> <InChI_Code_QSARr>
InChI=1S/C20H24ClN3O/c1-19(2,3)12-9-14(20(4,5)6)18(25)17(10-12)24-22-15-8-7-13(21)11-16(15)23-24/h7-11,25H,1-6H3

> <InChI Key_QSARr>
UWSMKYBKUPAEJQ-UHFFFAOYSA-N

> <LogKmHL>
0.72

$$$$
100369
  -INDIGO-08031722222D

 43 43  0  0  0  0  0  0  0  0999 V2000
   -2.4001    1.3857    0.0000 C   0  0  0  0  0  0  0  0  0  0  0  0
   -1.6000    2.7713    0.0000 O   0  0  0  0  0  0  0  0  0  0  0  0
    0.0000    2.7713    0.0000 H   0  0  0  0  0  0  0  0  0  0  0  0
   -4.0001    1.3857    0.0000 C   0  0  0  0  0  0  0  0  0  0  0  0
   -4.8000    2.7713    0.0000 C   0  0  0  0  0  0  0  0  0  0  0  0
   -5.6001    4.1568    0.0000 C   0  0  0  0  0  0  0  0  0  0  0  0
   -6.4000    5.5426    0.0000 H   0  0  0  0  0  0  0  0  0  0  0  0
   -7.1757    4.4348    0.0000 H   0  0  0  0  0  0  0  0  0  0  0  0
   -5.0528    5.6604    0.0000 H   0  0  0  0  0  0  0  0  0  0  0  0
   -6.1856    1.9713    0.0000 C   0  0  0  0  0  0  0  0  0  0  0  0
   -7.4112    0.9429    0.0000 H   0  0  0  0  0  0  0  0  0  0  0  0
   -7.6891    2.5184    0.0000 H   0  0  0  0  0  0  0  0  0  0  0  0
   -6.4635    3.5469    0.0000 H   0  0  0  0  0  0  0  0  0  0  0  0
   -3.4144    3.5712    0.0000 C   0  0  0  0  0  0  0  0  0  0  0  0
   -1.9108    4.1185    0.0000 H   0  0  0  0  0  0  0  0  0  0  0  0
   -3.1365    5.1470    0.0000 H   0  0  0  0  0  0  0  0  0  0  0  0
   -4.6400    4.5997    0.0000 H   0  0  0  0  0  0  0  0  0  0  0  0
   -4.8000   -0.0000    0.0000 C   0  0  0  0  0  0  0  0  0  0  0  0
   -6.4000   -0.0000    0.0000 H   0  0  0  0  0  0  0  0  0  0  0  0
   -4.0001   -1.3856    0.0000 C   0  0  0  0  0  0  0  0  0  0  0  0
   -4.8000   -2.7713    0.0000 C   0  0  0  0  0  0  0  0  0  0  0  0
   -3.5306   -3.7454    0.0000 H   0  0  0  0  0  0  0  0  0  0  0  0
   -4.5912   -4.3576    0.0000 H   0  0  0  0  0  0  0  0  0  0  0  0
   -6.4000   -2.7713    0.0000 C   0  0  0  0  0  0  0  0  0  0  0  0
   -7.2001   -4.1569    0.0000 H   0  0  0  0  0  0  0  0  0  0  0  0
   -8.0000   -2.7713    0.0000 H   0  0  0  0  0  0  0  0  0  0  0  0
   -5.6001   -4.1569    0.0000 H   0  0  0  0  0  0  0  0  0  0  0  0
   -2.4001   -1.3856    0.0000 C   0  0  0  0  0  0  0  0  0  0  0  0
   -1.6000   -2.7713    0.0000 H   0  0  0  0  0  0  0  0  0  0  0  0
   -1.6000   -0.0000    0.0000 C   0  0  0  0  0  0  0  0  0  0  0  0
    0.0000   -0.0000    0.0000 C   0  0  0  0  0  0  0  0  0  0  0  0
    1.5757   -0.2778    0.0000 C   0  0  0  0  0  0  0  0  0  0  0  0
    3.1514   -0.5557    0.0000 H   0  0  0  0  0  0  0  0  0  0  0  0
    2.8014    0.7506    0.0000 H   0  0  0  0  0  0  0  0  0  0  0  0
    2.3756   -1.6635    0.0000 H   0  0  0  0  0  0  0  0  0  0  0  0
   -0.2778   -1.5758    0.0000 C   0  0  0  0  0  0  0  0  0  0  0  0
   -0.5557   -3.1513    0.0000 H   0  0  0  0  0  0  0  0  0  0  0  0
    0.9478   -2.6041    0.0000 H   0  0  0  0  0  0  0  0  0  0  0  0
    1.2978   -1.2978    0.0000 H   0  0  0  0  0  0  0  0  0  0  0  0
    0.2779    1.5757    0.0000 C   0  0  0  0  0  0  0  0  0  0  0  0
    1.6635    2.3757    0.0000 H   0  0  0  0  0  0  0  0  0  0  0  0
    1.6635    0.7756    0.0000 H   0  0  0  0  0  0  0  0  0  0  0  0
   -1.2256    1.0285    0.0000 H   0  0  0  0  0  0  0  0  0  0  0  0
  1  2  1  0  0  0  0
  2  3  1  0  0  0  0
  1  4  1  0  0  0  0
  4  5  1  0  0  0  0
  5  6  1  0  0  0  0
  6  7  1  0  0  0  0
  6  8  1  0  0  0  0
  6  9  1  0  0  0  0
  5 10  1  0  0  0  0
 10 11  1  0  0  0  0
 10 12  1  0  0  0  0
 10 13  1  0  0  0  0
  5 14  1  0  0  0  0
 14 15  1  0  0  0  0
 14 16  1  0  0  0  0
 14 17  1  0  0  0  0
  4 18  2  0  0  0  0
 18 19  1  0  0  0  0
 18 20  1  0  0  0  0
 20 21  1  0  0  0  0
 21 22  1  0  0  0  0
 21 23  1  0  0  0  0
 21 24  1  0  0  0  0
 24 25  1  0  0  0  0
 24 26  1  0  0  0  0
 24 27  1  0  0  0  0
 20 28  2  0  0  0  0
 28 29  1  0  0  0  0
 28 30  1  0  0  0  0
 30  1  2  0  0  0  0
 30 31  1  0  0  0  0
 31 32  1  0  0  0  0
 32 33  1  0  0  0  0
 32 34  1  0  0  0  0
 32 35  1  0  0  0  0
 31 36  1  0  0  0  0
 36 37  1  0  0  0  0
 36 38  1  0  0  0  0
 36 39  1  0  0  0  0
 31 40  1  0  0  0  0
 40 41  1  0  0  0  0
 40 42  1  0  0  0  0
 40 43  1  0  0  0  0
M  END
> <ChemID>
100369

> <source_casrn>
4130-42-1

> <CAS>
4130-42-1

> <SMILES>
CCc1cc(c(O)c(c1)C(C)(C)C)C(C)(C)C

> <NAME>
Phenol, 2,6-bis(1,1-dimethylethyl)-4-ethyl-

> <preferred_name>
2,6-Di-tert-butyl-4-ethylphenol

> <iupac>
2,6-di-tert-butyl-4-ethylphenol

> <MPID>
101993

> <dsstox_substance_id>
DTXSID0029262

> <Canonical_QSARr>
CCc1cc(c(O)c(c1)C(C)(C)C)C(C)(C)C

> <InChI_Code_QSARr>
InChI=1S/C16H26O/c1-8-11-9-12(15(2,3)4)14(17)13(10-11)16(5,6)7/h9-10,17H,8H2,1-7H3

> <InChI Key_QSARr>
BVUXDWXKPROUDO-UHFFFAOYSA-N

> <LogKmHL>
0.86

$$$$
100371
  -INDIGO-08031722222D

 36 36  0  0  0  0  0  0  0  0999 V2000
    0.0001    0.0000    0.0000 C   0  0  0  0  0  0  0  0  0  0  0  0
    1.2258    1.0285    0.0000 H   0  0  0  0  0  0  0  0  0  0  0  0
    1.2258   -1.0285    0.0000 C   0  0  0  0  0  0  0  0  0  0  0  0
    1.5719   -2.5906    0.0000 H   0  0  0  0  0  0  0  0  0  0  0  0
    0.3661   -2.3779    0.0000 H   0  0  0  0  0  0  0  0  0  0  0  0
    2.7291   -0.4813    0.0000 C   0  0  0  0  0  0  0  0  0  0  0  0
    2.3829    1.0808    0.0000 H   0  0  0  0  0  0  0  0  0  0  0  0
    3.5888    0.8682    0.0000 H   0  0  0  0  0  0  0  0  0  0  0  0
    3.9547   -1.5097    0.0000 C   0  0  0  0  0  0  0  0  0  0  0  0
    4.3011   -3.0718    0.0000 H   0  0  0  0  0  0  0  0  0  0  0  0
    3.0953   -2.8592    0.0000 H   0  0  0  0  0  0  0  0  0  0  0  0
    5.4583   -0.9625    0.0000 C   0  0  0  0  0  0  0  0  0  0  0  0
    5.1121    0.5996    0.0000 H   0  0  0  0  0  0  0  0  0  0  0  0
    6.3180    0.3870    0.0000 H   0  0  0  0  0  0  0  0  0  0  0  0
    6.6840   -1.9909    0.0000 C   0  0  0  0  0  0  0  0  0  0  0  0
    7.0303   -3.5530    0.0000 H   0  0  0  0  0  0  0  0  0  0  0  0
    5.8243   -3.3404    0.0000 H   0  0  0  0  0  0  0  0  0  0  0  0
    8.1875   -1.4437    0.0000 C   0  0  0  0  0  0  0  0  0  0  0  0
    9.6910   -0.8965    0.0000 H   0  0  0  0  0  0  0  0  0  0  0  0
    9.4132   -2.4722    0.0000 H   0  0  0  0  0  0  0  0  0  0  0  0
    8.4654    0.1320    0.0000 H   0  0  0  0  0  0  0  0  0  0  0  0
   -0.7999    1.3856    0.0000 C   0  0  0  0  0  0  0  0  0  0  0  0
    0.7036    1.9329    0.0000 H   0  0  0  0  0  0  0  0  0  0  0  0
   -1.0778    2.9613    0.0000 H   0  0  0  0  0  0  0  0  0  0  0  0
   -2.4000    1.3856    0.0000 C   0  0  0  0  0  0  0  0  0  0  0  0
   -2.1221    2.9613    0.0000 H   0  0  0  0  0  0  0  0  0  0  0  0
   -3.9035    1.9329    0.0000 H   0  0  0  0  0  0  0  0  0  0  0  0
   -3.2000    0.0000    0.0000 C   0  0  0  0  0  0  0  0  0  0  0  0
   -4.4257    1.0285    0.0000 H   0  0  0  0  0  0  0  0  0  0  0  0
   -4.4257   -1.0285    0.0000 H   0  0  0  0  0  0  0  0  0  0  0  0
   -2.4000   -1.3856    0.0000 C   0  0  0  0  0  0  0  0  0  0  0  0
   -3.9035   -1.9328    0.0000 H   0  0  0  0  0  0  0  0  0  0  0  0
   -2.1221   -2.9613    0.0000 H   0  0  0  0  0  0  0  0  0  0  0  0
   -0.7999   -1.3856    0.0000 C   0  0  0  0  0  0  0  0  0  0  0  0
   -1.0778   -2.9613    0.0000 H   0  0  0  0  0  0  0  0  0  0  0  0
    0.7758   -1.6635    0.0000 H   0  0  0  0  0  0  0  0  0  0  0  0
  1  2  1  0  0  0  0
  1  3  1  0  0  0  0
  3  4  1  0  0  0  0
  3  5  1  0  0  0  0
  3  6  1  0  0  0  0
  6  7  1  0  0  0  0
  6  8  1  0  0  0  0
  6  9  1  0  0  0  0
  9 10  1  0  0  0  0
  9 11  1  0  0  0  0
  9 12  1  0  0  0  0
 12 13  1  0  0  0  0
 12 14  1  0  0  0  0
 12 15  1  0  0  0  0
 15 16  1  0  0  0  0
 15 17  1  0  0  0  0
 15 18  1  0  0  0  0
 18 19  1  0  0  0  0
 18 20  1  0  0  0  0
 18 21  1  0  0  0  0
  1 22  1  0  0  0  0
 22 23  1  0  0  0  0
 22 24  1  0  0  0  0
 22 25  1  0  0  0  0
 25 26  1  0  0  0  0
 25 27  1  0  0  0  0
 25 28  1  0  0  0  0
 28 29  1  0  0  0  0
 28 30  1  0  0  0  0
 28 31  1  0  0  0  0
 31 32  1  0  0  0  0
 31 33  1  0  0  0  0
 31 34  1  0  0  0  0
 34  1  1  0  0  0  0
 34 35  1  0  0  0  0
 34 36  1  0  0  0  0
M  END
> <ChemID>
100371

> <source_casrn>
4292-75-5

> <CAS>
4292-75-5

> <SMILES>
C(CCCC1)(C1)CCCCCC

> <NAME>
n-hexyl cyclohexane

> <preferred_name>
Cyclohexane, hexyl-

> <iupac>
Hexylcyclohexane

> <MPID>
101994

> <dsstox_substance_id>
DTXSID7063398

> <Canonical_QSARr>
CCCCCCC1CCCCC1

> <InChI_Code_QSARr>
InChI=1S/C12H24/c1-2-3-4-6-9-12-10-7-5-8-11-12/h12H,2-11H2,1H3

> <InChI Key_QSARr>
QHWAQXOSHHKCFK-UHFFFAOYSA-N

> <LogKmHL>
0.7

$$$$
100373
  -INDIGO-08031722222D

 50 49  0  0  0  0  0  0  0  0999 V2000
    4.5857    0.8000    0.0000 C   0  0  0  0  0  0  0  0  0  0  0  0
    4.7944    2.3864    0.0000 H   0  0  0  0  0  0  0  0  0  0  0  0
    5.8549    1.7740    0.0000 H   0  0  0  0  0  0  0  0  0  0  0  0
    2.9856    0.8000    0.0000 C   0  0  0  0  0  0  0  0  0  0  0  0
    2.1857   -0.5856    0.0000 H   0  0  0  0  0  0  0  0  0  0  0  0
    2.9856    2.4000    0.0000 C   0  0  0  0  0  0  0  0  0  0  0  0
    2.9856    4.0000    0.0000 H   0  0  0  0  0  0  0  0  0  0  0  0
    1.6001    3.2000    0.0000 H   0  0  0  0  0  0  0  0  0  0  0  0
    4.3713    3.2000    0.0000 H   0  0  0  0  0  0  0  0  0  0  0  0
    1.3856    0.8000    0.0000 C   0  0  0  0  0  0  0  0  0  0  0  0
    1.9980    2.2782    0.0000 H   0  0  0  0  0  0  0  0  0  0  0  0
    0.7733    2.2782    0.0000 H   0  0  0  0  0  0  0  0  0  0  0  0
   -0.0001   -0.0000    0.0000 C   0  0  0  0  0  0  0  0  0  0  0  0
   -1.3856   -0.8000    0.0000 C   0  0  0  0  0  0  0  0  0  0  0  0
   -1.9979   -2.2782    0.0000 H   0  0  0  0  0  0  0  0  0  0  0  0
   -0.7733   -2.2782    0.0000 H   0  0  0  0  0  0  0  0  0  0  0  0
   -2.7713   -0.0000    0.0000 C   0  0  0  0  0  0  0  0  0  0  0  0
   -4.1568    0.8000    0.0000 C   0  0  0  0  0  0  0  0  0  0  0  0
   -5.5426    1.6000    0.0000 H   0  0  0  0  0  0  0  0  0  0  0  0
   -5.5426   -0.0000    0.0000 H   0  0  0  0  0  0  0  0  0  0  0  0
   -4.1568    2.4000    0.0000 H   0  0  0  0  0  0  0  0  0  0  0  0
   -3.5712   -1.3856    0.0000 C   0  0  0  0  0  0  0  0  0  0  0  0
   -4.3713   -2.7713    0.0000 H   0  0  0  0  0  0  0  0  0  0  0  0
   -2.7713   -2.7713    0.0000 H   0  0  0  0  0  0  0  0  0  0  0  0
   -5.1713   -1.3856    0.0000 H   0  0  0  0  0  0  0  0  0  0  0  0
   -1.9713    1.3857    0.0000 C   0  0  0  0  0  0  0  0  0  0  0  0
   -2.7713    2.7712    0.0000 H   0  0  0  0  0  0  0  0  0  0  0  0
   -3.5712    1.3857    0.0000 H   0  0  0  0  0  0  0  0  0  0  0  0
   -1.1712   -0.0000    0.0000 H   0  0  0  0  0  0  0  0  0  0  0  0
   -0.8000    1.3857    0.0000 C   0  0  0  0  0  0  0  0  0  0  0  0
   -0.0001    2.7712    0.0000 H   0  0  0  0  0  0  0  0  0  0  0  0
   -1.6000    2.7712    0.0000 H   0  0  0  0  0  0  0  0  0  0  0  0
    0.8000    1.3857    0.0000 H   0  0  0  0  0  0  0  0  0  0  0  0
    0.8000   -1.3856    0.0000 C   0  0  0  0  0  0  0  0  0  0  0  0
    1.6001   -2.7713    0.0000 H   0  0  0  0  0  0  0  0  0  0  0  0
   -0.0001   -2.7713    0.0000 H   0  0  0  0  0  0  0  0  0  0  0  0
    2.3758   -1.6634    0.0000 H   0  0  0  0  0  0  0  0  0  0  0  0
    5.6140   -0.4257    0.0000 C   0  0  0  0  0  0  0  0  0  0  0  0
    6.8397    0.6028    0.0000 C   0  0  0  0  0  0  0  0  0  0  0  0
    8.0655    1.6312    0.0000 H   0  0  0  0  0  0  0  0  0  0  0  0
    8.3433    0.0555    0.0000 H   0  0  0  0  0  0  0  0  0  0  0  0
    6.8397    2.2028    0.0000 H   0  0  0  0  0  0  0  0  0  0  0  0
    6.8397   -1.4542    0.0000 C   0  0  0  0  0  0  0  0  0  0  0  0
    8.0655   -2.4825    0.0000 H   0  0  0  0  0  0  0  0  0  0  0  0
    6.5620   -3.0298    0.0000 H   0  0  0  0  0  0  0  0  0  0  0  0
    8.3433   -0.9069    0.0000 H   0  0  0  0  0  0  0  0  0  0  0  0
    4.3885   -1.4542    0.0000 C   0  0  0  0  0  0  0  0  0  0  0  0
    4.6662   -3.0298    0.0000 H   0  0  0  0  0  0  0  0  0  0  0  0
    5.8920   -2.0013    0.0000 H   0  0  0  0  0  0  0  0  0  0  0  0
    3.8412    0.0494    0.0000 H   0  0  0  0  0  0  0  0  0  0  0  0
  1  2  1  0  0  0  0
  1  3  1  0  0  0  0
  1  4  1  0  0  0  0
  4  5  1  0  0  0  0
  4  6  1  0  0  0  0
  6  7  1  0  0  0  0
  6  8  1  0  0  0  0
  6  9  1  0  0  0  0
  4 10  1  0  0  0  0
 10 11  1  0  0  0  0
 10 12  1  0  0  0  0
 10 13  1  0  0  0  0
 13 14  1  0  0  0  0
 14 15  1  0  0  0  0
 14 16  1  0  0  0  0
 14 17  1  0  0  0  0
 17 18  1  0  0  0  0
 18 19  1  0  0  0  0
 18 20  1  0  0  0  0
 18 21  1  0  0  0  0
 17 22  1  0  0  0  0
 22 23  1  0  0  0  0
 22 24  1  0  0  0  0
 22 25  1  0  0  0  0
 17 26  1  0  0  0  0
 26 27  1  0  0  0  0
 26 28  1  0  0  0  0
 26 29  1  0  0  0  0
 13 30  1  0  0  0  0
 30 31  1  0  0  0  0
 30 32  1  0  0  0  0
 30 33  1  0  0  0  0
 13 34  1  0  0  0  0
 34 35  1  0  0  0  0
 34 36  1  0  0  0  0
 34 37  1  0  0  0  0
  1 38  1  0  0  0  0
 38 39  1  0  0  0  0
 39 40  1  0  0  0  0
 39 41  1  0  0  0  0
 39 42  1  0  0  0  0
 38 43  1  0  0  0  0
 43 44  1  0  0  0  0
 43 45  1  0  0  0  0
 43 46  1  0  0  0  0
 38 47  1  0  0  0  0
 47 48  1  0  0  0  0
 47 49  1  0  0  0  0
 47 50  1  0  0  0  0
M  END
> <ChemID>
100373

> <source_casrn>
4390-04-9

> <CAS>
4390-04-9

> <SMILES>
CC(C)(C)CC(C)(C)CC(C)CC(C)(C)C

> <NAME>
2,2,4,4,6,8,8-heptamethyl nonane

> <preferred_name>
2,2,4,4,6,8,8-Heptamethylnonane

> <iupac>
2,2,4,4,6,8,8-heptamethylnonane

> <MPID>
101995

> <dsstox_substance_id>
DTXSID7052101

> <Canonical_QSARr>
CC(CC(C)(C)C)CC(C)(C)CC(C)(C)C

> <InChI_Code_QSARr>
InChI=1S/C16H34/c1-13(10-14(2,3)4)11-16(8,9)12-15(5,6)7/h13H,10-12H2,1-9H3

> <InChI Key_QSARr>
VCLJODPNBNEBKW-UHFFFAOYSA-N

> <LogKmHL>
1.81

$$$$
100376
  -INDIGO-08031722222D

 30 30  0  0  0  0  0  0  0  0999 V2000
    1.6000    0.0001    0.0000 C   0  0  0  0  0  0  0  0  0  0  0  0
    2.0140    1.5455    0.0000 H   0  0  0  0  0  0  0  0  0  0  0  0
    2.9857   -0.8000    0.0000 C   0  0  0  0  0  0  0  0  0  0  0  0
    4.1170    0.3314    0.0000 H   0  0  0  0  0  0  0  0  0  0  0  0
    3.7856   -2.1856    0.0000 C   0  0  0  0  0  0  0  0  0  0  0  0
    4.8141   -0.9600    0.0000 H   0  0  0  0  0  0  0  0  0  0  0  0
    5.3613   -2.4634    0.0000 H   0  0  0  0  0  0  0  0  0  0  0  0
    3.7856   -3.7857    0.0000 C   0  0  0  0  0  0  0  0  0  0  0  0
    5.3613   -3.5079    0.0000 H   0  0  0  0  0  0  0  0  0  0  0  0
    4.8141   -5.0113    0.0000 H   0  0  0  0  0  0  0  0  0  0  0  0
    2.9857   -5.1712    0.0000 C   0  0  0  0  0  0  0  0  0  0  0  0
    4.1170   -6.3027    0.0000 H   0  0  0  0  0  0  0  0  0  0  0  0
    1.6000   -5.9713    0.0000 C   0  0  0  0  0  0  0  0  0  0  0  0
    2.0140   -7.5168    0.0000 H   0  0  0  0  0  0  0  0  0  0  0  0
    0.0001   -5.9713    0.0000 C   0  0  0  0  0  0  0  0  0  0  0  0
    0.5473   -7.4747    0.0000 H   0  0  0  0  0  0  0  0  0  0  0  0
   -1.0284   -7.1969    0.0000 H   0  0  0  0  0  0  0  0  0  0  0  0
   -1.3857   -5.1712    0.0000 C   0  0  0  0  0  0  0  0  0  0  0  0
   -1.9329   -6.6748    0.0000 H   0  0  0  0  0  0  0  0  0  0  0  0
   -2.9614   -5.4490    0.0000 H   0  0  0  0  0  0  0  0  0  0  0  0
   -2.1857   -3.7857    0.0000 C   0  0  0  0  0  0  0  0  0  0  0  0
   -3.7311   -4.1997    0.0000 H   0  0  0  0  0  0  0  0  0  0  0  0
   -2.1857   -2.1856    0.0000 C   0  0  0  0  0  0  0  0  0  0  0  0
   -3.7311   -1.7715    0.0000 H   0  0  0  0  0  0  0  0  0  0  0  0
   -1.3857   -0.8000    0.0000 C   0  0  0  0  0  0  0  0  0  0  0  0
   -2.9614   -0.5221    0.0000 H   0  0  0  0  0  0  0  0  0  0  0  0
   -1.9329    0.7035    0.0000 H   0  0  0  0  0  0  0  0  0  0  0  0
    0.0001    0.0001    0.0000 C   0  0  0  0  0  0  0  0  0  0  0  0
   -1.0284    1.2256    0.0000 H   0  0  0  0  0  0  0  0  0  0  0  0
    0.5473    1.5034    0.0000 H   0  0  0  0  0  0  0  0  0  0  0  0
  1  2  1  0  0  0  0
  1  3  2  0  0  0  0
  3  4  1  0  0  0  0
  3  5  1  0  0  0  0
  5  6  1  0  0  0  0
  5  7  1  0  0  0  0
  5  8  1  0  0  0  0
  8  9  1  0  0  0  0
  8 10  1  0  0  0  0
  8 11  1  0  0  0  0
 11 12  1  0  0  0  0
 11 13  2  0  0  0  0
 13 14  1  0  0  0  0
 13 15  1  0  0  0  0
 15 16  1  0  0  0  0
 15 17  1  0  0  0  0
 15 18  1  0  0  0  0
 18 19  1  0  0  0  0
 18 20  1  0  0  0  0
 18 21  1  0  0  0  0
 21 22  1  0  0  0  0
 21 23  2  0  0  0  0
 23 24  1  0  0  0  0
 23 25  1  0  0  0  0
 25 26  1  0  0  0  0
 25 27  1  0  0  0  0
 25 28  1  0  0  0  0
 28  1  1  0  0  0  0
 28 29  1  0  0  0  0
 28 30  1  0  0  0  0
M  END
> <ChemID>
100376

> <source_casrn>
4904-61-4

> <CAS>
4904-61-4

> <SMILES>
C1CC=CCCC=CCCC=C1

> <NAME>
1,5,9-cyclododecatriene

> <preferred_name>
1,5,9-Cyclododecatriene

> <iupac>


> <MPID>
101997

> <dsstox_substance_id>
DTXSID8027581

> <Canonical_QSARr>
C1CC=CCCC=CCCC=C1

> <InChI_Code_QSARr>
InChI=1S/C12H18/c1-2-4-6-8-10-12-11-9-7-5-3-1/h1-2,7-10H,3-6,11-12H2/b2-1-,9-7-,10-8-

> <InChI Key_QSARr>
ZOLLIQAKMYWTBR-MOLCZBCNSA-N

> <LogKmHL>
1.74

$$$$
100377
  -INDIGO-08031722222D

 34 35  0  0  0  0  0  0  0  0999 V2000
    2.4001   -1.3857    0.0000 C   0  0  0  0  0  0  0  0  0  0  0  0
    3.9999   -1.3857    0.0000 C   0  0  0  0  0  0  0  0  0  0  0  0
    4.8000   -2.7713    0.0000 C   0  0  0  0  0  0  0  0  0  0  0  0
    3.9999   -4.1570    0.0000 H   0  0  0  0  0  0  0  0  0  0  0  0
    6.4000   -2.7713    0.0000 C   0  0  0  0  0  0  0  0  0  0  0  0
    7.2001   -4.1570    0.0000 C   0  0  0  0  0  0  0  0  0  0  0  0
    8.0001   -5.5426    0.0000 H   0  0  0  0  0  0  0  0  0  0  0  0
    8.7999   -4.1570    0.0000 H   0  0  0  0  0  0  0  0  0  0  0  0
    6.4000   -5.5426    0.0000 H   0  0  0  0  0  0  0  0  0  0  0  0
    7.2001   -1.3856    0.0000 C   0  0  0  0  0  0  0  0  0  0  0  0
    8.7999   -1.3856    0.0000 C   0  0  0  0  0  0  0  0  0  0  0  0
   10.4000   -1.3856    0.0000 H   0  0  0  0  0  0  0  0  0  0  0  0
    9.6000    0.0000    0.0000 H   0  0  0  0  0  0  0  0  0  0  0  0
    9.6000   -2.7713    0.0000 H   0  0  0  0  0  0  0  0  0  0  0  0
    6.4000    0.0000    0.0000 C   0  0  0  0  0  0  0  0  0  0  0  0
    7.2001    1.3857    0.0000 H   0  0  0  0  0  0  0  0  0  0  0  0
    4.8000    0.0000    0.0000 C   0  0  0  0  0  0  0  0  0  0  0  0
    3.9999    1.3856    0.0000 H   0  0  0  0  0  0  0  0  0  0  0  0
    1.6000    0.0000    0.0000 C   0  0  0  0  0  0  0  0  0  0  0  0
    2.4001    1.3857    0.0000 H   0  0  0  0  0  0  0  0  0  0  0  0
   -0.0000    0.0000    0.0000 C   0  0  0  0  0  0  0  0  0  0  0  0
   -0.8001    1.3857    0.0000 C   0  0  0  0  0  0  0  0  0  0  0  0
   -1.5999    2.7713    0.0000 H   0  0  0  0  0  0  0  0  0  0  0  0
   -2.3999    1.3857    0.0000 H   0  0  0  0  0  0  0  0  0  0  0  0
   -0.0000    2.7713    0.0000 H   0  0  0  0  0  0  0  0  0  0  0  0
   -0.8001   -1.3857    0.0000 C   0  0  0  0  0  0  0  0  0  0  0  0
   -2.3999   -1.3857    0.0000 C   0  0  0  0  0  0  0  0  0  0  0  0
   -4.0000   -1.3857    0.0000 H   0  0  0  0  0  0  0  0  0  0  0  0
   -3.2000   -2.7713    0.0000 H   0  0  0  0  0  0  0  0  0  0  0  0
   -3.2000    0.0000    0.0000 H   0  0  0  0  0  0  0  0  0  0  0  0
   -0.0000   -2.7713    0.0000 C   0  0  0  0  0  0  0  0  0  0  0  0
   -0.8001   -4.1570    0.0000 H   0  0  0  0  0  0  0  0  0  0  0  0
    1.6000   -2.7713    0.0000 C   0  0  0  0  0  0  0  0  0  0  0  0
    2.4001   -4.1570    0.0000 H   0  0  0  0  0  0  0  0  0  0  0  0
  1  2  1  0  0  0  0
  2  3  1  0  0  0  0
  3  4  1  0  0  0  0
  3  5  2  0  0  0  0
  5  6  1  0  0  0  0
  6  7  1  0  0  0  0
  6  8  1  0  0  0  0
  6  9  1  0  0  0  0
  5 10  1  0  0  0  0
 10 11  1  0  0  0  0
 11 12  1  0  0  0  0
 11 13  1  0  0  0  0
 11 14  1  0  0  0  0
 10 15  2  0  0  0  0
 15 16  1  0  0  0  0
 15 17  1  0  0  0  0
 17  2  2  0  0  0  0
 17 18  1  0  0  0  0
  1 19  1  0  0  0  0
 19 20  1  0  0  0  0
 19 21  2  0  0  0  0
 21 22  1  0  0  0  0
 22 23  1  0  0  0  0
 22 24  1  0  0  0  0
 22 25  1  0  0  0  0
 21 26  1  0  0  0  0
 26 27  1  0  0  0  0
 27 28  1  0  0  0  0
 27 29  1  0  0  0  0
 27 30  1  0  0  0  0
 26 31  2  0  0  0  0
 31 32  1  0  0  0  0
 31 33  1  0  0  0  0
 33  1  2  0  0  0  0
 33 34  1  0  0  0  0
M  END
> <ChemID>
100377

> <source_casrn>
4920-95-0

> <CAS>
4920-95-0

> <SMILES>
c(cc(c1)c(ccc2C)cc2C)c(c1C)C

> <NAME>
3,3',4,4' tetramethyl 1,1'-biphenyl

> <preferred_name>
1,1'-Biphenyl, 3,3',4,4'-tetramethyl-

> <iupac>
4-(3,4-dimethylphenyl)-1,2-dimethylbenzene

> <MPID>
101998

> <dsstox_substance_id>
DTXSID9074646

> <Canonical_QSARr>
Cc1ccc(cc1C)-c1cc(C)c(C)cc1

> <InChI_Code_QSARr>
InChI=1S/C16H18/c1-11-5-7-15(9-13(11)3)16-8-6-12(2)14(4)10-16/h5-10H,1-4H3

> <InChI Key_QSARr>
YXBIAYXZUDJVEB-UHFFFAOYSA-N

> <LogKmHL>
-0.01

$$$$
100380
  -INDIGO-08031722222D

 41 43  0  0  0  0  0  0  0  0999 V2000
   -4.0001   -1.3857    0.0000 C   0  0  0  0  0  0  0  0  0  0  0  0
   -3.1999   -2.7713    0.0000 C   0  0  0  0  0  0  0  0  0  0  0  0
   -1.5999   -2.7713    0.0000 H   0  0  0  0  0  0  0  0  0  0  0  0
   -4.0001   -4.1569    0.0000 C   0  0  0  0  0  0  0  0  0  0  0  0
   -3.1999   -5.5426    0.0000 H   0  0  0  0  0  0  0  0  0  0  0  0
   -5.6001   -4.1569    0.0000 C   0  0  0  0  0  0  0  0  0  0  0  0
   -6.4000   -5.5426    0.0000 H   0  0  0  0  0  0  0  0  0  0  0  0
   -6.4000   -2.7713    0.0000 C   0  0  0  0  0  0  0  0  0  0  0  0
   -8.0000   -2.7713    0.0000 H   0  0  0  0  0  0  0  0  0  0  0  0
   -5.6001   -1.3857    0.0000 C   0  0  0  0  0  0  0  0  0  0  0  0
   -6.4000    0.0001    0.0000 H   0  0  0  0  0  0  0  0  0  0  0  0
   -3.1999    0.0001    0.0000 N   0  0  0  0  0  0  0  0  0  0  0  0
   -4.0001    1.3857    0.0000 H   0  0  0  0  0  0  0  0  0  0  0  0
   -1.5999    0.0001    0.0000 S   0  0  0  0  0  0  0  0  0  0  0  0
   -1.5999   -1.6000    0.0000 O   0  0  0  0  0  0  0  0  0  0  0  0
   -1.5999    1.6000    0.0000 O   0  0  0  0  0  0  0  0  0  0  0  0
    0.0001    0.0001    0.0000 C   0  0  0  0  0  0  0  0  0  0  0  0
    0.8000    1.3857    0.0000 C   0  0  0  0  0  0  0  0  0  0  0  0
    0.0001    2.7713    0.0000 H   0  0  0  0  0  0  0  0  0  0  0  0
    2.4000    1.3857    0.0000 C   0  0  0  0  0  0  0  0  0  0  0  0
    3.1999    2.7713    0.0000 N   0  0  0  0  0  0  0  0  0  0  0  0
    2.4000    4.1569    0.0000 O   0  0  0  0  0  0  0  0  0  0  0  0
    4.7999    2.7713    0.0000 O   0  0  0  0  0  0  0  0  0  0  0  0
    3.1999    0.0001    0.0000 C   0  0  0  0  0  0  0  0  0  0  0  0
    4.7999    0.0001    0.0000 N   0  0  0  0  0  0  0  0  0  0  0  0
    5.6001    1.3857    0.0000 H   0  0  0  0  0  0  0  0  0  0  0  0
    6.0258   -1.0284    0.0000 C   0  0  0  0  0  0  0  0  0  0  0  0
    7.5291   -0.4812    0.0000 C   0  0  0  0  0  0  0  0  0  0  0  0
    7.8069    1.0944    0.0000 H   0  0  0  0  0  0  0  0  0  0  0  0
    8.7547   -1.5097    0.0000 C   0  0  0  0  0  0  0  0  0  0  0  0
   10.2584   -0.9624    0.0000 H   0  0  0  0  0  0  0  0  0  0  0  0
    8.4770   -3.0854    0.0000 C   0  0  0  0  0  0  0  0  0  0  0  0
    9.7028   -4.1139    0.0000 H   0  0  0  0  0  0  0  0  0  0  0  0
    6.9736   -3.6326    0.0000 C   0  0  0  0  0  0  0  0  0  0  0  0
    6.6956   -5.2084    0.0000 H   0  0  0  0  0  0  0  0  0  0  0  0
    5.7477   -2.6041    0.0000 C   0  0  0  0  0  0  0  0  0  0  0  0
    4.2444   -3.1514    0.0000 H   0  0  0  0  0  0  0  0  0  0  0  0
    2.4000   -1.3857    0.0000 C   0  0  0  0  0  0  0  0  0  0  0  0
    3.1999   -2.7713    0.0000 H   0  0  0  0  0  0  0  0  0  0  0  0
    0.8000   -1.3857    0.0000 C   0  0  0  0  0  0  0  0  0  0  0  0
    0.0001   -2.7713    0.0000 H   0  0  0  0  0  0  0  0  0  0  0  0
  1  2  1  0  0  0  0
  2  3  1  0  0  0  0
  2  4  2  0  0  0  0
  4  5  1  0  0  0  0
  4  6  1  0  0  0  0
  6  7  1  0  0  0  0
  6  8  2  0  0  0  0
  8  9  1  0  0  0  0
  8 10  1  0  0  0  0
 10  1  2  0  0  0  0
 10 11  1  0  0  0  0
  1 12  1  0  0  0  0
 12 13  1  0  0  0  0
 12 14  1  0  0  0  0
 14 15  2  0  0  0  0
 14 16  2  0  0  0  0
 14 17  1  0  0  0  0
 17 18  1  0  0  0  0
 18 19  1  0  0  0  0
 18 20  2  0  0  0  0
 20 21  1  0  0  0  0
 21 22  1  0  0  0  0
 21 23  2  0  0  0  0
 20 24  1  0  0  0  0
 24 25  1  0  0  0  0
 25 26  1  0  0  0  0
 25 27  1  0  0  0  0
 27 28  1  0  0  0  0
 28 29  1  0  0  0  0
 28 30  2  0  0  0  0
 30 31  1  0  0  0  0
 30 32  1  0  0  0  0
 32 33  1  0  0  0  0
 32 34  2  0  0  0  0
 34 35  1  0  0  0  0
 34 36  1  0  0  0  0
 36 27  2  0  0  0  0
 36 37  1  0  0  0  0
 24 38  2  0  0  0  0
 38 39  1  0  0  0  0
 38 40  1  0  0  0  0
 40 17  2  0  0  0  0
 40 41  1  0  0  0  0
M  CHG  2  21   1  22  -1
M  END
> <ChemID>
100380

> <source_casrn>
5124-25-4

> <CAS>
5124-25-4

> <SMILES>
O=S(=O)(Nc(cccc1)c1)c(ccc(Nc(cccc2)c2)c3N(=O)(=O))c3

> <NAME>
Benzenesulfonamide, 3-nitro-N-phenyl-4-(phenylam

> <preferred_name>
C.I.Disperse Yellow 42

> <iupac>
4-anilino-3-nitro-N-phenylbenzenesulfonamide

> <MPID>
102001

> <dsstox_substance_id>
DTXSID8052148

> <Canonical_QSARr>
[O-][N+](=O)c1cc(ccc1Nc1ccccc1)S(=O)(=O)Nc1ccccc1

> <InChI_Code_QSARr>
InChI=1S/C18H15N3O4S/c22-21(23)18-13-16(26(24,25)20-15-9-5-2-6-10-15)11-12-17(18)19-14-7-3-1-4-8-14/h1-13,19-20H

> <InChI Key_QSARr>
BBFRYSKTTHYWQZ-UHFFFAOYSA-N

> <LogKmHL>
-0.66

$$$$
100383
  -INDIGO-08031722222D

 18 18  0  0  0  0  0  0  0  0999 V2000
    4.1569   -4.0000    0.0000 O   0  0  0  0  0  0  0  0  0  0  0  0
    4.1569   -2.4000    0.0000 N   0  0  0  0  0  0  0  0  0  0  0  0
    5.5426   -1.6000    0.0000 O   0  0  0  0  0  0  0  0  0  0  0  0
    2.7713   -1.6000    0.0000 C   0  0  0  0  0  0  0  0  0  0  0  0
    2.7713   -0.0000    0.0000 C   0  0  0  0  0  0  0  0  0  0  0  0
    4.1570    0.8000    0.0000 H   0  0  0  0  0  0  0  0  0  0  0  0
    1.3857    0.8000    0.0000 C   0  0  0  0  0  0  0  0  0  0  0  0
    1.3857    2.4000    0.0000 H   0  0  0  0  0  0  0  0  0  0  0  0
    0.0000   -0.0000    0.0000 C   0  0  0  0  0  0  0  0  0  0  0  0
   -1.3856    0.8000    0.0000 C   0  0  0  0  0  0  0  0  0  0  0  0
   -2.7713    1.6000    0.0000 H   0  0  0  0  0  0  0  0  0  0  0  0
   -1.3856    2.4000    0.0000 H   0  0  0  0  0  0  0  0  0  0  0  0
   -2.7713   -0.0000    0.0000 H   0  0  0  0  0  0  0  0  0  0  0  0
    0.0000   -1.6000    0.0000 C   0  0  0  0  0  0  0  0  0  0  0  0
   -1.3856   -2.4000    0.0000 O   0  0  0  0  0  0  0  0  0  0  0  0
   -1.3856   -4.0000    0.0000 H   0  0  0  0  0  0  0  0  0  0  0  0
    1.3857   -2.4000    0.0000 C   0  0  0  0  0  0  0  0  0  0  0  0
    1.3857   -4.0000    0.0000 H   0  0  0  0  0  0  0  0  0  0  0  0
  1  2  2  0  0  0  0
  2  3  1  0  0  0  0
  2  4  1  0  0  0  0
  4  5  1  0  0  0  0
  5  6  1  0  0  0  0
  5  7  2  0  0  0  0
  7  8  1  0  0  0  0
  7  9  1  0  0  0  0
  9 10  1  0  0  0  0
 10 11  1  0  0  0  0
 10 12  1  0  0  0  0
 10 13  1  0  0  0  0
  9 14  2  0  0  0  0
 14 15  1  0  0  0  0
 15 16  1  0  0  0  0
 14 17  1  0  0  0  0
 17  4  2  0  0  0  0
 17 18  1  0  0  0  0
M  CHG  2   2   1   3  -1
M  END
> <ChemID>
100383

> <source_casrn>
5428-54-6

> <CAS>
5428-54-6

> <SMILES>
Cc1ccc(cc1O)[N+]([O-])=O

> <NAME>
Phenol, 2-methyl-5-nitro-

> <preferred_name>
Phenol, 2-methyl-5-nitro-

> <iupac>
2-Methyl-5-nitrophenol

> <MPID>
102003

> <dsstox_substance_id>
DTXSID4063874

> <Canonical_QSARr>
Cc1ccc(cc1O)[N+]([O-])=O

> <InChI_Code_QSARr>
InChI=1S/C7H7NO3/c1-5-2-3-6(8(10)11)4-7(5)9/h2-4,9H,1H3

> <InChI Key_QSARr>
UMFDLIXUUJMPSI-UHFFFAOYSA-N

> <LogKmHL>
-1.24

$$$$
100384
  -INDIGO-08031722222D

 23 24  0  0  0  0  0  0  0  0999 V2000
    1.3857    0.8000    0.0000 O   0  0  0  0  0  0  0  0  0  0  0  0
    2.9613    0.5222    0.0000 C   0  0  0  0  0  0  0  0  0  0  0  0
    3.5086   -0.9813    0.0000 C   0  0  0  0  0  0  0  0  0  0  0  0
    2.4802   -2.2071    0.0000 H   0  0  0  0  0  0  0  0  0  0  0  0
    5.0842   -1.2591    0.0000 C   0  0  0  0  0  0  0  0  0  0  0  0
    5.6315   -2.7627    0.0000 H   0  0  0  0  0  0  0  0  0  0  0  0
    6.1126   -0.0335    0.0000 C   0  0  0  0  0  0  0  0  0  0  0  0
    7.6884   -0.3113    0.0000 Br  0  0  0  0  0  0  0  0  0  0  0  0
    5.5655    1.4700    0.0000 C   0  0  0  0  0  0  0  0  0  0  0  0
    6.5940    2.6957    0.0000 H   0  0  0  0  0  0  0  0  0  0  0  0
    3.9898    1.7479    0.0000 C   0  0  0  0  0  0  0  0  0  0  0  0
    3.4426    3.2513    0.0000 Br  0  0  0  0  0  0  0  0  0  0  0  0
   -0.0001    0.0001    0.0000 C   0  0  0  0  0  0  0  0  0  0  0  0
   -0.0001   -1.6000    0.0000 C   0  0  0  0  0  0  0  0  0  0  0  0
    1.3857   -2.4000    0.0000 Br  0  0  0  0  0  0  0  0  0  0  0  0
   -1.3857   -2.4000    0.0000 C   0  0  0  0  0  0  0  0  0  0  0  0
   -1.3857   -4.0000    0.0000 H   0  0  0  0  0  0  0  0  0  0  0  0
   -2.7713   -1.6000    0.0000 C   0  0  0  0  0  0  0  0  0  0  0  0
   -4.1569   -2.4000    0.0000 Br  0  0  0  0  0  0  0  0  0  0  0  0
   -2.7713    0.0001    0.0000 C   0  0  0  0  0  0  0  0  0  0  0  0
   -4.1569    0.8000    0.0000 H   0  0  0  0  0  0  0  0  0  0  0  0
   -1.3857    0.8000    0.0000 C   0  0  0  0  0  0  0  0  0  0  0  0
   -1.3857    2.4000    0.0000 H   0  0  0  0  0  0  0  0  0  0  0  0
  1  2  1  0  0  0  0
  2  3  1  0  0  0  0
  3  4  1  0  0  0  0
  3  5  2  0  0  0  0
  5  6  1  0  0  0  0
  5  7  1  0  0  0  0
  7  8  1  0  0  0  0
  7  9  2  0  0  0  0
  9 10  1  0  0  0  0
  9 11  1  0  0  0  0
 11  2  2  0  0  0  0
 11 12  1  0  0  0  0
  1 13  1  0  0  0  0
 13 14  1  0  0  0  0
 14 15  1  0  0  0  0
 14 16  2  0  0  0  0
 16 17  1  0  0  0  0
 16 18  1  0  0  0  0
 18 19  1  0  0  0  0
 18 20  2  0  0  0  0
 20 21  1  0  0  0  0
 20 22  1  0  0  0  0
 22 13  2  0  0  0  0
 22 23  1  0  0  0  0
M  END
> <ChemID>
100384

> <source_casrn>
5436-43-1

> <CAS>
5436-43-1

> <SMILES>
BrC1=CC(Br)=CC=C1OC2=CC=C(C=C2Br)Br

> <NAME>
2,2',4,4'-Tetrabromodiphenyl ether (BDE 47)

> <preferred_name>
2,2'4,4'-Tetrabromodiphenyl ether

> <iupac>
bis(2,4-dibromophenyl) ether

> <MPID>
102004

> <dsstox_substance_id>
DTXSID3030056

> <Canonical_QSARr>
Brc1cc(Br)c(cc1)Oc1ccc(Br)cc1Br

> <InChI_Code_QSARr>
InChI=1S/C12H6Br4O/c13-7-1-3-11(9(15)5-7)17-12-4-2-8(14)6-10(12)16/h1-6H

> <InChI Key_QSARr>
XYBSIYMGXVUVGY-UHFFFAOYSA-N

> <LogKmHL>
1.6

$$$$
100386
  -INDIGO-08031722222D

 24 26  0  0  0  0  0  0  0  0999 V2000
    1.5216   -2.0945    0.0000 C   0  0  0  0  0  0  0  0  0  0  0  0
    2.9073   -2.8944    0.0000 H   0  0  0  0  0  0  0  0  0  0  0  0
    0.8709   -3.5561    0.0000 H   0  0  0  0  0  0  0  0  0  0  0  0
    0.0000   -1.6000    0.0000 C   0  0  0  0  0  0  0  0  0  0  0  0
    0.0000   -3.2000    0.0000 H   0  0  0  0  0  0  0  0  0  0  0  0
   -1.5217   -2.0945    0.0000 C   0  0  0  0  0  0  0  0  0  0  0  0
   -1.5217   -3.6944    0.0000 Cl  0  0  0  0  0  0  0  0  0  0  0  0
   -2.4622   -0.8000    0.0000 C   0  0  0  0  0  0  0  0  0  0  0  0
   -3.9456   -0.2006    0.0000 Cl  0  0  0  0  0  0  0  0  0  0  0  0
   -3.9456   -1.3994    0.0000 Cl  0  0  0  0  0  0  0  0  0  0  0  0
   -1.5217    0.4945    0.0000 C   0  0  0  0  0  0  0  0  0  0  0  0
   -1.5217    2.0944    0.0000 Cl  0  0  0  0  0  0  0  0  0  0  0  0
    0.0000   -0.0000    0.0000 C   0  0  0  0  0  0  0  0  0  0  0  0
    0.0000    1.6000    0.0000 H   0  0  0  0  0  0  0  0  0  0  0  0
    1.5216    0.4945    0.0000 C   0  0  0  0  0  0  0  0  0  0  0  0
    2.9073    1.2944    0.0000 H   0  0  0  0  0  0  0  0  0  0  0  0
    0.8709    1.9561    0.0000 H   0  0  0  0  0  0  0  0  0  0  0  0
    2.4621   -0.8000    0.0000 C   0  0  0  0  0  0  0  0  0  0  0  0
    3.6512   -1.8706    0.0000 Cl  0  0  0  0  0  0  0  0  0  0  0  0
    3.6512    0.2706    0.0000 Cl  0  0  0  0  0  0  0  0  0  0  0  0
   -3.0434   -0.0000    0.0000 C   0  0  0  0  0  0  0  0  0  0  0  0
   -4.3378    0.9405    0.0000 Cl  0  0  0  0  0  0  0  0  0  0  0  0
   -3.0434   -1.6000    0.0000 C   0  0  0  0  0  0  0  0  0  0  0  0
   -4.3378   -2.5405    0.0000 Cl  0  0  0  0  0  0  0  0  0  0  0  0
  1  2  1  0  0  0  0
  1  3  1  0  0  0  0
  1  4  1  0  0  0  0
  4  5  1  0  0  0  0
  4  6  1  0  0  0  0
  6  7  1  0  0  0  0
  6  8  1  0  0  0  0
  8  9  1  0  0  0  0
  8 10  1  0  0  0  0
  8 11  1  0  0  0  0
 11 12  1  0  0  0  0
 11 13  1  0  0  0  0
 13  4  1  0  0  0  0
 13 14  1  0  0  0  0
 13 15  1  0  0  0  0
 15 16  1  0  0  0  0
 15 17  1  0  0  0  0
 15 18  1  0  0  0  0
 18  1  1  0  0  0  0
 18 19  1  0  0  0  0
 18 20  1  0  0  0  0
 11 21  1  0  0  0  0
 21 22  1  0  0  0  0
 21 23  2  0  0  0  0
 23  6  1  0  0  0  0
 23 24  1  0  0  0  0
M  END
> <ChemID>
100386

> <source_casrn>
5566-34-7

> <CAS>
5566-34-7

> <SMILES>
ClC12C(Cl)(Cl)C(C3C2CC(Cl)(Cl)C3)(Cl)C(Cl)=C1Cl

> <NAME>
Gamma-chlordane

> <preferred_name>
2,2,4,5,6,7,8,8-Octachloro-2,3,3a,4,7,7a-hexahydro-4,7-methano-1H-indene

> <iupac>
C10H6Cl8

> <MPID>
102006

> <dsstox_substance_id>
DTXSID10858938

> <Canonical_QSARr>
ClC1(Cl)CC2C(C1)C1(Cl)C(Cl)=C(Cl)C2(Cl)C1(Cl)Cl

> <InChI_Code_QSARr>
InChI=1S/C10H6Cl8/c11-5-6(12)9(16)4-2-7(13,14)1-3(4)8(5,15)10(9,17)18/h3-4H,1-2H2

> <InChI Key_QSARr>
JBZJEPYXXVKOKF-UHFFFAOYSA-N

> <LogKmHL>
2.23

$$$$
100387
  -INDIGO-08031722222D

 39 39  0  0  0  0  0  0  0  0999 V2000
   -0.0001    0.0000    0.0000 C   0  0  0  0  0  0  0  0  0  0  0  0
    1.2257    1.0285    0.0000 H   0  0  0  0  0  0  0  0  0  0  0  0
    1.2257   -1.0284    0.0000 C   0  0  0  0  0  0  0  0  0  0  0  0
    1.5720   -2.5905    0.0000 H   0  0  0  0  0  0  0  0  0  0  0  0
    0.3661   -2.3779    0.0000 H   0  0  0  0  0  0  0  0  0  0  0  0
    2.7292   -0.4813    0.0000 C   0  0  0  0  0  0  0  0  0  0  0  0
    2.3829    1.0809    0.0000 H   0  0  0  0  0  0  0  0  0  0  0  0
    3.5888    0.8682    0.0000 H   0  0  0  0  0  0  0  0  0  0  0  0
    3.9548   -1.5097    0.0000 C   0  0  0  0  0  0  0  0  0  0  0  0
    4.3012   -3.0718    0.0000 H   0  0  0  0  0  0  0  0  0  0  0  0
    3.0951   -2.8592    0.0000 H   0  0  0  0  0  0  0  0  0  0  0  0
    5.4584   -0.9625    0.0000 C   0  0  0  0  0  0  0  0  0  0  0  0
    5.1120    0.5996    0.0000 H   0  0  0  0  0  0  0  0  0  0  0  0
    6.3181    0.3870    0.0000 H   0  0  0  0  0  0  0  0  0  0  0  0
    6.6840   -1.9909    0.0000 C   0  0  0  0  0  0  0  0  0  0  0  0
    7.0303   -3.5530    0.0000 H   0  0  0  0  0  0  0  0  0  0  0  0
    5.8244   -3.3403    0.0000 H   0  0  0  0  0  0  0  0  0  0  0  0
    8.1875   -1.4436    0.0000 C   0  0  0  0  0  0  0  0  0  0  0  0
    7.8412    0.1184    0.0000 H   0  0  0  0  0  0  0  0  0  0  0  0
    9.0471   -0.0942    0.0000 H   0  0  0  0  0  0  0  0  0  0  0  0
    9.4133   -2.4721    0.0000 C   0  0  0  0  0  0  0  0  0  0  0  0
   10.6388   -3.5006    0.0000 H   0  0  0  0  0  0  0  0  0  0  0  0
   10.9167   -1.9249    0.0000 H   0  0  0  0  0  0  0  0  0  0  0  0
    9.1354   -4.0478    0.0000 H   0  0  0  0  0  0  0  0  0  0  0  0
   -0.8000    1.3856    0.0000 C   0  0  0  0  0  0  0  0  0  0  0  0
    0.7034    1.9329    0.0000 H   0  0  0  0  0  0  0  0  0  0  0  0
   -1.0779    2.9613    0.0000 H   0  0  0  0  0  0  0  0  0  0  0  0
   -2.3999    1.3856    0.0000 C   0  0  0  0  0  0  0  0  0  0  0  0
   -2.1223    2.9613    0.0000 H   0  0  0  0  0  0  0  0  0  0  0  0
   -3.9036    1.9329    0.0000 H   0  0  0  0  0  0  0  0  0  0  0  0
   -3.2001    0.0000    0.0000 C   0  0  0  0  0  0  0  0  0  0  0  0
   -4.4257    1.0285    0.0000 H   0  0  0  0  0  0  0  0  0  0  0  0
   -4.4257   -1.0284    0.0000 H   0  0  0  0  0  0  0  0  0  0  0  0
   -2.3999   -1.3857    0.0000 C   0  0  0  0  0  0  0  0  0  0  0  0
   -3.9036   -1.9328    0.0000 H   0  0  0  0  0  0  0  0  0  0  0  0
   -2.1223   -2.9613    0.0000 H   0  0  0  0  0  0  0  0  0  0  0  0
   -0.8000   -1.3857    0.0000 C   0  0  0  0  0  0  0  0  0  0  0  0
   -1.0779   -2.9613    0.0000 H   0  0  0  0  0  0  0  0  0  0  0  0
    0.7758   -1.6634    0.0000 H   0  0  0  0  0  0  0  0  0  0  0  0
  1  2  1  0  0  0  0
  1  3  1  0  0  0  0
  3  4  1  0  0  0  0
  3  5  1  0  0  0  0
  3  6  1  0  0  0  0
  6  7  1  0  0  0  0
  6  8  1  0  0  0  0
  6  9  1  0  0  0  0
  9 10  1  0  0  0  0
  9 11  1  0  0  0  0
  9 12  1  0  0  0  0
 12 13  1  0  0  0  0
 12 14  1  0  0  0  0
 12 15  1  0  0  0  0
 15 16  1  0  0  0  0
 15 17  1  0  0  0  0
 15 18  1  0  0  0  0
 18 19  1  0  0  0  0
 18 20  1  0  0  0  0
 18 21  1  0  0  0  0
 21 22  1  0  0  0  0
 21 23  1  0  0  0  0
 21 24  1  0  0  0  0
  1 25  1  0  0  0  0
 25 26  1  0  0  0  0
 25 27  1  0  0  0  0
 25 28  1  0  0  0  0
 28 29  1  0  0  0  0
 28 30  1  0  0  0  0
 28 31  1  0  0  0  0
 31 32  1  0  0  0  0
 31 33  1  0  0  0  0
 31 34  1  0  0  0  0
 34 35  1  0  0  0  0
 34 36  1  0  0  0  0
 34 37  1  0  0  0  0
 37  1  1  0  0  0  0
 37 38  1  0  0  0  0
 37 39  1  0  0  0  0
M  END
> <ChemID>
100387

> <source_casrn>
5617-41-4

> <CAS>
5617-41-4

> <SMILES>
C1CCCCC1CCCCCCC

> <NAME>
n-heptyl cyclohexane

> <preferred_name>
Heptylcyclohexane

> <iupac>
Heptylcyclohexane

> <MPID>
102007

> <dsstox_substance_id>
DTXSID1058636

> <Canonical_QSARr>
CCCCCCCC1CCCCC1

> <InChI_Code_QSARr>
InChI=1S/C13H26/c1-2-3-4-5-7-10-13-11-8-6-9-12-13/h13H,2-12H2,1H3

> <InChI Key_QSARr>
MSTLSCNJAHAQNU-UHFFFAOYSA-N

> <LogKmHL>
0.17

$$$$
100388
  -INDIGO-08031722222D

 28 29  0  0  0  0  0  0  0  0999 V2000
    3.2000    0.0000    0.0000 C   0  0  0  0  0  0  0  0  0  0  0  0
    4.8000    0.0000    0.0000 C   0  0  0  0  0  0  0  0  0  0  0  0
    5.6000   -1.3856    0.0000 C   0  0  0  0  0  0  0  0  0  0  0  0
    4.8000   -2.7713    0.0000 H   0  0  0  0  0  0  0  0  0  0  0  0
    7.2000   -1.3856    0.0000 C   0  0  0  0  0  0  0  0  0  0  0  0
    8.0000   -2.7713    0.0000 H   0  0  0  0  0  0  0  0  0  0  0  0
    8.0000    0.0000    0.0000 C   0  0  0  0  0  0  0  0  0  0  0  0
    9.6000    0.0000    0.0000 H   0  0  0  0  0  0  0  0  0  0  0  0
    7.2000    1.3856    0.0000 C   0  0  0  0  0  0  0  0  0  0  0  0
    8.0000    2.7713    0.0000 H   0  0  0  0  0  0  0  0  0  0  0  0
    5.6000    1.3856    0.0000 C   0  0  0  0  0  0  0  0  0  0  0  0
    4.8000    2.7713    0.0000 H   0  0  0  0  0  0  0  0  0  0  0  0
    2.4000    1.3856    0.0000 C   0  0  0  0  0  0  0  0  0  0  0  0
    3.2000    2.7713    0.0000 H   0  0  0  0  0  0  0  0  0  0  0  0
    0.8000    1.3856    0.0000 C   0  0  0  0  0  0  0  0  0  0  0  0
    0.0000    2.7713    0.0000 H   0  0  0  0  0  0  0  0  0  0  0  0
    0.0000    0.0000    0.0000 C   0  0  0  0  0  0  0  0  0  0  0  0
   -1.6000    0.0000    0.0000 C   0  0  0  0  0  0  0  0  0  0  0  0
   -1.8088   -1.5863    0.0000 H   0  0  0  0  0  0  0  0  0  0  0  0
   -2.8694   -0.9740    0.0000 H   0  0  0  0  0  0  0  0  0  0  0  0
   -2.4000    1.3856    0.0000 C   0  0  0  0  0  0  0  0  0  0  0  0
   -4.0000    1.3856    0.0000 H   0  0  0  0  0  0  0  0  0  0  0  0
   -3.2000    2.7713    0.0000 H   0  0  0  0  0  0  0  0  0  0  0  0
   -3.2000   -0.0000    0.0000 H   0  0  0  0  0  0  0  0  0  0  0  0
    0.8000   -1.3856    0.0000 C   0  0  0  0  0  0  0  0  0  0  0  0
    0.0000   -2.7713    0.0000 H   0  0  0  0  0  0  0  0  0  0  0  0
    2.4000   -1.3856    0.0000 C   0  0  0  0  0  0  0  0  0  0  0  0
    3.2000   -2.7713    0.0000 H   0  0  0  0  0  0  0  0  0  0  0  0
  1  2  1  0  0  0  0
  2  3  1  0  0  0  0
  3  4  1  0  0  0  0
  3  5  2  0  0  0  0
  5  6  1  0  0  0  0
  5  7  1  0  0  0  0
  7  8  1  0  0  0  0
  7  9  2  0  0  0  0
  9 10  1  0  0  0  0
  9 11  1  0  0  0  0
 11  2  2  0  0  0  0
 11 12  1  0  0  0  0
  1 13  1  0  0  0  0
 13 14  1  0  0  0  0
 13 15  2  0  0  0  0
 15 16  1  0  0  0  0
 15 17  1  0  0  0  0
 17 18  1  0  0  0  0
 18 19  1  0  0  0  0
 18 20  1  0  0  0  0
 18 21  1  0  0  0  0
 21 22  1  0  0  0  0
 21 23  1  0  0  0  0
 21 24  1  0  0  0  0
 17 25  2  0  0  0  0
 25 26  1  0  0  0  0
 25 27  1  0  0  0  0
 27  1  2  0  0  0  0
 27 28  1  0  0  0  0
M  END
> <ChemID>
100388

> <source_casrn>
5707-44-8

> <CAS>
5707-44-8

> <SMILES>
CCc1ccc(cc1)-c1ccccc1

> <NAME>
4-ethylbiphenyl

> <preferred_name>
1,1'-Biphenyl, 4-ethyl-

> <iupac>
1-Ethyl-4-phenylbenzene

> <MPID>
102008

> <dsstox_substance_id>
DTXSID7073355

> <Canonical_QSARr>
CCc1ccc(cc1)-c1ccccc1

> <InChI_Code_QSARr>
InChI=1S/C14H14/c1-2-12-8-10-14(11-9-12)13-6-4-3-5-7-13/h3-11H,2H2,1H3

> <InChI Key_QSARr>
SRQOBNUBCLPPPH-UHFFFAOYSA-N

> <LogKmHL>
0.06

$$$$
100390
  -INDIGO-08031722222D

 34 35  0  0  0  0  0  0  0  0999 V2000
    2.4001    1.3856    0.0000 C   0  0  0  0  0  0  0  0  0  0  0  0
    4.0000    1.3856    0.0000 C   0  0  0  0  0  0  0  0  0  0  0  0
    4.7999    2.7713    0.0000 H   0  0  0  0  0  0  0  0  0  0  0  0
    4.7999    0.0001    0.0000 C   0  0  0  0  0  0  0  0  0  0  0  0
    6.4000    0.0001    0.0000 H   0  0  0  0  0  0  0  0  0  0  0  0
    4.0000   -1.3856    0.0000 C   0  0  0  0  0  0  0  0  0  0  0  0
    4.7999   -2.7712    0.0000 C   0  0  0  0  0  0  0  0  0  0  0  0
    5.6001   -4.1569    0.0000 H   0  0  0  0  0  0  0  0  0  0  0  0
    6.4000   -2.7712    0.0000 H   0  0  0  0  0  0  0  0  0  0  0  0
    4.0000   -4.1569    0.0000 H   0  0  0  0  0  0  0  0  0  0  0  0
    2.4001   -1.3856    0.0000 C   0  0  0  0  0  0  0  0  0  0  0  0
    1.5999   -2.7712    0.0000 H   0  0  0  0  0  0  0  0  0  0  0  0
    1.5999    0.0001    0.0000 C   0  0  0  0  0  0  0  0  0  0  0  0
    0.0001    0.0001    0.0000 C   0  0  0  0  0  0  0  0  0  0  0  0
    0.0001    1.6000    0.0000 H   0  0  0  0  0  0  0  0  0  0  0  0
    0.2778   -1.5757    0.0000 C   0  0  0  0  0  0  0  0  0  0  0  0
    0.5556   -3.1514    0.0000 H   0  0  0  0  0  0  0  0  0  0  0  0
   -0.9478   -2.6041    0.0000 H   0  0  0  0  0  0  0  0  0  0  0  0
   -1.2257   -1.0284    0.0000 H   0  0  0  0  0  0  0  0  0  0  0  0
   -1.5756    0.2779    0.0000 C   0  0  0  0  0  0  0  0  0  0  0  0
   -2.6041   -0.9478    0.0000 C   0  0  0  0  0  0  0  0  0  0  0  0
   -2.0569   -2.4514    0.0000 H   0  0  0  0  0  0  0  0  0  0  0  0
   -4.1799   -0.6700    0.0000 C   0  0  0  0  0  0  0  0  0  0  0  0
   -5.2084   -1.8956    0.0000 H   0  0  0  0  0  0  0  0  0  0  0  0
   -4.7271    0.8335    0.0000 C   0  0  0  0  0  0  0  0  0  0  0  0
   -6.3028    1.1114    0.0000 H   0  0  0  0  0  0  0  0  0  0  0  0
   -3.6986    2.0591    0.0000 C   0  0  0  0  0  0  0  0  0  0  0  0
   -4.2458    3.5627    0.0000 H   0  0  0  0  0  0  0  0  0  0  0  0
   -2.1230    1.7813    0.0000 C   0  0  0  0  0  0  0  0  0  0  0  0
   -1.0945    3.0071    0.0000 H   0  0  0  0  0  0  0  0  0  0  0  0
    1.5999    2.7713    0.0000 C   0  0  0  0  0  0  0  0  0  0  0  0
    0.8000    4.1569    0.0000 H   0  0  0  0  0  0  0  0  0  0  0  0
    2.4001    4.1569    0.0000 H   0  0  0  0  0  0  0  0  0  0  0  0
    0.0001    2.7713    0.0000 H   0  0  0  0  0  0  0  0  0  0  0  0
  1  2  1  0  0  0  0
  2  3  1  0  0  0  0
  2  4  2  0  0  0  0
  4  5  1  0  0  0  0
  4  6  1  0  0  0  0
  6  7  1  0  0  0  0
  7  8  1  0  0  0  0
  7  9  1  0  0  0  0
  7 10  1  0  0  0  0
  6 11  2  0  0  0  0
 11 12  1  0  0  0  0
 11 13  1  0  0  0  0
 13  1  2  0  0  0  0
 13 14  1  0  0  0  0
 14 15  1  0  0  0  0
 14 16  1  0  0  0  0
 16 17  1  0  0  0  0
 16 18  1  0  0  0  0
 16 19  1  0  0  0  0
 14 20  1  0  0  0  0
 20 21  1  0  0  0  0
 21 22  1  0  0  0  0
 21 23  2  0  0  0  0
 23 24  1  0  0  0  0
 23 25  1  0  0  0  0
 25 26  1  0  0  0  0
 25 27  2  0  0  0  0
 27 28  1  0  0  0  0
 27 29  1  0  0  0  0
 29 20  2  0  0  0  0
 29 30  1  0  0  0  0
  1 31  1  0  0  0  0
 31 32  1  0  0  0  0
 31 33  1  0  0  0  0
 31 34  1  0  0  0  0
M  END
> <ChemID>
100390

> <source_casrn>
6165-51-1

> <CAS>
6165-51-1

> <SMILES>
c(cccc1)(c1)C(c(c(ccc2C)C)c2)C

> <NAME>
Benzene, 1,4-dimethyl-2-(1-phenylethyl)-

> <preferred_name>


> <iupac>


> <MPID>
102010

> <dsstox_substance_id>
DTXSID30879781

> <Canonical_QSARr>
Cc1cc(C(C)c2ccccc2)c(C)cc1

> <InChI_Code_QSARr>
InChI=1S/C16H18/c1-12-9-10-13(2)16(11-12)14(3)15-7-5-4-6-8-15/h4-11,14H,1-3H3

> <InChI Key_QSARr>
FRAOOIFTSMORED-UHFFFAOYSA-N

> <LogKmHL>
0.1

$$$$
100391
  -INDIGO-08031722222D

 15 15  0  0  0  0  0  0  0  0999 V2000
    0.0000   -0.0000    0.0000 C   0  0  0  0  0  0  0  0  0  0  0  0
   -0.8001    1.3856    0.0000 C   0  0  0  0  0  0  0  0  0  0  0  0
    0.0000    2.7713    0.0000 Cl  0  0  0  0  0  0  0  0  0  0  0  0
   -2.4001    1.3856    0.0000 C   0  0  0  0  0  0  0  0  0  0  0  0
   -3.2000    2.7713    0.0000 H   0  0  0  0  0  0  0  0  0  0  0  0
   -3.2000   -0.0000    0.0000 C   0  0  0  0  0  0  0  0  0  0  0  0
   -4.8000   -0.0000    0.0000 Cl  0  0  0  0  0  0  0  0  0  0  0  0
   -2.4001   -1.3856    0.0000 C   0  0  0  0  0  0  0  0  0  0  0  0
   -3.2000   -2.7713    0.0000 Cl  0  0  0  0  0  0  0  0  0  0  0  0
   -0.8001   -1.3856    0.0000 C   0  0  0  0  0  0  0  0  0  0  0  0
    0.0000   -2.7713    0.0000 H   0  0  0  0  0  0  0  0  0  0  0  0
    1.6000   -0.0000    0.0000 C   0  0  0  0  0  0  0  0  0  0  0  0
    3.2000   -0.0000    0.0000 H   0  0  0  0  0  0  0  0  0  0  0  0
    2.4001   -1.3856    0.0000 H   0  0  0  0  0  0  0  0  0  0  0  0
    2.4001    1.3856    0.0000 H   0  0  0  0  0  0  0  0  0  0  0  0
  1  2  1  0  0  0  0
  2  3  1  0  0  0  0
  2  4  2  0  0  0  0
  4  5  1  0  0  0  0
  4  6  1  0  0  0  0
  6  7  1  0  0  0  0
  6  8  2  0  0  0  0
  8  9  1  0  0  0  0
  8 10  1  0  0  0  0
 10  1  2  0  0  0  0
 10 11  1  0  0  0  0
  1 12  1  0  0  0  0
 12 13  1  0  0  0  0
 12 14  1  0  0  0  0
 12 15  1  0  0  0  0
M  END
> <ChemID>
100391

> <source_casrn>
6639-30-1

> <CAS>
6639-30-1

> <SMILES>
Cc1cc(Cl)c(Cl)cc1Cl

> <NAME>
2,4,5-trichlorotoluene

> <preferred_name>
2,4,5-Trichlorotoluene

> <iupac>
1,2,4-trichloro-5-methylbenzene

> <MPID>
102011

> <dsstox_substance_id>
DTXSID8064434

> <Canonical_QSARr>
Cc1cc(Cl)c(Cl)cc1Cl

> <InChI_Code_QSARr>
InChI=1S/C7H5Cl3/c1-4-2-6(9)7(10)3-5(4)8/h2-3H,1H3

> <InChI Key_QSARr>
ZCXHZKNWIYVQNC-UHFFFAOYSA-N

> <LogKmHL>
2.01

$$$$
100393
  -INDIGO-08031722222D

 35 34  0  0  0  0  0  0  0  0999 V2000
   -9.6912   -0.8964    0.0000 C   0  0  0  0  0  0  0  0  0  0  0  0
   -9.3448    0.6656    0.0000 H   0  0  0  0  0  0  0  0  0  0  0  0
  -10.5507    0.4530    0.0000 H   0  0  0  0  0  0  0  0  0  0  0  0
   -8.1877   -1.4437    0.0000 C   0  0  0  0  0  0  0  0  0  0  0  0
   -8.5337   -3.0057    0.0000 H   0  0  0  0  0  0  0  0  0  0  0  0
   -7.3279   -2.7931    0.0000 H   0  0  0  0  0  0  0  0  0  0  0  0
   -6.9619   -0.4152    0.0000 C   0  0  0  0  0  0  0  0  0  0  0  0
   -6.6155    1.1468    0.0000 H   0  0  0  0  0  0  0  0  0  0  0  0
   -7.8216    0.9342    0.0000 H   0  0  0  0  0  0  0  0  0  0  0  0
   -5.4583   -0.9625    0.0000 C   0  0  0  0  0  0  0  0  0  0  0  0
   -5.8047   -2.5245    0.0000 H   0  0  0  0  0  0  0  0  0  0  0  0
   -4.5986   -2.3119    0.0000 H   0  0  0  0  0  0  0  0  0  0  0  0
   -4.2328    0.0660    0.0000 C   0  0  0  0  0  0  0  0  0  0  0  0
   -3.8865    1.6281    0.0000 H   0  0  0  0  0  0  0  0  0  0  0  0
   -5.0923    1.4155    0.0000 H   0  0  0  0  0  0  0  0  0  0  0  0
   -2.7293   -0.4813    0.0000 C   0  0  0  0  0  0  0  0  0  0  0  0
   -3.0754   -2.0433    0.0000 H   0  0  0  0  0  0  0  0  0  0  0  0
   -1.8695   -1.8307    0.0000 H   0  0  0  0  0  0  0  0  0  0  0  0
   -1.5035    0.5472    0.0000 C   0  0  0  0  0  0  0  0  0  0  0  0
   -1.1572    2.1093    0.0000 H   0  0  0  0  0  0  0  0  0  0  0  0
   -2.3633    1.8967    0.0000 H   0  0  0  0  0  0  0  0  0  0  0  0
    0.0000    0.0000    0.0000 C   0  0  0  0  0  0  0  0  0  0  0  0
   -0.7999   -1.3857    0.0000 H   0  0  0  0  0  0  0  0  0  0  0  0
    1.3855   -0.8000    0.0000 C   0  0  0  0  0  0  0  0  0  0  0  0
    2.7713   -1.6000    0.0000 H   0  0  0  0  0  0  0  0  0  0  0  0
    1.3855   -2.4000    0.0000 H   0  0  0  0  0  0  0  0  0  0  0  0
    2.7713    0.0000    0.0000 H   0  0  0  0  0  0  0  0  0  0  0  0
    0.8000    1.3856    0.0000 C   0  0  0  0  0  0  0  0  0  0  0  0
    1.6000    2.7713    0.0000 H   0  0  0  0  0  0  0  0  0  0  0  0
    0.0000    2.7713    0.0000 H   0  0  0  0  0  0  0  0  0  0  0  0
    2.3999    1.3856    0.0000 H   0  0  0  0  0  0  0  0  0  0  0  0
  -10.9167   -1.9250    0.0000 C   0  0  0  0  0  0  0  0  0  0  0  0
  -12.1423   -2.9534    0.0000 H   0  0  0  0  0  0  0  0  0  0  0  0
  -12.4202   -1.3777    0.0000 H   0  0  0  0  0  0  0  0  0  0  0  0
  -10.6388   -3.5006    0.0000 H   0  0  0  0  0  0  0  0  0  0  0  0
  1  2  1  0  0  0  0
  1  3  1  0  0  0  0
  1  4  1  0  0  0  0
  4  5  1  0  0  0  0
  4  6  1  0  0  0  0
  4  7  1  0  0  0  0
  7  8  1  0  0  0  0
  7  9  1  0  0  0  0
  7 10  1  0  0  0  0
 10 11  1  0  0  0  0
 10 12  1  0  0  0  0
 10 13  1  0  0  0  0
 13 14  1  0  0  0  0
 13 15  1  0  0  0  0
 13 16  1  0  0  0  0
 16 17  1  0  0  0  0
 16 18  1  0  0  0  0
 16 19  1  0  0  0  0
 19 20  1  0  0  0  0
 19 21  1  0  0  0  0
 19 22  1  0  0  0  0
 22 23  1  0  0  0  0
 22 24  1  0  0  0  0
 24 25  1  0  0  0  0
 24 26  1  0  0  0  0
 24 27  1  0  0  0  0
 22 28  1  0  0  0  0
 28 29  1  0  0  0  0
 28 30  1  0  0  0  0
 28 31  1  0  0  0  0
  1 32  1  0  0  0  0
 32 33  1  0  0  0  0
 32 34  1  0  0  0  0
 32 35  1  0  0  0  0
M  END
> <ChemID>
100393

> <source_casrn>
6975-98-0

> <CAS>
6975-98-0

> <SMILES>
CCCCCCCCC(C)C

> <NAME>
2-methyl decane

> <preferred_name>
2-Methyldecane

> <iupac>
C11H24

> <MPID>
102012

> <dsstox_substance_id>
DTXSID2058677

> <Canonical_QSARr>
CCCCCCCCC(C)C

> <InChI_Code_QSARr>
InChI=1S/C11H24/c1-4-5-6-7-8-9-10-11(2)3/h11H,4-10H2,1-3H3

> <InChI Key_QSARr>
CNPVJWYWYZMPDS-UHFFFAOYSA-N

> <LogKmHL>
0.1

$$$$
100396
  -INDIGO-08031722222D

 37 38  0  0  0  0  0  0  0  0999 V2000
   -2.4001   -1.3857    0.0000 C   0  0  0  0  0  0  0  0  0  0  0  0
   -3.1999   -0.0000    0.0000 C   0  0  0  0  0  0  0  0  0  0  0  0
   -2.4001    1.3856    0.0000 H   0  0  0  0  0  0  0  0  0  0  0  0
   -4.7999   -0.0000    0.0000 C   0  0  0  0  0  0  0  0  0  0  0  0
   -5.6000    1.3856    0.0000 H   0  0  0  0  0  0  0  0  0  0  0  0
   -5.6000   -1.3857    0.0000 C   0  0  0  0  0  0  0  0  0  0  0  0
   -7.2000   -1.3857    0.0000 C   0  0  0  0  0  0  0  0  0  0  0  0
   -8.0001   -0.0000    0.0000 C   0  0  0  0  0  0  0  0  0  0  0  0
   -7.2000    1.3856    0.0000 H   0  0  0  0  0  0  0  0  0  0  0  0
   -9.5999   -0.0000    0.0000 C   0  0  0  0  0  0  0  0  0  0  0  0
  -10.3999    1.3856    0.0000 H   0  0  0  0  0  0  0  0  0  0  0  0
  -10.3999   -1.3857    0.0000 C   0  0  0  0  0  0  0  0  0  0  0  0
  -12.0000   -1.3857    0.0000 H   0  0  0  0  0  0  0  0  0  0  0  0
   -9.5999   -2.7713    0.0000 C   0  0  0  0  0  0  0  0  0  0  0  0
  -10.3999   -4.1569    0.0000 H   0  0  0  0  0  0  0  0  0  0  0  0
   -8.0001   -2.7713    0.0000 C   0  0  0  0  0  0  0  0  0  0  0  0
   -7.2000   -4.1569    0.0000 H   0  0  0  0  0  0  0  0  0  0  0  0
   -4.7999   -2.7713    0.0000 C   0  0  0  0  0  0  0  0  0  0  0  0
   -5.6000   -4.1569    0.0000 H   0  0  0  0  0  0  0  0  0  0  0  0
   -3.1999   -2.7713    0.0000 C   0  0  0  0  0  0  0  0  0  0  0  0
   -2.4001   -4.1569    0.0000 H   0  0  0  0  0  0  0  0  0  0  0  0
   -0.8000   -1.3857    0.0000 C   0  0  0  0  0  0  0  0  0  0  0  0
    0.4695   -2.3597    0.0000 H   0  0  0  0  0  0  0  0  0  0  0  0
   -0.5911   -2.9720    0.0000 H   0  0  0  0  0  0  0  0  0  0  0  0
    0.0000   -0.0000    0.0000 C   0  0  0  0  0  0  0  0  0  0  0  0
   -1.2695    0.9740    0.0000 H   0  0  0  0  0  0  0  0  0  0  0  0
   -0.2089    1.5863    0.0000 H   0  0  0  0  0  0  0  0  0  0  0  0
    1.6001   -0.0000    0.0000 C   0  0  0  0  0  0  0  0  0  0  0  0
    2.8693   -0.9740    0.0000 H   0  0  0  0  0  0  0  0  0  0  0  0
    1.8088   -1.5864    0.0000 H   0  0  0  0  0  0  0  0  0  0  0  0
    2.4001    1.3856    0.0000 C   0  0  0  0  0  0  0  0  0  0  0  0
    1.1306    2.3596    0.0000 H   0  0  0  0  0  0  0  0  0  0  0  0
    2.1912    2.9720    0.0000 H   0  0  0  0  0  0  0  0  0  0  0  0
    3.9999    1.3856    0.0000 C   0  0  0  0  0  0  0  0  0  0  0  0
    5.6000    1.3856    0.0000 H   0  0  0  0  0  0  0  0  0  0  0  0
    4.8000    2.7713    0.0000 H   0  0  0  0  0  0  0  0  0  0  0  0
    4.8000   -0.0000    0.0000 H   0  0  0  0  0  0  0  0  0  0  0  0
  1  2  1  0  0  0  0
  2  3  1  0  0  0  0
  2  4  2  0  0  0  0
  4  5  1  0  0  0  0
  4  6  1  0  0  0  0
  6  7  1  0  0  0  0
  7  8  1  0  0  0  0
  8  9  1  0  0  0  0
  8 10  2  0  0  0  0
 10 11  1  0  0  0  0
 10 12  1  0  0  0  0
 12 13  1  0  0  0  0
 12 14  2  0  0  0  0
 14 15  1  0  0  0  0
 14 16  1  0  0  0  0
 16  7  2  0  0  0  0
 16 17  1  0  0  0  0
  6 18  2  0  0  0  0
 18 19  1  0  0  0  0
 18 20  1  0  0  0  0
 20  1  2  0  0  0  0
 20 21  1  0  0  0  0
  1 22  1  0  0  0  0
 22 23  1  0  0  0  0
 22 24  1  0  0  0  0
 22 25  1  0  0  0  0
 25 26  1  0  0  0  0
 25 27  1  0  0  0  0
 25 28  1  0  0  0  0
 28 29  1  0  0  0  0
 28 30  1  0  0  0  0
 28 31  1  0  0  0  0
 31 32  1  0  0  0  0
 31 33  1  0  0  0  0
 31 34  1  0  0  0  0
 34 35  1  0  0  0  0
 34 36  1  0  0  0  0
 34 37  1  0  0  0  0
M  END
> <ChemID>
100396

> <source_casrn>
7116-96-3

> <CAS>
7116-96-3

> <SMILES>
CCCCCc1ccc(cc1)-c1ccccc1

> <NAME>
1,1'-Biphenyl, 4-pentyl-

> <preferred_name>
1,1'-Biphenyl, 4-pentyl-

> <iupac>
1-pentyl-4-phenylbenzene

> <MPID>
102014

> <dsstox_substance_id>
DTXSID3064566

> <Canonical_QSARr>
CCCCCc1ccc(cc1)-c1ccccc1

> <InChI_Code_QSARr>
InChI=1S/C17H20/c1-2-3-5-8-15-11-13-17(14-12-15)16-9-6-4-7-10-16/h4,6-7,9-14H,2-3,5,8H2,1H3

> <InChI Key_QSARr>
IFUOTAQBVGAZPR-UHFFFAOYSA-N

> <LogKmHL>
0.03

$$$$
100397
  -INDIGO-08031722222D

 36 38  0  0  0  0  0  0  0  0999 V2000
    0.0000   -0.0001    0.0000 C   0  0  0  0  0  0  0  0  0  0  0  0
    1.6000   -0.0001    0.0000 C   0  0  0  0  0  0  0  0  0  0  0  0
    1.8088    1.5863    0.0000 H   0  0  0  0  0  0  0  0  0  0  0  0
    2.8694    0.9740    0.0000 H   0  0  0  0  0  0  0  0  0  0  0  0
    2.4000   -1.3857    0.0000 C   0  0  0  0  0  0  0  0  0  0  0  0
    2.1912   -2.9720    0.0000 H   0  0  0  0  0  0  0  0  0  0  0  0
    1.1306   -2.3597    0.0000 H   0  0  0  0  0  0  0  0  0  0  0  0
    4.0000   -1.3857    0.0000 C   0  0  0  0  0  0  0  0  0  0  0  0
    4.2088    0.2006    0.0000 H   0  0  0  0  0  0  0  0  0  0  0  0
    5.2694   -0.4117    0.0000 H   0  0  0  0  0  0  0  0  0  0  0  0
    4.8000   -2.7713    0.0000 C   0  0  0  0  0  0  0  0  0  0  0  0
    5.6000   -4.1569    0.0000 H   0  0  0  0  0  0  0  0  0  0  0  0
    6.4000   -2.7713    0.0000 H   0  0  0  0  0  0  0  0  0  0  0  0
    4.0000   -4.1569    0.0000 H   0  0  0  0  0  0  0  0  0  0  0  0
   -0.8000    1.3857    0.0000 C   0  0  0  0  0  0  0  0  0  0  0  0
   -2.4000    1.3857    0.0000 C   0  0  0  0  0  0  0  0  0  0  0  0
   -3.2000    2.7713    0.0000 C   0  0  0  0  0  0  0  0  0  0  0  0
   -4.8000    2.7713    0.0000 H   0  0  0  0  0  0  0  0  0  0  0  0
   -2.4000    4.1569    0.0000 C   0  0  0  0  0  0  0  0  0  0  0  0
   -3.2000    5.5426    0.0000 H   0  0  0  0  0  0  0  0  0  0  0  0
   -0.8000    4.1569    0.0000 C   0  0  0  0  0  0  0  0  0  0  0  0
    0.0000    5.5426    0.0000 H   0  0  0  0  0  0  0  0  0  0  0  0
    0.0000    2.7713    0.0000 C   0  0  0  0  0  0  0  0  0  0  0  0
    1.6000    2.7713    0.0000 H   0  0  0  0  0  0  0  0  0  0  0  0
   -3.2000   -0.0001    0.0000 C   0  0  0  0  0  0  0  0  0  0  0  0
   -2.4000   -1.3857    0.0000 C   0  0  0  0  0  0  0  0  0  0  0  0
   -3.2000   -2.7713    0.0000 C   0  0  0  0  0  0  0  0  0  0  0  0
   -2.4000   -4.1569    0.0000 H   0  0  0  0  0  0  0  0  0  0  0  0
   -4.8000   -2.7713    0.0000 C   0  0  0  0  0  0  0  0  0  0  0  0
   -5.6000   -4.1569    0.0000 H   0  0  0  0  0  0  0  0  0  0  0  0
   -5.6000   -1.3857    0.0000 C   0  0  0  0  0  0  0  0  0  0  0  0
   -7.2000   -1.3857    0.0000 H   0  0  0  0  0  0  0  0  0  0  0  0
   -4.8000   -0.0001    0.0000 C   0  0  0  0  0  0  0  0  0  0  0  0
   -5.6000    1.3857    0.0000 H   0  0  0  0  0  0  0  0  0  0  0  0
   -0.8000   -1.3857    0.0000 C   0  0  0  0  0  0  0  0  0  0  0  0
    0.0000   -2.7713    0.0000 H   0  0  0  0  0  0  0  0  0  0  0  0
  1  2  1  0  0  0  0
  2  3  1  0  0  0  0
  2  4  1  0  0  0  0
  2  5  1  0  0  0  0
  5  6  1  0  0  0  0
  5  7  1  0  0  0  0
  5  8  1  0  0  0  0
  8  9  1  0  0  0  0
  8 10  1  0  0  0  0
  8 11  1  0  0  0  0
 11 12  1  0  0  0  0
 11 13  1  0  0  0  0
 11 14  1  0  0  0  0
  1 15  1  0  0  0  0
 15 16  1  0  0  0  0
 16 17  2  0  0  0  0
 17 18  1  0  0  0  0
 17 19  1  0  0  0  0
 19 20  1  0  0  0  0
 19 21  2  0  0  0  0
 21 22  1  0  0  0  0
 21 23  1  0  0  0  0
 23 15  2  0  0  0  0
 23 24  1  0  0  0  0
 16 25  1  0  0  0  0
 25 26  1  0  0  0  0
 26 27  2  0  0  0  0
 27 28  1  0  0  0  0
 27 29  1  0  0  0  0
 29 30  1  0  0  0  0
 29 31  2  0  0  0  0
 31 32  1  0  0  0  0
 31 33  1  0  0  0  0
 33 25  2  0  0  0  0
 33 34  1  0  0  0  0
 26 35  1  0  0  0  0
 35  1  2  0  0  0  0
 35 36  1  0  0  0  0
M  END
> <ChemID>
100397

> <source_casrn>
10394-57-7

> <CAS>
10394-57-7

> <SMILES>
c3cccc2c3c(CCCC)cc1c2cccc1

> <NAME>
9-n butylphenanthrene

> <preferred_name>
9-Butylphenanthrene

> <iupac>
C18H18

> <MPID>
102015

> <dsstox_substance_id>
DTXSID00345600

> <Canonical_QSARr>
CCCCc1cc2ccccc2c2ccccc21

> <InChI_Code_QSARr>
InChI=1S/C18H18/c1-2-3-8-14-13-15-9-4-5-10-17(15)18-12-7-6-11-16(14)18/h4-7,9-13H,2-3,8H2,1H3

> <InChI Key_QSARr>
BBQLNZRCZBCVPI-UHFFFAOYSA-N

> <LogKmHL>
0.29

$$$$
100399
  -INDIGO-08031722222D

 11 10  0  0  0  0  0  0  0  0999 V2000
    1.3856    0.8000    0.0000 C   0  0  0  0  0  0  0  0  0  0  0  0
    2.7713    1.6000    0.0000 H   0  0  0  0  0  0  0  0  0  0  0  0
    2.7713    0.0000    0.0000 H   0  0  0  0  0  0  0  0  0  0  0  0
    0.0000    0.0000    0.0000 C   0  0  0  0  0  0  0  0  0  0  0  0
   -1.3856    0.8000    0.0000 C   0  0  0  0  0  0  0  0  0  0  0  0
   -2.7713    1.6000    0.0000 H   0  0  0  0  0  0  0  0  0  0  0  0
   -2.7713    0.0000    0.0000 H   0  0  0  0  0  0  0  0  0  0  0  0
   -1.3856    2.4000    0.0000 Cl  0  0  0  0  0  0  0  0  0  0  0  0
    0.6123   -1.4782    0.0000 Cl  0  0  0  0  0  0  0  0  0  0  0  0
   -0.6123   -1.4782    0.0000 Cl  0  0  0  0  0  0  0  0  0  0  0  0
    1.3856    2.4000    0.0000 Cl  0  0  0  0  0  0  0  0  0  0  0  0
  1  2  1  0  0  0  0
  1  3  1  0  0  0  0
  1  4  1  0  0  0  0
  4  5  1  0  0  0  0
  5  6  1  0  0  0  0
  5  7  1  0  0  0  0
  5  8  1  0  0  0  0
  4  9  1  0  0  0  0
  4 10  1  0  0  0  0
  1 11  1  0  0  0  0
M  END
> <ChemID>
100399

> <source_casrn>
13116-53-5

> <CAS>
13116-53-5

> <SMILES>
ClC(Cl)(CCl)CCl

> <NAME>
Propane, 1,2,2,3-tetrachloro-

> <preferred_name>
1,2,2,3-Tetrachloropropane

> <iupac>
1,2,2,3-tetrachloropropane

> <MPID>
102017

> <dsstox_substance_id>
DTXSID5051656

> <Canonical_QSARr>
ClC(Cl)(CCl)CCl

> <InChI_Code_QSARr>
InChI=1S/C3H4Cl4/c4-1-3(6,7)2-5/h1-2H2

> <InChI Key_QSARr>
UDPHJTAYHSSOQB-UHFFFAOYSA-N

> <LogKmHL>
-0.28

$$$$
100402
  -INDIGO-08031722222D

 60 62  0  0  0  0  0  0  0  0999 V2000
   -0.0001    0.0000    0.0000 C   0  0  0  0  0  0  0  0  0  0  0  0
    1.6001    0.0000    0.0000 C   0  0  0  0  0  0  0  0  0  0  0  0
    0.9492    1.4616    0.0000 H   0  0  0  0  0  0  0  0  0  0  0  0
    2.3999   -1.3856    0.0000 C   0  0  0  0  0  0  0  0  0  0  0  0
    3.3404   -2.6800    0.0000 H   0  0  0  0  0  0  0  0  0  0  0  0
    3.9650   -1.0530    0.0000 C   0  0  0  0  0  0  0  0  0  0  0  0
    4.1323    0.5382    0.0000 N   0  0  0  0  0  0  0  0  0  0  0  0
    2.6706    1.1890    0.0000 C   0  0  0  0  0  0  0  0  0  0  0  0
    2.3379    2.7540    0.0000 O   0  0  0  0  0  0  0  0  0  0  0  0
    5.5180    1.3382    0.0000 C   0  0  0  0  0  0  0  0  0  0  0  0
    6.1302    2.8165    0.0000 H   0  0  0  0  0  0  0  0  0  0  0  0
    4.9057    2.8165    0.0000 H   0  0  0  0  0  0  0  0  0  0  0  0
    6.9037    0.5382    0.0000 C   0  0  0  0  0  0  0  0  0  0  0  0
    6.1036   -0.8474    0.0000 H   0  0  0  0  0  0  0  0  0  0  0  0
    8.2891   -0.2618    0.0000 C   0  0  0  0  0  0  0  0  0  0  0  0
    7.4296   -1.6112    0.0000 H   0  0  0  0  0  0  0  0  0  0  0  0
    8.6355   -1.8238    0.0000 H   0  0  0  0  0  0  0  0  0  0  0  0
    9.8893   -0.2618    0.0000 C   0  0  0  0  0  0  0  0  0  0  0  0
   11.1586    0.7122    0.0000 H   0  0  0  0  0  0  0  0  0  0  0  0
   10.0982    1.3246    0.0000 H   0  0  0  0  0  0  0  0  0  0  0  0
   10.6891   -1.6474    0.0000 C   0  0  0  0  0  0  0  0  0  0  0  0
    9.4198   -2.6214    0.0000 H   0  0  0  0  0  0  0  0  0  0  0  0
   10.4802   -3.2337    0.0000 H   0  0  0  0  0  0  0  0  0  0  0  0
   12.2893   -1.6474    0.0000 C   0  0  0  0  0  0  0  0  0  0  0  0
   13.8892   -1.6474    0.0000 H   0  0  0  0  0  0  0  0  0  0  0  0
   13.0891   -3.0331    0.0000 H   0  0  0  0  0  0  0  0  0  0  0  0
   13.0891   -0.2618    0.0000 H   0  0  0  0  0  0  0  0  0  0  0  0
    7.7035    1.9239    0.0000 C   0  0  0  0  0  0  0  0  0  0  0  0
    9.1817    1.3116    0.0000 H   0  0  0  0  0  0  0  0  0  0  0  0
    9.1817    2.5362    0.0000 H   0  0  0  0  0  0  0  0  0  0  0  0
    6.9037    3.3095    0.0000 C   0  0  0  0  0  0  0  0  0  0  0  0
    7.7035    4.6952    0.0000 H   0  0  0  0  0  0  0  0  0  0  0  0
    6.1036    4.6952    0.0000 H   0  0  0  0  0  0  0  0  0  0  0  0
    8.5036    3.3095    0.0000 H   0  0  0  0  0  0  0  0  0  0  0  0
    5.1540   -2.1236    0.0000 O   0  0  0  0  0  0  0  0  0  0  0  0
    1.6001   -2.7713    0.0000 C   0  0  0  0  0  0  0  0  0  0  0  0
   -0.0001   -2.7713    0.0000 C   0  0  0  0  0  0  0  0  0  0  0  0
   -0.3509   -3.5755    0.0000 H   0  0  0  0  0  0  0  0  0  0  0  0
   -1.5035   -3.3185    0.0000 H   0  0  0  0  0  0  0  0  0  0  0  0
   -0.7999   -1.3856    0.0000 C   0  0  0  0  0  0  0  0  0  0  0  0
   -2.0257   -2.4141    0.0000 H   0  0  0  0  0  0  0  0  0  0  0  0
   -1.6719   -1.2877    0.0000 H   0  0  0  0  0  0  0  0  0  0  0  0
    2.3999   -4.1569    0.0000 C   0  0  0  0  0  0  0  0  0  0  0  0
    3.2000   -5.5426    0.0000 H   0  0  0  0  0  0  0  0  0  0  0  0
    1.6001   -5.5426    0.0000 H   0  0  0  0  0  0  0  0  0  0  0  0
    4.0001   -4.1569    0.0000 H   0  0  0  0  0  0  0  0  0  0  0  0
    0.5256   -2.2370    0.0000 C   0  0  0  0  0  0  0  0  0  0  0  0
    0.4233   -3.1084    0.0000 H   0  0  0  0  0  0  0  0  0  0  0  0
   -0.0744   -1.1977    0.0000 C   0  0  0  0  0  0  0  0  0  0  0  0
   -0.8803   -0.8506    0.0000 H   0  0  0  0  0  0  0  0  0  0  0  0
   -0.7999    1.3857    0.0000 C   0  0  0  0  0  0  0  0  0  0  0  0
    0.4257    2.4141    0.0000 H   0  0  0  0  0  0  0  0  0  0  0  0
   -1.3471    2.8891    0.0000 C   0  0  0  0  0  0  0  0  0  0  0  0
   -1.8944    4.3927    0.0000 H   0  0  0  0  0  0  0  0  0  0  0  0
   -2.9231    3.1670    0.0000 H   0  0  0  0  0  0  0  0  0  0  0  0
   -0.3187    4.1148    0.0000 H   0  0  0  0  0  0  0  0  0  0  0  0
   -2.1856    0.5857    0.0000 C   0  0  0  0  0  0  0  0  0  0  0  0
   -3.5713    1.3857    0.0000 H   0  0  0  0  0  0  0  0  0  0  0  0
   -3.5713   -0.2143    0.0000 H   0  0  0  0  0  0  0  0  0  0  0  0
   -2.1856    2.1857    0.0000 H   0  0  0  0  0  0  0  0  0  0  0  0
  1  2  1  0  0  0  0
  2  3  1  0  0  0  0
  2  4  1  0  0  0  0
  4  5  1  0  0  0  0
  4  6  1  0  0  0  0
  6  7  1  0  0  0  0
  7  8  1  0  0  0  0
  8  2  1  0  0  0  0
  8  9  2  0  0  0  0
  7 10  1  0  0  0  0
 10 11  1  0  0  0  0
 10 12  1  0  0  0  0
 10 13  1  0  0  0  0
 13 14  1  0  0  0  0
 13 15  1  0  0  0  0
 15 16  1  0  0  0  0
 15 17  1  0  0  0  0
 15 18  1  0  0  0  0
 18 19  1  0  0  0  0
 18 20  1  0  0  0  0
 18 21  1  0  0  0  0
 21 22  1  0  0  0  0
 21 23  1  0  0  0  0
 21 24  1  0  0  0  0
 24 25  1  0  0  0  0
 24 26  1  0  0  0  0
 24 27  1  0  0  0  0
 13 28  1  0  0  0  0
 28 29  1  0  0  0  0
 28 30  1  0  0  0  0
 28 31  1  0  0  0  0
 31 32  1  0  0  0  0
 31 33  1  0  0  0  0
 31 34  1  0  0  0  0
  6 35  2  0  0  0  0
  4 36  1  0  0  0  0
 36 37  1  0  0  0  0
 37 38  1  0  0  0  0
 37 39  1  0  0  0  0
 37 40  1  0  0  0  0
 40  1  1  0  0  0  0
 40 41  1  0  0  0  0
 40 42  1  0  0  0  0
 36 43  1  0  0  0  0
 43 44  1  0  0  0  0
 43 45  1  0  0  0  0
 43 46  1  0  0  0  0
 36 47  1  0  0  0  0
 47 48  1  0  0  0  0
 47 49  2  0  0  0  0
 49  1  1  0  0  0  0
 49 50  1  0  0  0  0
  1 51  1  0  0  0  0
 51 52  1  0  0  0  0
 51 53  1  0  0  0  0
 53 54  1  0  0  0  0
 53 55  1  0  0  0  0
 53 56  1  0  0  0  0
 51 57  1  0  0  0  0
 57 58  1  0  0  0  0
 57 59  1  0  0  0  0
 57 60  1  0  0  0  0
M  END
> <ChemID>
100402

> <source_casrn>
13358-11-7

> <CAS>
13358-11-7

> <SMILES>
C1=CC(C(C)C)(CC2)C3C(=O)N(CC(CC)CCCC)C(=O)C3C12C

> <NAME>
n-(2-ethylhexyl)-1-isopropyl-4-methylbicyclo[2,2

> <preferred_name>
N-(2-Ethylhexyl)-1-isopropyl-4-methylbiclyclo[2:2:2]oct-5-ene-2,3-dicarboximide

> <iupac>
2-(2-ethylhexyl)-4-methyl-7-(propan-2-yl)-3a,4,7,7a-tetrahydro-1H-4,7-ethanoisoindole-1,3(2H)-dione

> <MPID>
102019

> <dsstox_substance_id>
DTXSID9042176

> <Canonical_QSARr>
CC12CCC(C=C1)(C1C2C(=O)N(CC(CCCC)CC)C1=O)C(C)C

> <InChI_Code_QSARr>
InChI=1S/C22H35NO2/c1-6-8-9-16(7-2)14-23-19(24)17-18(20(23)25)22(15(3)4)12-10-21(17,5)11-13-22/h10,12,15-18H,6-9,11,13-14H2,1-5H3

> <InChI Key_QSARr>
MVKYQJHRHHQPDM-UHFFFAOYSA-N

> <LogKmHL>
0.31

$$$$
100403
  -INDIGO-08031722222D

 38 37  0  0  0  0  0  0  0  0999 V2000
    0.8000   -1.3857    0.0000 C   0  0  0  0  0  0  0  0  0  0  0  0
    1.6000   -2.7712    0.0000 H   0  0  0  0  0  0  0  0  0  0  0  0
    0.2528   -2.8891    0.0000 H   0  0  0  0  0  0  0  0  0  0  0  0
    2.4000   -1.3857    0.0000 H   0  0  0  0  0  0  0  0  0  0  0  0
   -0.0000    0.0000    0.0000 C   0  0  0  0  0  0  0  0  0  0  0  0
   -1.3857   -0.7999    0.0000 C   0  0  0  0  0  0  0  0  0  0  0  0
   -1.7320   -2.3621    0.0000 H   0  0  0  0  0  0  0  0  0  0  0  0
   -0.5260   -2.1494    0.0000 H   0  0  0  0  0  0  0  0  0  0  0  0
   -2.9614   -0.5221    0.0000 C   0  0  0  0  0  0  0  0  0  0  0  0
   -2.6836    1.0535    0.0000 H   0  0  0  0  0  0  0  0  0  0  0  0
   -4.5371   -0.2443    0.0000 C   0  0  0  0  0  0  0  0  0  0  0  0
   -5.0182   -1.7703    0.0000 H   0  0  0  0  0  0  0  0  0  0  0  0
   -5.9562   -0.9832    0.0000 H   0  0  0  0  0  0  0  0  0  0  0  0
   -5.5654    0.9814    0.0000 C   0  0  0  0  0  0  0  0  0  0  0  0
   -6.7912   -0.0471    0.0000 C   0  0  0  0  0  0  0  0  0  0  0  0
   -8.0168   -1.0755    0.0000 H   0  0  0  0  0  0  0  0  0  0  0  0
   -6.7912   -1.6471    0.0000 H   0  0  0  0  0  0  0  0  0  0  0  0
   -8.2947    0.5001    0.0000 H   0  0  0  0  0  0  0  0  0  0  0  0
   -6.7912    2.0099    0.0000 C   0  0  0  0  0  0  0  0  0  0  0  0
   -8.0168    3.0383    0.0000 H   0  0  0  0  0  0  0  0  0  0  0  0
   -6.5134    3.5855    0.0000 H   0  0  0  0  0  0  0  0  0  0  0  0
   -8.2947    1.4626    0.0000 H   0  0  0  0  0  0  0  0  0  0  0  0
   -4.3398    2.0099    0.0000 C   0  0  0  0  0  0  0  0  0  0  0  0
   -4.6176    3.5855    0.0000 H   0  0  0  0  0  0  0  0  0  0  0  0
   -5.8433    2.5570    0.0000 H   0  0  0  0  0  0  0  0  0  0  0  0
   -3.7926    0.5063    0.0000 H   0  0  0  0  0  0  0  0  0  0  0  0
   -3.2392   -2.0979    0.0000 C   0  0  0  0  0  0  0  0  0  0  0  0
   -3.5170   -3.6735    0.0000 H   0  0  0  0  0  0  0  0  0  0  0  0
   -2.2107   -3.3235    0.0000 H   0  0  0  0  0  0  0  0  0  0  0  0
   -4.6249   -2.8979    0.0000 H   0  0  0  0  0  0  0  0  0  0  0  0
    1.5036    0.5472    0.0000 C   0  0  0  0  0  0  0  0  0  0  0  0
    3.0070    1.0945    0.0000 H   0  0  0  0  0  0  0  0  0  0  0  0
    2.7292   -0.4813    0.0000 H   0  0  0  0  0  0  0  0  0  0  0  0
    1.7814    2.1229    0.0000 H   0  0  0  0  0  0  0  0  0  0  0  0
   -0.8000    1.3857    0.0000 C   0  0  0  0  0  0  0  0  0  0  0  0
   -1.6001    2.7713    0.0000 H   0  0  0  0  0  0  0  0  0  0  0  0
   -0.0000    2.7713    0.0000 H   0  0  0  0  0  0  0  0  0  0  0  0
    0.8000    1.3857    0.0000 H   0  0  0  0  0  0  0  0  0  0  0  0
  1  2  1  0  0  0  0
  1  3  1  0  0  0  0
  1  4  1  0  0  0  0
  1  5  1  0  0  0  0
  5  6  1  0  0  0  0
  6  7  1  0  0  0  0
  6  8  1  0  0  0  0
  6  9  1  0  0  0  0
  9 10  1  0  0  0  0
  9 11  1  0  0  0  0
 11 12  1  0  0  0  0
 11 13  1  0  0  0  0
 11 14  1  0  0  0  0
 14 15  1  0  0  0  0
 15 16  1  0  0  0  0
 15 17  1  0  0  0  0
 15 18  1  0  0  0  0
 14 19  1  0  0  0  0
 19 20  1  0  0  0  0
 19 21  1  0  0  0  0
 19 22  1  0  0  0  0
 14 23  1  0  0  0  0
 23 24  1  0  0  0  0
 23 25  1  0  0  0  0
 23 26  1  0  0  0  0
  9 27  1  0  0  0  0
 27 28  1  0  0  0  0
 27 29  1  0  0  0  0
 27 30  1  0  0  0  0
  5 31  1  0  0  0  0
 31 32  1  0  0  0  0
 31 33  1  0  0  0  0
 31 34  1  0  0  0  0
  5 35  1  0  0  0  0
 35 36  1  0  0  0  0
 35 37  1  0  0  0  0
 35 38  1  0  0  0  0
M  END
> <ChemID>
100403

> <source_casrn>
13475-82-6

> <CAS>
13475-82-6

> <SMILES>
CC(CC(C)(C)C)CC(C)(C)C

> <NAME>
2,2,4,6,6-pentamethylheptane

> <preferred_name>
2,2,4,6,6-Pentamethylheptane

> <iupac>
2,2,4,6,6-pentamethylheptane

> <MPID>
102020

> <dsstox_substance_id>
DTXSID0042034

> <Canonical_QSARr>
CC(CC(C)(C)C)CC(C)(C)C

> <InChI_Code_QSARr>
InChI=1S/C12H26/c1-10(8-11(2,3)4)9-12(5,6)7/h10H,8-9H2,1-7H3

> <InChI Key_QSARr>
VKPSKYDESGTTFR-UHFFFAOYSA-N

> <LogKmHL>
0.72

$$$$
100404
  -INDIGO-08031722222D

 31 32  0  0  0  0  0  0  0  0999 V2000
   -0.0000   -0.0000    0.0000 C   0  0  0  0  0  0  0  0  0  0  0  0
    1.5999   -0.0000    0.0000 C   0  0  0  0  0  0  0  0  0  0  0  0
    1.8089    1.5864    0.0000 H   0  0  0  0  0  0  0  0  0  0  0  0
    2.8694    0.9740    0.0000 H   0  0  0  0  0  0  0  0  0  0  0  0
    2.8256   -1.0285    0.0000 C   0  0  0  0  0  0  0  0  0  0  0  0
    2.5479   -2.6042    0.0000 C   0  0  0  0  0  0  0  0  0  0  0  0
    1.0444   -3.1513    0.0000 H   0  0  0  0  0  0  0  0  0  0  0  0
    3.7734   -3.6326    0.0000 C   0  0  0  0  0  0  0  0  0  0  0  0
    3.4957   -5.2083    0.0000 H   0  0  0  0  0  0  0  0  0  0  0  0
    5.2769   -3.0853    0.0000 C   0  0  0  0  0  0  0  0  0  0  0  0
    6.5027   -4.1138    0.0000 H   0  0  0  0  0  0  0  0  0  0  0  0
    5.5549   -1.5097    0.0000 C   0  0  0  0  0  0  0  0  0  0  0  0
    7.0584   -0.9625    0.0000 H   0  0  0  0  0  0  0  0  0  0  0  0
    4.3291   -0.4812    0.0000 C   0  0  0  0  0  0  0  0  0  0  0  0
    4.6071    1.0945    0.0000 H   0  0  0  0  0  0  0  0  0  0  0  0
   -0.8000    1.3856    0.0000 C   0  0  0  0  0  0  0  0  0  0  0  0
   -0.0000    2.7713    0.0000 C   0  0  0  0  0  0  0  0  0  0  0  0
    0.7999    4.1569    0.0000 H   0  0  0  0  0  0  0  0  0  0  0  0
   -0.8000    4.1569    0.0000 H   0  0  0  0  0  0  0  0  0  0  0  0
    1.5999    2.7713    0.0000 H   0  0  0  0  0  0  0  0  0  0  0  0
   -2.3999    1.3856    0.0000 C   0  0  0  0  0  0  0  0  0  0  0  0
   -3.2001    2.7713    0.0000 H   0  0  0  0  0  0  0  0  0  0  0  0
   -3.2001   -0.0000    0.0000 C   0  0  0  0  0  0  0  0  0  0  0  0
   -4.8000   -0.0000    0.0000 H   0  0  0  0  0  0  0  0  0  0  0  0
   -2.3999   -1.3856    0.0000 C   0  0  0  0  0  0  0  0  0  0  0  0
   -3.2001   -2.7712    0.0000 C   0  0  0  0  0  0  0  0  0  0  0  0
   -4.0000   -4.1570    0.0000 H   0  0  0  0  0  0  0  0  0  0  0  0
   -4.8000   -2.7712    0.0000 H   0  0  0  0  0  0  0  0  0  0  0  0
   -2.3999   -4.1570    0.0000 H   0  0  0  0  0  0  0  0  0  0  0  0
   -0.8000   -1.3856    0.0000 C   0  0  0  0  0  0  0  0  0  0  0  0
   -0.0000   -2.7712    0.0000 H   0  0  0  0  0  0  0  0  0  0  0  0
  1  2  1  0  0  0  0
  2  3  1  0  0  0  0
  2  4  1  0  0  0  0
  2  5  1  0  0  0  0
  5  6  1  0  0  0  0
  6  7  1  0  0  0  0
  6  8  2  0  0  0  0
  8  9  1  0  0  0  0
  8 10  1  0  0  0  0
 10 11  1  0  0  0  0
 10 12  2  0  0  0  0
 12 13  1  0  0  0  0
 12 14  1  0  0  0  0
 14  5  2  0  0  0  0
 14 15  1  0  0  0  0
  1 16  1  0  0  0  0
 16 17  1  0  0  0  0
 17 18  1  0  0  0  0
 17 19  1  0  0  0  0
 17 20  1  0  0  0  0
 16 21  2  0  0  0  0
 21 22  1  0  0  0  0
 21 23  1  0  0  0  0
 23 24  1  0  0  0  0
 23 25  2  0  0  0  0
 25 26  1  0  0  0  0
 26 27  1  0  0  0  0
 26 28  1  0  0  0  0
 26 29  1  0  0  0  0
 25 30  1  0  0  0  0
 30  1  2  0  0  0  0
 30 31  1  0  0  0  0
M  END
> <ChemID>
100404

> <source_casrn>
13540-50-6

> <CAS>
13540-50-6

> <SMILES>
c1ccccc1Cc2cc(C)ccc2C

> <NAME>
Phenyl xylylmethane

> <preferred_name>
2,5-Dimethyldiphenylmethane

> <iupac>
1,4-dimethyl-2-(phenylmethyl)benzene

> <MPID>
102021

> <dsstox_substance_id>
DTXSID10159331

> <Canonical_QSARr>
Cc1cc(Cc2ccccc2)c(C)cc1

> <InChI_Code_QSARr>
InChI=1S/C15H16/c1-12-8-9-13(2)15(10-12)11-14-6-4-3-5-7-14/h3-10H,11H2,1-2H3

> <InChI Key_QSARr>
LJBGURBFHJJQQU-UHFFFAOYSA-N

> <LogKmHL>
0.45

$$$$
100406
  -INDIGO-08031722222D

 35 34  0  0  0  0  0  0  0  0999 V2000
   -0.0000    3.2000    0.0000 O   0  0  0  0  0  0  0  0  0  0  0  0
   -1.3857    2.3999    0.0000 P   0  0  0  0  0  0  0  0  0  0  0  0
   -1.3857    4.0000    0.0000 O   0  0  0  0  0  0  0  0  0  0  0  0
   -0.1600    5.0285    0.0000 C   0  0  0  0  0  0  0  0  0  0  0  0
    0.8685    3.8028    0.0000 H   0  0  0  0  0  0  0  0  0  0  0  0
    1.0657    6.0569    0.0000 C   0  0  0  0  0  0  0  0  0  0  0  0
    2.2914    7.0854    0.0000 H   0  0  0  0  0  0  0  0  0  0  0  0
    0.7878    7.6326    0.0000 H   0  0  0  0  0  0  0  0  0  0  0  0
    2.5691    5.5097    0.0000 Cl  0  0  0  0  0  0  0  0  0  0  0  0
   -1.1885    6.2541    0.0000 C   0  0  0  0  0  0  0  0  0  0  0  0
   -2.2169    7.4798    0.0000 H   0  0  0  0  0  0  0  0  0  0  0  0
   -2.7641    5.9764    0.0000 H   0  0  0  0  0  0  0  0  0  0  0  0
   -0.6413    7.7576    0.0000 Cl  0  0  0  0  0  0  0  0  0  0  0  0
   -2.7712    3.2000    0.0000 O   0  0  0  0  0  0  0  0  0  0  0  0
   -4.1569    2.3999    0.0000 C   0  0  0  0  0  0  0  0  0  0  0  0
   -3.3569    1.0143    0.0000 H   0  0  0  0  0  0  0  0  0  0  0  0
   -5.5425    1.6000    0.0000 C   0  0  0  0  0  0  0  0  0  0  0  0
   -6.9282    0.8000    0.0000 H   0  0  0  0  0  0  0  0  0  0  0  0
   -6.9282    2.3999    0.0000 H   0  0  0  0  0  0  0  0  0  0  0  0
   -5.5425   -0.0001    0.0000 Cl  0  0  0  0  0  0  0  0  0  0  0  0
   -4.7041    3.9035    0.0000 C   0  0  0  0  0  0  0  0  0  0  0  0
   -6.2799    4.1814    0.0000 H   0  0  0  0  0  0  0  0  0  0  0  0
   -5.7326    2.6778    0.0000 H   0  0  0  0  0  0  0  0  0  0  0  0
   -5.2514    5.4071    0.0000 Cl  0  0  0  0  0  0  0  0  0  0  0  0
   -0.0000    1.6000    0.0000 O   0  0  0  0  0  0  0  0  0  0  0  0
   -0.0000   -0.0001    0.0000 C   0  0  0  0  0  0  0  0  0  0  0  0
   -0.0000   -1.6000    0.0000 H   0  0  0  0  0  0  0  0  0  0  0  0
    1.6000   -0.0001    0.0000 C   0  0  0  0  0  0  0  0  0  0  0  0
    3.2000   -0.0001    0.0000 H   0  0  0  0  0  0  0  0  0  0  0  0
    2.4001   -1.3857    0.0000 H   0  0  0  0  0  0  0  0  0  0  0  0
    2.4001    1.3857    0.0000 Cl  0  0  0  0  0  0  0  0  0  0  0  0
   -1.6001   -0.0001    0.0000 C   0  0  0  0  0  0  0  0  0  0  0  0
   -3.1999   -0.0001    0.0000 H   0  0  0  0  0  0  0  0  0  0  0  0
   -2.4000   -1.3857    0.0000 H   0  0  0  0  0  0  0  0  0  0  0  0
   -2.4000    1.3857    0.0000 Cl  0  0  0  0  0  0  0  0  0  0  0  0
  1  2  2  0  0  0  0
  2  3  1  0  0  0  0
  3  4  1  0  0  0  0
  4  5  1  0  0  0  0
  4  6  1  0  0  0  0
  6  7  1  0  0  0  0
  6  8  1  0  0  0  0
  6  9  1  0  0  0  0
  4 10  1  0  0  0  0
 10 11  1  0  0  0  0
 10 12  1  0  0  0  0
 10 13  1  0  0  0  0
  2 14  1  0  0  0  0
 14 15  1  0  0  0  0
 15 16  1  0  0  0  0
 15 17  1  0  0  0  0
 17 18  1  0  0  0  0
 17 19  1  0  0  0  0
 17 20  1  0  0  0  0
 15 21  1  0  0  0  0
 21 22  1  0  0  0  0
 21 23  1  0  0  0  0
 21 24  1  0  0  0  0
  2 25  1  0  0  0  0
 25 26  1  0  0  0  0
 26 27  1  0  0  0  0
 26 28  1  0  0  0  0
 28 29  1  0  0  0  0
 28 30  1  0  0  0  0
 28 31  1  0  0  0  0
 26 32  1  0  0  0  0
 32 33  1  0  0  0  0
 32 34  1  0  0  0  0
 32 35  1  0  0  0  0
M  END
> <ChemID>
100406

> <source_casrn>
13674-87-8

> <CAS>
13674-87-8

> <SMILES>
O=P(OC(CCl)CCl)(OC(CCl)CCl)OC(CCl)CCl

> <NAME>
2-Propanol, 1,3-dichloro-, phosphate (3:1)

> <preferred_name>
TDCPP

> <iupac>
C9H15Cl6O4P

> <MPID>
102023

> <dsstox_substance_id>
DTXSID9026261

> <Canonical_QSARr>
O=P(OC(CCl)CCl)(OC(CCl)CCl)OC(CCl)CCl

> <InChI_Code_QSARr>
InChI=1S/C9H15Cl6O4P/c10-1-7(2-11)17-20(16,18-8(3-12)4-13)19-9(5-14)6-15/h7-9H,1-6H2

> <InChI Key_QSARr>
ASLWPAWFJZFCKF-UHFFFAOYSA-N

> <LogKmHL>
-0.52

$$$$
100407
  -INDIGO-08031722222D

 39 41  0  0  0  0  0  0  0  0999 V2000
    5.5425   -0.0000    0.0000 C   0  0  0  0  0  0  0  0  0  0  0  0
    6.9281    0.8000    0.0000 C   0  0  0  0  0  0  0  0  0  0  0  0
    6.9281    2.4000    0.0000 O   0  0  0  0  0  0  0  0  0  0  0  0
    8.3140   -0.0000    0.0000 C   0  0  0  0  0  0  0  0  0  0  0  0
    9.6996    0.8000    0.0000 C   0  0  0  0  0  0  0  0  0  0  0  0
    9.6996    2.4000    0.0000 H   0  0  0  0  0  0  0  0  0  0  0  0
   11.0852   -0.0000    0.0000 C   0  0  0  0  0  0  0  0  0  0  0  0
   12.4708    0.8000    0.0000 H   0  0  0  0  0  0  0  0  0  0  0  0
   11.0852   -1.6000    0.0000 C   0  0  0  0  0  0  0  0  0  0  0  0
   12.4708   -2.4000    0.0000 H   0  0  0  0  0  0  0  0  0  0  0  0
    9.6996   -2.4000    0.0000 C   0  0  0  0  0  0  0  0  0  0  0  0
    9.6996   -4.0000    0.0000 H   0  0  0  0  0  0  0  0  0  0  0  0
    8.3140   -1.6000    0.0000 C   0  0  0  0  0  0  0  0  0  0  0  0
    6.9281   -2.4000    0.0000 C   0  0  0  0  0  0  0  0  0  0  0  0
    6.9281   -4.0000    0.0000 O   0  0  0  0  0  0  0  0  0  0  0  0
    5.5425   -1.6000    0.0000 C   0  0  0  0  0  0  0  0  0  0  0  0
    4.1569   -2.4000    0.0000 C   0  0  0  0  0  0  0  0  0  0  0  0
    4.1569   -4.0000    0.0000 H   0  0  0  0  0  0  0  0  0  0  0  0
    2.7713   -1.6000    0.0000 C   0  0  0  0  0  0  0  0  0  0  0  0
    1.3857   -2.4000    0.0000 H   0  0  0  0  0  0  0  0  0  0  0  0
    2.7713   -0.0000    0.0000 C   0  0  0  0  0  0  0  0  0  0  0  0
    1.3857    0.8000    0.0000 C   0  0  0  0  0  0  0  0  0  0  0  0
    1.9978    2.2782    0.0000 H   0  0  0  0  0  0  0  0  0  0  0  0
    0.7733    2.2782    0.0000 H   0  0  0  0  0  0  0  0  0  0  0  0
    0.0001   -0.0000    0.0000 C   0  0  0  0  0  0  0  0  0  0  0  0
   -0.6123   -1.4782    0.0000 H   0  0  0  0  0  0  0  0  0  0  0  0
    0.6122   -1.4782    0.0000 H   0  0  0  0  0  0  0  0  0  0  0  0
   -1.3858    0.8000    0.0000 C   0  0  0  0  0  0  0  0  0  0  0  0
   -0.7734    2.2782    0.0000 H   0  0  0  0  0  0  0  0  0  0  0  0
   -1.9979    2.2782    0.0000 H   0  0  0  0  0  0  0  0  0  0  0  0
   -2.7714   -0.0000    0.0000 C   0  0  0  0  0  0  0  0  0  0  0  0
   -3.3835   -1.4782    0.0000 H   0  0  0  0  0  0  0  0  0  0  0  0
   -2.1590   -1.4782    0.0000 H   0  0  0  0  0  0  0  0  0  0  0  0
   -4.1570    0.8000    0.0000 C   0  0  0  0  0  0  0  0  0  0  0  0
   -5.5426    1.6000    0.0000 H   0  0  0  0  0  0  0  0  0  0  0  0
   -5.5426   -0.0000    0.0000 H   0  0  0  0  0  0  0  0  0  0  0  0
   -4.1570    2.4000    0.0000 H   0  0  0  0  0  0  0  0  0  0  0  0
    4.1569    0.8000    0.0000 C   0  0  0  0  0  0  0  0  0  0  0  0
    4.1569    2.4000    0.0000 H   0  0  0  0  0  0  0  0  0  0  0  0
  1  2  1  0  0  0  0
  2  3  2  0  0  0  0
  2  4  1  0  0  0  0
  4  5  1  0  0  0  0
  5  6  1  0  0  0  0
  5  7  2  0  0  0  0
  7  8  1  0  0  0  0
  7  9  1  0  0  0  0
  9 10  1  0  0  0  0
  9 11  2  0  0  0  0
 11 12  1  0  0  0  0
 11 13  1  0  0  0  0
 13  4  2  0  0  0  0
 13 14  1  0  0  0  0
 14 15  2  0  0  0  0
 14 16  1  0  0  0  0
 16  1  1  0  0  0  0
 16 17  2  0  0  0  0
 17 18  1  0  0  0  0
 17 19  1  0  0  0  0
 19 20  1  0  0  0  0
 19 21  2  0  0  0  0
 21 22  1  0  0  0  0
 22 23  1  0  0  0  0
 22 24  1  0  0  0  0
 22 25  1  0  0  0  0
 25 26  1  0  0  0  0
 25 27  1  0  0  0  0
 25 28  1  0  0  0  0
 28 29  1  0  0  0  0
 28 30  1  0  0  0  0
 28 31  1  0  0  0  0
 31 32  1  0  0  0  0
 31 33  1  0  0  0  0
 31 34  1  0  0  0  0
 34 35  1  0  0  0  0
 34 36  1  0  0  0  0
 34 37  1  0  0  0  0
 21 38  1  0  0  0  0
 38  1  2  0  0  0  0
 38 39  1  0  0  0  0
M  END
> <ChemID>
100407

> <source_casrn>
13936-21-5

> <CAS>
13936-21-5

> <SMILES>
CCCCCc1cc2c(cc1)C(=O)c1ccccc1C2=O

> <NAME>
2-pentylanthraquinone

> <preferred_name>
9,10-Anthracenedione, 2-pentyl-

> <iupac>
2-pentylanthracene-9,10-dione

> <MPID>
102024

> <dsstox_substance_id>
DTXSID1065681

> <Canonical_QSARr>
CCCCCc1cc2c(cc1)C(=O)c1ccccc1C2=O

> <InChI_Code_QSARr>
InChI=1S/C19H18O2/c1-2-3-4-7-13-10-11-16-17(12-13)19(21)15-9-6-5-8-14(15)18(16)20/h5-6,8-12H,2-4,7H2,1H3

> <InChI Key_QSARr>
UMWZLYTVXQBTTE-UHFFFAOYSA-N

> <LogKmHL>
0.2

$$$$
100408
  -INDIGO-08031722222D

 34 34  0  0  0  0  0  0  0  0999 V2000
    8.3138    0.0000    0.0000 C   0  0  0  0  0  0  0  0  0  0  0  0
    9.6995    0.8000    0.0000 H   0  0  0  0  0  0  0  0  0  0  0  0
    8.3138   -1.6000    0.0000 C   0  0  0  0  0  0  0  0  0  0  0  0
    9.6995   -2.4001    0.0000 H   0  0  0  0  0  0  0  0  0  0  0  0
    6.9283   -2.4001    0.0000 C   0  0  0  0  0  0  0  0  0  0  0  0
    6.9283   -4.0000    0.0000 H   0  0  0  0  0  0  0  0  0  0  0  0
    5.5426   -1.6000    0.0000 C   0  0  0  0  0  0  0  0  0  0  0  0
    4.1569   -2.4001    0.0000 H   0  0  0  0  0  0  0  0  0  0  0  0
    5.5426    0.0000    0.0000 C   0  0  0  0  0  0  0  0  0  0  0  0
    4.1569    0.8000    0.0000 C   0  0  0  0  0  0  0  0  0  0  0  0
    4.1569    2.4000    0.0000 C   0  0  0  0  0  0  0  0  0  0  0  0
    4.1569    4.0000    0.0000 N   0  0  0  0  0  0  0  0  0  0  0  0
    2.7712    0.0000    0.0000 N   0  0  0  0  0  0  0  0  0  0  0  0
    1.3857    0.8000    0.0000 O   0  0  0  0  0  0  0  0  0  0  0  0
    0.0000    0.0000    0.0000 P   0  0  0  0  0  0  0  0  0  0  0  0
   -1.3857   -0.8000    0.0000 O   0  0  0  0  0  0  0  0  0  0  0  0
   -2.7714    0.0000    0.0000 C   0  0  0  0  0  0  0  0  0  0  0  0
   -2.1590    1.4782    0.0000 H   0  0  0  0  0  0  0  0  0  0  0  0
   -3.3835    1.4782    0.0000 H   0  0  0  0  0  0  0  0  0  0  0  0
   -4.1569   -0.8000    0.0000 C   0  0  0  0  0  0  0  0  0  0  0  0
   -5.5426   -1.6000    0.0000 H   0  0  0  0  0  0  0  0  0  0  0  0
   -5.5426    0.0000    0.0000 H   0  0  0  0  0  0  0  0  0  0  0  0
   -4.1569   -2.4001    0.0000 H   0  0  0  0  0  0  0  0  0  0  0  0
   -1.3857    0.8000    0.0000 O   0  0  0  0  0  0  0  0  0  0  0  0
   -1.3857    2.4000    0.0000 C   0  0  0  0  0  0  0  0  0  0  0  0
    0.2007    2.6088    0.0000 H   0  0  0  0  0  0  0  0  0  0  0  0
   -0.4116    3.6694    0.0000 H   0  0  0  0  0  0  0  0  0  0  0  0
   -2.7714    3.2001    0.0000 C   0  0  0  0  0  0  0  0  0  0  0  0
   -4.1569    4.0000    0.0000 H   0  0  0  0  0  0  0  0  0  0  0  0
   -2.7714    4.8000    0.0000 H   0  0  0  0  0  0  0  0  0  0  0  0
   -4.1569    2.4000    0.0000 H   0  0  0  0  0  0  0  0  0  0  0  0
    0.0000   -1.6000    0.0000 S   0  0  0  0  0  0  0  0  0  0  0  0
    6.9283    0.8000    0.0000 C   0  0  0  0  0  0  0  0  0  0  0  0
    6.9283    2.4000    0.0000 H   0  0  0  0  0  0  0  0  0  0  0  0
  1  2  1  0  0  0  0
  1  3  1  0  0  0  0
  3  4  1  0  0  0  0
  3  5  2  0  0  0  0
  5  6  1  0  0  0  0
  5  7  1  0  0  0  0
  7  8  1  0  0  0  0
  7  9  2  0  0  0  0
  9 10  1  0  0  0  0
 10 11  1  0  0  0  0
 11 12  3  0  0  0  0
 10 13  2  0  0  0  0
 13 14  1  0  0  0  0
 14 15  1  0  0  0  0
 15 16  1  0  0  0  0
 16 17  1  0  0  0  0
 17 18  1  0  0  0  0
 17 19  1  0  0  0  0
 17 20  1  0  0  0  0
 20 21  1  0  0  0  0
 20 22  1  0  0  0  0
 20 23  1  0  0  0  0
 15 24  1  0  0  0  0
 24 25  1  0  0  0  0
 25 26  1  0  0  0  0
 25 27  1  0  0  0  0
 25 28  1  0  0  0  0
 28 29  1  0  0  0  0
 28 30  1  0  0  0  0
 28 31  1  0  0  0  0
 15 32  2  0  0  0  0
  9 33  1  0  0  0  0
 33  1  2  0  0  0  0
 33 34  1  0  0  0  0
M  END
> <ChemID>
100408

> <source_casrn>
14816-18-3

> <CAS>
14816-18-3

> <SMILES>
CCOP(=S)(OCC)ON=C(C(#N))c1ccccc1

> <NAME>
3,5-Dioxa-6-aza-4-phosphaoct-6-ene-8-nitrile, 4-

> <preferred_name>
Phoxim

> <iupac>
4-ethoxy-7-phenyl-3,5-dioxa-6-aza-4-phosphaoct-6-ene-8-nitrile 4-sulfide

> <MPID>
102025

> <dsstox_substance_id>
DTXSID8034324

> <Canonical_QSARr>
CCOP(=S)(ON=C(C#N)c1ccccc1)OCC

> <InChI_Code_QSARr>
InChI=1S/C12H15N2O3PS/c1-3-15-18(19,16-4-2)17-14-12(10-13)11-8-6-5-7-9-11/h5-9H,3-4H2,1-2H3/b14-12+

> <InChI Key_QSARr>
ATROHALUCMTWTB-WYMLVPIESA-N

> <LogKmHL>
0.84

$$$$
100411
  -INDIGO-08031722222D

 16 16  0  0  0  0  0  0  0  0999 V2000
   -0.0000    2.7713    0.0000 Cl  0  0  0  0  0  0  0  0  0  0  0  0
   -0.8000    1.3856    0.0000 C   0  0  0  0  0  0  0  0  0  0  0  0
   -0.0000   -0.0000    0.0000 C   0  0  0  0  0  0  0  0  0  0  0  0
    1.6000   -0.0000    0.0000 C   0  0  0  0  0  0  0  0  0  0  0  0
    1.8088   -1.5863    0.0000 H   0  0  0  0  0  0  0  0  0  0  0  0
    2.8694   -0.9740    0.0000 H   0  0  0  0  0  0  0  0  0  0  0  0
    2.4001    1.3856    0.0000 O   0  0  0  0  0  0  0  0  0  0  0  0
    4.0000    1.3856    0.0000 H   0  0  0  0  0  0  0  0  0  0  0  0
   -0.8000   -1.3856    0.0000 C   0  0  0  0  0  0  0  0  0  0  0  0
   -0.0000   -2.7713    0.0000 Cl  0  0  0  0  0  0  0  0  0  0  0  0
   -2.4000   -1.3856    0.0000 C   0  0  0  0  0  0  0  0  0  0  0  0
   -3.2001   -2.7713    0.0000 H   0  0  0  0  0  0  0  0  0  0  0  0
   -3.2001   -0.0000    0.0000 C   0  0  0  0  0  0  0  0  0  0  0  0
   -4.8000   -0.0000    0.0000 H   0  0  0  0  0  0  0  0  0  0  0  0
   -2.4000    1.3856    0.0000 C   0  0  0  0  0  0  0  0  0  0  0  0
   -3.2001    2.7713    0.0000 H   0  0  0  0  0  0  0  0  0  0  0  0
  1  2  1  0  0  0  0
  2  3  1  0  0  0  0
  3  4  1  0  0  0  0
  4  5  1  0  0  0  0
  4  6  1  0  0  0  0
  4  7  1  0  0  0  0
  7  8  1  0  0  0  0
  3  9  2  0  0  0  0
  9 10  1  0  0  0  0
  9 11  1  0  0  0  0
 11 12  1  0  0  0  0
 11 13  2  0  0  0  0
 13 14  1  0  0  0  0
 13 15  1  0  0  0  0
 15  2  2  0  0  0  0
 15 16  1  0  0  0  0
M  END
> <ChemID>
100411

> <source_casrn>
15258-73-8

> <CAS>
15258-73-8

> <SMILES>
OCc1c(Cl)cccc1Cl

> <NAME>
Benzenemethanol, 2,6-dichloro-

> <preferred_name>
Benzenemethanol, 2,6-dichloro- (9CI)

> <iupac>
(2,6-dichlorophenyl)methanol

> <MPID>
102027

> <dsstox_substance_id>
DTXSID30165075

> <Canonical_QSARr>
OCc1c(Cl)cccc1Cl

> <InChI_Code_QSARr>
InChI=1S/C7H6Cl2O/c8-6-2-1-3-7(9)5(6)4-10/h1-3,10H,4H2

> <InChI Key_QSARr>
WKKHCCZLKYKUDN-UHFFFAOYSA-N

> <LogKmHL>
-1.37

$$$$
100412
  -INDIGO-08031722222D

 50 49  0  0  0  0  0  0  0  0999 V2000
    0.0000    0.0000    0.0000 C   0  0  0  0  0  0  0  0  0  0  0  0
    0.6121    1.4782    0.0000 H   0  0  0  0  0  0  0  0  0  0  0  0
   -0.6121    1.4782    0.0000 H   0  0  0  0  0  0  0  0  0  0  0  0
   -1.3856   -0.8000    0.0000 C   0  0  0  0  0  0  0  0  0  0  0  0
   -1.9978   -2.2782    0.0000 H   0  0  0  0  0  0  0  0  0  0  0  0
   -0.7735   -2.2782    0.0000 H   0  0  0  0  0  0  0  0  0  0  0  0
   -2.7713    0.0000    0.0000 C   0  0  0  0  0  0  0  0  0  0  0  0
   -2.1592    1.4782    0.0000 H   0  0  0  0  0  0  0  0  0  0  0  0
   -3.3834    1.4782    0.0000 H   0  0  0  0  0  0  0  0  0  0  0  0
   -4.1569   -0.8000    0.0000 C   0  0  0  0  0  0  0  0  0  0  0  0
   -4.7690   -2.2782    0.0000 H   0  0  0  0  0  0  0  0  0  0  0  0
   -3.5448   -2.2782    0.0000 H   0  0  0  0  0  0  0  0  0  0  0  0
   -5.5426    0.0000    0.0000 C   0  0  0  0  0  0  0  0  0  0  0  0
   -4.9304    1.4782    0.0000 H   0  0  0  0  0  0  0  0  0  0  0  0
   -6.1547    1.4782    0.0000 H   0  0  0  0  0  0  0  0  0  0  0  0
   -6.9282   -0.8000    0.0000 C   0  0  0  0  0  0  0  0  0  0  0  0
   -7.5403   -2.2782    0.0000 H   0  0  0  0  0  0  0  0  0  0  0  0
   -6.3161   -2.2782    0.0000 H   0  0  0  0  0  0  0  0  0  0  0  0
   -8.3138    0.0000    0.0000 C   0  0  0  0  0  0  0  0  0  0  0  0
   -7.7017    1.4782    0.0000 H   0  0  0  0  0  0  0  0  0  0  0  0
   -8.9260    1.4782    0.0000 H   0  0  0  0  0  0  0  0  0  0  0  0
   -9.6995   -0.8000    0.0000 C   0  0  0  0  0  0  0  0  0  0  0  0
  -10.3116   -2.2782    0.0000 H   0  0  0  0  0  0  0  0  0  0  0  0
   -9.0874   -2.2782    0.0000 H   0  0  0  0  0  0  0  0  0  0  0  0
  -11.0851    0.0000    0.0000 C   0  0  0  0  0  0  0  0  0  0  0  0
  -12.4708    0.8000    0.0000 H   0  0  0  0  0  0  0  0  0  0  0  0
  -12.4708   -0.8000    0.0000 H   0  0  0  0  0  0  0  0  0  0  0  0
  -11.0851    1.6000    0.0000 H   0  0  0  0  0  0  0  0  0  0  0  0
    1.3856   -0.8000    0.0000 C   0  0  0  0  0  0  0  0  0  0  0  0
    0.7735   -2.2782    0.0000 H   0  0  0  0  0  0  0  0  0  0  0  0
    1.9978   -2.2782    0.0000 H   0  0  0  0  0  0  0  0  0  0  0  0
    2.7713    0.0000    0.0000 C   0  0  0  0  0  0  0  0  0  0  0  0
    3.3834    1.4782    0.0000 H   0  0  0  0  0  0  0  0  0  0  0  0
    2.1592    1.4782    0.0000 H   0  0  0  0  0  0  0  0  0  0  0  0
    4.1569   -0.8000    0.0000 C   0  0  0  0  0  0  0  0  0  0  0  0
    3.5448   -2.2782    0.0000 H   0  0  0  0  0  0  0  0  0  0  0  0
    4.7690   -2.2782    0.0000 H   0  0  0  0  0  0  0  0  0  0  0  0
    5.5426    0.0000    0.0000 C   0  0  0  0  0  0  0  0  0  0  0  0
    6.1547    1.4782    0.0000 H   0  0  0  0  0  0  0  0  0  0  0  0
    4.9304    1.4782    0.0000 H   0  0  0  0  0  0  0  0  0  0  0  0
    6.9282   -0.8000    0.0000 C   0  0  0  0  0  0  0  0  0  0  0  0
    6.3161   -2.2782    0.0000 H   0  0  0  0  0  0  0  0  0  0  0  0
    7.5403   -2.2782    0.0000 H   0  0  0  0  0  0  0  0  0  0  0  0
    8.3138    0.0000    0.0000 C   0  0  0  0  0  0  0  0  0  0  0  0
    8.9260    1.4782    0.0000 H   0  0  0  0  0  0  0  0  0  0  0  0
    7.7017    1.4782    0.0000 H   0  0  0  0  0  0  0  0  0  0  0  0
    9.6995   -0.8000    0.0000 C   0  0  0  0  0  0  0  0  0  0  0  0
   11.0851   -1.6000    0.0000 H   0  0  0  0  0  0  0  0  0  0  0  0
   11.0851    0.0000    0.0000 H   0  0  0  0  0  0  0  0  0  0  0  0
    9.6995   -2.4000    0.0000 H   0  0  0  0  0  0  0  0  0  0  0  0
  1  2  1  0  0  0  0
  1  3  1  0  0  0  0
  1  4  1  0  0  0  0
  4  5  1  0  0  0  0
  4  6  1  0  0  0  0
  4  7  1  0  0  0  0
  7  8  1  0  0  0  0
  7  9  1  0  0  0  0
  7 10  1  0  0  0  0
 10 11  1  0  0  0  0
 10 12  1  0  0  0  0
 10 13  1  0  0  0  0
 13 14  1  0  0  0  0
 13 15  1  0  0  0  0
 13 16  1  0  0  0  0
 16 17  1  0  0  0  0
 16 18  1  0  0  0  0
 16 19  1  0  0  0  0
 19 20  1  0  0  0  0
 19 21  1  0  0  0  0
 19 22  1  0  0  0  0
 22 23  1  0  0  0  0
 22 24  1  0  0  0  0
 22 25  1  0  0  0  0
 25 26  1  0  0  0  0
 25 27  1  0  0  0  0
 25 28  1  0  0  0  0
  1 29  1  0  0  0  0
 29 30  1  0  0  0  0
 29 31  1  0  0  0  0
 29 32  1  0  0  0  0
 32 33  1  0  0  0  0
 32 34  1  0  0  0  0
 32 35  1  0  0  0  0
 35 36  1  0  0  0  0
 35 37  1  0  0  0  0
 35 38  1  0  0  0  0
 38 39  1  0  0  0  0
 38 40  1  0  0  0  0
 38 41  1  0  0  0  0
 41 42  1  0  0  0  0
 41 43  1  0  0  0  0
 41 44  1  0  0  0  0
 44 45  1  0  0  0  0
 44 46  1  0  0  0  0
 44 47  1  0  0  0  0
 47 48  1  0  0  0  0
 47 49  1  0  0  0  0
 47 50  1  0  0  0  0
M  END
> <ChemID>
100412

> <source_casrn>
15716-08-2

> <CAS>
15716-08-2

> <SMILES>
[2H]C([2H])([2H])C([2H])([2H])C([2H])([2H])C([2H])([2H])C([2H])([2H])C([2H])([2H])C([2H])([2H])C([2H])([2H])C([2H])([2H])C([2H])([2H])C([2H])([2H])C([2H])([2H])C([2H])([2H])C([2H])([2H])C([2H])([2H])C([2H])([2H])[2H]

> <NAME>
n-hexadecane

> <preferred_name>
Hexadecane-d34

> <iupac>
C16H34

> <MPID>
102028

> <dsstox_substance_id>
DTXSID40486642

> <Canonical_QSARr>
CCCCCCCCCCCCCCCC

> <InChI_Code_QSARr>
InChI=1S/C16H34/c1-3-5-7-9-11-13-15-16-14-12-10-8-6-4-2/h3-16H2,1-2H3

> <InChI Key_QSARr>
DCAYPVUWAIABOU-UHFFFAOYSA-N

> <LogKmHL>
1.47

$$$$
100413
  -INDIGO-08031722222D

 22 23  0  0  0  0  0  0  0  0999 V2000
   -0.0001    0.0000    0.0000 C   0  0  0  0  0  0  0  0  0  0  0  0
    1.6001   -0.0000    0.0000 C   0  0  0  0  0  0  0  0  0  0  0  0
    2.4001   -1.3856    0.0000 C   0  0  0  0  0  0  0  0  0  0  0  0
    1.6001   -2.7713    0.0000 H   0  0  0  0  0  0  0  0  0  0  0  0
    4.0000   -1.3856    0.0000 C   0  0  0  0  0  0  0  0  0  0  0  0
    4.8000   -2.7713    0.0000 H   0  0  0  0  0  0  0  0  0  0  0  0
    4.8000    0.0000    0.0000 C   0  0  0  0  0  0  0  0  0  0  0  0
    6.4000    0.0000    0.0000 H   0  0  0  0  0  0  0  0  0  0  0  0
    4.0000    1.3856    0.0000 C   0  0  0  0  0  0  0  0  0  0  0  0
    4.8000    2.7713    0.0000 H   0  0  0  0  0  0  0  0  0  0  0  0
    2.4001    1.3856    0.0000 C   0  0  0  0  0  0  0  0  0  0  0  0
    1.6001    2.7713    0.0000 H   0  0  0  0  0  0  0  0  0  0  0  0
   -0.8001    1.3856    0.0000 C   0  0  0  0  0  0  0  0  0  0  0  0
   -0.0001    2.7713    0.0000 Cl  0  0  0  0  0  0  0  0  0  0  0  0
   -2.4000    1.3856    0.0000 C   0  0  0  0  0  0  0  0  0  0  0  0
   -3.2000    2.7713    0.0000 H   0  0  0  0  0  0  0  0  0  0  0  0
   -3.2000    0.0000    0.0000 C   0  0  0  0  0  0  0  0  0  0  0  0
   -4.8000   -0.0000    0.0000 Cl  0  0  0  0  0  0  0  0  0  0  0  0
   -2.4000   -1.3856    0.0000 C   0  0  0  0  0  0  0  0  0  0  0  0
   -3.2000   -2.7713    0.0000 Cl  0  0  0  0  0  0  0  0  0  0  0  0
   -0.8001   -1.3856    0.0000 C   0  0  0  0  0  0  0  0  0  0  0  0
   -0.0001   -2.7713    0.0000 H   0  0  0  0  0  0  0  0  0  0  0  0
  1  2  1  0  0  0  0
  2  3  1  0  0  0  0
  3  4  1  0  0  0  0
  3  5  2  0  0  0  0
  5  6  1  0  0  0  0
  5  7  1  0  0  0  0
  7  8  1  0  0  0  0
  7  9  2  0  0  0  0
  9 10  1  0  0  0  0
  9 11  1  0  0  0  0
 11  2  2  0  0  0  0
 11 12  1  0  0  0  0
  1 13  1  0  0  0  0
 13 14  1  0  0  0  0
 13 15  2  0  0  0  0
 15 16  1  0  0  0  0
 15 17  1  0  0  0  0
 17 18  1  0  0  0  0
 17 19  2  0  0  0  0
 19 20  1  0  0  0  0
 19 21  1  0  0  0  0
 21  1  2  0  0  0  0
 21 22  1  0  0  0  0
M  END
> <ChemID>
100413

> <source_casrn>
15862-07-4

> <CAS>
15862-07-4

> <SMILES>
Clc1cc(-c2ccccc2)c(Cl)cc1Cl

> <NAME>
2,4,5-Trichloro-1,1'-biphenyl

> <preferred_name>
2,4,5-Trichlorobiphenyl

> <iupac>
1,2,4-trichloro-5-phenylbenzene

> <MPID>
102029

> <dsstox_substance_id>
DTXSID0073405

> <Canonical_QSARr>
Clc1cc(-c2ccccc2)c(Cl)cc1Cl

> <InChI_Code_QSARr>
InChI=1S/C12H7Cl3/c13-10-7-12(15)11(14)6-9(10)8-4-2-1-3-5-8/h1-7H

> <InChI Key_QSARr>
VGVIKVCCUATMNG-UHFFFAOYSA-N

> <LogKmHL>
1.84

$$$$
100415
  -INDIGO-08031722222D

 21 22  0  0  0  0  0  0  0  0999 V2000
    2.3161    0.5964    0.0000 C   0  0  0  0  0  0  0  0  0  0  0  0
    3.8787    0.9398    0.0000 C   0  0  0  0  0  0  0  0  0  0  0  0
    4.3626    2.4649    0.0000 H   0  0  0  0  0  0  0  0  0  0  0  0
    4.9576   -0.2418    0.0000 C   0  0  0  0  0  0  0  0  0  0  0  0
    6.0364   -1.4233    0.0000 H   0  0  0  0  0  0  0  0  0  0  0  0
    6.5202    0.1017    0.0000 H   0  0  0  0  0  0  0  0  0  0  0  0
    4.4736   -1.7668    0.0000 H   0  0  0  0  0  0  0  0  0  0  0  0
    1.0821    1.3606    0.0000 C   0  0  0  0  0  0  0  0  0  0  0  0
    2.4084    2.2556    0.0000 H   0  0  0  0  0  0  0  0  0  0  0  0
    0.8100    2.9373    0.0000 C   0  0  0  0  0  0  0  0  0  0  0  0
    1.1646    4.4975    0.0000 H   0  0  0  0  0  0  0  0  0  0  0  0
   -0.0645    1.7071    0.0000 C   0  0  0  0  0  0  0  0  0  0  0  0
   -1.5976    2.1648    0.0000 H   0  0  0  0  0  0  0  0  0  0  0  0
   -0.0000   -0.0000    0.0000 C   0  0  0  0  0  0  0  0  0  0  0  0
   -0.1819   -1.5896    0.0000 H   0  0  0  0  0  0  0  0  0  0  0  0
   -1.4644   -0.4133    0.0000 C   0  0  0  0  0  0  0  0  0  0  0  0
   -1.6836   -1.9983    0.0000 H   0  0  0  0  0  0  0  0  0  0  0  0
   -2.8286    0.4228    0.0000 H   0  0  0  0  0  0  0  0  0  0  0  0
    1.4101   -0.7757    0.0000 C   0  0  0  0  0  0  0  0  0  0  0  0
    2.7686   -1.6211    0.0000 H   0  0  0  0  0  0  0  0  0  0  0  0
    0.6015   -2.1564    0.0000 H   0  0  0  0  0  0  0  0  0  0  0  0
  1  2  2  0  0  0  0
  2  3  1  0  0  0  0
  2  4  1  0  0  0  0
  4  5  1  0  0  0  0
  4  6  1  0  0  0  0
  4  7  1  0  0  0  0
  1  8  1  0  0  0  0
  8  9  1  0  0  0  0
  8 10  1  0  0  0  0
 10 11  1  0  0  0  0
 10 12  2  0  0  0  0
 12 13  1  0  0  0  0
 12 14  1  0  0  0  0
 14 15  1  0  0  0  0
 14 16  1  0  0  0  0
 16  8  1  0  0  0  0
 16 17  1  0  0  0  0
 16 18  1  0  0  0  0
 14 19  1  0  0  0  0
 19  1  1  0  0  0  0
 19 20  1  0  0  0  0
 19 21  1  0  0  0  0
M  END
> <ChemID>
100415

> <source_casrn>
16219-75-3

> <CAS>
16219-75-3

> <SMILES>
C(C(C=CC12)C1)(=CC)C2

> <NAME>
Ethylidene norbornene

> <preferred_name>
5-Ethylidene-2-norbornene

> <iupac>
5-ethylidenebicyclo[2.2.1]hept-2-ene

> <MPID>
102031

> <dsstox_substance_id>
DTXSID1025306

> <Canonical_QSARr>
CC=C1CC2CC1C=C2

> <InChI_Code_QSARr>
InChI=1S/C9H12/c1-2-8-5-7-3-4-9(8)6-7/h2-4,7,9H,5-6H2,1H3/b8-2+

> <InChI Key_QSARr>
OJOWICOBYCXEKR-KRXBUXKQSA-N

> <LogKmHL>
-0.56

$$$$
100416
  -INDIGO-08031722222D

 39 38  0  0  0  0  0  0  0  0999 V2000
   -0.0000    0.0000    0.0000 C   0  0  0  0  0  0  0  0  0  0  0  0
    0.6124   -1.4782    0.0000 H   0  0  0  0  0  0  0  0  0  0  0  0
   -0.6124   -1.4782    0.0000 H   0  0  0  0  0  0  0  0  0  0  0  0
   -1.3856    0.8000    0.0000 C   0  0  0  0  0  0  0  0  0  0  0  0
   -1.9980    2.2782    0.0000 H   0  0  0  0  0  0  0  0  0  0  0  0
   -0.7732    2.2782    0.0000 H   0  0  0  0  0  0  0  0  0  0  0  0
   -2.7712    0.0000    0.0000 C   0  0  0  0  0  0  0  0  0  0  0  0
   -2.1591   -1.4782    0.0000 H   0  0  0  0  0  0  0  0  0  0  0  0
   -3.3836   -1.4782    0.0000 H   0  0  0  0  0  0  0  0  0  0  0  0
   -4.1568    0.8000    0.0000 C   0  0  0  0  0  0  0  0  0  0  0  0
   -4.7692    2.2782    0.0000 H   0  0  0  0  0  0  0  0  0  0  0  0
   -3.5447    2.2782    0.0000 H   0  0  0  0  0  0  0  0  0  0  0  0
   -5.5427    0.0000    0.0000 C   0  0  0  0  0  0  0  0  0  0  0  0
   -4.9303   -1.4782    0.0000 H   0  0  0  0  0  0  0  0  0  0  0  0
   -6.1548   -1.4782    0.0000 H   0  0  0  0  0  0  0  0  0  0  0  0
   -6.9283    0.8000    0.0000 C   0  0  0  0  0  0  0  0  0  0  0  0
   -8.3139    0.0000    0.0000 C   0  0  0  0  0  0  0  0  0  0  0  0
   -9.6995   -0.8000    0.0000 H   0  0  0  0  0  0  0  0  0  0  0  0
   -9.6995    0.8000    0.0000 H   0  0  0  0  0  0  0  0  0  0  0  0
   -8.3139   -1.6000    0.0000 H   0  0  0  0  0  0  0  0  0  0  0  0
   -6.9283    2.4000    0.0000 C   0  0  0  0  0  0  0  0  0  0  0  0
   -8.3139    3.2000    0.0000 H   0  0  0  0  0  0  0  0  0  0  0  0
   -5.5427    3.2000    0.0000 H   0  0  0  0  0  0  0  0  0  0  0  0
    1.3856    0.8000    0.0000 C   0  0  0  0  0  0  0  0  0  0  0  0
    0.7735    2.2782    0.0000 H   0  0  0  0  0  0  0  0  0  0  0  0
    1.9980    2.2782    0.0000 H   0  0  0  0  0  0  0  0  0  0  0  0
    2.7712    0.0000    0.0000 C   0  0  0  0  0  0  0  0  0  0  0  0
    3.3836   -1.4782    0.0000 H   0  0  0  0  0  0  0  0  0  0  0  0
    2.1590   -1.4782    0.0000 H   0  0  0  0  0  0  0  0  0  0  0  0
    4.1570    0.8000    0.0000 C   0  0  0  0  0  0  0  0  0  0  0  0
    3.5446    2.2782    0.0000 H   0  0  0  0  0  0  0  0  0  0  0  0
    4.7692    2.2782    0.0000 H   0  0  0  0  0  0  0  0  0  0  0  0
    5.5426    0.0000    0.0000 C   0  0  0  0  0  0  0  0  0  0  0  0
    6.1548   -1.4782    0.0000 H   0  0  0  0  0  0  0  0  0  0  0  0
    4.9302   -1.4782    0.0000 H   0  0  0  0  0  0  0  0  0  0  0  0
    6.9282    0.8000    0.0000 C   0  0  0  0  0  0  0  0  0  0  0  0
    8.3138    1.6000    0.0000 H   0  0  0  0  0  0  0  0  0  0  0  0
    8.3138    0.0000    0.0000 H   0  0  0  0  0  0  0  0  0  0  0  0
    6.9282    2.4000    0.0000 H   0  0  0  0  0  0  0  0  0  0  0  0
  1  2  1  0  0  0  0
  1  3  1  0  0  0  0
  1  4  1  0  0  0  0
  4  5  1  0  0  0  0
  4  6  1  0  0  0  0
  4  7  1  0  0  0  0
  7  8  1  0  0  0  0
  7  9  1  0  0  0  0
  7 10  1  0  0  0  0
 10 11  1  0  0  0  0
 10 12  1  0  0  0  0
 10 13  1  0  0  0  0
 13 14  1  0  0  0  0
 13 15  1  0  0  0  0
 13 16  1  0  0  0  0
 16 17  1  0  0  0  0
 17 18  1  0  0  0  0
 17 19  1  0  0  0  0
 17 20  1  0  0  0  0
 16 21  2  0  0  0  0
 21 22  1  0  0  0  0
 21 23  1  0  0  0  0
  1 24  1  0  0  0  0
 24 25  1  0  0  0  0
 24 26  1  0  0  0  0
 24 27  1  0  0  0  0
 27 28  1  0  0  0  0
 27 29  1  0  0  0  0
 27 30  1  0  0  0  0
 30 31  1  0  0  0  0
 30 32  1  0  0  0  0
 30 33  1  0  0  0  0
 33 34  1  0  0  0  0
 33 35  1  0  0  0  0
 33 36  1  0  0  0  0
 36 37  1  0  0  0  0
 36 38  1  0  0  0  0
 36 39  1  0  0  0  0
M  END
> <ChemID>
100416

> <source_casrn>
16435-49-7

> <CAS>
16435-49-7

> <SMILES>
CCCCCCCCCCC(C)=C

> <NAME>
2-methyl-1-dodecene

> <preferred_name>
2-methyldodec-1-ene

> <iupac>
C13H26

> <MPID>
102032

> <dsstox_substance_id>
DTXSID40333945

> <Canonical_QSARr>
CCCCCCCCCCC(C)=C

> <InChI_Code_QSARr>
InChI=1S/C13H26/c1-4-5-6-7-8-9-10-11-12-13(2)3/h2,4-12H2,1,3H3

> <InChI Key_QSARr>
PWRBDKMPAZFCSV-UHFFFAOYSA-N

> <LogKmHL>
0.64

$$$$
100417
  -INDIGO-08031722222D

 22 23  0  0  0  0  0  0  0  0999 V2000
   -0.0001    0.0000    0.0000 C   0  0  0  0  0  0  0  0  0  0  0  0
    1.6001   -0.0000    0.0000 C   0  0  0  0  0  0  0  0  0  0  0  0
    2.4001   -1.3856    0.0000 C   0  0  0  0  0  0  0  0  0  0  0  0
    1.6001   -2.7713    0.0000 H   0  0  0  0  0  0  0  0  0  0  0  0
    4.0000   -1.3856    0.0000 C   0  0  0  0  0  0  0  0  0  0  0  0
    4.8000   -2.7713    0.0000 H   0  0  0  0  0  0  0  0  0  0  0  0
    4.8000    0.0000    0.0000 C   0  0  0  0  0  0  0  0  0  0  0  0
    6.4000    0.0000    0.0000 H   0  0  0  0  0  0  0  0  0  0  0  0
    4.0000    1.3856    0.0000 C   0  0  0  0  0  0  0  0  0  0  0  0
    4.8000    2.7713    0.0000 H   0  0  0  0  0  0  0  0  0  0  0  0
    2.4001    1.3856    0.0000 C   0  0  0  0  0  0  0  0  0  0  0  0
    1.6001    2.7713    0.0000 H   0  0  0  0  0  0  0  0  0  0  0  0
   -0.8001    1.3856    0.0000 C   0  0  0  0  0  0  0  0  0  0  0  0
   -0.0001    2.7713    0.0000 Cl  0  0  0  0  0  0  0  0  0  0  0  0
   -2.4000    1.3856    0.0000 C   0  0  0  0  0  0  0  0  0  0  0  0
   -3.2000    2.7713    0.0000 Cl  0  0  0  0  0  0  0  0  0  0  0  0
   -3.2000    0.0000    0.0000 C   0  0  0  0  0  0  0  0  0  0  0  0
   -4.8000   -0.0000    0.0000 H   0  0  0  0  0  0  0  0  0  0  0  0
   -2.4000   -1.3856    0.0000 C   0  0  0  0  0  0  0  0  0  0  0  0
   -3.2000   -2.7713    0.0000 H   0  0  0  0  0  0  0  0  0  0  0  0
   -0.8001   -1.3856    0.0000 C   0  0  0  0  0  0  0  0  0  0  0  0
   -0.0001   -2.7713    0.0000 H   0  0  0  0  0  0  0  0  0  0  0  0
  1  2  1  0  0  0  0
  2  3  1  0  0  0  0
  3  4  1  0  0  0  0
  3  5  2  0  0  0  0
  5  6  1  0  0  0  0
  5  7  1  0  0  0  0
  7  8  1  0  0  0  0
  7  9  2  0  0  0  0
  9 10  1  0  0  0  0
  9 11  1  0  0  0  0
 11  2  2  0  0  0  0
 11 12  1  0  0  0  0
  1 13  1  0  0  0  0
 13 14  1  0  0  0  0
 13 15  2  0  0  0  0
 15 16  1  0  0  0  0
 15 17  1  0  0  0  0
 17 18  1  0  0  0  0
 17 19  2  0  0  0  0
 19 20  1  0  0  0  0
 19 21  1  0  0  0  0
 21  1  2  0  0  0  0
 21 22  1  0  0  0  0
M  END
> <ChemID>
100417

> <source_casrn>
16605-91-7

> <CAS>
16605-91-7

> <SMILES>
Clc1cccc(-c2ccccc2)c1Cl

> <NAME>
2,3-Dichloro-1,1'-biphenyl

> <preferred_name>
2,3-Dichlorobiphenyl

> <iupac>
1,2-dichloro-3-phenylbenzene

> <MPID>
102033

> <dsstox_substance_id>
DTXSID0073409

> <Canonical_QSARr>
Clc1cccc(-c2ccccc2)c1Cl

> <InChI_Code_QSARr>
InChI=1S/C12H8Cl2/c13-11-8-4-7-10(12(11)14)9-5-2-1-3-6-9/h1-8H

> <InChI Key_QSARr>
XOMKZKJEJBZBJJ-UHFFFAOYSA-N

> <LogKmHL>
2.15

$$$$
100419
  -INDIGO-08031722222D

 98 97  0  0  0  0  0  0  0  0999 V2000
   11.0848    0.0000    0.0000 C   0  0  0  0  0  0  0  0  0  0  0  0
   12.4709    0.8000    0.0000 C   0  0  0  0  0  0  0  0  0  0  0  0
   11.8581    2.2782    0.0000 H   0  0  0  0  0  0  0  0  0  0  0  0
   13.0829    2.2782    0.0000 H   0  0  0  0  0  0  0  0  0  0  0  0
   13.8562    0.0000    0.0000 C   0  0  0  0  0  0  0  0  0  0  0  0
   14.4689   -1.4782    0.0000 H   0  0  0  0  0  0  0  0  0  0  0  0
   13.2442   -1.4782    0.0000 H   0  0  0  0  0  0  0  0  0  0  0  0
   15.2423    0.8000    0.0000 C   0  0  0  0  0  0  0  0  0  0  0  0
   14.6295    2.2782    0.0000 H   0  0  0  0  0  0  0  0  0  0  0  0
   15.8543    2.2782    0.0000 H   0  0  0  0  0  0  0  0  0  0  0  0
   16.6276    0.0000    0.0000 C   0  0  0  0  0  0  0  0  0  0  0  0
   17.2403   -1.4782    0.0000 H   0  0  0  0  0  0  0  0  0  0  0  0
   16.0156   -1.4782    0.0000 H   0  0  0  0  0  0  0  0  0  0  0  0
   18.0136    0.8000    0.0000 C   0  0  0  0  0  0  0  0  0  0  0  0
   19.3990    0.0000    0.0000 O   0  0  0  0  0  0  0  0  0  0  0  0
   20.7843    0.8000    0.0000 C   0  0  0  0  0  0  0  0  0  0  0  0
   20.1723    2.2782    0.0000 H   0  0  0  0  0  0  0  0  0  0  0  0
   21.3970    2.2782    0.0000 H   0  0  0  0  0  0  0  0  0  0  0  0
   22.1704    0.0000    0.0000 C   0  0  0  0  0  0  0  0  0  0  0  0
   22.7824   -1.4782    0.0000 H   0  0  0  0  0  0  0  0  0  0  0  0
   21.5576   -1.4782    0.0000 H   0  0  0  0  0  0  0  0  0  0  0  0
   23.5557    0.8000    0.0000 C   0  0  0  0  0  0  0  0  0  0  0  0
   22.9437    2.2782    0.0000 H   0  0  0  0  0  0  0  0  0  0  0  0
   24.1684    2.2782    0.0000 H   0  0  0  0  0  0  0  0  0  0  0  0
   24.9417    0.0000    0.0000 C   0  0  0  0  0  0  0  0  0  0  0  0
   25.5537   -1.4782    0.0000 H   0  0  0  0  0  0  0  0  0  0  0  0
   24.3290   -1.4782    0.0000 H   0  0  0  0  0  0  0  0  0  0  0  0
   26.3271    0.8000    0.0000 C   0  0  0  0  0  0  0  0  0  0  0  0
   25.7151    2.2782    0.0000 H   0  0  0  0  0  0  0  0  0  0  0  0
   26.9398    2.2782    0.0000 H   0  0  0  0  0  0  0  0  0  0  0  0
   27.7131    0.0000    0.0000 C   0  0  0  0  0  0  0  0  0  0  0  0
   28.3251   -1.4782    0.0000 H   0  0  0  0  0  0  0  0  0  0  0  0
   27.1004   -1.4782    0.0000 H   0  0  0  0  0  0  0  0  0  0  0  0
   29.0985    0.8000    0.0000 C   0  0  0  0  0  0  0  0  0  0  0  0
   28.4865    2.2782    0.0000 H   0  0  0  0  0  0  0  0  0  0  0  0
   29.7105    2.2782    0.0000 H   0  0  0  0  0  0  0  0  0  0  0  0
   30.4838    0.0000    0.0000 C   0  0  0  0  0  0  0  0  0  0  0  0
   31.0965   -1.4782    0.0000 H   0  0  0  0  0  0  0  0  0  0  0  0
   29.8718   -1.4782    0.0000 H   0  0  0  0  0  0  0  0  0  0  0  0
   31.8698    0.8000    0.0000 C   0  0  0  0  0  0  0  0  0  0  0  0
   31.2571    2.2782    0.0000 H   0  0  0  0  0  0  0  0  0  0  0  0
   32.4818    2.2782    0.0000 H   0  0  0  0  0  0  0  0  0  0  0  0
   33.2552    0.0000    0.0000 C   0  0  0  0  0  0  0  0  0  0  0  0
   33.8679   -1.4782    0.0000 H   0  0  0  0  0  0  0  0  0  0  0  0
   32.6432   -1.4782    0.0000 H   0  0  0  0  0  0  0  0  0  0  0  0
   34.6412    0.8000    0.0000 C   0  0  0  0  0  0  0  0  0  0  0  0
   34.0285    2.2782    0.0000 H   0  0  0  0  0  0  0  0  0  0  0  0
   35.2532    2.2782    0.0000 H   0  0  0  0  0  0  0  0  0  0  0  0
   36.0266    0.0000    0.0000 C   0  0  0  0  0  0  0  0  0  0  0  0
   36.6393   -1.4782    0.0000 H   0  0  0  0  0  0  0  0  0  0  0  0
   35.4146   -1.4782    0.0000 H   0  0  0  0  0  0  0  0  0  0  0  0
   37.4126    0.8000    0.0000 C   0  0  0  0  0  0  0  0  0  0  0  0
   38.7979    1.6000    0.0000 H   0  0  0  0  0  0  0  0  0  0  0  0
   38.7979    0.0000    0.0000 H   0  0  0  0  0  0  0  0  0  0  0  0
   37.4126    2.4000    0.0000 H   0  0  0  0  0  0  0  0  0  0  0  0
   18.0136    2.4000    0.0000 O   0  0  0  0  0  0  0  0  0  0  0  0
    9.6995    0.8000    0.0000 O   0  0  0  0  0  0  0  0  0  0  0  0
    8.3142    0.0000    0.0000 C   0  0  0  0  0  0  0  0  0  0  0  0
    8.9262   -1.4782    0.0000 H   0  0  0  0  0  0  0  0  0  0  0  0
    7.7014   -1.4782    0.0000 H   0  0  0  0  0  0  0  0  0  0  0  0
    6.9281    0.8000    0.0000 C   0  0  0  0  0  0  0  0  0  0  0  0
    6.3161    2.2782    0.0000 H   0  0  0  0  0  0  0  0  0  0  0  0
    7.5408    2.2782    0.0000 H   0  0  0  0  0  0  0  0  0  0  0  0
    5.5428    0.0000    0.0000 C   0  0  0  0  0  0  0  0  0  0  0  0
    6.1548   -1.4782    0.0000 H   0  0  0  0  0  0  0  0  0  0  0  0
    4.9300   -1.4782    0.0000 H   0  0  0  0  0  0  0  0  0  0  0  0
    4.1567    0.8000    0.0000 C   0  0  0  0  0  0  0  0  0  0  0  0
    3.5447    2.2782    0.0000 H   0  0  0  0  0  0  0  0  0  0  0  0
    4.7695    2.2782    0.0000 H   0  0  0  0  0  0  0  0  0  0  0  0
    2.7714    0.0000    0.0000 C   0  0  0  0  0  0  0  0  0  0  0  0
    3.3834   -1.4782    0.0000 H   0  0  0  0  0  0  0  0  0  0  0  0
    2.1586   -1.4782    0.0000 H   0  0  0  0  0  0  0  0  0  0  0  0
    1.3853    0.8000    0.0000 C   0  0  0  0  0  0  0  0  0  0  0  0
    0.7733    2.2782    0.0000 H   0  0  0  0  0  0  0  0  0  0  0  0
    1.9981    2.2782    0.0000 H   0  0  0  0  0  0  0  0  0  0  0  0
    0.0000    0.0000    0.0000 C   0  0  0  0  0  0  0  0  0  0  0  0
    0.6120   -1.4782    0.0000 H   0  0  0  0  0  0  0  0  0  0  0  0
   -0.6120   -1.4782    0.0000 H   0  0  0  0  0  0  0  0  0  0  0  0
   -1.3853    0.8000    0.0000 C   0  0  0  0  0  0  0  0  0  0  0  0
   -1.9981    2.2782    0.0000 H   0  0  0  0  0  0  0  0  0  0  0  0
   -0.7733    2.2782    0.0000 H   0  0  0  0  0  0  0  0  0  0  0  0
   -2.7714    0.0000    0.0000 C   0  0  0  0  0  0  0  0  0  0  0  0
   -2.1586   -1.4782    0.0000 H   0  0  0  0  0  0  0  0  0  0  0  0
   -3.3834   -1.4782    0.0000 H   0  0  0  0  0  0  0  0  0  0  0  0
   -4.1567    0.8000    0.0000 C   0  0  0  0  0  0  0  0  0  0  0  0
   -4.7694    2.2782    0.0000 H   0  0  0  0  0  0  0  0  0  0  0  0
   -3.5447    2.2782    0.0000 H   0  0  0  0  0  0  0  0  0  0  0  0
   -5.5428    0.0000    0.0000 C   0  0  0  0  0  0  0  0  0  0  0  0
   -4.9300   -1.4782    0.0000 H   0  0  0  0  0  0  0  0  0  0  0  0
   -6.1548   -1.4782    0.0000 H   0  0  0  0  0  0  0  0  0  0  0  0
   -6.9281    0.8000    0.0000 C   0  0  0  0  0  0  0  0  0  0  0  0
   -7.5408    2.2782    0.0000 H   0  0  0  0  0  0  0  0  0  0  0  0
   -6.3161    2.2782    0.0000 H   0  0  0  0  0  0  0  0  0  0  0  0
   -8.3142    0.0000    0.0000 C   0  0  0  0  0  0  0  0  0  0  0  0
   -9.6995   -0.8000    0.0000 H   0  0  0  0  0  0  0  0  0  0  0  0
   -9.6995    0.8000    0.0000 H   0  0  0  0  0  0  0  0  0  0  0  0
   -8.3142   -1.6000    0.0000 H   0  0  0  0  0  0  0  0  0  0  0  0
   11.0848   -1.6000    0.0000 O   0  0  0  0  0  0  0  0  0  0  0  0
  1  2  1  0  0  0  0
  2  3  1  0  0  0  0
  2  4  1  0  0  0  0
  2  5  1  0  0  0  0
  5  6  1  0  0  0  0
  5  7  1  0  0  0  0
  5  8  1  0  0  0  0
  8  9  1  0  0  0  0
  8 10  1  0  0  0  0
  8 11  1  0  0  0  0
 11 12  1  0  0  0  0
 11 13  1  0  0  0  0
 11 14  1  0  0  0  0
 14 15  1  0  0  0  0
 15 16  1  0  0  0  0
 16 17  1  0  0  0  0
 16 18  1  0  0  0  0
 16 19  1  0  0  0  0
 19 20  1  0  0  0  0
 19 21  1  0  0  0  0
 19 22  1  0  0  0  0
 22 23  1  0  0  0  0
 22 24  1  0  0  0  0
 22 25  1  0  0  0  0
 25 26  1  0  0  0  0
 25 27  1  0  0  0  0
 25 28  1  0  0  0  0
 28 29  1  0  0  0  0
 28 30  1  0  0  0  0
 28 31  1  0  0  0  0
 31 32  1  0  0  0  0
 31 33  1  0  0  0  0
 31 34  1  0  0  0  0
 34 35  1  0  0  0  0
 34 36  1  0  0  0  0
 34 37  1  0  0  0  0
 37 38  1  0  0  0  0
 37 39  1  0  0  0  0
 37 40  1  0  0  0  0
 40 41  1  0  0  0  0
 40 42  1  0  0  0  0
 40 43  1  0  0  0  0
 43 44  1  0  0  0  0
 43 45  1  0  0  0  0
 43 46  1  0  0  0  0
 46 47  1  0  0  0  0
 46 48  1  0  0  0  0
 46 49  1  0  0  0  0
 49 50  1  0  0  0  0
 49 51  1  0  0  0  0
 49 52  1  0  0  0  0
 52 53  1  0  0  0  0
 52 54  1  0  0  0  0
 52 55  1  0  0  0  0
 14 56  2  0  0  0  0
  1 57  1  0  0  0  0
 57 58  1  0  0  0  0
 58 59  1  0  0  0  0
 58 60  1  0  0  0  0
 58 61  1  0  0  0  0
 61 62  1  0  0  0  0
 61 63  1  0  0  0  0
 61 64  1  0  0  0  0
 64 65  1  0  0  0  0
 64 66  1  0  0  0  0
 64 67  1  0  0  0  0
 67 68  1  0  0  0  0
 67 69  1  0  0  0  0
 67 70  1  0  0  0  0
 70 71  1  0  0  0  0
 70 72  1  0  0  0  0
 70 73  1  0  0  0  0
 73 74  1  0  0  0  0
 73 75  1  0  0  0  0
 73 76  1  0  0  0  0
 76 77  1  0  0  0  0
 76 78  1  0  0  0  0
 76 79  1  0  0  0  0
 79 80  1  0  0  0  0
 79 81  1  0  0  0  0
 79 82  1  0  0  0  0
 82 83  1  0  0  0  0
 82 84  1  0  0  0  0
 82 85  1  0  0  0  0
 85 86  1  0  0  0  0
 85 87  1  0  0  0  0
 85 88  1  0  0  0  0
 88 89  1  0  0  0  0
 88 90  1  0  0  0  0
 88 91  1  0  0  0  0
 91 92  1  0  0  0  0
 91 93  1  0  0  0  0
 91 94  1  0  0  0  0
 94 95  1  0  0  0  0
 94 96  1  0  0  0  0
 94 97  1  0  0  0  0
  1 98  2  0  0  0  0
M  END
> <ChemID>
100419

> <source_casrn>
16958-92-2

> <CAS>
16958-92-2

> <SMILES>
O=C(OCCCCCCCCCCCCC)CCCCC(=O)OCCCCCCCCCCCCC

> <NAME>
Diisotridecyl adipate

> <preferred_name>
Hexanedioic acid, ditridecyl ester

> <iupac>
ditridecyl hexanedioate

> <MPID>
102035

> <dsstox_substance_id>
DTXSID9027786

> <Canonical_QSARr>
CCCCCCCCCCCCCOC(=O)CCCCC(=O)OCCCCCCCCCCCCC

> <InChI_Code_QSARr>
InChI=1S/C32H62O4/c1-3-5-7-9-11-13-15-17-19-21-25-29-35-31(33)27-23-24-28-32(34)36-30-26-22-20-18-16-14-12-10-8-6-4-2/h3-30H2,1-2H3

> <InChI Key_QSARr>
LZJUZSYHFSVIGJ-UHFFFAOYSA-N

> <LogKmHL>
-0.43

$$$$
100420
  -INDIGO-08031722222D

 32 35  0  0  0  0  0  0  0  0999 V2000
    1.5999    0.0000    0.0000 C   0  0  0  0  0  0  0  0  0  0  0  0
    0.0001    0.0000    0.0000 C   0  0  0  0  0  0  0  0  0  0  0  0
   -0.7999    1.3857    0.0000 C   0  0  0  0  0  0  0  0  0  0  0  0
   -2.3999    1.3857    0.0000 C   0  0  0  0  0  0  0  0  0  0  0  0
   -3.2000    2.7713    0.0000 H   0  0  0  0  0  0  0  0  0  0  0  0
   -3.2000    0.0000    0.0000 C   0  0  0  0  0  0  0  0  0  0  0  0
   -4.8000    0.0000    0.0000 H   0  0  0  0  0  0  0  0  0  0  0  0
   -2.3999   -1.3856    0.0000 C   0  0  0  0  0  0  0  0  0  0  0  0
   -0.7999   -1.3856    0.0000 C   0  0  0  0  0  0  0  0  0  0  0  0
    0.0001   -2.7712    0.0000 C   0  0  0  0  0  0  0  0  0  0  0  0
   -0.7999   -4.1569    0.0000 H   0  0  0  0  0  0  0  0  0  0  0  0
    1.5999   -2.7712    0.0000 C   0  0  0  0  0  0  0  0  0  0  0  0
    2.3999   -4.1569    0.0000 H   0  0  0  0  0  0  0  0  0  0  0  0
    2.3999   -1.3856    0.0000 C   0  0  0  0  0  0  0  0  0  0  0  0
    4.0000   -1.3856    0.0000 C   0  0  0  0  0  0  0  0  0  0  0  0
    4.8000   -2.7712    0.0000 H   0  0  0  0  0  0  0  0  0  0  0  0
    4.8000    0.0000    0.0000 C   0  0  0  0  0  0  0  0  0  0  0  0
    6.4000    0.0000    0.0000 H   0  0  0  0  0  0  0  0  0  0  0  0
    4.0000    1.3857    0.0000 C   0  0  0  0  0  0  0  0  0  0  0  0
    4.8000    2.7713    0.0000 H   0  0  0  0  0  0  0  0  0  0  0  0
    2.3999    1.3857    0.0000 C   0  0  0  0  0  0  0  0  0  0  0  0
    1.5999    2.7713    0.0000 C   0  0  0  0  0  0  0  0  0  0  0  0
    2.3999    4.1569    0.0000 H   0  0  0  0  0  0  0  0  0  0  0  0
   -0.0001    2.7713    0.0000 C   0  0  0  0  0  0  0  0  0  0  0  0
   -0.7999    4.1569    0.0000 H   0  0  0  0  0  0  0  0  0  0  0  0
   -3.2000   -2.7712    0.0000 C   0  0  0  0  0  0  0  0  0  0  0  0
   -1.9306   -3.7453    0.0000 H   0  0  0  0  0  0  0  0  0  0  0  0
   -2.9912   -4.3576    0.0000 H   0  0  0  0  0  0  0  0  0  0  0  0
   -4.8000   -2.7712    0.0000 C   0  0  0  0  0  0  0  0  0  0  0  0
   -6.4000   -2.7712    0.0000 H   0  0  0  0  0  0  0  0  0  0  0  0
   -5.6000   -4.1569    0.0000 H   0  0  0  0  0  0  0  0  0  0  0  0
   -4.0000   -4.1569    0.0000 H   0  0  0  0  0  0  0  0  0  0  0  0
  1  2  2  0  0  0  0
  2  3  1  0  0  0  0
  3  4  1  0  0  0  0
  4  5  1  0  0  0  0
  4  6  2  0  0  0  0
  6  7  1  0  0  0  0
  6  8  1  0  0  0  0
  8  9  2  0  0  0  0
  9  2  1  0  0  0  0
  9 10  1  0  0  0  0
 10 11  1  0  0  0  0
 10 12  2  0  0  0  0
 12 13  1  0  0  0  0
 12 14  1  0  0  0  0
 14  1  1  0  0  0  0
 14 15  2  0  0  0  0
 15 16  1  0  0  0  0
 15 17  1  0  0  0  0
 17 18  1  0  0  0  0
 17 19  2  0  0  0  0
 19 20  1  0  0  0  0
 19 21  1  0  0  0  0
 21  1  1  0  0  0  0
 21 22  2  0  0  0  0
 22 23  1  0  0  0  0
 22 24  1  0  0  0  0
 24  3  2  0  0  0  0
 24 25  1  0  0  0  0
  8 26  1  0  0  0  0
 26 27  1  0  0  0  0
 26 28  1  0  0  0  0
 26 29  1  0  0  0  0
 29 30  1  0  0  0  0
 29 31  1  0  0  0  0
 29 32  1  0  0  0  0
M  END
> <ChemID>
100420

> <source_casrn>
17088-22-1

> <CAS>
17088-22-1

> <SMILES>
c12c3c4cccc3ccc1c(CC)ccc2C=C4

> <NAME>
1-ethylpyrene

> <preferred_name>


> <iupac>


> <MPID>
102036

> <dsstox_substance_id>
DTXSID50878251

> <Canonical_QSARr>
CCc1ccc2ccc3cccc4ccc1c2c34

> <InChI_Code_QSARr>
InChI=1S/C18H14/c1-2-12-6-7-15-9-8-13-4-3-5-14-10-11-16(12)18(15)17(13)14/h3-11H,2H2,1H3

> <InChI Key_QSARr>
ZWAMZDRREBOHIO-UHFFFAOYSA-N

> <LogKmHL>
0.24

$$$$
100421
  -INDIGO-08031722222D

 34 35  0  0  0  0  0  0  0  0999 V2000
   -0.0001    0.0000    0.0000 P   0  0  0  0  0  0  0  0  0  0  0  0
    1.3856   -0.8001    0.0000 S   0  0  0  0  0  0  0  0  0  0  0  0
    2.7712    0.0000    0.0000 C   0  0  0  0  0  0  0  0  0  0  0  0
    4.1569   -0.7999    0.0000 C   0  0  0  0  0  0  0  0  0  0  0  0
    4.1569   -2.4000    0.0000 H   0  0  0  0  0  0  0  0  0  0  0  0
    5.5427    0.0000    0.0000 C   0  0  0  0  0  0  0  0  0  0  0  0
    6.9282   -0.7999    0.0000 H   0  0  0  0  0  0  0  0  0  0  0  0
    5.5425    1.6000    0.0000 C   0  0  0  0  0  0  0  0  0  0  0  0
    6.9282    2.4001    0.0000 H   0  0  0  0  0  0  0  0  0  0  0  0
    4.1569    2.4001    0.0000 C   0  0  0  0  0  0  0  0  0  0  0  0
    4.1569    4.0000    0.0000 H   0  0  0  0  0  0  0  0  0  0  0  0
    2.7712    1.6000    0.0000 C   0  0  0  0  0  0  0  0  0  0  0  0
    1.3856    2.3999    0.0000 H   0  0  0  0  0  0  0  0  0  0  0  0
   -1.3856    0.8000    0.0000 S   0  0  0  0  0  0  0  0  0  0  0  0
   -2.7714    0.0000    0.0000 C   0  0  0  0  0  0  0  0  0  0  0  0
   -2.7712   -1.6000    0.0000 C   0  0  0  0  0  0  0  0  0  0  0  0
   -1.3856   -2.4000    0.0000 H   0  0  0  0  0  0  0  0  0  0  0  0
   -4.1569   -2.4000    0.0000 C   0  0  0  0  0  0  0  0  0  0  0  0
   -4.1569   -4.0001    0.0000 H   0  0  0  0  0  0  0  0  0  0  0  0
   -5.5427   -1.6000    0.0000 C   0  0  0  0  0  0  0  0  0  0  0  0
   -6.9282   -2.4000    0.0000 H   0  0  0  0  0  0  0  0  0  0  0  0
   -5.5425    0.0000    0.0000 C   0  0  0  0  0  0  0  0  0  0  0  0
   -6.9282    0.8000    0.0000 H   0  0  0  0  0  0  0  0  0  0  0  0
   -4.1569    0.8000    0.0000 C   0  0  0  0  0  0  0  0  0  0  0  0
   -4.1569    2.3999    0.0000 H   0  0  0  0  0  0  0  0  0  0  0  0
   -1.3856   -0.8001    0.0000 O   0  0  0  0  0  0  0  0  0  0  0  0
    0.0001   -1.6000    0.0000 O   0  0  0  0  0  0  0  0  0  0  0  0
    1.3856   -2.4000    0.0000 C   0  0  0  0  0  0  0  0  0  0  0  0
    2.3597   -1.1307    0.0000 H   0  0  0  0  0  0  0  0  0  0  0  0
    2.9720   -2.1911    0.0000 H   0  0  0  0  0  0  0  0  0  0  0  0
    1.3856   -4.0001    0.0000 C   0  0  0  0  0  0  0  0  0  0  0  0
    1.3856   -5.6000    0.0000 H   0  0  0  0  0  0  0  0  0  0  0  0
    0.0001   -4.8000    0.0000 H   0  0  0  0  0  0  0  0  0  0  0  0
    2.7714   -4.8000    0.0000 H   0  0  0  0  0  0  0  0  0  0  0  0
  1  2  1  0  0  0  0
  2  3  1  0  0  0  0
  3  4  1  0  0  0  0
  4  5  1  0  0  0  0
  4  6  2  0  0  0  0
  6  7  1  0  0  0  0
  6  8  1  0  0  0  0
  8  9  1  0  0  0  0
  8 10  2  0  0  0  0
 10 11  1  0  0  0  0
 10 12  1  0  0  0  0
 12  3  2  0  0  0  0
 12 13  1  0  0  0  0
  1 14  1  0  0  0  0
 14 15  1  0  0  0  0
 15 16  1  0  0  0  0
 16 17  1  0  0  0  0
 16 18  2  0  0  0  0
 18 19  1  0  0  0  0
 18 20  1  0  0  0  0
 20 21  1  0  0  0  0
 20 22  2  0  0  0  0
 22 23  1  0  0  0  0
 22 24  1  0  0  0  0
 24 15  2  0  0  0  0
 24 25  1  0  0  0  0
  1 26  2  0  0  0  0
  1 27  1  0  0  0  0
 27 28  1  0  0  0  0
 28 29  1  0  0  0  0
 28 30  1  0  0  0  0
 28 31  1  0  0  0  0
 31 32  1  0  0  0  0
 31 33  1  0  0  0  0
 31 34  1  0  0  0  0
M  END
> <ChemID>
100421

> <source_casrn>
17109-49-8

> <CAS>
17109-49-8

> <SMILES>
CCOP(=O)(Sc1ccccc1)Sc1ccccc1

> <NAME>
Edifenphos

> <preferred_name>
Edifenphos

> <iupac>
O-ethyl S,S-diphenyl phosphorodithioate

> <MPID>
102037

> <dsstox_substance_id>
DTXSID7041910

> <Canonical_QSARr>
CCOP(=O)(Sc1ccccc1)Sc1ccccc1

> <InChI_Code_QSARr>
InChI=1S/C14H15O2PS2/c1-2-16-17(15,18-13-9-5-3-6-10-13)19-14-11-7-4-8-12-14/h3-12H,2H2,1H3

> <InChI Key_QSARr>
AWZOLILCOUMRDG-UHFFFAOYSA-N

> <LogKmHL>
-1.04

$$$$
100425
  -INDIGO-08031722222D

 14 14  0  0  0  0  0  0  0  0999 V2000
    1.6000   -0.0000    0.0000 N   0  0  0  0  0  0  0  0  0  0  0  0
    2.4000    1.3856    0.0000 O   0  0  0  0  0  0  0  0  0  0  0  0
    2.4000   -1.3856    0.0000 O   0  0  0  0  0  0  0  0  0  0  0  0
    0.0000   -0.0000    0.0000 C   0  0  0  0  0  0  0  0  0  0  0  0
   -0.8000    1.3856    0.0000 C   0  0  0  0  0  0  0  0  0  0  0  0
    0.0000    2.7713    0.0000 H   0  0  0  0  0  0  0  0  0  0  0  0
   -2.4000    1.3856    0.0000 C   0  0  0  0  0  0  0  0  0  0  0  0
   -3.2000    2.7713    0.0000 H   0  0  0  0  0  0  0  0  0  0  0  0
   -3.2000   -0.0000    0.0000 C   0  0  0  0  0  0  0  0  0  0  0  0
   -4.8000   -0.0000    0.0000 Cl  0  0  0  0  0  0  0  0  0  0  0  0
   -2.4000   -1.3856    0.0000 C   0  0  0  0  0  0  0  0  0  0  0  0
   -3.2000   -2.7713    0.0000 Cl  0  0  0  0  0  0  0  0  0  0  0  0
   -0.8000   -1.3856    0.0000 C   0  0  0  0  0  0  0  0  0  0  0  0
    0.0000   -2.7713    0.0000 Cl  0  0  0  0  0  0  0  0  0  0  0  0
  1  2  2  0  0  0  0
  1  3  1  0  0  0  0
  1  4  1  0  0  0  0
  4  5  1  0  0  0  0
  5  6  1  0  0  0  0
  5  7  2  0  0  0  0
  7  8  1  0  0  0  0
  7  9  1  0  0  0  0
  9 10  1  0  0  0  0
  9 11  2  0  0  0  0
 11 12  1  0  0  0  0
 11 13  1  0  0  0  0
 13  4  2  0  0  0  0
 13 14  1  0  0  0  0
M  CHG  2   1   1   3  -1
M  END
> <ChemID>
100425

> <source_casrn>
17700-09-3

> <CAS>
17700-09-3

> <SMILES>
[O-][N+](=O)c1ccc(Cl)c(Cl)c1Cl

> <NAME>
1,2,3-Trichloro-4-nitrobenzene

> <preferred_name>
2,3,4-Trichloronitrobenzene

> <iupac>
1,2,3-trichloro-4-nitrobenzene

> <MPID>
102039

> <dsstox_substance_id>
DTXSID0026202

> <Canonical_QSARr>
[O-][N+](=O)c1ccc(Cl)c(Cl)c1Cl

> <InChI_Code_QSARr>
InChI=1S/C6H2Cl3NO2/c7-3-1-2-4(10(11)12)6(9)5(3)8/h1-2H

> <InChI Key_QSARr>
BGKIECJVXXHLDP-UHFFFAOYSA-N

> <LogKmHL>
-0.19

$$$$
100426
  -INDIGO-08031722222D

 42 41  0  0  0  0  0  0  0  0999 V2000
   -1.3855    0.8000    0.0000 C   0  0  0  0  0  0  0  0  0  0  0  0
   -0.7733    2.2782    0.0000 H   0  0  0  0  0  0  0  0  0  0  0  0
   -1.9979    2.2782    0.0000 H   0  0  0  0  0  0  0  0  0  0  0  0
    0.0001    0.0000    0.0000 C   0  0  0  0  0  0  0  0  0  0  0  0
   -0.6123   -1.4782    0.0000 H   0  0  0  0  0  0  0  0  0  0  0  0
    0.6123   -1.4782    0.0000 H   0  0  0  0  0  0  0  0  0  0  0  0
    1.3857    0.8000    0.0000 C   0  0  0  0  0  0  0  0  0  0  0  0
    1.9979    2.2782    0.0000 H   0  0  0  0  0  0  0  0  0  0  0  0
    0.7733    2.2782    0.0000 H   0  0  0  0  0  0  0  0  0  0  0  0
    2.7714   -0.0000    0.0000 C   0  0  0  0  0  0  0  0  0  0  0  0
    2.1589   -1.4782    0.0000 H   0  0  0  0  0  0  0  0  0  0  0  0
    3.3835   -1.4782    0.0000 H   0  0  0  0  0  0  0  0  0  0  0  0
    4.1570    0.8000    0.0000 C   0  0  0  0  0  0  0  0  0  0  0  0
    4.7691    2.2782    0.0000 H   0  0  0  0  0  0  0  0  0  0  0  0
    3.5445    2.2782    0.0000 H   0  0  0  0  0  0  0  0  0  0  0  0
    5.5426   -0.0000    0.0000 C   0  0  0  0  0  0  0  0  0  0  0  0
    4.9302   -1.4782    0.0000 H   0  0  0  0  0  0  0  0  0  0  0  0
    6.1548   -1.4782    0.0000 H   0  0  0  0  0  0  0  0  0  0  0  0
    6.9282    0.8000    0.0000 C   0  0  0  0  0  0  0  0  0  0  0  0
    8.3138    1.6000    0.0000 H   0  0  0  0  0  0  0  0  0  0  0  0
    8.3138   -0.0000    0.0000 H   0  0  0  0  0  0  0  0  0  0  0  0
    6.9282    2.4000    0.0000 H   0  0  0  0  0  0  0  0  0  0  0  0
   -2.7714    0.0000    0.0000 C   0  0  0  0  0  0  0  0  0  0  0  0
   -3.3836   -1.4782    0.0000 H   0  0  0  0  0  0  0  0  0  0  0  0
   -2.1590   -1.4782    0.0000 H   0  0  0  0  0  0  0  0  0  0  0  0
   -4.1570    0.8000    0.0000 C   0  0  0  0  0  0  0  0  0  0  0  0
   -3.5446    2.2782    0.0000 H   0  0  0  0  0  0  0  0  0  0  0  0
   -4.7692    2.2782    0.0000 H   0  0  0  0  0  0  0  0  0  0  0  0
   -5.5426    0.0000    0.0000 C   0  0  0  0  0  0  0  0  0  0  0  0
   -6.1548   -1.4782    0.0000 H   0  0  0  0  0  0  0  0  0  0  0  0
   -4.9302   -1.4782    0.0000 H   0  0  0  0  0  0  0  0  0  0  0  0
   -6.9283    0.8000    0.0000 C   0  0  0  0  0  0  0  0  0  0  0  0
   -6.3158    2.2782    0.0000 H   0  0  0  0  0  0  0  0  0  0  0  0
   -7.5404    2.2782    0.0000 H   0  0  0  0  0  0  0  0  0  0  0  0
   -8.3139    0.0000    0.0000 C   0  0  0  0  0  0  0  0  0  0  0  0
   -9.6995    0.8000    0.0000 C   0  0  0  0  0  0  0  0  0  0  0  0
  -11.0851    1.6000    0.0000 H   0  0  0  0  0  0  0  0  0  0  0  0
  -11.0851    0.0000    0.0000 H   0  0  0  0  0  0  0  0  0  0  0  0
   -9.6995    2.4000    0.0000 H   0  0  0  0  0  0  0  0  0  0  0  0
   -8.3139   -1.6000    0.0000 C   0  0  0  0  0  0  0  0  0  0  0  0
   -9.6995   -2.4000    0.0000 H   0  0  0  0  0  0  0  0  0  0  0  0
   -6.9283   -2.4000    0.0000 H   0  0  0  0  0  0  0  0  0  0  0  0
  1  2  1  0  0  0  0
  1  3  1  0  0  0  0
  1  4  1  0  0  0  0
  4  5  1  0  0  0  0
  4  6  1  0  0  0  0
  4  7  1  0  0  0  0
  7  8  1  0  0  0  0
  7  9  1  0  0  0  0
  7 10  1  0  0  0  0
 10 11  1  0  0  0  0
 10 12  1  0  0  0  0
 10 13  1  0  0  0  0
 13 14  1  0  0  0  0
 13 15  1  0  0  0  0
 13 16  1  0  0  0  0
 16 17  1  0  0  0  0
 16 18  1  0  0  0  0
 16 19  1  0  0  0  0
 19 20  1  0  0  0  0
 19 21  1  0  0  0  0
 19 22  1  0  0  0  0
  1 23  1  0  0  0  0
 23 24  1  0  0  0  0
 23 25  1  0  0  0  0
 23 26  1  0  0  0  0
 26 27  1  0  0  0  0
 26 28  1  0  0  0  0
 26 29  1  0  0  0  0
 29 30  1  0  0  0  0
 29 31  1  0  0  0  0
 29 32  1  0  0  0  0
 32 33  1  0  0  0  0
 32 34  1  0  0  0  0
 32 35  1  0  0  0  0
 35 36  1  0  0  0  0
 36 37  1  0  0  0  0
 36 38  1  0  0  0  0
 36 39  1  0  0  0  0
 35 40  2  0  0  0  0
 40 41  1  0  0  0  0
 40 42  1  0  0  0  0
M  END
> <ChemID>
100426

> <source_casrn>
18094-01-4

> <CAS>
18094-01-4

> <SMILES>
C=C(C)CCCCCCCCCCC

> <NAME>
2 methyl 1-tridecene

> <preferred_name>
2-Methyl-1-tridecene

> <iupac>
2-methyltridec-1-ene

> <MPID>
102040

> <dsstox_substance_id>
DTXSID80171040

> <Canonical_QSARr>
CCCCCCCCCCCC(C)=C

> <InChI_Code_QSARr>
InChI=1S/C14H28/c1-4-5-6-7-8-9-10-11-12-13-14(2)3/h2,4-13H2,1,3H3

> <InChI Key_QSARr>
VNBHQOHLCULRDN-UHFFFAOYSA-N

> <LogKmHL>
0.73

$$$$
100427
  -INDIGO-08031722222D

 24 24  0  0  0  0  0  0  0  0999 V2000
    0.0001   -0.0000    0.0000 P   0  0  0  0  0  0  0  0  0  0  0  0
    1.3857    0.8000    0.0000 O   0  0  0  0  0  0  0  0  0  0  0  0
    2.7712   -0.0000    0.0000 C   0  0  0  0  0  0  0  0  0  0  0  0
    2.7712   -1.6000    0.0000 C   0  0  0  0  0  0  0  0  0  0  0  0
    1.3856   -2.4000    0.0000 H   0  0  0  0  0  0  0  0  0  0  0  0
    4.1569   -2.4000    0.0000 C   0  0  0  0  0  0  0  0  0  0  0  0
    4.1569   -4.0000    0.0000 Cl  0  0  0  0  0  0  0  0  0  0  0  0
    5.5425   -1.6000    0.0000 C   0  0  0  0  0  0  0  0  0  0  0  0
    6.9282   -2.4000    0.0000 I   0  0  0  0  0  0  0  0  0  0  0  0
    5.5425   -0.0000    0.0000 C   0  0  0  0  0  0  0  0  0  0  0  0
    6.9282    0.8000    0.0000 H   0  0  0  0  0  0  0  0  0  0  0  0
    4.1569    0.8000    0.0000 C   0  0  0  0  0  0  0  0  0  0  0  0
    4.1569    2.4000    0.0000 Cl  0  0  0  0  0  0  0  0  0  0  0  0
    0.0001    1.6000    0.0000 S   0  0  0  0  0  0  0  0  0  0  0  0
   -1.3856    0.8000    0.0000 O   0  0  0  0  0  0  0  0  0  0  0  0
   -2.7713   -0.0000    0.0000 C   0  0  0  0  0  0  0  0  0  0  0  0
   -4.1569    0.8000    0.0000 H   0  0  0  0  0  0  0  0  0  0  0  0
   -4.1569   -0.8000    0.0000 H   0  0  0  0  0  0  0  0  0  0  0  0
   -2.7713    1.6000    0.0000 H   0  0  0  0  0  0  0  0  0  0  0  0
   -1.3856   -0.8000    0.0000 O   0  0  0  0  0  0  0  0  0  0  0  0
   -1.3856   -2.4000    0.0000 C   0  0  0  0  0  0  0  0  0  0  0  0
   -1.3856   -4.0000    0.0000 H   0  0  0  0  0  0  0  0  0  0  0  0
   -2.7713   -3.2000    0.0000 H   0  0  0  0  0  0  0  0  0  0  0  0
    0.0001   -3.2000    0.0000 H   0  0  0  0  0  0  0  0  0  0  0  0
  1  2  1  0  0  0  0
  2  3  1  0  0  0  0
  3  4  1  0  0  0  0
  4  5  1  0  0  0  0
  4  6  2  0  0  0  0
  6  7  1  0  0  0  0
  6  8  1  0  0  0  0
  8  9  1  0  0  0  0
  8 10  2  0  0  0  0
 10 11  1  0  0  0  0
 10 12  1  0  0  0  0
 12  3  2  0  0  0  0
 12 13  1  0  0  0  0
  1 14  2  0  0  0  0
  1 15  1  0  0  0  0
 15 16  1  0  0  0  0
 16 17  1  0  0  0  0
 16 18  1  0  0  0  0
 16 19  1  0  0  0  0
  1 20  1  0  0  0  0
 20 21  1  0  0  0  0
 21 22  1  0  0  0  0
 21 23  1  0  0  0  0
 21 24  1  0  0  0  0
M  END
> <ChemID>
100427

> <source_casrn>
18181-70-9

> <CAS>
18181-70-9

> <SMILES>
COP(=S)(Oc1cc(Cl)c(I)cc1Cl)OC

> <NAME>
Iodofenphos

> <preferred_name>
Iodenphos

> <iupac>
O-(2,5-dichloro-4-iodophenyl) O,O-dimethyl phosphorothioate

> <MPID>
102041

> <dsstox_substance_id>
DTXSID8040278

> <Canonical_QSARr>
COP(=S)(Oc1cc(Cl)c(I)cc1Cl)OC

> <InChI_Code_QSARr>
InChI=1S/C8H8Cl2IO3PS/c1-12-15(16,13-2)14-8-4-5(9)7(11)3-6(8)10/h3-4H,1-2H3

> <InChI Key_QSARr>
LFVLUOAHQIVABZ-UHFFFAOYSA-N

> <LogKmHL>
0.86

$$$$
100429
  -INDIGO-08031722222D

 14 14  0  0  0  0  0  0  0  0999 V2000
    2.4000   -1.3856    0.0000 O   0  0  0  0  0  0  0  0  0  0  0  0
    1.6000   -0.0000    0.0000 N   0  0  0  0  0  0  0  0  0  0  0  0
    2.4000    1.3856    0.0000 O   0  0  0  0  0  0  0  0  0  0  0  0
    0.0000   -0.0000    0.0000 C   0  0  0  0  0  0  0  0  0  0  0  0
   -0.8000    1.3856    0.0000 C   0  0  0  0  0  0  0  0  0  0  0  0
    0.0000    2.7713    0.0000 Cl  0  0  0  0  0  0  0  0  0  0  0  0
   -2.4000    1.3856    0.0000 C   0  0  0  0  0  0  0  0  0  0  0  0
   -3.2000    2.7713    0.0000 H   0  0  0  0  0  0  0  0  0  0  0  0
   -3.2000   -0.0000    0.0000 C   0  0  0  0  0  0  0  0  0  0  0  0
   -4.8000   -0.0000    0.0000 Cl  0  0  0  0  0  0  0  0  0  0  0  0
   -2.4000   -1.3856    0.0000 C   0  0  0  0  0  0  0  0  0  0  0  0
   -3.2000   -2.7713    0.0000 H   0  0  0  0  0  0  0  0  0  0  0  0
   -0.8000   -1.3856    0.0000 C   0  0  0  0  0  0  0  0  0  0  0  0
    0.0000   -2.7713    0.0000 Cl  0  0  0  0  0  0  0  0  0  0  0  0
  1  2  1  0  0  0  0
  2  3  2  0  0  0  0
  2  4  1  0  0  0  0
  4  5  1  0  0  0  0
  5  6  1  0  0  0  0
  5  7  2  0  0  0  0
  7  8  1  0  0  0  0
  7  9  1  0  0  0  0
  9 10  1  0  0  0  0
  9 11  2  0  0  0  0
 11 12  1  0  0  0  0
 11 13  1  0  0  0  0
 13  4  2  0  0  0  0
 13 14  1  0  0  0  0
M  CHG  2   1  -1   2   1
M  END
> <ChemID>
100429

> <source_casrn>
18708-70-8

> <CAS>
18708-70-8

> <SMILES>
[O-][N+](=O)c1c(Cl)cc(Cl)cc1Cl

> <NAME>
1,3,5-Trichloro-2-nitrobenzene

> <preferred_name>
2,4,6-Trichloronitrobenzene

> <iupac>
1,3,5-trichloro-2-nitrobenzene

> <MPID>
102043

> <dsstox_substance_id>
DTXSID0026204

> <Canonical_QSARr>
[O-][N+](=O)c1c(Cl)cc(Cl)cc1Cl

> <InChI_Code_QSARr>
InChI=1S/C6H2Cl3NO2/c7-3-1-4(8)6(10(11)12)5(9)2-3/h1-2H

> <InChI Key_QSARr>
AEBJDOTVYMITIA-UHFFFAOYSA-N

> <LogKmHL>
0.71

$$$$
100430
  -INDIGO-08031722222D

 36 37  0  0  0  0  0  0  0  0999 V2000
    0.0001   -0.0001    0.0000 P   0  0  0  0  0  0  0  0  0  0  0  0
    0.1672    1.5913    0.0000 S   0  0  0  0  0  0  0  0  0  0  0  0
   -1.4616   -0.6507    0.0000 O   0  0  0  0  0  0  0  0  0  0  0  0
   -2.7560    0.2897    0.0000 C   0  0  0  0  0  0  0  0  0  0  0  0
   -2.7560    1.8897    0.0000 N   0  0  0  0  0  0  0  0  0  0  0  0
   -4.2779    2.3841    0.0000 O   0  0  0  0  0  0  0  0  0  0  0  0
   -5.2184    1.0896    0.0000 C   0  0  0  0  0  0  0  0  0  0  0  0
   -6.8181    1.0896    0.0000 C   0  0  0  0  0  0  0  0  0  0  0  0
   -7.6181    2.4754    0.0000 C   0  0  0  0  0  0  0  0  0  0  0  0
   -6.8181    3.8610    0.0000 H   0  0  0  0  0  0  0  0  0  0  0  0
   -9.2182    2.4754    0.0000 C   0  0  0  0  0  0  0  0  0  0  0  0
  -10.0182    3.8610    0.0000 H   0  0  0  0  0  0  0  0  0  0  0  0
  -10.0182    1.0896    0.0000 C   0  0  0  0  0  0  0  0  0  0  0  0
  -11.6182    1.0896    0.0000 H   0  0  0  0  0  0  0  0  0  0  0  0
   -9.2182   -0.2960    0.0000 C   0  0  0  0  0  0  0  0  0  0  0  0
  -10.0182   -1.6816    0.0000 H   0  0  0  0  0  0  0  0  0  0  0  0
   -7.6181   -0.2960    0.0000 C   0  0  0  0  0  0  0  0  0  0  0  0
   -6.8181   -1.6816    0.0000 H   0  0  0  0  0  0  0  0  0  0  0  0
   -4.2779   -0.2047    0.0000 C   0  0  0  0  0  0  0  0  0  0  0  0
   -4.7723   -1.7264    0.0000 H   0  0  0  0  0  0  0  0  0  0  0  0
    1.4616    0.6507    0.0000 O   0  0  0  0  0  0  0  0  0  0  0  0
    2.7560   -0.2897    0.0000 C   0  0  0  0  0  0  0  0  0  0  0  0
    3.2105   -1.8237    0.0000 H   0  0  0  0  0  0  0  0  0  0  0  0
    1.9926   -1.6957    0.0000 H   0  0  0  0  0  0  0  0  0  0  0  0
    4.2177    0.3611    0.0000 C   0  0  0  0  0  0  0  0  0  0  0  0
    5.6794    1.0119    0.0000 H   0  0  0  0  0  0  0  0  0  0  0  0
    5.5121   -0.5794    0.0000 H   0  0  0  0  0  0  0  0  0  0  0  0
    4.3851    1.9523    0.0000 H   0  0  0  0  0  0  0  0  0  0  0  0
    1.2945   -0.9405    0.0000 O   0  0  0  0  0  0  0  0  0  0  0  0
    1.1272   -2.5317    0.0000 C   0  0  0  0  0  0  0  0  0  0  0  0
    0.0257   -3.6924    0.0000 H   0  0  0  0  0  0  0  0  0  0  0  0
   -0.4723   -2.5735    0.0000 H   0  0  0  0  0  0  0  0  0  0  0  0
    2.4216   -3.4722    0.0000 C   0  0  0  0  0  0  0  0  0  0  0  0
    3.7160   -4.4126    0.0000 H   0  0  0  0  0  0  0  0  0  0  0  0
    2.2545   -5.0634    0.0000 H   0  0  0  0  0  0  0  0  0  0  0  0
    3.8833   -2.8214    0.0000 H   0  0  0  0  0  0  0  0  0  0  0  0
  1  2  2  0  0  0  0
  1  3  1  0  0  0  0
  3  4  1  0  0  0  0
  4  5  2  0  0  0  0
  5  6  1  0  0  0  0
  6  7  1  0  0  0  0
  7  8  1  0  0  0  0
  8  9  1  0  0  0  0
  9 10  1  0  0  0  0
  9 11  2  0  0  0  0
 11 12  1  0  0  0  0
 11 13  1  0  0  0  0
 13 14  1  0  0  0  0
 13 15  2  0  0  0  0
 15 16  1  0  0  0  0
 15 17  1  0  0  0  0
 17  8  2  0  0  0  0
 17 18  1  0  0  0  0
  7 19  2  0  0  0  0
 19  4  1  0  0  0  0
 19 20  1  0  0  0  0
  1 21  1  0  0  0  0
 21 22  1  0  0  0  0
 22 23  1  0  0  0  0
 22 24  1  0  0  0  0
 22 25  1  0  0  0  0
 25 26  1  0  0  0  0
 25 27  1  0  0  0  0
 25 28  1  0  0  0  0
  1 29  1  0  0  0  0
 29 30  1  0  0  0  0
 30 31  1  0  0  0  0
 30 32  1  0  0  0  0
 30 33  1  0  0  0  0
 33 34  1  0  0  0  0
 33 35  1  0  0  0  0
 33 36  1  0  0  0  0
M  END
> <ChemID>
100430

> <source_casrn>
18854-01-8

> <CAS>
18854-01-8

> <SMILES>
S=P(OCC)(OCC)Oc2noc(c1ccccc1)c2

> <NAME>
Phosphorothioic acid, O,O-Diethyl-O-(5-phenyl-3-

> <preferred_name>
Isoxathion

> <iupac>
O,O-diethyl O-(5-phenyl-1,2-oxazol-3-yl) phosphorothioate

> <MPID>
102044

> <dsstox_substance_id>
DTXSID0042080

> <Canonical_QSARr>
CCOP(=S)(Oc1cc(o[n]1)-c1ccccc1)OCC

> <InChI_Code_QSARr>
InChI=1S/C13H16NO4PS/c1-3-15-19(20,16-4-2)18-13-10-12(17-14-13)11-8-6-5-7-9-11/h5-10H,3-4H2,1-2H3

> <InChI Key_QSARr>
SDMSCIWHRZJSRN-UHFFFAOYSA-N

> <LogKmHL>
1.05

$$$$
100431
  -INDIGO-08031722222D

 22 24  0  0  0  0  0  0  0  0999 V2000
    1.3856    0.8000    0.0000 O   0  0  0  0  0  0  0  0  0  0  0  0
    2.7712   -0.0000    0.0000 C   0  0  0  0  0  0  0  0  0  0  0  0
    2.7712   -1.6000    0.0000 C   0  0  0  0  0  0  0  0  0  0  0  0
    4.1569   -2.4000    0.0000 C   0  0  0  0  0  0  0  0  0  0  0  0
    4.1569   -4.0000    0.0000 H   0  0  0  0  0  0  0  0  0  0  0  0
    5.5425   -1.6000    0.0000 C   0  0  0  0  0  0  0  0  0  0  0  0
    5.5425   -0.0000    0.0000 C   0  0  0  0  0  0  0  0  0  0  0  0
    4.1569    0.8000    0.0000 C   0  0  0  0  0  0  0  0  0  0  0  0
    4.1569    2.4000    0.0000 Cl  0  0  0  0  0  0  0  0  0  0  0  0
    6.9282    0.8000    0.0000 Cl  0  0  0  0  0  0  0  0  0  0  0  0
    6.9282   -2.4000    0.0000 Cl  0  0  0  0  0  0  0  0  0  0  0  0
    1.3856   -2.4000    0.0000 O   0  0  0  0  0  0  0  0  0  0  0  0
    0.0001   -1.6000    0.0000 C   0  0  0  0  0  0  0  0  0  0  0  0
    0.0001   -0.0000    0.0000 C   0  0  0  0  0  0  0  0  0  0  0  0
   -1.3856    0.8000    0.0000 C   0  0  0  0  0  0  0  0  0  0  0  0
   -2.7713   -0.0000    0.0000 C   0  0  0  0  0  0  0  0  0  0  0  0
   -2.7713   -1.6000    0.0000 C   0  0  0  0  0  0  0  0  0  0  0  0
   -1.3856   -2.4000    0.0000 C   0  0  0  0  0  0  0  0  0  0  0  0
   -1.3856   -4.0000    0.0000 H   0  0  0  0  0  0  0  0  0  0  0  0
   -4.1569   -2.4000    0.0000 Cl  0  0  0  0  0  0  0  0  0  0  0  0
   -4.1569    0.8000    0.0000 Cl  0  0  0  0  0  0  0  0  0  0  0  0
   -1.3856    2.4000    0.0000 Cl  0  0  0  0  0  0  0  0  0  0  0  0
  1  2  1  0  0  0  0
  2  3  1  0  0  0  0
  3  4  2  0  0  0  0
  4  5  1  0  0  0  0
  4  6  1  0  0  0  0
  6  7  2  0  0  0  0
  7  8  1  0  0  0  0
  8  2  2  0  0  0  0
  8  9  1  0  0  0  0
  7 10  1  0  0  0  0
  6 11  1  0  0  0  0
  3 12  1  0  0  0  0
 12 13  1  0  0  0  0
 13 14  1  0  0  0  0
 14  1  1  0  0  0  0
 14 15  2  0  0  0  0
 15 16  1  0  0  0  0
 16 17  2  0  0  0  0
 17 18  1  0  0  0  0
 18 13  2  0  0  0  0
 18 19  1  0  0  0  0
 17 20  1  0  0  0  0
 16 21  1  0  0  0  0
 15 22  1  0  0  0  0
M  END
> <ChemID>
100431

> <source_casrn>
19408-74-3

> <CAS>
19408-74-3

> <SMILES>
Clc1cc2Oc3cc(Cl)c(Cl)c(Cl)c3Oc2c(Cl)c1Cl

> <NAME>
1,2,3,7,8,9-Hexachlorodibenzo-p-dioxin

> <preferred_name>
Hexachlorodibenzo-p-dioxin

> <iupac>
1,2,3,7,8,9-hexachlorooxanthrene

> <MPID>
102045

> <dsstox_substance_id>
DTXSID6023781

> <Canonical_QSARr>
Clc1cc2Oc3cc(Cl)c(Cl)c(Cl)c3Oc2c(Cl)c1Cl

> <InChI_Code_QSARr>
InChI=1S/C12H2Cl6O2/c13-3-1-5-11(9(17)7(3)15)20-12-6(19-5)2-4(14)8(16)10(12)18/h1-2H

> <InChI Key_QSARr>
LGIRBUBHIWTVCK-UHFFFAOYSA-N

> <LogKmHL>
1.3

$$$$
100433
  -INDIGO-08031722222D

 33 32  0  0  0  0  0  0  0  0999 V2000
    5.4584   -0.9624    0.0000 C   0  0  0  0  0  0  0  0  0  0  0  0
    6.9619   -0.4153    0.0000 H   0  0  0  0  0  0  0  0  0  0  0  0
    5.1805   -2.5381    0.0000 H   0  0  0  0  0  0  0  0  0  0  0  0
    4.2327    0.0659    0.0000 C   0  0  0  0  0  0  0  0  0  0  0  0
    4.5104    1.6418    0.0000 H   0  0  0  0  0  0  0  0  0  0  0  0
    2.7291   -0.4812    0.0000 C   0  0  0  0  0  0  0  0  0  0  0  0
    1.8694   -1.8306    0.0000 H   0  0  0  0  0  0  0  0  0  0  0  0
    3.0754   -2.0433    0.0000 H   0  0  0  0  0  0  0  0  0  0  0  0
    1.5036    0.5473    0.0000 C   0  0  0  0  0  0  0  0  0  0  0  0
    2.3633    1.8967    0.0000 H   0  0  0  0  0  0  0  0  0  0  0  0
    1.1573    2.1094    0.0000 H   0  0  0  0  0  0  0  0  0  0  0  0
   -0.0000    0.0000    0.0000 C   0  0  0  0  0  0  0  0  0  0  0  0
    0.8000   -1.3856    0.0000 H   0  0  0  0  0  0  0  0  0  0  0  0
   -1.2258   -1.0285    0.0000 C   0  0  0  0  0  0  0  0  0  0  0  0
    0.0437   -2.0024    0.0000 H   0  0  0  0  0  0  0  0  0  0  0  0
   -1.0168   -2.6147    0.0000 H   0  0  0  0  0  0  0  0  0  0  0  0
   -2.8013   -1.3063    0.0000 C   0  0  0  0  0  0  0  0  0  0  0  0
   -4.2205   -0.5675    0.0000 H   0  0  0  0  0  0  0  0  0  0  0  0
   -3.2826    0.2196    0.0000 H   0  0  0  0  0  0  0  0  0  0  0  0
   -3.3485   -2.8098    0.0000 C   0  0  0  0  0  0  0  0  0  0  0  0
   -1.9293   -3.5486    0.0000 H   0  0  0  0  0  0  0  0  0  0  0  0
   -2.8674   -4.3358    0.0000 H   0  0  0  0  0  0  0  0  0  0  0  0
   -4.9242   -3.0877    0.0000 C   0  0  0  0  0  0  0  0  0  0  0  0
   -6.5000   -3.3655    0.0000 H   0  0  0  0  0  0  0  0  0  0  0  0
   -5.4715   -4.5912    0.0000 H   0  0  0  0  0  0  0  0  0  0  0  0
   -5.9528   -1.8620    0.0000 H   0  0  0  0  0  0  0  0  0  0  0  0
   -0.7999    1.3856    0.0000 C   0  0  0  0  0  0  0  0  0  0  0  0
   -2.2783    1.9979    0.0000 H   0  0  0  0  0  0  0  0  0  0  0  0
   -2.2783    0.7733    0.0000 H   0  0  0  0  0  0  0  0  0  0  0  0
   -0.0000    2.7713    0.0000 C   0  0  0  0  0  0  0  0  0  0  0  0
   -0.7999    4.1569    0.0000 H   0  0  0  0  0  0  0  0  0  0  0  0
    0.8000    4.1569    0.0000 H   0  0  0  0  0  0  0  0  0  0  0  0
   -1.6000    2.7713    0.0000 H   0  0  0  0  0  0  0  0  0  0  0  0
  1  2  1  0  0  0  0
  1  3  1  0  0  0  0
  1  4  2  0  0  0  0
  4  5  1  0  0  0  0
  4  6  1  0  0  0  0
  6  7  1  0  0  0  0
  6  8  1  0  0  0  0
  6  9  1  0  0  0  0
  9 10  1  0  0  0  0
  9 11  1  0  0  0  0
  9 12  1  0  0  0  0
 12 13  1  0  0  0  0
 12 14  1  0  0  0  0
 14 15  1  0  0  0  0
 14 16  1  0  0  0  0
 14 17  1  0  0  0  0
 17 18  1  0  0  0  0
 17 19  1  0  0  0  0
 17 20  1  0  0  0  0
 20 21  1  0  0  0  0
 20 22  1  0  0  0  0
 20 23  1  0  0  0  0
 23 24  1  0  0  0  0
 23 25  1  0  0  0  0
 23 26  1  0  0  0  0
 12 27  1  0  0  0  0
 27 28  1  0  0  0  0
 27 29  1  0  0  0  0
 27 30  1  0  0  0  0
 30 31  1  0  0  0  0
 30 32  1  0  0  0  0
 30 33  1  0  0  0  0
M  END
> <ChemID>
100433

> <source_casrn>
19780-74-6

> <CAS>
19780-74-6

> <SMILES>
C=CCCC(CC)CCCC

> <NAME>
5-ethyl-1-nonene

> <preferred_name>


> <iupac>


> <MPID>
102047

> <dsstox_substance_id>
DTXSID40874267

> <Canonical_QSARr>
CCCCC(CCC=C)CC

> <InChI_Code_QSARr>
InChI=1S/C11H22/c1-4-7-9-11(6-3)10-8-5-2/h4,11H,1,5-10H2,2-3H3

> <InChI Key_QSARr>
FERQWJMFSVKKGT-UHFFFAOYSA-N

> <LogKmHL>
0.93

$$$$
100434
  -INDIGO-08031722222D

 18 19  0  0  0  0  0  0  0  0999 V2000
   -4.1569    0.8000    0.0000 Cl  0  0  0  0  0  0  0  0  0  0  0  0
   -2.7712   -0.0000    0.0000 C   0  0  0  0  0  0  0  0  0  0  0  0
   -2.7713   -1.6000    0.0000 C   0  0  0  0  0  0  0  0  0  0  0  0
   -4.1569   -2.4000    0.0000 Cl  0  0  0  0  0  0  0  0  0  0  0  0
   -1.3856   -2.4000    0.0000 C   0  0  0  0  0  0  0  0  0  0  0  0
   -1.3856   -4.0000    0.0000 Cl  0  0  0  0  0  0  0  0  0  0  0  0
    0.0001   -1.6000    0.0000 C   0  0  0  0  0  0  0  0  0  0  0  0
    0.0001   -0.0000    0.0000 C   0  0  0  0  0  0  0  0  0  0  0  0
    1.3856    0.8000    0.0000 C   0  0  0  0  0  0  0  0  0  0  0  0
    1.3856    2.4000    0.0000 H   0  0  0  0  0  0  0  0  0  0  0  0
    2.7713   -0.0000    0.0000 C   0  0  0  0  0  0  0  0  0  0  0  0
    4.1569    0.8000    0.0000 H   0  0  0  0  0  0  0  0  0  0  0  0
    2.7713   -1.6000    0.0000 C   0  0  0  0  0  0  0  0  0  0  0  0
    4.1569   -2.4000    0.0000 H   0  0  0  0  0  0  0  0  0  0  0  0
    1.3856   -2.4000    0.0000 C   0  0  0  0  0  0  0  0  0  0  0  0
    1.3856   -4.0000    0.0000 H   0  0  0  0  0  0  0  0  0  0  0  0
   -1.3856    0.8000    0.0000 C   0  0  0  0  0  0  0  0  0  0  0  0
   -1.3856    2.4000    0.0000 Cl  0  0  0  0  0  0  0  0  0  0  0  0
  1  2  1  0  0  0  0
  2  3  1  0  0  0  0
  3  4  1  0  0  0  0
  3  5  2  0  0  0  0
  5  6  1  0  0  0  0
  5  7  1  0  0  0  0
  7  8  1  0  0  0  0
  8  9  2  0  0  0  0
  9 10  1  0  0  0  0
  9 11  1  0  0  0  0
 11 12  1  0  0  0  0
 11 13  2  0  0  0  0
 13 14  1  0  0  0  0
 13 15  1  0  0  0  0
 15  7  2  0  0  0  0
 15 16  1  0  0  0  0
  8 17  1  0  0  0  0
 17  2  2  0  0  0  0
 17 18  1  0  0  0  0
M  END
> <ChemID>
100434

> <source_casrn>
20020-02-4

> <CAS>
20020-02-4

> <SMILES>
Clc1c2ccccc2c(Cl)c(Cl)c1Cl

> <NAME>
1,2,3,4-tetrachloronaphthalene

> <preferred_name>
1,2,3,4-Tetrachloronaphthalene

> <iupac>
1,2,3,4-tetrachloronaphthalene

> <MPID>
102048

> <dsstox_substance_id>
DTXSID5026095

> <Canonical_QSARr>
Clc1c2ccccc2c(Cl)c(Cl)c1Cl

> <InChI_Code_QSARr>
InChI=1S/C10H4Cl4/c11-7-5-3-1-2-4-6(5)8(12)10(14)9(7)13/h1-4H

> <InChI Key_QSARr>
NAQWICRLNQSPPW-UHFFFAOYSA-N

> <LogKmHL>
1.2

$$$$
100435
  -INDIGO-08031722222D

 20 21  0  0  0  0  0  0  0  0999 V2000
    5.8891    2.7239    0.0000 S   0  0  0  0  0  0  0  0  0  0  0  0
    7.2749    1.9238    0.0000 C   0  0  0  0  0  0  0  0  0  0  0  0
    8.6605    1.1239    0.0000 N   0  0  0  0  0  0  0  0  0  0  0  0
    4.5035    1.9238    0.0000 C   0  0  0  0  0  0  0  0  0  0  0  0
    5.1158    0.4457    0.0000 H   0  0  0  0  0  0  0  0  0  0  0  0
    3.8912    0.4457    0.0000 H   0  0  0  0  0  0  0  0  0  0  0  0
    3.1179    2.7239    0.0000 S   0  0  0  0  0  0  0  0  0  0  0  0
    1.7323    1.9238    0.0000 C   0  0  0  0  0  0  0  0  0  0  0  0
    0.2706    2.5746    0.0000 N   0  0  0  0  0  0  0  0  0  0  0  0
   -0.8000    1.3856    0.0000 C   0  0  0  0  0  0  0  0  0  0  0  0
    0.0001   -0.0000    0.0000 C   0  0  0  0  0  0  0  0  0  0  0  0
   -0.8000   -1.3856    0.0000 C   0  0  0  0  0  0  0  0  0  0  0  0
    0.0001   -2.7713    0.0000 H   0  0  0  0  0  0  0  0  0  0  0  0
   -2.4000   -1.3856    0.0000 C   0  0  0  0  0  0  0  0  0  0  0  0
   -3.2000   -2.7713    0.0000 H   0  0  0  0  0  0  0  0  0  0  0  0
   -3.2000   -0.0000    0.0000 C   0  0  0  0  0  0  0  0  0  0  0  0
   -4.8000   -0.0000    0.0000 H   0  0  0  0  0  0  0  0  0  0  0  0
   -2.4000    1.3856    0.0000 C   0  0  0  0  0  0  0  0  0  0  0  0
   -3.2000    2.7713    0.0000 H   0  0  0  0  0  0  0  0  0  0  0  0
    1.5649    0.3327    0.0000 S   0  0  0  0  0  0  0  0  0  0  0  0
  1  2  1  0  0  0  0
  2  3  3  0  0  0  0
  1  4  1  0  0  0  0
  4  5  1  0  0  0  0
  4  6  1  0  0  0  0
  4  7  1  0  0  0  0
  7  8  1  0  0  0  0
  8  9  2  0  0  0  0
  9 10  1  0  0  0  0
 10 11  1  0  0  0  0
 11 12  2  0  0  0  0
 12 13  1  0  0  0  0
 12 14  1  0  0  0  0
 14 15  1  0  0  0  0
 14 16  2  0  0  0  0
 16 17  1  0  0  0  0
 16 18  1  0  0  0  0
 18 10  2  0  0  0  0
 18 19  1  0  0  0  0
 11 20  1  0  0  0  0
 20  8  1  0  0  0  0
M  END
> <ChemID>
100435

> <source_casrn>
21564-17-0

> <CAS>
21564-17-0

> <SMILES>
c1ccc2N=C(SCSC(#N))Sc2c1

> <NAME>
Thiocyanic acid, (2-benzothiazolylthio)methyl es

> <preferred_name>
2-(Thiocyanomethylthio)benzothiazole

> <iupac>
(1,3-benzothiazol-2-ylsulfanyl)methyl thiocyanate

> <MPID>
102049

> <dsstox_substance_id>
DTXSID6032647

> <Canonical_QSARr>
N#CSCSc1[n]c2ccccc2[s]1

> <InChI_Code_QSARr>
InChI=1S/C9H6N2S3/c10-5-12-6-13-9-11-7-3-1-2-4-8(7)14-9/h1-4H,6H2

> <InChI Key_QSARr>
TUBQDCKAWGHZPF-UHFFFAOYSA-N

> <LogKmHL>
-1.01

$$$$
100437
  -INDIGO-08031722222D

 36 36  0  0  0  0  0  0  0  0999 V2000
    0.0000    0.0000    0.0000 C   0  0  0  0  0  0  0  0  0  0  0  0
    0.5473    1.5035    0.0000 H   0  0  0  0  0  0  0  0  0  0  0  0
    0.0000   -1.6000    0.0000 C   0  0  0  0  0  0  0  0  0  0  0  0
    1.0284   -1.7813    0.0000 H   0  0  0  0  0  0  0  0  0  0  0  0
    0.5473   -3.1035    0.0000 H   0  0  0  0  0  0  0  0  0  0  0  0
   -1.3856   -2.4000    0.0000 C   0  0  0  0  0  0  0  0  0  0  0  0
   -0.3572   -3.6257    0.0000 H   0  0  0  0  0  0  0  0  0  0  0  0
   -2.4141   -3.6257    0.0000 H   0  0  0  0  0  0  0  0  0  0  0  0
   -2.7713   -1.6000    0.0000 C   0  0  0  0  0  0  0  0  0  0  0  0
   -3.3186   -3.1035    0.0000 H   0  0  0  0  0  0  0  0  0  0  0  0
   -4.3469   -1.3222    0.0000 C   0  0  0  0  0  0  0  0  0  0  0  0
   -4.3469   -0.5439    0.0000 H   0  0  0  0  0  0  0  0  0  0  0  0
   -5.7327   -0.5221    0.0000 C   0  0  0  0  0  0  0  0  0  0  0  0
   -7.1183    0.2778    0.0000 H   0  0  0  0  0  0  0  0  0  0  0  0
   -7.1183   -1.3222    0.0000 H   0  0  0  0  0  0  0  0  0  0  0  0
   -5.7327    1.0779    0.0000 H   0  0  0  0  0  0  0  0  0  0  0  0
   -5.1469   -2.7078    0.0000 C   0  0  0  0  0  0  0  0  0  0  0  0
   -5.9470   -4.0934    0.0000 H   0  0  0  0  0  0  0  0  0  0  0  0
   -4.3469   -4.0934    0.0000 H   0  0  0  0  0  0  0  0  0  0  0  0
   -6.7470   -2.7078    0.0000 H   0  0  0  0  0  0  0  0  0  0  0  0
   -2.7713    0.0000    0.0000 C   0  0  0  0  0  0  0  0  0  0  0  0
   -3.5470    0.0635    0.0000 H   0  0  0  0  0  0  0  0  0  0  0  0
   -3.3186    1.5035    0.0000 H   0  0  0  0  0  0  0  0  0  0  0  0
   -1.3856    0.8000    0.0000 C   0  0  0  0  0  0  0  0  0  0  0  0
   -2.4141    2.0257    0.0000 H   0  0  0  0  0  0  0  0  0  0  0  0
   -0.3572    2.0257    0.0000 H   0  0  0  0  0  0  0  0  0  0  0  0
    1.5756   -0.2778    0.0000 C   0  0  0  0  0  0  0  0  0  0  0  0
    1.5756   -1.3222    0.0000 H   0  0  0  0  0  0  0  0  0  0  0  0
    2.9614   -1.0779    0.0000 C   0  0  0  0  0  0  0  0  0  0  0  0
    4.3470   -1.8778    0.0000 H   0  0  0  0  0  0  0  0  0  0  0  0
    4.3470   -0.2778    0.0000 H   0  0  0  0  0  0  0  0  0  0  0  0
    2.9614   -2.6779    0.0000 H   0  0  0  0  0  0  0  0  0  0  0  0
    2.3757    1.1078    0.0000 C   0  0  0  0  0  0  0  0  0  0  0  0
    3.1757    2.4934    0.0000 H   0  0  0  0  0  0  0  0  0  0  0  0
    1.5756    2.4934    0.0000 H   0  0  0  0  0  0  0  0  0  0  0  0
    3.9757    1.1078    0.0000 H   0  0  0  0  0  0  0  0  0  0  0  0
  1  2  1  0  0  0  0
  1  3  1  0  0  0  0
  3  4  1  0  0  0  0
  3  5  1  0  0  0  0
  3  6  1  0  0  0  0
  6  7  1  0  0  0  0
  6  8  1  0  0  0  0
  6  9  1  0  0  0  0
  9 10  1  0  0  0  0
  9 11  1  0  0  0  0
 11 12  1  0  0  0  0
 11 13  1  0  0  0  0
 13 14  1  0  0  0  0
 13 15  1  0  0  0  0
 13 16  1  0  0  0  0
 11 17  1  0  0  0  0
 17 18  1  0  0  0  0
 17 19  1  0  0  0  0
 17 20  1  0  0  0  0
  9 21  1  0  0  0  0
 21 22  1  0  0  0  0
 21 23  1  0  0  0  0
 21 24  1  0  0  0  0
 24  1  1  0  0  0  0
 24 25  1  0  0  0  0
 24 26  1  0  0  0  0
  1 27  1  0  0  0  0
 27 28  1  0  0  0  0
 27 29  1  0  0  0  0
 29 30  1  0  0  0  0
 29 31  1  0  0  0  0
 29 32  1  0  0  0  0
 27 33  1  0  0  0  0
 33 34  1  0  0  0  0
 33 35  1  0  0  0  0
 33 36  1  0  0  0  0
M  END
> <ChemID>
100437

> <source_casrn>
22907-72-8

> <CAS>
22907-72-8

> <SMILES>
CC(C)C1CCC(C(C)C)CC1

> <NAME>
1,4 diisopropyl cyclohexane

> <preferred_name>
1,4-Di-isopropylcyclohexane

> <iupac>
1,4-di(propan-2-yl)cyclohexane

> <MPID>
102051

> <dsstox_substance_id>
DTXSID70177450

> <Canonical_QSARr>
CC(C)C1CCC(CC1)C(C)C

> <InChI_Code_QSARr>
InChI=1S/C12H24/c1-9(2)11-5-7-12(8-6-11)10(3)4/h9-12H,5-8H2,1-4H3

> <InChI Key_QSARr>
GMUJGUXGVJZHSK-UHFFFAOYSA-N

> <LogKmHL>
0.97

$$$$
100438
  -INDIGO-08031722222D

 34 35  0  0  0  0  0  0  0  0999 V2000
   -0.0000   -0.0000    0.0000 C   0  0  0  0  0  0  0  0  0  0  0  0
   -0.0000   -1.5999    0.0000 C   0  0  0  0  0  0  0  0  0  0  0  0
   -1.5756   -1.3222    0.0000 H   0  0  0  0  0  0  0  0  0  0  0  0
   -0.5473   -3.1035    0.0000 H   0  0  0  0  0  0  0  0  0  0  0  0
    1.3857   -2.4000    0.0000 C   0  0  0  0  0  0  0  0  0  0  0  0
    0.3572   -3.6256    0.0000 H   0  0  0  0  0  0  0  0  0  0  0  0
    2.4141   -3.6256    0.0000 H   0  0  0  0  0  0  0  0  0  0  0  0
    2.7713   -1.5999    0.0000 C   0  0  0  0  0  0  0  0  0  0  0  0
    2.7713   -0.0000    0.0000 C   0  0  0  0  0  0  0  0  0  0  0  0
    4.1569    0.7999    0.0000 C   0  0  0  0  0  0  0  0  0  0  0  0
    4.1569    2.4000    0.0000 H   0  0  0  0  0  0  0  0  0  0  0  0
    5.5425   -0.0000    0.0000 C   0  0  0  0  0  0  0  0  0  0  0  0
    5.5425   -1.5999    0.0000 C   0  0  0  0  0  0  0  0  0  0  0  0
    6.9283   -2.4000    0.0000 H   0  0  0  0  0  0  0  0  0  0  0  0
    4.1569   -2.4000    0.0000 C   0  0  0  0  0  0  0  0  0  0  0  0
    4.1569   -3.9999    0.0000 C   0  0  0  0  0  0  0  0  0  0  0  0
    4.1569   -5.6000    0.0000 H   0  0  0  0  0  0  0  0  0  0  0  0
    5.5425   -4.8000    0.0000 H   0  0  0  0  0  0  0  0  0  0  0  0
    2.7713   -4.8000    0.0000 H   0  0  0  0  0  0  0  0  0  0  0  0
    6.9283    0.7999    0.0000 C   0  0  0  0  0  0  0  0  0  0  0  0
    8.3138    1.6000    0.0000 H   0  0  0  0  0  0  0  0  0  0  0  0
    8.3138   -0.0000    0.0000 H   0  0  0  0  0  0  0  0  0  0  0  0
    6.9283    2.4000    0.0000 H   0  0  0  0  0  0  0  0  0  0  0  0
    1.3857    0.7999    0.0000 C   0  0  0  0  0  0  0  0  0  0  0  0
    2.4141    2.0257    0.0000 H   0  0  0  0  0  0  0  0  0  0  0  0
    0.3572    2.0257    0.0000 H   0  0  0  0  0  0  0  0  0  0  0  0
   -0.5473    1.5035    0.0000 C   0  0  0  0  0  0  0  0  0  0  0  0
   -1.0945    3.0070    0.0000 H   0  0  0  0  0  0  0  0  0  0  0  0
   -2.1229    1.7814    0.0000 H   0  0  0  0  0  0  0  0  0  0  0  0
   -0.0000    3.0070    0.0000 H   0  0  0  0  0  0  0  0  0  0  0  0
   -1.5756   -0.2778    0.0000 C   0  0  0  0  0  0  0  0  0  0  0  0
   -3.1514   -0.5557    0.0000 H   0  0  0  0  0  0  0  0  0  0  0  0
   -2.6041    0.9478    0.0000 H   0  0  0  0  0  0  0  0  0  0  0  0
   -2.6041   -1.5035    0.0000 H   0  0  0  0  0  0  0  0  0  0  0  0
  1  2  1  0  0  0  0
  2  3  1  0  0  0  0
  2  4  1  0  0  0  0
  2  5  1  0  0  0  0
  5  6  1  0  0  0  0
  5  7  1  0  0  0  0
  5  8  1  0  0  0  0
  8  9  1  0  0  0  0
  9 10  2  0  0  0  0
 10 11  1  0  0  0  0
 10 12  1  0  0  0  0
 12 13  2  0  0  0  0
 13 14  1  0  0  0  0
 13 15  1  0  0  0  0
 15  8  2  0  0  0  0
 15 16  1  0  0  0  0
 16 17  1  0  0  0  0
 16 18  1  0  0  0  0
 16 19  1  0  0  0  0
 12 20  1  0  0  0  0
 20 21  1  0  0  0  0
 20 22  1  0  0  0  0
 20 23  1  0  0  0  0
  9 24  1  0  0  0  0
 24  1  1  0  0  0  0
 24 25  1  0  0  0  0
 24 26  1  0  0  0  0
  1 27  1  0  0  0  0
 27 28  1  0  0  0  0
 27 29  1  0  0  0  0
 27 30  1  0  0  0  0
  1 31  1  0  0  0  0
 31 32  1  0  0  0  0
 31 33  1  0  0  0  0
 31 34  1  0  0  0  0
M  END
> <ChemID>
100438

> <source_casrn>
23342-25-8

> <CAS>
23342-25-8

> <SMILES>
c(c(cc1CC2(C)C)C)c(C)c1CC2

> <NAME>
2,2,5,7-tetramethyltetraline

> <preferred_name>
2,2,5,7-Tetramethyltetralin

> <iupac>
3,3,6,8-tetramethyl-2,4-dihydro-1H-naphthalene

> <MPID>
102052

> <dsstox_substance_id>
DTXSID80177901

> <Canonical_QSARr>
Cc1cc2CC(C)(C)CCc2c(C)c1

> <InChI_Code_QSARr>
InChI=1S/C14H20/c1-10-7-11(2)13-5-6-14(3,4)9-12(13)8-10/h7-8H,5-6,9H2,1-4H3

> <InChI Key_QSARr>
LPZOMHQRIWIZSX-UHFFFAOYSA-N

> <LogKmHL>
0.32

$$$$
100440
  -INDIGO-08031722222D

 46 46  0  0  0  0  0  0  0  0999 V2000
    0.2528   -2.8891    0.0000 P   0  0  0  0  0  0  0  0  0  0  0  0
    1.8528   -2.8891    0.0000 O   0  0  0  0  0  0  0  0  0  0  0  0
    2.6528   -4.2748    0.0000 C   0  0  0  0  0  0  0  0  0  0  0  0
    4.2529   -4.2748    0.0000 C   0  0  0  0  0  0  0  0  0  0  0  0
    5.0529   -2.8891    0.0000 C   0  0  0  0  0  0  0  0  0  0  0  0
    6.6529   -2.8891    0.0000 O   0  0  0  0  0  0  0  0  0  0  0  0
    7.4527   -1.5035    0.0000 C   0  0  0  0  0  0  0  0  0  0  0  0
    6.0672   -0.7034    0.0000 H   0  0  0  0  0  0  0  0  0  0  0  0
    8.2527   -0.1178    0.0000 C   0  0  0  0  0  0  0  0  0  0  0  0
    9.0527    1.2677    0.0000 H   0  0  0  0  0  0  0  0  0  0  0  0
    9.8527   -0.1178    0.0000 H   0  0  0  0  0  0  0  0  0  0  0  0
    7.4527    1.2677    0.0000 H   0  0  0  0  0  0  0  0  0  0  0  0
    8.8384   -2.3035    0.0000 C   0  0  0  0  0  0  0  0  0  0  0  0
   10.2241   -3.1036    0.0000 H   0  0  0  0  0  0  0  0  0  0  0  0
    8.8384   -3.9035    0.0000 H   0  0  0  0  0  0  0  0  0  0  0  0
   10.2241   -1.5035    0.0000 H   0  0  0  0  0  0  0  0  0  0  0  0
    4.2529   -1.5035    0.0000 O   0  0  0  0  0  0  0  0  0  0  0  0
    5.0529   -5.6605    0.0000 C   0  0  0  0  0  0  0  0  0  0  0  0
    6.6529   -5.6605    0.0000 H   0  0  0  0  0  0  0  0  0  0  0  0
    4.2529   -7.0460    0.0000 C   0  0  0  0  0  0  0  0  0  0  0  0
    5.0529   -8.4317    0.0000 H   0  0  0  0  0  0  0  0  0  0  0  0
    2.6528   -7.0460    0.0000 C   0  0  0  0  0  0  0  0  0  0  0  0
    1.8528   -8.4317    0.0000 H   0  0  0  0  0  0  0  0  0  0  0  0
    1.8528   -5.6605    0.0000 C   0  0  0  0  0  0  0  0  0  0  0  0
    0.2528   -5.6605    0.0000 H   0  0  0  0  0  0  0  0  0  0  0  0
   -0.5472   -1.5035    0.0000 N   0  0  0  0  0  0  0  0  0  0  0  0
   -2.1230   -1.7814    0.0000 H   0  0  0  0  0  0  0  0  0  0  0  0
    0.0000   -0.0000    0.0000 C   0  0  0  0  0  0  0  0  0  0  0  0
    1.5036   -0.5472    0.0000 H   0  0  0  0  0  0  0  0  0  0  0  0
    0.5472    1.5035    0.0000 C   0  0  0  0  0  0  0  0  0  0  0  0
    1.0944    3.0070    0.0000 H   0  0  0  0  0  0  0  0  0  0  0  0
   -0.4811    2.7291    0.0000 H   0  0  0  0  0  0  0  0  0  0  0  0
    2.1230    1.7814    0.0000 H   0  0  0  0  0  0  0  0  0  0  0  0
   -1.5035    0.5472    0.0000 C   0  0  0  0  0  0  0  0  0  0  0  0
   -3.0071    1.0945    0.0000 H   0  0  0  0  0  0  0  0  0  0  0  0
   -1.7813    2.1230    0.0000 H   0  0  0  0  0  0  0  0  0  0  0  0
   -2.7291   -0.4812    0.0000 H   0  0  0  0  0  0  0  0  0  0  0  0
    1.0528   -1.5035    0.0000 S   0  0  0  0  0  0  0  0  0  0  0  0
   -1.3472   -2.8891    0.0000 O   0  0  0  0  0  0  0  0  0  0  0  0
   -2.1472   -4.2748    0.0000 C   0  0  0  0  0  0  0  0  0  0  0  0
   -1.9383   -5.8610    0.0000 H   0  0  0  0  0  0  0  0  0  0  0  0
   -0.8779   -5.2487    0.0000 H   0  0  0  0  0  0  0  0  0  0  0  0
   -3.7472   -4.2748    0.0000 C   0  0  0  0  0  0  0  0  0  0  0  0
   -4.5472   -5.6605    0.0000 H   0  0  0  0  0  0  0  0  0  0  0  0
   -5.3472   -4.2748    0.0000 H   0  0  0  0  0  0  0  0  0  0  0  0
   -2.9472   -5.6605    0.0000 H   0  0  0  0  0  0  0  0  0  0  0  0
  1  2  1  0  0  0  0
  2  3  1  0  0  0  0
  3  4  1  0  0  0  0
  4  5  1  0  0  0  0
  5  6  1  0  0  0  0
  6  7  1  0  0  0  0
  7  8  1  0  0  0  0
  7  9  1  0  0  0  0
  9 10  1  0  0  0  0
  9 11  1  0  0  0  0
  9 12  1  0  0  0  0
  7 13  1  0  0  0  0
 13 14  1  0  0  0  0
 13 15  1  0  0  0  0
 13 16  1  0  0  0  0
  5 17  2  0  0  0  0
  4 18  2  0  0  0  0
 18 19  1  0  0  0  0
 18 20  1  0  0  0  0
 20 21  1  0  0  0  0
 20 22  2  0  0  0  0
 22 23  1  0  0  0  0
 22 24  1  0  0  0  0
 24  3  2  0  0  0  0
 24 25  1  0  0  0  0
  1 26  1  0  0  0  0
 26 27  1  0  0  0  0
 26 28  1  0  0  0  0
 28 29  1  0  0  0  0
 28 30  1  0  0  0  0
 30 31  1  0  0  0  0
 30 32  1  0  0  0  0
 30 33  1  0  0  0  0
 28 34  1  0  0  0  0
 34 35  1  0  0  0  0
 34 36  1  0  0  0  0
 34 37  1  0  0  0  0
  1 38  2  0  0  0  0
  1 39  1  0  0  0  0
 39 40  1  0  0  0  0
 40 41  1  0  0  0  0
 40 42  1  0  0  0  0
 40 43  1  0  0  0  0
 43 44  1  0  0  0  0
 43 45  1  0  0  0  0
 43 46  1  0  0  0  0
M  END
> <ChemID>
100440

> <source_casrn>
25311-71-1

> <CAS>
25311-71-1

> <SMILES>
CCOP(=S)(NC(C)C)Oc1ccccc1C(=O)OC(C)C

> <NAME>
Isofenphos

> <preferred_name>
Isofenphos

> <iupac>
propan-2-yl 2-{[ethoxy(propan-2-ylamino)phosphorothioyl]oxy}benzoate

> <MPID>
102053

> <dsstox_substance_id>
DTXSID8032417

> <Canonical_QSARr>
CCOP(=S)(NC(C)C)Oc1ccccc1C(=O)OC(C)C

> <InChI_Code_QSARr>
InChI=1S/C15H24NO4PS/c1-6-18-21(22,16-11(2)3)20-14-10-8-7-9-13(14)15(17)19-12(4)5/h7-12H,6H2,1-5H3,(H,16,22)

> <InChI Key_QSARr>
HOQADATXFBOEGG-UHFFFAOYSA-N

> <LogKmHL>
-0.51

$$$$
100445
  -INDIGO-08031722222D

 40 40  0  0  0  0  0  0  0  0999 V2000
    8.3139    1.6001    0.0000 C   0  0  0  0  0  0  0  0  0  0  0  0
    8.3139   -0.0001    0.0000 C   0  0  0  0  0  0  0  0  0  0  0  0
    9.6994   -0.8000    0.0000 N   0  0  0  0  0  0  0  0  0  0  0  0
   11.0851   -0.0001    0.0000 H   0  0  0  0  0  0  0  0  0  0  0  0
    9.6994   -2.3999    0.0000 H   0  0  0  0  0  0  0  0  0  0  0  0
    6.9282   -0.8000    0.0000 C   0  0  0  0  0  0  0  0  0  0  0  0
    6.9282   -2.3999    0.0000 Cl  0  0  0  0  0  0  0  0  0  0  0  0
    5.5424   -0.0001    0.0000 C   0  0  0  0  0  0  0  0  0  0  0  0
    4.1570   -0.8000    0.0000 C   0  0  0  0  0  0  0  0  0  0  0  0
    2.7712   -0.0001    0.0000 O   0  0  0  0  0  0  0  0  0  0  0  0
    1.3858   -0.8000    0.0000 C   0  0  0  0  0  0  0  0  0  0  0  0
    0.7732   -2.2782    0.0000 H   0  0  0  0  0  0  0  0  0  0  0  0
    1.9980   -2.2782    0.0000 H   0  0  0  0  0  0  0  0  0  0  0  0
    0.0000   -0.0001    0.0000 C   0  0  0  0  0  0  0  0  0  0  0  0
    1.0286    1.2257    0.0000 H   0  0  0  0  0  0  0  0  0  0  0  0
   -1.0285    1.2257    0.0000 C   0  0  0  0  0  0  0  0  0  0  0  0
    0.3907    1.9645    0.0000 H   0  0  0  0  0  0  0  0  0  0  0  0
   -0.5473    2.7516    0.0000 H   0  0  0  0  0  0  0  0  0  0  0  0
   -2.5319    1.7729    0.0000 C   0  0  0  0  0  0  0  0  0  0  0  0
   -4.0579    1.2918    0.0000 H   0  0  0  0  0  0  0  0  0  0  0  0
   -3.2708    0.3537    0.0000 H   0  0  0  0  0  0  0  0  0  0  0  0
   -2.8099    3.3485    0.0000 C   0  0  0  0  0  0  0  0  0  0  0  0
   -1.2838    3.8298    0.0000 H   0  0  0  0  0  0  0  0  0  0  0  0
   -2.0710    4.7679    0.0000 H   0  0  0  0  0  0  0  0  0  0  0  0
   -4.3132    3.8958    0.0000 C   0  0  0  0  0  0  0  0  0  0  0  0
   -5.8168    4.4431    0.0000 H   0  0  0  0  0  0  0  0  0  0  0  0
   -4.5912    5.4715    0.0000 H   0  0  0  0  0  0  0  0  0  0  0  0
   -5.5391    2.8673    0.0000 H   0  0  0  0  0  0  0  0  0  0  0  0
   -1.0285   -1.2257    0.0000 C   0  0  0  0  0  0  0  0  0  0  0  0
   -2.3779   -0.3660    0.0000 H   0  0  0  0  0  0  0  0  0  0  0  0
   -2.5907   -1.5720    0.0000 H   0  0  0  0  0  0  0  0  0  0  0  0
   -0.4812   -2.7291    0.0000 C   0  0  0  0  0  0  0  0  0  0  0  0
   -1.5098   -3.9549    0.0000 H   0  0  0  0  0  0  0  0  0  0  0  0
    0.0660   -4.2327    0.0000 H   0  0  0  0  0  0  0  0  0  0  0  0
   -2.0568   -2.4513    0.0000 H   0  0  0  0  0  0  0  0  0  0  0  0
    4.1570   -2.3999    0.0000 O   0  0  0  0  0  0  0  0  0  0  0  0
    5.5424    1.6001    0.0000 N   0  0  0  0  0  0  0  0  0  0  0  0
    6.9282    2.4000    0.0000 C   0  0  0  0  0  0  0  0  0  0  0  0
    6.9282    3.9999    0.0000 Cl  0  0  0  0  0  0  0  0  0  0  0  0
    9.6994    2.4000    0.0000 Cl  0  0  0  0  0  0  0  0  0  0  0  0
  1  2  1  0  0  0  0
  2  3  1  0  0  0  0
  3  4  1  0  0  0  0
  3  5  1  0  0  0  0
  2  6  2  0  0  0  0
  6  7  1  0  0  0  0
  6  8  1  0  0  0  0
  8  9  1  0  0  0  0
  9 10  1  0  0  0  0
 10 11  1  0  0  0  0
 11 12  1  0  0  0  0
 11 13  1  0  0  0  0
 11 14  1  0  0  0  0
 14 15  1  0  0  0  0
 14 16  1  0  0  0  0
 16 17  1  0  0  0  0
 16 18  1  0  0  0  0
 16 19  1  0  0  0  0
 19 20  1  0  0  0  0
 19 21  1  0  0  0  0
 19 22  1  0  0  0  0
 22 23  1  0  0  0  0
 22 24  1  0  0  0  0
 22 25  1  0  0  0  0
 25 26  1  0  0  0  0
 25 27  1  0  0  0  0
 25 28  1  0  0  0  0
 14 29  1  0  0  0  0
 29 30  1  0  0  0  0
 29 31  1  0  0  0  0
 29 32  1  0  0  0  0
 32 33  1  0  0  0  0
 32 34  1  0  0  0  0
 32 35  1  0  0  0  0
  9 36  2  0  0  0  0
  8 37  2  0  0  0  0
 37 38  1  0  0  0  0
 38  1  2  0  0  0  0
 38 39  1  0  0  0  0
  1 40  1  0  0  0  0
M  END
> <ChemID>
100445

> <source_casrn>
26952-20-5

> <CAS>
26952-20-5

> <SMILES>
NC1C(Cl)=C(C(=O)OCC(CCCC)CC)N=C(Cl)C=1Cl

> <NAME>
Picloram ethylhexyl ester

> <preferred_name>
Picloram-isoctyl

> <iupac>
2-ethylhexyl 4-amino-3,5,6-trichloropyridine-2-carboxylate

> <MPID>
102055

> <dsstox_substance_id>
DTXSID3039406

> <Canonical_QSARr>
CCCCC(COC(=O)c1[n]c(Cl)c(Cl)c(N)c1Cl)CC

> <InChI_Code_QSARr>
InChI=1S/C14H19Cl3N2O2/c1-3-5-6-8(4-2)7-21-14(20)12-9(15)11(18)10(16)13(17)19-12/h8H,3-7H2,1-2H3,(H2,18,19)

> <InChI Key_QSARr>
RPDJBUSVCYFTRU-UHFFFAOYSA-N

> <LogKmHL>
0.45

$$$$
100446
  -INDIGO-08031722222D

 23 24  0  0  0  0  0  0  0  0999 V2000
   -0.4813    2.7292    0.0000 Cl  0  0  0  0  0  0  0  0  0  0  0  0
   -1.0284    1.2257    0.0000 C   0  0  0  0  0  0  0  0  0  0  0  0
    0.0000    0.0000    0.0000 C   0  0  0  0  0  0  0  0  0  0  0  0
    1.5756    0.2779    0.0000 O   0  0  0  0  0  0  0  0  0  0  0  0
    2.9614   -0.5221    0.0000 C   0  0  0  0  0  0  0  0  0  0  0  0
    2.9614   -2.1222    0.0000 C   0  0  0  0  0  0  0  0  0  0  0  0
    1.5756   -2.9222    0.0000 Cl  0  0  0  0  0  0  0  0  0  0  0  0
    4.3470   -2.9222    0.0000 C   0  0  0  0  0  0  0  0  0  0  0  0
    4.3470   -4.5222    0.0000 H   0  0  0  0  0  0  0  0  0  0  0  0
    5.7326   -2.1222    0.0000 C   0  0  0  0  0  0  0  0  0  0  0  0
    7.1183   -2.9222    0.0000 Cl  0  0  0  0  0  0  0  0  0  0  0  0
    5.7326   -0.5221    0.0000 C   0  0  0  0  0  0  0  0  0  0  0  0
    7.1183    0.2779    0.0000 H   0  0  0  0  0  0  0  0  0  0  0  0
    4.3470    0.2779    0.0000 C   0  0  0  0  0  0  0  0  0  0  0  0
    4.3470    1.8779    0.0000 H   0  0  0  0  0  0  0  0  0  0  0  0
   -0.5473   -1.5035    0.0000 C   0  0  0  0  0  0  0  0  0  0  0  0
    0.4812   -2.7292    0.0000 H   0  0  0  0  0  0  0  0  0  0  0  0
   -2.1229   -1.7813    0.0000 C   0  0  0  0  0  0  0  0  0  0  0  0
   -2.6702   -3.2849    0.0000 H   0  0  0  0  0  0  0  0  0  0  0  0
   -3.1513   -0.5556    0.0000 C   0  0  0  0  0  0  0  0  0  0  0  0
   -4.7271   -0.8335    0.0000 Cl  0  0  0  0  0  0  0  0  0  0  0  0
   -2.6042    0.9479    0.0000 C   0  0  0  0  0  0  0  0  0  0  0  0
   -3.6326    2.1735    0.0000 H   0  0  0  0  0  0  0  0  0  0  0  0
  1  2  1  0  0  0  0
  2  3  1  0  0  0  0
  3  4  1  0  0  0  0
  4  5  1  0  0  0  0
  5  6  1  0  0  0  0
  6  7  1  0  0  0  0
  6  8  2  0  0  0  0
  8  9  1  0  0  0  0
  8 10  1  0  0  0  0
 10 11  1  0  0  0  0
 10 12  2  0  0  0  0
 12 13  1  0  0  0  0
 12 14  1  0  0  0  0
 14  5  2  0  0  0  0
 14 15  1  0  0  0  0
  3 16  2  0  0  0  0
 16 17  1  0  0  0  0
 16 18  1  0  0  0  0
 18 19  1  0  0  0  0
 18 20  2  0  0  0  0
 20 21  1  0  0  0  0
 20 22  1  0  0  0  0
 22  2  2  0  0  0  0
 22 23  1  0  0  0  0
M  END
> <ChemID>
100446

> <source_casrn>
28076-73-5

> <CAS>
28076-73-5

> <SMILES>
Clc1c(ccc(c1)Cl)Oc2ccc(cc2Cl)Cl

> <NAME>
2,2'4,4'-Tetrachlorodiphenyl ether

> <preferred_name>
Bis(2,4-dichlorophenyl)ether

> <iupac>
2,4-dichloro-1-(2,4-dichlorophenoxy)benzene

> <MPID>
102056

> <dsstox_substance_id>
DTXSID60182351

> <Canonical_QSARr>
Clc1cc(Cl)c(cc1)Oc1ccc(Cl)cc1Cl

> <InChI_Code_QSARr>
InChI=1S/C12H6Cl4O/c13-7-1-3-11(9(15)5-7)17-12-4-2-8(14)6-10(12)16/h1-6H

> <InChI Key_QSARr>
ZRWRPGGXCSSBAO-UHFFFAOYSA-N

> <LogKmHL>
2.28

$$$$
100448
  -INDIGO-08031722222D

 32 32  0  0  0  0  0  0  0  0999 V2000
   -1.3856    0.8000    0.0000 C   0  0  0  0  0  0  0  0  0  0  0  0
   -1.3856    2.4000    0.0000 O   0  0  0  0  0  0  0  0  0  0  0  0
   -2.7712   -0.0000    0.0000 S   0  0  0  0  0  0  0  0  0  0  0  0
   -4.1569    0.8000    0.0000 C   0  0  0  0  0  0  0  0  0  0  0  0
   -4.7692    2.2782    0.0000 H   0  0  0  0  0  0  0  0  0  0  0  0
   -3.5446    2.2782    0.0000 H   0  0  0  0  0  0  0  0  0  0  0  0
   -5.5427   -0.0000    0.0000 C   0  0  0  0  0  0  0  0  0  0  0  0
   -6.9282    0.8000    0.0000 C   0  0  0  0  0  0  0  0  0  0  0  0
   -6.9282    2.4000    0.0000 H   0  0  0  0  0  0  0  0  0  0  0  0
   -8.3139   -0.0000    0.0000 C   0  0  0  0  0  0  0  0  0  0  0  0
   -9.6995    0.8000    0.0000 H   0  0  0  0  0  0  0  0  0  0  0  0
   -8.3139   -1.6000    0.0000 C   0  0  0  0  0  0  0  0  0  0  0  0
   -9.6995   -2.4000    0.0000 Cl  0  0  0  0  0  0  0  0  0  0  0  0
   -6.9282   -2.4000    0.0000 C   0  0  0  0  0  0  0  0  0  0  0  0
   -6.9282   -4.0000    0.0000 H   0  0  0  0  0  0  0  0  0  0  0  0
   -5.5427   -1.6000    0.0000 C   0  0  0  0  0  0  0  0  0  0  0  0
   -4.1569   -2.4000    0.0000 H   0  0  0  0  0  0  0  0  0  0  0  0
    0.0001   -0.0000    0.0000 N   0  0  0  0  0  0  0  0  0  0  0  0
    1.3856    0.8000    0.0000 C   0  0  0  0  0  0  0  0  0  0  0  0
    0.7733    2.2782    0.0000 H   0  0  0  0  0  0  0  0  0  0  0  0
    1.9980    2.2782    0.0000 H   0  0  0  0  0  0  0  0  0  0  0  0
    2.7714   -0.0000    0.0000 C   0  0  0  0  0  0  0  0  0  0  0  0
    4.1569    0.8000    0.0000 H   0  0  0  0  0  0  0  0  0  0  0  0
    4.1569   -0.8000    0.0000 H   0  0  0  0  0  0  0  0  0  0  0  0
    2.7714    1.6000    0.0000 H   0  0  0  0  0  0  0  0  0  0  0  0
    0.0001   -1.6000    0.0000 C   0  0  0  0  0  0  0  0  0  0  0  0
   -0.9740   -2.8693    0.0000 H   0  0  0  0  0  0  0  0  0  0  0  0
   -1.5863   -1.8089    0.0000 H   0  0  0  0  0  0  0  0  0  0  0  0
    1.3856   -2.4000    0.0000 C   0  0  0  0  0  0  0  0  0  0  0  0
    1.3856   -4.0000    0.0000 H   0  0  0  0  0  0  0  0  0  0  0  0
    2.7714   -3.2000    0.0000 H   0  0  0  0  0  0  0  0  0  0  0  0
    0.0001   -3.2000    0.0000 H   0  0  0  0  0  0  0  0  0  0  0  0
  1  2  2  0  0  0  0
  1  3  1  0  0  0  0
  3  4  1  0  0  0  0
  4  5  1  0  0  0  0
  4  6  1  0  0  0  0
  4  7  1  0  0  0  0
  7  8  1  0  0  0  0
  8  9  1  0  0  0  0
  8 10  2  0  0  0  0
 10 11  1  0  0  0  0
 10 12  1  0  0  0  0
 12 13  1  0  0  0  0
 12 14  2  0  0  0  0
 14 15  1  0  0  0  0
 14 16  1  0  0  0  0
 16  7  2  0  0  0  0
 16 17  1  0  0  0  0
  1 18  1  0  0  0  0
 18 19  1  0  0  0  0
 19 20  1  0  0  0  0
 19 21  1  0  0  0  0
 19 22  1  0  0  0  0
 22 23  1  0  0  0  0
 22 24  1  0  0  0  0
 22 25  1  0  0  0  0
 18 26  1  0  0  0  0
 26 27  1  0  0  0  0
 26 28  1  0  0  0  0
 26 29  1  0  0  0  0
 29 30  1  0  0  0  0
 29 31  1  0  0  0  0
 29 32  1  0  0  0  0
M  END
> <ChemID>
100448

> <source_casrn>
28249-77-6

> <CAS>
28249-77-6

> <SMILES>
CCN(CC)C(=O)SCc1ccc(Cl)cc1

> <NAME>
Thiobencarb

> <preferred_name>
Thiobencarb

> <iupac>
S-(4-chlorobenzyl) diethylcarbamothioate

> <MPID>
102057

> <dsstox_substance_id>
DTXSID6024337

> <Canonical_QSARr>
CCN(CC)C(=O)SCc1ccc(Cl)cc1

> <InChI_Code_QSARr>
InChI=1S/C12H16ClNOS/c1-3-14(4-2)12(15)16-9-10-5-7-11(13)8-6-10/h5-8H,3-4,9H2,1-2H3

> <InChI Key_QSARr>
QHTQREMOGMZHJV-UHFFFAOYSA-N

> <LogKmHL>
0.66

$$$$
100452
  -INDIGO-08031722222D

 22 24  0  0  0  0  0  0  0  0999 V2000
   -4.1569   -2.4000    0.0000 Cl  0  0  0  0  0  0  0  0  0  0  0  0
   -2.7713   -1.6000    0.0000 C   0  0  0  0  0  0  0  0  0  0  0  0
   -1.3856   -2.4000    0.0000 C   0  0  0  0  0  0  0  0  0  0  0  0
   -1.3856   -4.0000    0.0000 H   0  0  0  0  0  0  0  0  0  0  0  0
    0.0001   -1.6000    0.0000 C   0  0  0  0  0  0  0  0  0  0  0  0
    1.3857   -2.4000    0.0000 O   0  0  0  0  0  0  0  0  0  0  0  0
    2.7712   -1.6000    0.0000 C   0  0  0  0  0  0  0  0  0  0  0  0
    2.7712   -0.0000    0.0000 C   0  0  0  0  0  0  0  0  0  0  0  0
    1.3857    0.8000    0.0000 O   0  0  0  0  0  0  0  0  0  0  0  0
    0.0001   -0.0000    0.0000 C   0  0  0  0  0  0  0  0  0  0  0  0
   -1.3856    0.8000    0.0000 C   0  0  0  0  0  0  0  0  0  0  0  0
   -1.3856    2.4000    0.0000 H   0  0  0  0  0  0  0  0  0  0  0  0
   -2.7713   -0.0000    0.0000 C   0  0  0  0  0  0  0  0  0  0  0  0
   -4.1569    0.8000    0.0000 Cl  0  0  0  0  0  0  0  0  0  0  0  0
    4.1569    0.8000    0.0000 C   0  0  0  0  0  0  0  0  0  0  0  0
    4.1569    2.4000    0.0000 H   0  0  0  0  0  0  0  0  0  0  0  0
    5.5425   -0.0000    0.0000 C   0  0  0  0  0  0  0  0  0  0  0  0
    6.9282    0.8000    0.0000 H   0  0  0  0  0  0  0  0  0  0  0  0
    5.5425   -1.6000    0.0000 C   0  0  0  0  0  0  0  0  0  0  0  0
    6.9282   -2.4000    0.0000 H   0  0  0  0  0  0  0  0  0  0  0  0
    4.1569   -2.4000    0.0000 C   0  0  0  0  0  0  0  0  0  0  0  0
    4.1569   -4.0000    0.0000 H   0  0  0  0  0  0  0  0  0  0  0  0
  1  2  1  0  0  0  0
  2  3  1  0  0  0  0
  3  4  1  0  0  0  0
  3  5  2  0  0  0  0
  5  6  1  0  0  0  0
  6  7  1  0  0  0  0
  7  8  1  0  0  0  0
  8  9  1  0  0  0  0
  9 10  1  0  0  0  0
 10  5  1  0  0  0  0
 10 11  2  0  0  0  0
 11 12  1  0  0  0  0
 11 13  1  0  0  0  0
 13  2  2  0  0  0  0
 13 14  1  0  0  0  0
  8 15  2  0  0  0  0
 15 16  1  0  0  0  0
 15 17  1  0  0  0  0
 17 18  1  0  0  0  0
 17 19  2  0  0  0  0
 19 20  1  0  0  0  0
 19 21  1  0  0  0  0
 21  7  2  0  0  0  0
 21 22  1  0  0  0  0
M  END
> <ChemID>
100452

> <source_casrn>
29446-15-9

> <CAS>
29446-15-9

> <SMILES>
Clc1cc2Oc3ccccc3Oc2cc1Cl

> <NAME>
2,3-Dichlorodibenzo-p-dioxin

> <preferred_name>
2,3-Dichlorodibenzo-4-dioxin

> <iupac>
2,3-dichlorooxanthrene

> <MPID>
102059

> <dsstox_substance_id>
DTXSID50183650

> <Canonical_QSARr>
Clc1cc2Oc3ccccc3Oc2cc1Cl

> <InChI_Code_QSARr>
InChI=1S/C12H6Cl2O2/c13-7-5-11-12(6-8(7)14)16-10-4-2-1-3-9(10)15-11/h1-6H

> <InChI Key_QSARr>
YCIYTXRUZSDMRZ-UHFFFAOYSA-N

> <LogKmHL>
0.33

$$$$
100455
  -INDIGO-08031722222D

 22 24  0  0  0  0  0  0  0  0999 V2000
    0.0001   -0.0000    0.0000 C   0  0  0  0  0  0  0  0  0  0  0  0
    1.3857    0.8000    0.0000 O   0  0  0  0  0  0  0  0  0  0  0  0
    2.7712   -0.0000    0.0000 C   0  0  0  0  0  0  0  0  0  0  0  0
    4.1569    0.8000    0.0000 C   0  0  0  0  0  0  0  0  0  0  0  0
    4.1569    2.4000    0.0000 H   0  0  0  0  0  0  0  0  0  0  0  0
    5.5425   -0.0000    0.0000 C   0  0  0  0  0  0  0  0  0  0  0  0
    6.9282    0.8000    0.0000 H   0  0  0  0  0  0  0  0  0  0  0  0
    5.5425   -1.6000    0.0000 C   0  0  0  0  0  0  0  0  0  0  0  0
    6.9282   -2.4000    0.0000 H   0  0  0  0  0  0  0  0  0  0  0  0
    4.1569   -2.4000    0.0000 C   0  0  0  0  0  0  0  0  0  0  0  0
    4.1569   -4.0000    0.0000 H   0  0  0  0  0  0  0  0  0  0  0  0
    2.7712   -1.6000    0.0000 C   0  0  0  0  0  0  0  0  0  0  0  0
    1.3857   -2.4000    0.0000 O   0  0  0  0  0  0  0  0  0  0  0  0
    0.0001   -1.6000    0.0000 C   0  0  0  0  0  0  0  0  0  0  0  0
   -1.3856   -2.4000    0.0000 C   0  0  0  0  0  0  0  0  0  0  0  0
   -1.3856   -4.0000    0.0000 Cl  0  0  0  0  0  0  0  0  0  0  0  0
   -2.7713   -1.6000    0.0000 C   0  0  0  0  0  0  0  0  0  0  0  0
   -4.1569   -2.4000    0.0000 Cl  0  0  0  0  0  0  0  0  0  0  0  0
   -2.7713   -0.0000    0.0000 C   0  0  0  0  0  0  0  0  0  0  0  0
   -4.1569    0.8000    0.0000 Cl  0  0  0  0  0  0  0  0  0  0  0  0
   -1.3856    0.8000    0.0000 C   0  0  0  0  0  0  0  0  0  0  0  0
   -1.3856    2.4000    0.0000 Cl  0  0  0  0  0  0  0  0  0  0  0  0
  1  2  1  0  0  0  0
  2  3  1  0  0  0  0
  3  4  1  0  0  0  0
  4  5  1  0  0  0  0
  4  6  2  0  0  0  0
  6  7  1  0  0  0  0
  6  8  1  0  0  0  0
  8  9  1  0  0  0  0
  8 10  2  0  0  0  0
 10 11  1  0  0  0  0
 10 12  1  0  0  0  0
 12  3  2  0  0  0  0
 12 13  1  0  0  0  0
 13 14  1  0  0  0  0
 14  1  1  0  0  0  0
 14 15  2  0  0  0  0
 15 16  1  0  0  0  0
 15 17  1  0  0  0  0
 17 18  1  0  0  0  0
 17 19  2  0  0  0  0
 19 20  1  0  0  0  0
 19 21  1  0  0  0  0
 21  1  2  0  0  0  0
 21 22  1  0  0  0  0
M  END
> <ChemID>
100455

> <source_casrn>
30746-58-8

> <CAS>
30746-58-8

> <SMILES>
Clc1c2Oc3ccccc3Oc2c(Cl)c(Cl)c1Cl

> <NAME>
1,2,3,4-Tetrachlorodibenzo-p-dioxin

> <preferred_name>
1,2,3,4-Tetrachlorodibenzo-p-dioxin

> <iupac>
1,2,3,4-tetrachlorooxanthrene

> <MPID>
102060

> <dsstox_substance_id>
DTXSID7074030

> <Canonical_QSARr>
Clc1c2Oc3ccccc3Oc2c(Cl)c(Cl)c1Cl

> <InChI_Code_QSARr>
InChI=1S/C12H4Cl4O2/c13-7-8(14)10(16)12-11(9(7)15)17-5-3-1-2-4-6(5)18-12/h1-4H

> <InChI Key_QSARr>
DJHHDLMTUOLVHY-UHFFFAOYSA-N

> <LogKmHL>
1.02

$$$$
100456
  -INDIGO-08031722222D

 22 23  0  0  0  0  0  0  0  0999 V2000
   -0.0001    0.0000    0.0000 C   0  0  0  0  0  0  0  0  0  0  0  0
    1.6001   -0.0000    0.0000 C   0  0  0  0  0  0  0  0  0  0  0  0
    2.4001   -1.3856    0.0000 C   0  0  0  0  0  0  0  0  0  0  0  0
    1.6001   -2.7713    0.0000 H   0  0  0  0  0  0  0  0  0  0  0  0
    4.0000   -1.3856    0.0000 C   0  0  0  0  0  0  0  0  0  0  0  0
    4.8000   -2.7713    0.0000 Cl  0  0  0  0  0  0  0  0  0  0  0  0
    4.8000    0.0000    0.0000 C   0  0  0  0  0  0  0  0  0  0  0  0
    6.4000    0.0000    0.0000 Cl  0  0  0  0  0  0  0  0  0  0  0  0
    4.0000    1.3856    0.0000 C   0  0  0  0  0  0  0  0  0  0  0  0
    4.8000    2.7713    0.0000 H   0  0  0  0  0  0  0  0  0  0  0  0
    2.4001    1.3856    0.0000 C   0  0  0  0  0  0  0  0  0  0  0  0
    1.6001    2.7713    0.0000 H   0  0  0  0  0  0  0  0  0  0  0  0
   -0.8001    1.3856    0.0000 C   0  0  0  0  0  0  0  0  0  0  0  0
   -0.0001    2.7713    0.0000 Cl  0  0  0  0  0  0  0  0  0  0  0  0
   -2.4000    1.3856    0.0000 C   0  0  0  0  0  0  0  0  0  0  0  0
   -3.2000    2.7713    0.0000 H   0  0  0  0  0  0  0  0  0  0  0  0
   -3.2000    0.0000    0.0000 C   0  0  0  0  0  0  0  0  0  0  0  0
   -4.8000   -0.0000    0.0000 Cl  0  0  0  0  0  0  0  0  0  0  0  0
   -2.4000   -1.3856    0.0000 C   0  0  0  0  0  0  0  0  0  0  0  0
   -3.2000   -2.7713    0.0000 Cl  0  0  0  0  0  0  0  0  0  0  0  0
   -0.8001   -1.3856    0.0000 C   0  0  0  0  0  0  0  0  0  0  0  0
   -0.0001   -2.7713    0.0000 H   0  0  0  0  0  0  0  0  0  0  0  0
  1  2  1  0  0  0  0
  2  3  1  0  0  0  0
  3  4  1  0  0  0  0
  3  5  2  0  0  0  0
  5  6  1  0  0  0  0
  5  7  1  0  0  0  0
  7  8  1  0  0  0  0
  7  9  2  0  0  0  0
  9 10  1  0  0  0  0
  9 11  1  0  0  0  0
 11  2  2  0  0  0  0
 11 12  1  0  0  0  0
  1 13  1  0  0  0  0
 13 14  1  0  0  0  0
 13 15  2  0  0  0  0
 15 16  1  0  0  0  0
 15 17  1  0  0  0  0
 17 18  1  0  0  0  0
 17 19  2  0  0  0  0
 19 20  1  0  0  0  0
 19 21  1  0  0  0  0
 21  1  2  0  0  0  0
 21 22  1  0  0  0  0
M  END
> <ChemID>
100456

> <source_casrn>
31508-00-6

> <CAS>
31508-00-6

> <SMILES>
Clc1ccc(cc1Cl)-c1cc(Cl)c(Cl)cc1Cl

> <NAME>
2,3',4,4',5-Pentachlorobiphenyl

> <preferred_name>
2,3',4,4',5-Pentachlorobiphenyl

> <iupac>
2,3',4,4',5-pentachlorobiphenyl

> <MPID>
102061

> <dsstox_substance_id>
DTXSID4032116

> <Canonical_QSARr>
Clc1ccc(cc1Cl)-c1cc(Cl)c(Cl)cc1Cl

> <InChI_Code_QSARr>
InChI=1S/C12H5Cl5/c13-8-2-1-6(3-10(8)15)7-4-11(16)12(17)5-9(7)14/h1-5H

> <InChI Key_QSARr>
IUTPYMGCWINGEY-UHFFFAOYSA-N

> <LogKmHL>
2.19

$$$$
100458
  -INDIGO-08031722222D

 22 23  0  0  0  0  0  0  0  0999 V2000
   -0.0001    0.0000    0.0000 C   0  0  0  0  0  0  0  0  0  0  0  0
    1.6001   -0.0000    0.0000 C   0  0  0  0  0  0  0  0  0  0  0  0
    2.4001   -1.3856    0.0000 C   0  0  0  0  0  0  0  0  0  0  0  0
    1.6001   -2.7713    0.0000 Cl  0  0  0  0  0  0  0  0  0  0  0  0
    4.0000   -1.3856    0.0000 C   0  0  0  0  0  0  0  0  0  0  0  0
    4.8000   -2.7713    0.0000 H   0  0  0  0  0  0  0  0  0  0  0  0
    4.8000    0.0000    0.0000 C   0  0  0  0  0  0  0  0  0  0  0  0
    6.4000    0.0000    0.0000 Cl  0  0  0  0  0  0  0  0  0  0  0  0
    4.0000    1.3856    0.0000 C   0  0  0  0  0  0  0  0  0  0  0  0
    4.8000    2.7713    0.0000 H   0  0  0  0  0  0  0  0  0  0  0  0
    2.4001    1.3856    0.0000 C   0  0  0  0  0  0  0  0  0  0  0  0
    1.6001    2.7713    0.0000 H   0  0  0  0  0  0  0  0  0  0  0  0
   -0.8001    1.3856    0.0000 C   0  0  0  0  0  0  0  0  0  0  0  0
   -0.0001    2.7713    0.0000 H   0  0  0  0  0  0  0  0  0  0  0  0
   -2.4000    1.3856    0.0000 C   0  0  0  0  0  0  0  0  0  0  0  0
   -3.2000    2.7713    0.0000 Cl  0  0  0  0  0  0  0  0  0  0  0  0
   -3.2000    0.0000    0.0000 C   0  0  0  0  0  0  0  0  0  0  0  0
   -4.8000   -0.0000    0.0000 Cl  0  0  0  0  0  0  0  0  0  0  0  0
   -2.4000   -1.3856    0.0000 C   0  0  0  0  0  0  0  0  0  0  0  0
   -3.2000   -2.7713    0.0000 H   0  0  0  0  0  0  0  0  0  0  0  0
   -0.8001   -1.3856    0.0000 C   0  0  0  0  0  0  0  0  0  0  0  0
   -0.0001   -2.7713    0.0000 H   0  0  0  0  0  0  0  0  0  0  0  0
  1  2  1  0  0  0  0
  2  3  1  0  0  0  0
  3  4  1  0  0  0  0
  3  5  2  0  0  0  0
  5  6  1  0  0  0  0
  5  7  1  0  0  0  0
  7  8  1  0  0  0  0
  7  9  2  0  0  0  0
  9 10  1  0  0  0  0
  9 11  1  0  0  0  0
 11  2  2  0  0  0  0
 11 12  1  0  0  0  0
  1 13  1  0  0  0  0
 13 14  1  0  0  0  0
 13 15  2  0  0  0  0
 15 16  1  0  0  0  0
 15 17  1  0  0  0  0
 17 18  1  0  0  0  0
 17 19  2  0  0  0  0
 19 20  1  0  0  0  0
 19 21  1  0  0  0  0
 21  1  2  0  0  0  0
 21 22  1  0  0  0  0
M  END
> <ChemID>
100458

> <source_casrn>
32598-10-0

> <CAS>
32598-10-0

> <SMILES>
Clc1cc(Cl)c(cc1)-c1cc(Cl)c(Cl)cc1

> <NAME>
2,3',4,4'-Tetrachlorobiphenyl

> <preferred_name>
2,3',4,4'-Tetrachlorobiphenyl

> <iupac>
1,2-dichloro-4-(2,4-dichlorophenyl)benzene

> <MPID>
102063

> <dsstox_substance_id>
DTXSID3073472

> <Canonical_QSARr>
Clc1cc(Cl)c(cc1)-c1cc(Cl)c(Cl)cc1

> <InChI_Code_QSARr>
InChI=1S/C12H6Cl4/c13-8-2-3-9(11(15)6-8)7-1-4-10(14)12(16)5-7/h1-6H

> <InChI Key_QSARr>
RKLLTEAEZIJBAU-UHFFFAOYSA-N

> <LogKmHL>
2.07

$$$$
100459
  -INDIGO-08031722222D

 22 23  0  0  0  0  0  0  0  0999 V2000
   -0.0001    0.0000    0.0000 C   0  0  0  0  0  0  0  0  0  0  0  0
    1.6001   -0.0000    0.0000 C   0  0  0  0  0  0  0  0  0  0  0  0
    2.4001   -1.3856    0.0000 C   0  0  0  0  0  0  0  0  0  0  0  0
    1.6001   -2.7713    0.0000 H   0  0  0  0  0  0  0  0  0  0  0  0
    4.0000   -1.3856    0.0000 C   0  0  0  0  0  0  0  0  0  0  0  0
    4.8000   -2.7713    0.0000 Cl  0  0  0  0  0  0  0  0  0  0  0  0
    4.8000    0.0000    0.0000 C   0  0  0  0  0  0  0  0  0  0  0  0
    6.4000    0.0000    0.0000 Cl  0  0  0  0  0  0  0  0  0  0  0  0
    4.0000    1.3856    0.0000 C   0  0  0  0  0  0  0  0  0  0  0  0
    4.8000    2.7713    0.0000 H   0  0  0  0  0  0  0  0  0  0  0  0
    2.4001    1.3856    0.0000 C   0  0  0  0  0  0  0  0  0  0  0  0
    1.6001    2.7713    0.0000 H   0  0  0  0  0  0  0  0  0  0  0  0
   -0.8001    1.3856    0.0000 C   0  0  0  0  0  0  0  0  0  0  0  0
   -0.0001    2.7713    0.0000 Cl  0  0  0  0  0  0  0  0  0  0  0  0
   -2.4000    1.3856    0.0000 C   0  0  0  0  0  0  0  0  0  0  0  0
   -3.2000    2.7713    0.0000 H   0  0  0  0  0  0  0  0  0  0  0  0
   -3.2000    0.0000    0.0000 C   0  0  0  0  0  0  0  0  0  0  0  0
   -4.8000   -0.0000    0.0000 H   0  0  0  0  0  0  0  0  0  0  0  0
   -2.4000   -1.3856    0.0000 C   0  0  0  0  0  0  0  0  0  0  0  0
   -3.2000   -2.7713    0.0000 Cl  0  0  0  0  0  0  0  0  0  0  0  0
   -0.8001   -1.3856    0.0000 C   0  0  0  0  0  0  0  0  0  0  0  0
   -0.0001   -2.7713    0.0000 H   0  0  0  0  0  0  0  0  0  0  0  0
  1  2  1  0  0  0  0
  2  3  1  0  0  0  0
  3  4  1  0  0  0  0
  3  5  2  0  0  0  0
  5  6  1  0  0  0  0
  5  7  1  0  0  0  0
  7  8  1  0  0  0  0
  7  9  2  0  0  0  0
  9 10  1  0  0  0  0
  9 11  1  0  0  0  0
 11  2  2  0  0  0  0
 11 12  1  0  0  0  0
  1 13  1  0  0  0  0
 13 14  1  0  0  0  0
 13 15  2  0  0  0  0
 15 16  1  0  0  0  0
 15 17  1  0  0  0  0
 17 18  1  0  0  0  0
 17 19  2  0  0  0  0
 19 20  1  0  0  0  0
 19 21  1  0  0  0  0
 21  1  2  0  0  0  0
 21 22  1  0  0  0  0
M  END
> <ChemID>
100459

> <source_casrn>
32598-11-1

> <CAS>
32598-11-1

> <SMILES>
Clc1cc(-c2cc(Cl)c(Cl)cc2)c(Cl)cc1

> <NAME>
2,3',4',5-Tetrachloro-1,1'-biphenyl

> <preferred_name>
2,3',4',5-Tetrachlorobiphenyl

> <iupac>
2,3',4',5-tetrachlorobiphenyl

> <MPID>
102064

> <dsstox_substance_id>
DTXSID3038309

> <Canonical_QSARr>
Clc1cc(-c2cc(Cl)c(Cl)cc2)c(Cl)cc1

> <InChI_Code_QSARr>
InChI=1S/C12H6Cl4/c13-8-2-4-10(14)9(6-8)7-1-3-11(15)12(16)5-7/h1-6H

> <InChI Key_QSARr>
KENZYIHFBRWMOD-UHFFFAOYSA-N

> <LogKmHL>
2.65

$$$$
100460
  -INDIGO-08031722222D

 22 23  0  0  0  0  0  0  0  0999 V2000
   -0.0001    0.0000    0.0000 C   0  0  0  0  0  0  0  0  0  0  0  0
    1.6001   -0.0000    0.0000 C   0  0  0  0  0  0  0  0  0  0  0  0
    2.4001   -1.3856    0.0000 C   0  0  0  0  0  0  0  0  0  0  0  0
    1.6001   -2.7713    0.0000 H   0  0  0  0  0  0  0  0  0  0  0  0
    4.0000   -1.3856    0.0000 C   0  0  0  0  0  0  0  0  0  0  0  0
    4.8000   -2.7713    0.0000 Cl  0  0  0  0  0  0  0  0  0  0  0  0
    4.8000    0.0000    0.0000 C   0  0  0  0  0  0  0  0  0  0  0  0
    6.4000    0.0000    0.0000 Cl  0  0  0  0  0  0  0  0  0  0  0  0
    4.0000    1.3856    0.0000 C   0  0  0  0  0  0  0  0  0  0  0  0
    4.8000    2.7713    0.0000 H   0  0  0  0  0  0  0  0  0  0  0  0
    2.4001    1.3856    0.0000 C   0  0  0  0  0  0  0  0  0  0  0  0
    1.6001    2.7713    0.0000 H   0  0  0  0  0  0  0  0  0  0  0  0
   -0.8001    1.3856    0.0000 C   0  0  0  0  0  0  0  0  0  0  0  0
   -0.0001    2.7713    0.0000 H   0  0  0  0  0  0  0  0  0  0  0  0
   -2.4000    1.3856    0.0000 C   0  0  0  0  0  0  0  0  0  0  0  0
   -3.2000    2.7713    0.0000 Cl  0  0  0  0  0  0  0  0  0  0  0  0
   -3.2000    0.0000    0.0000 C   0  0  0  0  0  0  0  0  0  0  0  0
   -4.8000   -0.0000    0.0000 Cl  0  0  0  0  0  0  0  0  0  0  0  0
   -2.4000   -1.3856    0.0000 C   0  0  0  0  0  0  0  0  0  0  0  0
   -3.2000   -2.7713    0.0000 H   0  0  0  0  0  0  0  0  0  0  0  0
   -0.8001   -1.3856    0.0000 C   0  0  0  0  0  0  0  0  0  0  0  0
   -0.0001   -2.7713    0.0000 H   0  0  0  0  0  0  0  0  0  0  0  0
  1  2  1  0  0  0  0
  2  3  1  0  0  0  0
  3  4  1  0  0  0  0
  3  5  2  0  0  0  0
  5  6  1  0  0  0  0
  5  7  1  0  0  0  0
  7  8  1  0  0  0  0
  7  9  2  0  0  0  0
  9 10  1  0  0  0  0
  9 11  1  0  0  0  0
 11  2  2  0  0  0  0
 11 12  1  0  0  0  0
  1 13  1  0  0  0  0
 13 14  1  0  0  0  0
 13 15  2  0  0  0  0
 15 16  1  0  0  0  0
 15 17  1  0  0  0  0
 17 18  1  0  0  0  0
 17 19  2  0  0  0  0
 19 20  1  0  0  0  0
 19 21  1  0  0  0  0
 21  1  2  0  0  0  0
 21 22  1  0  0  0  0
M  END
> <ChemID>
100460

> <source_casrn>
32598-13-3

> <CAS>
32598-13-3

> <SMILES>
Clc1ccc(cc1Cl)-c1cc(Cl)c(Cl)cc1

> <NAME>
3,3',4,4'-Tetrachloro-1,1'-biphenyl

> <preferred_name>
3,3',4,4'-Tetrachlorobinphenyl

> <iupac>
3,3',4,4'-tetrachlorobiphenyl

> <MPID>
102065

> <dsstox_substance_id>
DTXSID5022514

> <Canonical_QSARr>
Clc1ccc(cc1Cl)-c1cc(Cl)c(Cl)cc1

> <InChI_Code_QSARr>
InChI=1S/C12H6Cl4/c13-9-3-1-7(5-11(9)15)8-2-4-10(14)12(16)6-8/h1-6H

> <InChI Key_QSARr>
UQMGJOKDKOLIDP-UHFFFAOYSA-N

> <LogKmHL>
1.35

$$$$
100462
  -INDIGO-08031722222D

 32 33  0  0  0  0  0  0  0  0999 V2000
   -3.0853    3.6770    0.0000 Cl  0  0  0  0  0  0  0  0  0  0  0  0
   -1.5098    3.9549    0.0000 C   0  0  0  0  0  0  0  0  0  0  0  0
   -2.5381    5.1805    0.0000 H   0  0  0  0  0  0  0  0  0  0  0  0
   -0.9625    5.4584    0.0000 H   0  0  0  0  0  0  0  0  0  0  0  0
   -0.4813    2.7292    0.0000 C   0  0  0  0  0  0  0  0  0  0  0  0
    0.8682    3.5889    0.0000 H   0  0  0  0  0  0  0  0  0  0  0  0
    0.9970    2.1169    0.0000 H   0  0  0  0  0  0  0  0  0  0  0  0
   -1.0285    1.2257    0.0000 O   0  0  0  0  0  0  0  0  0  0  0  0
    0.0000    0.0001    0.0000 C   0  0  0  0  0  0  0  0  0  0  0  0
    0.8000   -1.3857    0.0000 H   0  0  0  0  0  0  0  0  0  0  0  0
   -1.3857   -0.8000    0.0000 C   0  0  0  0  0  0  0  0  0  0  0  0
   -2.7714    0.0001    0.0000 C   0  0  0  0  0  0  0  0  0  0  0  0
   -3.0491    1.5757    0.0000 H   0  0  0  0  0  0  0  0  0  0  0  0
   -4.1569   -0.8000    0.0000 C   0  0  0  0  0  0  0  0  0  0  0  0
   -5.5426    0.0001    0.0000 H   0  0  0  0  0  0  0  0  0  0  0  0
   -4.1569   -2.4000    0.0000 C   0  0  0  0  0  0  0  0  0  0  0  0
   -5.5426   -3.2001    0.0000 H   0  0  0  0  0  0  0  0  0  0  0  0
   -2.7714   -3.1999    0.0000 C   0  0  0  0  0  0  0  0  0  0  0  0
   -2.7714   -4.8000    0.0000 H   0  0  0  0  0  0  0  0  0  0  0  0
   -1.3857   -2.4000    0.0000 C   0  0  0  0  0  0  0  0  0  0  0  0
   -0.1600   -3.4285    0.0000 H   0  0  0  0  0  0  0  0  0  0  0  0
    1.6000    0.0001    0.0000 C   0  0  0  0  0  0  0  0  0  0  0  0
    2.4000    1.3857    0.0000 C   0  0  0  0  0  0  0  0  0  0  0  0
    1.8528    2.8892    0.0000 H   0  0  0  0  0  0  0  0  0  0  0  0
    4.0000    1.3857    0.0000 C   0  0  0  0  0  0  0  0  0  0  0  0
    4.8000    2.7713    0.0000 H   0  0  0  0  0  0  0  0  0  0  0  0
    4.8000    0.0001    0.0000 C   0  0  0  0  0  0  0  0  0  0  0  0
    6.4000    0.0001    0.0000 H   0  0  0  0  0  0  0  0  0  0  0  0
    4.0000   -1.3857    0.0000 C   0  0  0  0  0  0  0  0  0  0  0  0
    4.8000   -2.7713    0.0000 H   0  0  0  0  0  0  0  0  0  0  0  0
    2.4000   -1.3857    0.0000 C   0  0  0  0  0  0  0  0  0  0  0  0
    1.6000   -2.7713    0.0000 H   0  0  0  0  0  0  0  0  0  0  0  0
  1  2  1  0  0  0  0
  2  3  1  0  0  0  0
  2  4  1  0  0  0  0
  2  5  1  0  0  0  0
  5  6  1  0  0  0  0
  5  7  1  0  0  0  0
  5  8  1  0  0  0  0
  8  9  1  0  0  0  0
  9 10  1  0  0  0  0
  9 11  1  0  0  0  0
 11 12  1  0  0  0  0
 12 13  1  0  0  0  0
 12 14  2  0  0  0  0
 14 15  1  0  0  0  0
 14 16  1  0  0  0  0
 16 17  1  0  0  0  0
 16 18  2  0  0  0  0
 18 19  1  0  0  0  0
 18 20  1  0  0  0  0
 20 11  2  0  0  0  0
 20 21  1  0  0  0  0
  9 22  1  0  0  0  0
 22 23  1  0  0  0  0
 23 24  1  0  0  0  0
 23 25  2  0  0  0  0
 25 26  1  0  0  0  0
 25 27  1  0  0  0  0
 27 28  1  0  0  0  0
 27 29  2  0  0  0  0
 29 30  1  0  0  0  0
 29 31  1  0  0  0  0
 31 22  2  0  0  0  0
 31 32  1  0  0  0  0
M  END
> <ChemID>
100462

> <source_casrn>
32669-06-0

> <CAS>
32669-06-0

> <SMILES>
c1ccccc1C(OCCCl)c2ccccc2

> <NAME>
2-chloroethylbenzhydryl ether

> <preferred_name>
Benzhydryl 2-chloroethyl ether

> <iupac>
(2-chloroethoxy-phenylmethyl)benzene

> <MPID>
102067

> <dsstox_substance_id>
DTXSID30186341

> <Canonical_QSARr>
ClCCOC(c1ccccc1)c1ccccc1

> <InChI_Code_QSARr>
InChI=1S/C15H15ClO/c16-11-12-17-15(13-7-3-1-4-8-13)14-9-5-2-6-10-14/h1-10,15H,11-12H2

> <InChI Key_QSARr>
ZNVASENTCOLNJT-UHFFFAOYSA-N

> <LogKmHL>
-0.07

$$$$
100463
  -INDIGO-08031722222D

 22 23  0  0  0  0  0  0  0  0999 V2000
   -0.0001    0.0000    0.0000 C   0  0  0  0  0  0  0  0  0  0  0  0
    1.6001   -0.0000    0.0000 C   0  0  0  0  0  0  0  0  0  0  0  0
    2.4001   -1.3856    0.0000 C   0  0  0  0  0  0  0  0  0  0  0  0
    1.6001   -2.7713    0.0000 H   0  0  0  0  0  0  0  0  0  0  0  0
    4.0000   -1.3856    0.0000 C   0  0  0  0  0  0  0  0  0  0  0  0
    4.8000   -2.7713    0.0000 H   0  0  0  0  0  0  0  0  0  0  0  0
    4.8000    0.0000    0.0000 C   0  0  0  0  0  0  0  0  0  0  0  0
    6.4000    0.0000    0.0000 Cl  0  0  0  0  0  0  0  0  0  0  0  0
    4.0000    1.3856    0.0000 C   0  0  0  0  0  0  0  0  0  0  0  0
    4.8000    2.7713    0.0000 H   0  0  0  0  0  0  0  0  0  0  0  0
    2.4001    1.3856    0.0000 C   0  0  0  0  0  0  0  0  0  0  0  0
    1.6001    2.7713    0.0000 H   0  0  0  0  0  0  0  0  0  0  0  0
   -0.8001    1.3856    0.0000 C   0  0  0  0  0  0  0  0  0  0  0  0
   -0.0001    2.7713    0.0000 Cl  0  0  0  0  0  0  0  0  0  0  0  0
   -2.4000    1.3856    0.0000 C   0  0  0  0  0  0  0  0  0  0  0  0
   -3.2000    2.7713    0.0000 H   0  0  0  0  0  0  0  0  0  0  0  0
   -3.2000    0.0000    0.0000 C   0  0  0  0  0  0  0  0  0  0  0  0
   -4.8000   -0.0000    0.0000 Cl  0  0  0  0  0  0  0  0  0  0  0  0
   -2.4000   -1.3856    0.0000 C   0  0  0  0  0  0  0  0  0  0  0  0
   -3.2000   -2.7713    0.0000 Cl  0  0  0  0  0  0  0  0  0  0  0  0
   -0.8001   -1.3856    0.0000 C   0  0  0  0  0  0  0  0  0  0  0  0
   -0.0001   -2.7713    0.0000 H   0  0  0  0  0  0  0  0  0  0  0  0
  1  2  1  0  0  0  0
  2  3  1  0  0  0  0
  3  4  1  0  0  0  0
  3  5  2  0  0  0  0
  5  6  1  0  0  0  0
  5  7  1  0  0  0  0
  7  8  1  0  0  0  0
  7  9  2  0  0  0  0
  9 10  1  0  0  0  0
  9 11  1  0  0  0  0
 11  2  2  0  0  0  0
 11 12  1  0  0  0  0
  1 13  1  0  0  0  0
 13 14  1  0  0  0  0
 13 15  2  0  0  0  0
 15 16  1  0  0  0  0
 15 17  1  0  0  0  0
 17 18  1  0  0  0  0
 17 19  2  0  0  0  0
 19 20  1  0  0  0  0
 19 21  1  0  0  0  0
 21  1  2  0  0  0  0
 21 22  1  0  0  0  0
M  END
> <ChemID>
100463

> <source_casrn>
32690-93-0

> <CAS>
32690-93-0

> <SMILES>
Clc1ccc(cc1)-c1cc(Cl)c(Cl)cc1Cl

> <NAME>
2,4,4',5-tetrachlorobiphenyl

> <preferred_name>
2,4,4',5-Tetrachlorobiphenyl

> <iupac>
1,2,4-trichloro-5-(4-chlorophenyl)benzene

> <MPID>
102068

> <dsstox_substance_id>
DTXSID8073473

> <Canonical_QSARr>
Clc1ccc(cc1)-c1cc(Cl)c(Cl)cc1Cl

> <InChI_Code_QSARr>
InChI=1S/C12H6Cl4/c13-8-3-1-7(2-4-8)9-5-11(15)12(16)6-10(9)14/h1-6H

> <InChI Key_QSARr>
TULCXSBAPHCWCF-UHFFFAOYSA-N

> <LogKmHL>
2.55

$$$$
100464
  -INDIGO-08031722222D

 44 46  0  0  0  0  0  0  0  0999 V2000
    0.0000    0.0000    0.0000 C   0  0  0  0  0  0  0  0  0  0  0  0
    0.0000    0.7783    0.0000 H   0  0  0  0  0  0  0  0  0  0  0  0
    1.5756   -0.2778    0.0000 C   0  0  0  0  0  0  0  0  0  0  0  0
    1.5756   -1.0561    0.0000 H   0  0  0  0  0  0  0  0  0  0  0  0
    2.9612   -1.0778    0.0000 C   0  0  0  0  0  0  0  0  0  0  0  0
    1.9329   -2.3035    0.0000 H   0  0  0  0  0  0  0  0  0  0  0  0
    3.9898   -2.3035    0.0000 H   0  0  0  0  0  0  0  0  0  0  0  0
    4.3471   -0.2778    0.0000 C   0  0  0  0  0  0  0  0  0  0  0  0
    4.8943   -1.7814    0.0000 H   0  0  0  0  0  0  0  0  0  0  0  0
    5.9227    0.0000    0.0000 H   0  0  0  0  0  0  0  0  0  0  0  0
    4.3471    1.3221    0.0000 C   0  0  0  0  0  0  0  0  0  0  0  0
    5.9227    1.0443    0.0000 H   0  0  0  0  0  0  0  0  0  0  0  0
    4.8943    2.8257    0.0000 H   0  0  0  0  0  0  0  0  0  0  0  0
    2.9612    2.1221    0.0000 C   0  0  0  0  0  0  0  0  0  0  0  0
    3.9898    3.3478    0.0000 H   0  0  0  0  0  0  0  0  0  0  0  0
    1.9329    3.3478    0.0000 H   0  0  0  0  0  0  0  0  0  0  0  0
    1.5756    1.3221    0.0000 C   0  0  0  0  0  0  0  0  0  0  0  0
    1.0284    2.8257    0.0000 H   0  0  0  0  0  0  0  0  0  0  0  0
    0.7999    1.3857    0.0000 H   0  0  0  0  0  0  0  0  0  0  0  0
   -1.3856    0.8000    0.0000 C   0  0  0  0  0  0  0  0  0  0  0  0
   -0.3572    2.0257    0.0000 H   0  0  0  0  0  0  0  0  0  0  0  0
   -2.4142    2.0257    0.0000 H   0  0  0  0  0  0  0  0  0  0  0  0
   -2.7712    0.0000    0.0000 C   0  0  0  0  0  0  0  0  0  0  0  0
   -3.3184    1.5036    0.0000 H   0  0  0  0  0  0  0  0  0  0  0  0
   -4.3712    0.0000    0.0000 C   0  0  0  0  0  0  0  0  0  0  0  0
   -5.1713   -1.3857    0.0000 C   0  0  0  0  0  0  0  0  0  0  0  0
   -4.3712   -2.7713    0.0000 H   0  0  0  0  0  0  0  0  0  0  0  0
   -6.7714   -1.3857    0.0000 C   0  0  0  0  0  0  0  0  0  0  0  0
   -7.5713   -2.7713    0.0000 H   0  0  0  0  0  0  0  0  0  0  0  0
   -7.5713    0.0000    0.0000 C   0  0  0  0  0  0  0  0  0  0  0  0
   -9.1713    0.0000    0.0000 H   0  0  0  0  0  0  0  0  0  0  0  0
   -6.7714    1.3857    0.0000 C   0  0  0  0  0  0  0  0  0  0  0  0
   -7.5713    2.7713    0.0000 H   0  0  0  0  0  0  0  0  0  0  0  0
   -5.1713    1.3857    0.0000 C   0  0  0  0  0  0  0  0  0  0  0  0
   -4.3712    2.7713    0.0000 H   0  0  0  0  0  0  0  0  0  0  0  0
   -2.7712   -1.6000    0.0000 C   0  0  0  0  0  0  0  0  0  0  0  0
   -4.3470   -1.3221    0.0000 H   0  0  0  0  0  0  0  0  0  0  0  0
   -3.3184   -3.1035    0.0000 H   0  0  0  0  0  0  0  0  0  0  0  0
   -1.3856   -2.3999    0.0000 C   0  0  0  0  0  0  0  0  0  0  0  0
   -2.4142   -3.6257    0.0000 H   0  0  0  0  0  0  0  0  0  0  0  0
   -0.3572   -3.6257    0.0000 H   0  0  0  0  0  0  0  0  0  0  0  0
    0.0000   -1.6000    0.0000 C   0  0  0  0  0  0  0  0  0  0  0  0
    0.5473   -3.1035    0.0000 H   0  0  0  0  0  0  0  0  0  0  0  0
    0.7757   -1.6635    0.0000 H   0  0  0  0  0  0  0  0  0  0  0  0
  1  2  1  0  0  0  0
  1  3  1  0  0  0  0
  3  4  1  0  0  0  0
  3  5  1  0  0  0  0
  5  6  1  0  0  0  0
  5  7  1  0  0  0  0
  5  8  1  0  0  0  0
  8  9  1  0  0  0  0
  8 10  1  0  0  0  0
  8 11  1  0  0  0  0
 11 12  1  0  0  0  0
 11 13  1  0  0  0  0
 11 14  1  0  0  0  0
 14 15  1  0  0  0  0
 14 16  1  0  0  0  0
 14 17  1  0  0  0  0
 17  3  1  0  0  0  0
 17 18  1  0  0  0  0
 17 19  1  0  0  0  0
  1 20  1  0  0  0  0
 20 21  1  0  0  0  0
 20 22  1  0  0  0  0
 20 23  1  0  0  0  0
 23 24  1  0  0  0  0
 23 25  1  0  0  0  0
 25 26  1  0  0  0  0
 26 27  1  0  0  0  0
 26 28  2  0  0  0  0
 28 29  1  0  0  0  0
 28 30  1  0  0  0  0
 30 31  1  0  0  0  0
 30 32  2  0  0  0  0
 32 33  1  0  0  0  0
 32 34  1  0  0  0  0
 34 25  2  0  0  0  0
 34 35  1  0  0  0  0
 23 36  1  0  0  0  0
 36 37  1  0  0  0  0
 36 38  1  0  0  0  0
 36 39  1  0  0  0  0
 39 40  1  0  0  0  0
 39 41  1  0  0  0  0
 39 42  1  0  0  0  0
 42  1  1  0  0  0  0
 42 43  1  0  0  0  0
 42 44  1  0  0  0  0
M  END
> <ChemID>
100464

> <source_casrn>
33460-02-5

> <CAS>
33460-02-5

> <SMILES>
C(C(CCCC1)C1)(CC(c3ccccc3)CC2)C2

> <NAME>
3 Phenyl bicyclohexyl

> <preferred_name>
3-Phenylbicyclohexyl

> <iupac>
C18H26

> <MPID>
102069

> <dsstox_substance_id>
DTXSID50399895

> <Canonical_QSARr>
C1C(CCCC1c1ccccc1)C1CCCCC1

> <InChI_Code_QSARr>
InChI=1S/C18H26/c1-3-8-15(9-4-1)17-12-7-13-18(14-17)16-10-5-2-6-11-16/h1,3-4,8-9,16-18H,2,5-7,10-14H2

> <InChI Key_QSARr>
ONQUBGYEUGJCEM-UHFFFAOYSA-N

> <LogKmHL>
0.45

$$$$
100467
  -INDIGO-08031722222D

 22 23  0  0  0  0  0  0  0  0999 V2000
   -0.0001    0.0000    0.0000 C   0  0  0  0  0  0  0  0  0  0  0  0
    1.6001   -0.0000    0.0000 C   0  0  0  0  0  0  0  0  0  0  0  0
    2.4001   -1.3856    0.0000 C   0  0  0  0  0  0  0  0  0  0  0  0
    1.6001   -2.7713    0.0000 H   0  0  0  0  0  0  0  0  0  0  0  0
    4.0000   -1.3856    0.0000 C   0  0  0  0  0  0  0  0  0  0  0  0
    4.8000   -2.7713    0.0000 H   0  0  0  0  0  0  0  0  0  0  0  0
    4.8000    0.0000    0.0000 C   0  0  0  0  0  0  0  0  0  0  0  0
    6.4000    0.0000    0.0000 H   0  0  0  0  0  0  0  0  0  0  0  0
    4.0000    1.3856    0.0000 C   0  0  0  0  0  0  0  0  0  0  0  0
    4.8000    2.7713    0.0000 H   0  0  0  0  0  0  0  0  0  0  0  0
    2.4001    1.3856    0.0000 C   0  0  0  0  0  0  0  0  0  0  0  0
    1.6001    2.7713    0.0000 H   0  0  0  0  0  0  0  0  0  0  0  0
   -0.8001    1.3856    0.0000 C   0  0  0  0  0  0  0  0  0  0  0  0
   -0.0001    2.7713    0.0000 Cl  0  0  0  0  0  0  0  0  0  0  0  0
   -2.4000    1.3856    0.0000 C   0  0  0  0  0  0  0  0  0  0  0  0
   -3.2000    2.7713    0.0000 H   0  0  0  0  0  0  0  0  0  0  0  0
   -3.2000    0.0000    0.0000 C   0  0  0  0  0  0  0  0  0  0  0  0
   -4.8000   -0.0000    0.0000 H   0  0  0  0  0  0  0  0  0  0  0  0
   -2.4000   -1.3856    0.0000 C   0  0  0  0  0  0  0  0  0  0  0  0
   -3.2000   -2.7713    0.0000 Cl  0  0  0  0  0  0  0  0  0  0  0  0
   -0.8001   -1.3856    0.0000 C   0  0  0  0  0  0  0  0  0  0  0  0
   -0.0001   -2.7713    0.0000 H   0  0  0  0  0  0  0  0  0  0  0  0
  1  2  1  0  0  0  0
  2  3  1  0  0  0  0
  3  4  1  0  0  0  0
  3  5  2  0  0  0  0
  5  6  1  0  0  0  0
  5  7  1  0  0  0  0
  7  8  1  0  0  0  0
  7  9  2  0  0  0  0
  9 10  1  0  0  0  0
  9 11  1  0  0  0  0
 11  2  2  0  0  0  0
 11 12  1  0  0  0  0
  1 13  1  0  0  0  0
 13 14  1  0  0  0  0
 13 15  2  0  0  0  0
 15 16  1  0  0  0  0
 15 17  1  0  0  0  0
 17 18  1  0  0  0  0
 17 19  2  0  0  0  0
 19 20  1  0  0  0  0
 19 21  1  0  0  0  0
 21  1  2  0  0  0  0
 21 22  1  0  0  0  0
M  END
> <ChemID>
100467

> <source_casrn>
34883-39-1

> <CAS>
34883-39-1

> <SMILES>
Clc1cc(-c2ccccc2)c(Cl)cc1

> <NAME>
2,5-Dichloro-1,1'-biphenyl

> <preferred_name>
2,5-Dichlorobiphenyl

> <iupac>
1,4-dichloro-2-phenylbenzene

> <MPID>
102071

> <dsstox_substance_id>
DTXSID7073480

> <Canonical_QSARr>
Clc1cc(-c2ccccc2)c(Cl)cc1

> <InChI_Code_QSARr>
InChI=1S/C12H8Cl2/c13-10-6-7-12(14)11(8-10)9-4-2-1-3-5-9/h1-8H

> <InChI Key_QSARr>
KKQWHYGECTYFIA-UHFFFAOYSA-N

> <LogKmHL>
2.38

$$$$
100468
  -INDIGO-08031722222D

 22 23  0  0  0  0  0  0  0  0999 V2000
   -0.0001    0.0000    0.0000 C   0  0  0  0  0  0  0  0  0  0  0  0
    1.6001   -0.0000    0.0000 C   0  0  0  0  0  0  0  0  0  0  0  0
    2.4001   -1.3856    0.0000 C   0  0  0  0  0  0  0  0  0  0  0  0
    1.6001   -2.7713    0.0000 H   0  0  0  0  0  0  0  0  0  0  0  0
    4.0000   -1.3856    0.0000 C   0  0  0  0  0  0  0  0  0  0  0  0
    4.8000   -2.7713    0.0000 H   0  0  0  0  0  0  0  0  0  0  0  0
    4.8000    0.0000    0.0000 C   0  0  0  0  0  0  0  0  0  0  0  0
    6.4000    0.0000    0.0000 H   0  0  0  0  0  0  0  0  0  0  0  0
    4.0000    1.3856    0.0000 C   0  0  0  0  0  0  0  0  0  0  0  0
    4.8000    2.7713    0.0000 H   0  0  0  0  0  0  0  0  0  0  0  0
    2.4001    1.3856    0.0000 C   0  0  0  0  0  0  0  0  0  0  0  0
    1.6001    2.7713    0.0000 H   0  0  0  0  0  0  0  0  0  0  0  0
   -0.8001    1.3856    0.0000 C   0  0  0  0  0  0  0  0  0  0  0  0
   -0.0001    2.7713    0.0000 H   0  0  0  0  0  0  0  0  0  0  0  0
   -2.4000    1.3856    0.0000 C   0  0  0  0  0  0  0  0  0  0  0  0
   -3.2000    2.7713    0.0000 Cl  0  0  0  0  0  0  0  0  0  0  0  0
   -3.2000    0.0000    0.0000 C   0  0  0  0  0  0  0  0  0  0  0  0
   -4.8000   -0.0000    0.0000 H   0  0  0  0  0  0  0  0  0  0  0  0
   -2.4000   -1.3856    0.0000 C   0  0  0  0  0  0  0  0  0  0  0  0
   -3.2000   -2.7713    0.0000 Cl  0  0  0  0  0  0  0  0  0  0  0  0
   -0.8001   -1.3856    0.0000 C   0  0  0  0  0  0  0  0  0  0  0  0
   -0.0001   -2.7713    0.0000 H   0  0  0  0  0  0  0  0  0  0  0  0
  1  2  1  0  0  0  0
  2  3  1  0  0  0  0
  3  4  1  0  0  0  0
  3  5  2  0  0  0  0
  5  6  1  0  0  0  0
  5  7  1  0  0  0  0
  7  8  1  0  0  0  0
  7  9  2  0  0  0  0
  9 10  1  0  0  0  0
  9 11  1  0  0  0  0
 11  2  2  0  0  0  0
 11 12  1  0  0  0  0
  1 13  1  0  0  0  0
 13 14  1  0  0  0  0
 13 15  2  0  0  0  0
 15 16  1  0  0  0  0
 15 17  1  0  0  0  0
 17 18  1  0  0  0  0
 17 19  2  0  0  0  0
 19 20  1  0  0  0  0
 19 21  1  0  0  0  0
 21  1  2  0  0  0  0
 21 22  1  0  0  0  0
M  END
> <ChemID>
100468

> <source_casrn>
34883-41-5

> <CAS>
34883-41-5

> <SMILES>
Clc1cc(cc(Cl)c1)-c1ccccc1

> <NAME>
3,5-Dichloro-1,1'-biphenyl

> <preferred_name>
3,5-Dichlorobiphenyl

> <iupac>
1,3-dichloro-5-phenylbenzene

> <MPID>
102072

> <dsstox_substance_id>
DTXSID5074137

> <Canonical_QSARr>
Clc1cc(cc(Cl)c1)-c1ccccc1

> <InChI_Code_QSARr>
InChI=1S/C12H8Cl2/c13-11-6-10(7-12(14)8-11)9-4-2-1-3-5-9/h1-8H

> <InChI Key_QSARr>
QHZSDTDMQZPUKC-UHFFFAOYSA-N

> <LogKmHL>
1.11

$$$$
100469
  -INDIGO-08031722222D

 22 23  0  0  0  0  0  0  0  0999 V2000
   -0.0001    0.0000    0.0000 C   0  0  0  0  0  0  0  0  0  0  0  0
    1.6001   -0.0000    0.0000 C   0  0  0  0  0  0  0  0  0  0  0  0
    2.4001   -1.3856    0.0000 C   0  0  0  0  0  0  0  0  0  0  0  0
    1.6001   -2.7713    0.0000 Cl  0  0  0  0  0  0  0  0  0  0  0  0
    4.0000   -1.3856    0.0000 C   0  0  0  0  0  0  0  0  0  0  0  0
    4.8000   -2.7713    0.0000 H   0  0  0  0  0  0  0  0  0  0  0  0
    4.8000    0.0000    0.0000 C   0  0  0  0  0  0  0  0  0  0  0  0
    6.4000    0.0000    0.0000 Cl  0  0  0  0  0  0  0  0  0  0  0  0
    4.0000    1.3856    0.0000 C   0  0  0  0  0  0  0  0  0  0  0  0
    4.8000    2.7713    0.0000 Cl  0  0  0  0  0  0  0  0  0  0  0  0
    2.4001    1.3856    0.0000 C   0  0  0  0  0  0  0  0  0  0  0  0
    1.6001    2.7713    0.0000 H   0  0  0  0  0  0  0  0  0  0  0  0
   -0.8001    1.3856    0.0000 C   0  0  0  0  0  0  0  0  0  0  0  0
   -0.0001    2.7713    0.0000 H   0  0  0  0  0  0  0  0  0  0  0  0
   -2.4000    1.3856    0.0000 C   0  0  0  0  0  0  0  0  0  0  0  0
   -3.2000    2.7713    0.0000 Cl  0  0  0  0  0  0  0  0  0  0  0  0
   -3.2000    0.0000    0.0000 C   0  0  0  0  0  0  0  0  0  0  0  0
   -4.8000   -0.0000    0.0000 Cl  0  0  0  0  0  0  0  0  0  0  0  0
   -2.4000   -1.3856    0.0000 C   0  0  0  0  0  0  0  0  0  0  0  0
   -3.2000   -2.7713    0.0000 H   0  0  0  0  0  0  0  0  0  0  0  0
   -0.8001   -1.3856    0.0000 C   0  0  0  0  0  0  0  0  0  0  0  0
   -0.0001   -2.7713    0.0000 Cl  0  0  0  0  0  0  0  0  0  0  0  0
  1  2  1  0  0  0  0
  2  3  1  0  0  0  0
  3  4  1  0  0  0  0
  3  5  2  0  0  0  0
  5  6  1  0  0  0  0
  5  7  1  0  0  0  0
  7  8  1  0  0  0  0
  7  9  2  0  0  0  0
  9 10  1  0  0  0  0
  9 11  1  0  0  0  0
 11  2  2  0  0  0  0
 11 12  1  0  0  0  0
  1 13  1  0  0  0  0
 13 14  1  0  0  0  0
 13 15  2  0  0  0  0
 15 16  1  0  0  0  0
 15 17  1  0  0  0  0
 17 18  1  0  0  0  0
 17 19  2  0  0  0  0
 19 20  1  0  0  0  0
 19 21  1  0  0  0  0
 21  1  2  0  0  0  0
 21 22  1  0  0  0  0
M  END
> <ChemID>
100469

> <source_casrn>
35065-27-1

> <CAS>
35065-27-1

> <SMILES>
Clc1cc(Cl)c(Cl)cc1-c1cc(Cl)c(Cl)cc1Cl

> <NAME>
2,2',4,4',5,5'-Hexachloro-1,1'-biphenyl

> <preferred_name>
2,2',4,4',5,5'-Hexachlorobiphenyl

> <iupac>
2,2',4,4',5,5'-hexachlorobiphenyl

> <MPID>
102073

> <dsstox_substance_id>
DTXSID2032180

> <Canonical_QSARr>
Clc1cc(Cl)c(Cl)cc1-c1cc(Cl)c(Cl)cc1Cl

> <InChI_Code_QSARr>
InChI=1S/C12H4Cl6/c13-7-3-11(17)9(15)1-5(7)6-2-10(16)12(18)4-8(6)14/h1-4H

> <InChI Key_QSARr>
MVWHGTYKUMDIHL-UHFFFAOYSA-N

> <LogKmHL>
2.55

$$$$
100471
  -INDIGO-08031722222D

 22 23  0  0  0  0  0  0  0  0999 V2000
   -0.0001    0.0000    0.0000 C   0  0  0  0  0  0  0  0  0  0  0  0
    1.6001   -0.0000    0.0000 C   0  0  0  0  0  0  0  0  0  0  0  0
    2.4001   -1.3856    0.0000 C   0  0  0  0  0  0  0  0  0  0  0  0
    1.6001   -2.7713    0.0000 Cl  0  0  0  0  0  0  0  0  0  0  0  0
    4.0000   -1.3856    0.0000 C   0  0  0  0  0  0  0  0  0  0  0  0
    4.8000   -2.7713    0.0000 H   0  0  0  0  0  0  0  0  0  0  0  0
    4.8000    0.0000    0.0000 C   0  0  0  0  0  0  0  0  0  0  0  0
    6.4000    0.0000    0.0000 Cl  0  0  0  0  0  0  0  0  0  0  0  0
    4.0000    1.3856    0.0000 C   0  0  0  0  0  0  0  0  0  0  0  0
    4.8000    2.7713    0.0000 H   0  0  0  0  0  0  0  0  0  0  0  0
    2.4001    1.3856    0.0000 C   0  0  0  0  0  0  0  0  0  0  0  0
    1.6001    2.7713    0.0000 H   0  0  0  0  0  0  0  0  0  0  0  0
   -0.8001    1.3856    0.0000 C   0  0  0  0  0  0  0  0  0  0  0  0
   -0.0001    2.7713    0.0000 Cl  0  0  0  0  0  0  0  0  0  0  0  0
   -2.4000    1.3856    0.0000 C   0  0  0  0  0  0  0  0  0  0  0  0
   -3.2000    2.7713    0.0000 Cl  0  0  0  0  0  0  0  0  0  0  0  0
   -3.2000    0.0000    0.0000 C   0  0  0  0  0  0  0  0  0  0  0  0
   -4.8000   -0.0000    0.0000 Cl  0  0  0  0  0  0  0  0  0  0  0  0
   -2.4000   -1.3856    0.0000 C   0  0  0  0  0  0  0  0  0  0  0  0
   -3.2000   -2.7713    0.0000 Cl  0  0  0  0  0  0  0  0  0  0  0  0
   -0.8001   -1.3856    0.0000 C   0  0  0  0  0  0  0  0  0  0  0  0
   -0.0001   -2.7713    0.0000 H   0  0  0  0  0  0  0  0  0  0  0  0
  1  2  1  0  0  0  0
  2  3  1  0  0  0  0
  3  4  1  0  0  0  0
  3  5  2  0  0  0  0
  5  6  1  0  0  0  0
  5  7  1  0  0  0  0
  7  8  1  0  0  0  0
  7  9  2  0  0  0  0
  9 10  1  0  0  0  0
  9 11  1  0  0  0  0
 11  2  2  0  0  0  0
 11 12  1  0  0  0  0
  1 13  1  0  0  0  0
 13 14  1  0  0  0  0
 13 15  2  0  0  0  0
 15 16  1  0  0  0  0
 15 17  1  0  0  0  0
 17 18  1  0  0  0  0
 17 19  2  0  0  0  0
 19 20  1  0  0  0  0
 19 21  1  0  0  0  0
 21  1  2  0  0  0  0
 21 22  1  0  0  0  0
M  END
> <ChemID>
100471

> <source_casrn>
35694-06-5

> <CAS>
35694-06-5

> <SMILES>
Clc1cc(Cl)c(cc1)-c1cc(Cl)c(Cl)c(Cl)c1Cl

> <NAME>
2,2',3,4,4',5-Hexachloro-1,1'-biphenyl

> <preferred_name>
2,2',3,4,4',5-Hexachlorobiphenyl

> <iupac>
1,2,3,4-tetrachloro-5-(2,4-dichlorophenyl)benzene

> <MPID>
102075

> <dsstox_substance_id>
DTXSID0074138

> <Canonical_QSARr>
Clc1cc(Cl)c(cc1)-c1cc(Cl)c(Cl)c(Cl)c1Cl

> <InChI_Code_QSARr>
InChI=1S/C12H4Cl6/c13-5-1-2-6(8(14)3-5)7-4-9(15)11(17)12(18)10(7)16/h1-4H

> <InChI Key_QSARr>
CKLLRBPBZLTGDJ-UHFFFAOYSA-N

> <LogKmHL>
2.34

$$$$
100472
  -INDIGO-08031722222D

 22 23  0  0  0  0  0  0  0  0999 V2000
   -0.0001    0.0000    0.0000 C   0  0  0  0  0  0  0  0  0  0  0  0
    1.6001   -0.0000    0.0000 C   0  0  0  0  0  0  0  0  0  0  0  0
    2.4001   -1.3856    0.0000 C   0  0  0  0  0  0  0  0  0  0  0  0
    1.6001   -2.7713    0.0000 Cl  0  0  0  0  0  0  0  0  0  0  0  0
    4.0000   -1.3856    0.0000 C   0  0  0  0  0  0  0  0  0  0  0  0
    4.8000   -2.7713    0.0000 Cl  0  0  0  0  0  0  0  0  0  0  0  0
    4.8000    0.0000    0.0000 C   0  0  0  0  0  0  0  0  0  0  0  0
    6.4000    0.0000    0.0000 Cl  0  0  0  0  0  0  0  0  0  0  0  0
    4.0000    1.3856    0.0000 C   0  0  0  0  0  0  0  0  0  0  0  0
    4.8000    2.7713    0.0000 Cl  0  0  0  0  0  0  0  0  0  0  0  0
    2.4001    1.3856    0.0000 C   0  0  0  0  0  0  0  0  0  0  0  0
    1.6001    2.7713    0.0000 H   0  0  0  0  0  0  0  0  0  0  0  0
   -0.8001    1.3856    0.0000 C   0  0  0  0  0  0  0  0  0  0  0  0
   -0.0001    2.7713    0.0000 Cl  0  0  0  0  0  0  0  0  0  0  0  0
   -2.4000    1.3856    0.0000 C   0  0  0  0  0  0  0  0  0  0  0  0
   -3.2000    2.7713    0.0000 Cl  0  0  0  0  0  0  0  0  0  0  0  0
   -3.2000    0.0000    0.0000 C   0  0  0  0  0  0  0  0  0  0  0  0
   -4.8000   -0.0000    0.0000 Cl  0  0  0  0  0  0  0  0  0  0  0  0
   -2.4000   -1.3856    0.0000 C   0  0  0  0  0  0  0  0  0  0  0  0
   -3.2000   -2.7713    0.0000 Cl  0  0  0  0  0  0  0  0  0  0  0  0
   -0.8001   -1.3856    0.0000 C   0  0  0  0  0  0  0  0  0  0  0  0
   -0.0001   -2.7713    0.0000 H   0  0  0  0  0  0  0  0  0  0  0  0
  1  2  1  0  0  0  0
  2  3  1  0  0  0  0
  3  4  1  0  0  0  0
  3  5  2  0  0  0  0
  5  6  1  0  0  0  0
  5  7  1  0  0  0  0
  7  8  1  0  0  0  0
  7  9  2  0  0  0  0
  9 10  1  0  0  0  0
  9 11  1  0  0  0  0
 11  2  2  0  0  0  0
 11 12  1  0  0  0  0
  1 13  1  0  0  0  0
 13 14  1  0  0  0  0
 13 15  2  0  0  0  0
 15 16  1  0  0  0  0
 15 17  1  0  0  0  0
 17 18  1  0  0  0  0
 17 19  2  0  0  0  0
 19 20  1  0  0  0  0
 19 21  1  0  0  0  0
 21  1  2  0  0  0  0
 21 22  1  0  0  0  0
M  END
> <ChemID>
100472

> <source_casrn>
35694-08-7

> <CAS>
35694-08-7

> <SMILES>
Clc1cc(-c2cc(Cl)c(Cl)c(Cl)c2Cl)c(Cl)c(Cl)c1Cl

> <NAME>
2,2',3,3',4,4',5,5'-Octachloro-1,1'-biphenyl

> <preferred_name>
2,2',3,3',4,4',5,5'-Octachlorobiphenyl

> <iupac>
1,2,3,4-tetrachloro-5-(2,3,4,5-tetrachlorophenyl)benzene

> <MPID>
102076

> <dsstox_substance_id>
DTXSID5074139

> <Canonical_QSARr>
Clc1cc(-c2cc(Cl)c(Cl)c(Cl)c2Cl)c(Cl)c(Cl)c1Cl

> <InChI_Code_QSARr>
InChI=1S/C12H2Cl8/c13-5-1-3(7(15)11(19)9(5)17)4-2-6(14)10(18)12(20)8(4)16/h1-2H

> <InChI Key_QSARr>
DTMRKGRREZAYAP-UHFFFAOYSA-N

> <LogKmHL>
3.0

$$$$
100473
  -INDIGO-08031722222D

 22 24  0  0  0  0  0  0  0  0999 V2000
    0.0001   -0.0000    0.0000 C   0  0  0  0  0  0  0  0  0  0  0  0
   -1.3856    0.8000    0.0000 C   0  0  0  0  0  0  0  0  0  0  0  0
   -1.3856    2.4000    0.0000 Cl  0  0  0  0  0  0  0  0  0  0  0  0
   -2.7713   -0.0000    0.0000 C   0  0  0  0  0  0  0  0  0  0  0  0
   -4.1569    0.8000    0.0000 Cl  0  0  0  0  0  0  0  0  0  0  0  0
   -2.7713   -1.6000    0.0000 C   0  0  0  0  0  0  0  0  0  0  0  0
   -4.1569   -2.4000    0.0000 Cl  0  0  0  0  0  0  0  0  0  0  0  0
   -1.3856   -2.4000    0.0000 C   0  0  0  0  0  0  0  0  0  0  0  0
   -1.3856   -4.0000    0.0000 H   0  0  0  0  0  0  0  0  0  0  0  0
    0.0001   -1.6000    0.0000 C   0  0  0  0  0  0  0  0  0  0  0  0
    1.3857   -2.4000    0.0000 O   0  0  0  0  0  0  0  0  0  0  0  0
    2.7712   -1.6000    0.0000 C   0  0  0  0  0  0  0  0  0  0  0  0
    2.7712   -0.0000    0.0000 C   0  0  0  0  0  0  0  0  0  0  0  0
    4.1569    0.8000    0.0000 C   0  0  0  0  0  0  0  0  0  0  0  0
    4.1569    2.4000    0.0000 Cl  0  0  0  0  0  0  0  0  0  0  0  0
    5.5425   -0.0000    0.0000 C   0  0  0  0  0  0  0  0  0  0  0  0
    6.9282    0.8000    0.0000 Cl  0  0  0  0  0  0  0  0  0  0  0  0
    5.5425   -1.6000    0.0000 C   0  0  0  0  0  0  0  0  0  0  0  0
    6.9282   -2.4000    0.0000 Cl  0  0  0  0  0  0  0  0  0  0  0  0
    4.1569   -2.4000    0.0000 C   0  0  0  0  0  0  0  0  0  0  0  0
    4.1569   -4.0000    0.0000 Cl  0  0  0  0  0  0  0  0  0  0  0  0
    1.3857    0.8000    0.0000 O   0  0  0  0  0  0  0  0  0  0  0  0
  1  2  1  0  0  0  0
  2  3  1  0  0  0  0
  2  4  2  0  0  0  0
  4  5  1  0  0  0  0
  4  6  1  0  0  0  0
  6  7  1  0  0  0  0
  6  8  2  0  0  0  0
  8  9  1  0  0  0  0
  8 10  1  0  0  0  0
 10  1  2  0  0  0  0
 10 11  1  0  0  0  0
 11 12  1  0  0  0  0
 12 13  1  0  0  0  0
 13 14  2  0  0  0  0
 14 15  1  0  0  0  0
 14 16  1  0  0  0  0
 16 17  1  0  0  0  0
 16 18  2  0  0  0  0
 18 19  1  0  0  0  0
 18 20  1  0  0  0  0
 20 12  2  0  0  0  0
 20 21  1  0  0  0  0
 13 22  1  0  0  0  0
 22  1  1  0  0  0  0
M  END
> <ChemID>
100473

> <source_casrn>
35822-46-9

> <CAS>
35822-46-9

> <SMILES>
Clc1cc2Oc3c(Oc2c(Cl)c1Cl)c(Cl)c(Cl)c(Cl)c3Cl

> <NAME>
1,2,3,4,6,7,8-Heptachlorodibenzo-p-dioxin

> <preferred_name>
1,2,3,4,6,7,8-Heptachlorodibenzodioxin

> <iupac>
1,2,3,4,6,7,8-heptachlorooxanthrene

> <MPID>
102077

> <dsstox_substance_id>
DTXSID1052034

> <Canonical_QSARr>
Clc1cc2Oc3c(Oc2c(Cl)c1Cl)c(Cl)c(Cl)c(Cl)c3Cl

> <InChI_Code_QSARr>
InChI=1S/C12HCl7O2/c13-2-1-3-10(7(17)4(2)14)21-12-9(19)6(16)5(15)8(18)11(12)20-3/h1H

> <InChI Key_QSARr>
WCLNVRQZUKYVAI-UHFFFAOYSA-N

> <LogKmHL>
1.21

$$$$
100477
  -INDIGO-08031722222D

 22 23  0  0  0  0  0  0  0  0999 V2000
   -0.0001    0.0000    0.0000 C   0  0  0  0  0  0  0  0  0  0  0  0
    1.6001   -0.0000    0.0000 C   0  0  0  0  0  0  0  0  0  0  0  0
    2.4001   -1.3856    0.0000 C   0  0  0  0  0  0  0  0  0  0  0  0
    1.6001   -2.7713    0.0000 Cl  0  0  0  0  0  0  0  0  0  0  0  0
    4.0000   -1.3856    0.0000 C   0  0  0  0  0  0  0  0  0  0  0  0
    4.8000   -2.7713    0.0000 H   0  0  0  0  0  0  0  0  0  0  0  0
    4.8000    0.0000    0.0000 C   0  0  0  0  0  0  0  0  0  0  0  0
    6.4000    0.0000    0.0000 Cl  0  0  0  0  0  0  0  0  0  0  0  0
    4.0000    1.3856    0.0000 C   0  0  0  0  0  0  0  0  0  0  0  0
    4.8000    2.7713    0.0000 H   0  0  0  0  0  0  0  0  0  0  0  0
    2.4001    1.3856    0.0000 C   0  0  0  0  0  0  0  0  0  0  0  0
    1.6001    2.7713    0.0000 H   0  0  0  0  0  0  0  0  0  0  0  0
   -0.8001    1.3856    0.0000 C   0  0  0  0  0  0  0  0  0  0  0  0
   -0.0001    2.7713    0.0000 Cl  0  0  0  0  0  0  0  0  0  0  0  0
   -2.4000    1.3856    0.0000 C   0  0  0  0  0  0  0  0  0  0  0  0
   -3.2000    2.7713    0.0000 Cl  0  0  0  0  0  0  0  0  0  0  0  0
   -3.2000    0.0000    0.0000 C   0  0  0  0  0  0  0  0  0  0  0  0
   -4.8000   -0.0000    0.0000 H   0  0  0  0  0  0  0  0  0  0  0  0
   -2.4000   -1.3856    0.0000 C   0  0  0  0  0  0  0  0  0  0  0  0
   -3.2000   -2.7713    0.0000 H   0  0  0  0  0  0  0  0  0  0  0  0
   -0.8001   -1.3856    0.0000 C   0  0  0  0  0  0  0  0  0  0  0  0
   -0.0001   -2.7713    0.0000 H   0  0  0  0  0  0  0  0  0  0  0  0
  1  2  1  0  0  0  0
  2  3  1  0  0  0  0
  3  4  1  0  0  0  0
  3  5  2  0  0  0  0
  5  6  1  0  0  0  0
  5  7  1  0  0  0  0
  7  8  1  0  0  0  0
  7  9  2  0  0  0  0
  9 10  1  0  0  0  0
  9 11  1  0  0  0  0
 11  2  2  0  0  0  0
 11 12  1  0  0  0  0
  1 13  1  0  0  0  0
 13 14  1  0  0  0  0
 13 15  2  0  0  0  0
 15 16  1  0  0  0  0
 15 17  1  0  0  0  0
 17 18  1  0  0  0  0
 17 19  2  0  0  0  0
 19 20  1  0  0  0  0
 19 21  1  0  0  0  0
 21  1  2  0  0  0  0
 21 22  1  0  0  0  0
M  END
> <ChemID>
100477

> <source_casrn>
36559-22-5

> <CAS>
36559-22-5

> <SMILES>
Clc(cc(Cl)c1c(ccc2)c(Cl)c2Cl)cc1

> <NAME>
2,2',3,4'-Tetrachlorobiphenyl

> <preferred_name>
Aroclor 1242

> <iupac>
2,2',3,4'-tetrachlorobiphenyl

> <MPID>
102079

> <dsstox_substance_id>
DTXSID80873557

> <Canonical_QSARr>
Clc1cc(Cl)c(cc1)-c1cccc(Cl)c1Cl

> <InChI_Code_QSARr>
InChI=1S/C12H6Cl4/c13-7-4-5-8(11(15)6-7)9-2-1-3-10(14)12(9)16/h1-6H

> <InChI Key_QSARr>
ALFHIHDQSYXSGP-UHFFFAOYSA-N

> <LogKmHL>
2.62

$$$$
100478
  -INDIGO-08031722222D

 22 23  0  0  0  0  0  0  0  0999 V2000
   -0.0001    0.0000    0.0000 C   0  0  0  0  0  0  0  0  0  0  0  0
    1.6001   -0.0000    0.0000 C   0  0  0  0  0  0  0  0  0  0  0  0
    2.4001   -1.3856    0.0000 C   0  0  0  0  0  0  0  0  0  0  0  0
    1.6001   -2.7713    0.0000 Cl  0  0  0  0  0  0  0  0  0  0  0  0
    4.0000   -1.3856    0.0000 C   0  0  0  0  0  0  0  0  0  0  0  0
    4.8000   -2.7713    0.0000 H   0  0  0  0  0  0  0  0  0  0  0  0
    4.8000    0.0000    0.0000 C   0  0  0  0  0  0  0  0  0  0  0  0
    6.4000    0.0000    0.0000 H   0  0  0  0  0  0  0  0  0  0  0  0
    4.0000    1.3856    0.0000 C   0  0  0  0  0  0  0  0  0  0  0  0
    4.8000    2.7713    0.0000 H   0  0  0  0  0  0  0  0  0  0  0  0
    2.4001    1.3856    0.0000 C   0  0  0  0  0  0  0  0  0  0  0  0
    1.6001    2.7713    0.0000 H   0  0  0  0  0  0  0  0  0  0  0  0
   -0.8001    1.3856    0.0000 C   0  0  0  0  0  0  0  0  0  0  0  0
   -0.0001    2.7713    0.0000 Cl  0  0  0  0  0  0  0  0  0  0  0  0
   -2.4000    1.3856    0.0000 C   0  0  0  0  0  0  0  0  0  0  0  0
   -3.2000    2.7713    0.0000 H   0  0  0  0  0  0  0  0  0  0  0  0
   -3.2000    0.0000    0.0000 C   0  0  0  0  0  0  0  0  0  0  0  0
   -4.8000   -0.0000    0.0000 H   0  0  0  0  0  0  0  0  0  0  0  0
   -2.4000   -1.3856    0.0000 C   0  0  0  0  0  0  0  0  0  0  0  0
   -3.2000   -2.7713    0.0000 Cl  0  0  0  0  0  0  0  0  0  0  0  0
   -0.8001   -1.3856    0.0000 C   0  0  0  0  0  0  0  0  0  0  0  0
   -0.0001   -2.7713    0.0000 H   0  0  0  0  0  0  0  0  0  0  0  0
  1  2  1  0  0  0  0
  2  3  1  0  0  0  0
  3  4  1  0  0  0  0
  3  5  2  0  0  0  0
  5  6  1  0  0  0  0
  5  7  1  0  0  0  0
  7  8  1  0  0  0  0
  7  9  2  0  0  0  0
  9 10  1  0  0  0  0
  9 11  1  0  0  0  0
 11  2  2  0  0  0  0
 11 12  1  0  0  0  0
  1 13  1  0  0  0  0
 13 14  1  0  0  0  0
 13 15  2  0  0  0  0
 15 16  1  0  0  0  0
 15 17  1  0  0  0  0
 17 18  1  0  0  0  0
 17 19  2  0  0  0  0
 19 20  1  0  0  0  0
 19 21  1  0  0  0  0
 21  1  2  0  0  0  0
 21 22  1  0  0  0  0
M  END
> <ChemID>
100478

> <source_casrn>
37680-65-2

> <CAS>
37680-65-2

> <SMILES>
Clc1cc(-c2ccccc2Cl)c(Cl)cc1

> <NAME>
2,2',5-Trichloro-1,1'-biphenyl

> <preferred_name>
2,2',5-Trichlorobiphenyl

> <iupac>
1,4-dichloro-2-(2-chlorophenyl)benzene

> <MPID>
102080

> <dsstox_substance_id>
DTXSID6073491

> <Canonical_QSARr>
Clc1cc(-c2ccccc2Cl)c(Cl)cc1

> <InChI_Code_QSARr>
InChI=1S/C12H7Cl3/c13-8-5-6-12(15)10(7-8)9-3-1-2-4-11(9)14/h1-7H

> <InChI Key_QSARr>
DCMURXAZTZQAFB-UHFFFAOYSA-N

> <LogKmHL>
1.87

$$$$
100479
  -INDIGO-08031722222D

 22 23  0  0  0  0  0  0  0  0999 V2000
   -0.0001    0.0000    0.0000 C   0  0  0  0  0  0  0  0  0  0  0  0
    1.6001   -0.0000    0.0000 C   0  0  0  0  0  0  0  0  0  0  0  0
    2.4001   -1.3856    0.0000 C   0  0  0  0  0  0  0  0  0  0  0  0
    1.6001   -2.7713    0.0000 Cl  0  0  0  0  0  0  0  0  0  0  0  0
    4.0000   -1.3856    0.0000 C   0  0  0  0  0  0  0  0  0  0  0  0
    4.8000   -2.7713    0.0000 H   0  0  0  0  0  0  0  0  0  0  0  0
    4.8000    0.0000    0.0000 C   0  0  0  0  0  0  0  0  0  0  0  0
    6.4000    0.0000    0.0000 H   0  0  0  0  0  0  0  0  0  0  0  0
    4.0000    1.3856    0.0000 C   0  0  0  0  0  0  0  0  0  0  0  0
    4.8000    2.7713    0.0000 Cl  0  0  0  0  0  0  0  0  0  0  0  0
    2.4001    1.3856    0.0000 C   0  0  0  0  0  0  0  0  0  0  0  0
    1.6001    2.7713    0.0000 H   0  0  0  0  0  0  0  0  0  0  0  0
   -0.8001    1.3856    0.0000 C   0  0  0  0  0  0  0  0  0  0  0  0
   -0.0001    2.7713    0.0000 Cl  0  0  0  0  0  0  0  0  0  0  0  0
   -2.4000    1.3856    0.0000 C   0  0  0  0  0  0  0  0  0  0  0  0
   -3.2000    2.7713    0.0000 H   0  0  0  0  0  0  0  0  0  0  0  0
   -3.2000    0.0000    0.0000 C   0  0  0  0  0  0  0  0  0  0  0  0
   -4.8000   -0.0000    0.0000 Cl  0  0  0  0  0  0  0  0  0  0  0  0
   -2.4000   -1.3856    0.0000 C   0  0  0  0  0  0  0  0  0  0  0  0
   -3.2000   -2.7713    0.0000 Cl  0  0  0  0  0  0  0  0  0  0  0  0
   -0.8001   -1.3856    0.0000 C   0  0  0  0  0  0  0  0  0  0  0  0
   -0.0001   -2.7713    0.0000 H   0  0  0  0  0  0  0  0  0  0  0  0
  1  2  1  0  0  0  0
  2  3  1  0  0  0  0
  3  4  1  0  0  0  0
  3  5  2  0  0  0  0
  5  6  1  0  0  0  0
  5  7  1  0  0  0  0
  7  8  1  0  0  0  0
  7  9  2  0  0  0  0
  9 10  1  0  0  0  0
  9 11  1  0  0  0  0
 11  2  2  0  0  0  0
 11 12  1  0  0  0  0
  1 13  1  0  0  0  0
 13 14  1  0  0  0  0
 13 15  2  0  0  0  0
 15 16  1  0  0  0  0
 15 17  1  0  0  0  0
 17 18  1  0  0  0  0
 17 19  2  0  0  0  0
 19 20  1  0  0  0  0
 19 21  1  0  0  0  0
 21  1  2  0  0  0  0
 21 22  1  0  0  0  0
M  END
> <ChemID>
100479

> <source_casrn>
37680-73-2

> <CAS>
37680-73-2

> <SMILES>
Clc1cc(-c2cc(Cl)c(Cl)cc2Cl)c(Cl)cc1

> <NAME>
2,2',4,5,5'-Pentachloro-1,1'-biphenyl

> <preferred_name>
2,2,4,5,5'-Pentochlorobiphenyl

> <iupac>
2,2',4,5,5'-pentachlorobiphenyl

> <MPID>
102081

> <dsstox_substance_id>
DTXSID8038304

> <Canonical_QSARr>
Clc1cc(-c2cc(Cl)c(Cl)cc2Cl)c(Cl)cc1

> <InChI_Code_QSARr>
InChI=1S/C12H5Cl5/c13-6-1-2-9(14)7(3-6)8-4-11(16)12(17)5-10(8)15/h1-5H

> <InChI Key_QSARr>
LAHWLEDBADHJGA-UHFFFAOYSA-N

> <LogKmHL>
2.46

$$$$
100481
  -INDIGO-08031722222D

 22 23  0  0  0  0  0  0  0  0999 V2000
   -0.0001    0.0000    0.0000 C   0  0  0  0  0  0  0  0  0  0  0  0
    1.6001   -0.0000    0.0000 C   0  0  0  0  0  0  0  0  0  0  0  0
    2.4001   -1.3856    0.0000 C   0  0  0  0  0  0  0  0  0  0  0  0
    1.6001   -2.7713    0.0000 Cl  0  0  0  0  0  0  0  0  0  0  0  0
    4.0000   -1.3856    0.0000 C   0  0  0  0  0  0  0  0  0  0  0  0
    4.8000   -2.7713    0.0000 H   0  0  0  0  0  0  0  0  0  0  0  0
    4.8000    0.0000    0.0000 C   0  0  0  0  0  0  0  0  0  0  0  0
    6.4000    0.0000    0.0000 H   0  0  0  0  0  0  0  0  0  0  0  0
    4.0000    1.3856    0.0000 C   0  0  0  0  0  0  0  0  0  0  0  0
    4.8000    2.7713    0.0000 Cl  0  0  0  0  0  0  0  0  0  0  0  0
    2.4001    1.3856    0.0000 C   0  0  0  0  0  0  0  0  0  0  0  0
    1.6001    2.7713    0.0000 H   0  0  0  0  0  0  0  0  0  0  0  0
   -0.8001    1.3856    0.0000 C   0  0  0  0  0  0  0  0  0  0  0  0
   -0.0001    2.7713    0.0000 Cl  0  0  0  0  0  0  0  0  0  0  0  0
   -2.4000    1.3856    0.0000 C   0  0  0  0  0  0  0  0  0  0  0  0
   -3.2000    2.7713    0.0000 Cl  0  0  0  0  0  0  0  0  0  0  0  0
   -3.2000    0.0000    0.0000 C   0  0  0  0  0  0  0  0  0  0  0  0
   -4.8000   -0.0000    0.0000 Cl  0  0  0  0  0  0  0  0  0  0  0  0
   -2.4000   -1.3856    0.0000 C   0  0  0  0  0  0  0  0  0  0  0  0
   -3.2000   -2.7713    0.0000 H   0  0  0  0  0  0  0  0  0  0  0  0
   -0.8001   -1.3856    0.0000 C   0  0  0  0  0  0  0  0  0  0  0  0
   -0.0001   -2.7713    0.0000 H   0  0  0  0  0  0  0  0  0  0  0  0
  1  2  1  0  0  0  0
  2  3  1  0  0  0  0
  3  4  1  0  0  0  0
  3  5  2  0  0  0  0
  5  6  1  0  0  0  0
  5  7  1  0  0  0  0
  7  8  1  0  0  0  0
  7  9  2  0  0  0  0
  9 10  1  0  0  0  0
  9 11  1  0  0  0  0
 11  2  2  0  0  0  0
 11 12  1  0  0  0  0
  1 13  1  0  0  0  0
 13 14  1  0  0  0  0
 13 15  2  0  0  0  0
 15 16  1  0  0  0  0
 15 17  1  0  0  0  0
 17 18  1  0  0  0  0
 17 19  2  0  0  0  0
 19 20  1  0  0  0  0
 19 21  1  0  0  0  0
 21  1  2  0  0  0  0
 21 22  1  0  0  0  0
M  END
> <ChemID>
100481

> <source_casrn>
38380-02-8

> <CAS>
38380-02-8

> <SMILES>
Clc1cc(-c2ccc(Cl)c(Cl)c2Cl)c(Cl)cc1

> <NAME>
2,2',3,4,5'-Pentachloro-1,1'-biphenyl

> <preferred_name>
2,2',3,4,5'-Pentachlorobiphenyl

> <iupac>
1,2,3-trichloro-4-(2,5-dichlorophenyl)benzene

> <MPID>
102083

> <dsstox_substance_id>
DTXSID6073497

> <Canonical_QSARr>
Clc1cc(-c2ccc(Cl)c(Cl)c2Cl)c(Cl)cc1

> <InChI_Code_QSARr>
InChI=1S/C12H5Cl5/c13-6-1-3-9(14)8(5-6)7-2-4-10(15)12(17)11(7)16/h1-5H

> <InChI Key_QSARr>
OPKYDBFRKPQCBS-UHFFFAOYSA-N

> <LogKmHL>
2.31

$$$$
100482
  -INDIGO-08031722222D

 22 23  0  0  0  0  0  0  0  0999 V2000
   -0.0001    0.0000    0.0000 C   0  0  0  0  0  0  0  0  0  0  0  0
    1.6001   -0.0000    0.0000 C   0  0  0  0  0  0  0  0  0  0  0  0
    2.4001   -1.3856    0.0000 C   0  0  0  0  0  0  0  0  0  0  0  0
    1.6001   -2.7713    0.0000 H   0  0  0  0  0  0  0  0  0  0  0  0
    4.0000   -1.3856    0.0000 C   0  0  0  0  0  0  0  0  0  0  0  0
    4.8000   -2.7713    0.0000 Cl  0  0  0  0  0  0  0  0  0  0  0  0
    4.8000    0.0000    0.0000 C   0  0  0  0  0  0  0  0  0  0  0  0
    6.4000    0.0000    0.0000 Cl  0  0  0  0  0  0  0  0  0  0  0  0
    4.0000    1.3856    0.0000 C   0  0  0  0  0  0  0  0  0  0  0  0
    4.8000    2.7713    0.0000 H   0  0  0  0  0  0  0  0  0  0  0  0
    2.4001    1.3856    0.0000 C   0  0  0  0  0  0  0  0  0  0  0  0
    1.6001    2.7713    0.0000 H   0  0  0  0  0  0  0  0  0  0  0  0
   -0.8001    1.3856    0.0000 C   0  0  0  0  0  0  0  0  0  0  0  0
   -0.0001    2.7713    0.0000 Cl  0  0  0  0  0  0  0  0  0  0  0  0
   -2.4000    1.3856    0.0000 C   0  0  0  0  0  0  0  0  0  0  0  0
   -3.2000    2.7713    0.0000 Cl  0  0  0  0  0  0  0  0  0  0  0  0
   -3.2000    0.0000    0.0000 C   0  0  0  0  0  0  0  0  0  0  0  0
   -4.8000   -0.0000    0.0000 H   0  0  0  0  0  0  0  0  0  0  0  0
   -2.4000   -1.3856    0.0000 C   0  0  0  0  0  0  0  0  0  0  0  0
   -3.2000   -2.7713    0.0000 H   0  0  0  0  0  0  0  0  0  0  0  0
   -0.8001   -1.3856    0.0000 C   0  0  0  0  0  0  0  0  0  0  0  0
   -0.0001   -2.7713    0.0000 Cl  0  0  0  0  0  0  0  0  0  0  0  0
  1  2  1  0  0  0  0
  2  3  1  0  0  0  0
  3  4  1  0  0  0  0
  3  5  2  0  0  0  0
  5  6  1  0  0  0  0
  5  7  1  0  0  0  0
  7  8  1  0  0  0  0
  7  9  2  0  0  0  0
  9 10  1  0  0  0  0
  9 11  1  0  0  0  0
 11  2  2  0  0  0  0
 11 12  1  0  0  0  0
  1 13  1  0  0  0  0
 13 14  1  0  0  0  0
 13 15  2  0  0  0  0
 15 16  1  0  0  0  0
 15 17  1  0  0  0  0
 17 18  1  0  0  0  0
 17 19  2  0  0  0  0
 19 20  1  0  0  0  0
 19 21  1  0  0  0  0
 21  1  2  0  0  0  0
 21 22  1  0  0  0  0
M  END
> <ChemID>
100482

> <source_casrn>
38380-03-9

> <CAS>
38380-03-9

> <SMILES>
Clc1c(-c2cc(Cl)c(Cl)cc2)c(Cl)ccc1Cl

> <NAME>
2,3,3',4',6-pentachlorobiphenyl

> <preferred_name>
2,3,3',4',6-Pentachlorobiphenyl

> <iupac>
2,3,3',4',6-pentachlorobiphenyl

> <MPID>
102084

> <dsstox_substance_id>
DTXSID3038307

> <Canonical_QSARr>
Clc1c(-c2cc(Cl)c(Cl)cc2)c(Cl)ccc1Cl

> <InChI_Code_QSARr>
InChI=1S/C12H5Cl5/c13-7-2-1-6(5-10(7)16)11-8(14)3-4-9(15)12(11)17/h1-5H

> <InChI Key_QSARr>
ARXHIJMGSIYYRZ-UHFFFAOYSA-N

> <LogKmHL>
2.63

$$$$
100483
  -INDIGO-08031722222D

 22 23  0  0  0  0  0  0  0  0999 V2000
   -0.0001    0.0000    0.0000 C   0  0  0  0  0  0  0  0  0  0  0  0
    1.6001   -0.0000    0.0000 C   0  0  0  0  0  0  0  0  0  0  0  0
    2.4001   -1.3856    0.0000 C   0  0  0  0  0  0  0  0  0  0  0  0
    1.6001   -2.7713    0.0000 Cl  0  0  0  0  0  0  0  0  0  0  0  0
    4.0000   -1.3856    0.0000 C   0  0  0  0  0  0  0  0  0  0  0  0
    4.8000   -2.7713    0.0000 Cl  0  0  0  0  0  0  0  0  0  0  0  0
    4.8000    0.0000    0.0000 C   0  0  0  0  0  0  0  0  0  0  0  0
    6.4000    0.0000    0.0000 Cl  0  0  0  0  0  0  0  0  0  0  0  0
    4.0000    1.3856    0.0000 C   0  0  0  0  0  0  0  0  0  0  0  0
    4.8000    2.7713    0.0000 H   0  0  0  0  0  0  0  0  0  0  0  0
    2.4001    1.3856    0.0000 C   0  0  0  0  0  0  0  0  0  0  0  0
    1.6001    2.7713    0.0000 H   0  0  0  0  0  0  0  0  0  0  0  0
   -0.8001    1.3856    0.0000 C   0  0  0  0  0  0  0  0  0  0  0  0
   -0.0001    2.7713    0.0000 Cl  0  0  0  0  0  0  0  0  0  0  0  0
   -2.4000    1.3856    0.0000 C   0  0  0  0  0  0  0  0  0  0  0  0
   -3.2000    2.7713    0.0000 Cl  0  0  0  0  0  0  0  0  0  0  0  0
   -3.2000    0.0000    0.0000 C   0  0  0  0  0  0  0  0  0  0  0  0
   -4.8000   -0.0000    0.0000 H   0  0  0  0  0  0  0  0  0  0  0  0
   -2.4000   -1.3856    0.0000 C   0  0  0  0  0  0  0  0  0  0  0  0
   -3.2000   -2.7713    0.0000 H   0  0  0  0  0  0  0  0  0  0  0  0
   -0.8001   -1.3856    0.0000 C   0  0  0  0  0  0  0  0  0  0  0  0
   -0.0001   -2.7713    0.0000 Cl  0  0  0  0  0  0  0  0  0  0  0  0
  1  2  1  0  0  0  0
  2  3  1  0  0  0  0
  3  4  1  0  0  0  0
  3  5  2  0  0  0  0
  5  6  1  0  0  0  0
  5  7  1  0  0  0  0
  7  8  1  0  0  0  0
  7  9  2  0  0  0  0
  9 10  1  0  0  0  0
  9 11  1  0  0  0  0
 11  2  2  0  0  0  0
 11 12  1  0  0  0  0
  1 13  1  0  0  0  0
 13 14  1  0  0  0  0
 13 15  2  0  0  0  0
 15 16  1  0  0  0  0
 15 17  1  0  0  0  0
 17 18  1  0  0  0  0
 17 19  2  0  0  0  0
 19 20  1  0  0  0  0
 19 21  1  0  0  0  0
 21  1  2  0  0  0  0
 21 22  1  0  0  0  0
M  END
> <ChemID>
100483

> <source_casrn>
38380-05-1

> <CAS>
38380-05-1

> <SMILES>
Clc1ccc(Cl)c(-c2ccc(Cl)c(Cl)c2Cl)c1Cl

> <NAME>
2,2',3,3',4,6'-hexachlorobiphenyl

> <preferred_name>
2,2',3,3',4,6'-Hexachlorobiphenyl

> <iupac>
1,2,3-trichloro-4-(2,3,6-trichlorophenyl)benzene

> <MPID>
102085

> <dsstox_substance_id>
DTXSID9074141

> <Canonical_QSARr>
Clc1ccc(Cl)c(-c2ccc(Cl)c(Cl)c2Cl)c1Cl

> <InChI_Code_QSARr>
InChI=1S/C12H4Cl6/c13-6-3-4-7(14)11(17)9(6)5-1-2-8(15)12(18)10(5)16/h1-4H

> <InChI Key_QSARr>
OKBJVIVEFXPEOU-UHFFFAOYSA-N

> <LogKmHL>
2.24

$$$$
100485
  -INDIGO-08031722222D

 22 23  0  0  0  0  0  0  0  0999 V2000
   -2.4000    1.3856    0.0000 C   0  0  0  0  0  0  0  0  0  0  0  0
   -0.8001    1.3856    0.0000 C   0  0  0  0  0  0  0  0  0  0  0  0
   -0.0001    2.7713    0.0000 Cl  0  0  0  0  0  0  0  0  0  0  0  0
   -0.0001   -0.0000    0.0000 C   0  0  0  0  0  0  0  0  0  0  0  0
    1.6001    0.0000    0.0000 C   0  0  0  0  0  0  0  0  0  0  0  0
    2.4001    1.3856    0.0000 C   0  0  0  0  0  0  0  0  0  0  0  0
    1.6001    2.7713    0.0000 H   0  0  0  0  0  0  0  0  0  0  0  0
    4.0000    1.3856    0.0000 C   0  0  0  0  0  0  0  0  0  0  0  0
    4.8000    2.7713    0.0000 Cl  0  0  0  0  0  0  0  0  0  0  0  0
    4.8000    0.0000    0.0000 C   0  0  0  0  0  0  0  0  0  0  0  0
    6.4000    0.0000    0.0000 Cl  0  0  0  0  0  0  0  0  0  0  0  0
    4.0000   -1.3856    0.0000 C   0  0  0  0  0  0  0  0  0  0  0  0
    4.8000   -2.7713    0.0000 H   0  0  0  0  0  0  0  0  0  0  0  0
    2.4001   -1.3856    0.0000 C   0  0  0  0  0  0  0  0  0  0  0  0
    1.6001   -2.7713    0.0000 H   0  0  0  0  0  0  0  0  0  0  0  0
   -0.8001   -1.3856    0.0000 C   0  0  0  0  0  0  0  0  0  0  0  0
   -0.0001   -2.7713    0.0000 H   0  0  0  0  0  0  0  0  0  0  0  0
   -2.4000   -1.3856    0.0000 C   0  0  0  0  0  0  0  0  0  0  0  0
   -3.2000   -2.7713    0.0000 Cl  0  0  0  0  0  0  0  0  0  0  0  0
   -3.2000   -0.0000    0.0000 C   0  0  0  0  0  0  0  0  0  0  0  0
   -4.8000   -0.0000    0.0000 Cl  0  0  0  0  0  0  0  0  0  0  0  0
   -3.2000    2.7713    0.0000 Cl  0  0  0  0  0  0  0  0  0  0  0  0
  1  2  1  0  0  0  0
  2  3  1  0  0  0  0
  2  4  2  0  0  0  0
  4  5  1  0  0  0  0
  5  6  1  0  0  0  0
  6  7  1  0  0  0  0
  6  8  2  0  0  0  0
  8  9  1  0  0  0  0
  8 10  1  0  0  0  0
 10 11  1  0  0  0  0
 10 12  2  0  0  0  0
 12 13  1  0  0  0  0
 12 14  1  0  0  0  0
 14  5  2  0  0  0  0
 14 15  1  0  0  0  0
  4 16  1  0  0  0  0
 16 17  1  0  0  0  0
 16 18  2  0  0  0  0
 18 19  1  0  0  0  0
 18 20  1  0  0  0  0
 20  1  2  0  0  0  0
 20 21  1  0  0  0  0
  1 22  1  0  0  0  0
M  END
> <ChemID>
100485

> <source_casrn>
38380-08-4

> <CAS>
38380-08-4

> <SMILES>
Clc1c(cc(Cl)c(Cl)c1Cl)-c1cc(Cl)c(Cl)cc1

> <NAME>
2,3,3',4,4',5-hexachlorobiphenyl

> <preferred_name>
2,3,3',4,4',5-Hexachlorobiphenyl

> <iupac>
2,3,3',4,4',5-hexachlorobiphenyl

> <MPID>
102087

> <dsstox_substance_id>
DTXSID0052706

> <Canonical_QSARr>
Clc1c(cc(Cl)c(Cl)c1Cl)-c1cc(Cl)c(Cl)cc1

> <InChI_Code_QSARr>
InChI=1S/C12H4Cl6/c13-7-2-1-5(3-8(7)14)6-4-9(15)11(17)12(18)10(6)16/h1-4H

> <InChI Key_QSARr>
LCXMEXLGMKFLQO-UHFFFAOYSA-N

> <LogKmHL>
2.73

$$$$
100486
  -INDIGO-08031722222D

 22 23  0  0  0  0  0  0  0  0999 V2000
   -0.0001    0.0000    0.0000 C   0  0  0  0  0  0  0  0  0  0  0  0
    1.6001   -0.0000    0.0000 C   0  0  0  0  0  0  0  0  0  0  0  0
    2.4001   -1.3856    0.0000 C   0  0  0  0  0  0  0  0  0  0  0  0
    1.6001   -2.7713    0.0000 Cl  0  0  0  0  0  0  0  0  0  0  0  0
    4.0000   -1.3856    0.0000 C   0  0  0  0  0  0  0  0  0  0  0  0
    4.8000   -2.7713    0.0000 Cl  0  0  0  0  0  0  0  0  0  0  0  0
    4.8000    0.0000    0.0000 C   0  0  0  0  0  0  0  0  0  0  0  0
    6.4000    0.0000    0.0000 H   0  0  0  0  0  0  0  0  0  0  0  0
    4.0000    1.3856    0.0000 C   0  0  0  0  0  0  0  0  0  0  0  0
    4.8000    2.7713    0.0000 H   0  0  0  0  0  0  0  0  0  0  0  0
    2.4001    1.3856    0.0000 C   0  0  0  0  0  0  0  0  0  0  0  0
    1.6001    2.7713    0.0000 Cl  0  0  0  0  0  0  0  0  0  0  0  0
   -0.8001    1.3856    0.0000 C   0  0  0  0  0  0  0  0  0  0  0  0
   -0.0001    2.7713    0.0000 Cl  0  0  0  0  0  0  0  0  0  0  0  0
   -2.4000    1.3856    0.0000 C   0  0  0  0  0  0  0  0  0  0  0  0
   -3.2000    2.7713    0.0000 Cl  0  0  0  0  0  0  0  0  0  0  0  0
   -3.2000    0.0000    0.0000 C   0  0  0  0  0  0  0  0  0  0  0  0
   -4.8000   -0.0000    0.0000 H   0  0  0  0  0  0  0  0  0  0  0  0
   -2.4000   -1.3856    0.0000 C   0  0  0  0  0  0  0  0  0  0  0  0
   -3.2000   -2.7713    0.0000 H   0  0  0  0  0  0  0  0  0  0  0  0
   -0.8001   -1.3856    0.0000 C   0  0  0  0  0  0  0  0  0  0  0  0
   -0.0001   -2.7713    0.0000 Cl  0  0  0  0  0  0  0  0  0  0  0  0
  1  2  1  0  0  0  0
  2  3  1  0  0  0  0
  3  4  1  0  0  0  0
  3  5  2  0  0  0  0
  5  6  1  0  0  0  0
  5  7  1  0  0  0  0
  7  8  1  0  0  0  0
  7  9  2  0  0  0  0
  9 10  1  0  0  0  0
  9 11  1  0  0  0  0
 11  2  2  0  0  0  0
 11 12  1  0  0  0  0
  1 13  1  0  0  0  0
 13 14  1  0  0  0  0
 13 15  2  0  0  0  0
 15 16  1  0  0  0  0
 15 17  1  0  0  0  0
 17 18  1  0  0  0  0
 17 19  2  0  0  0  0
 19 20  1  0  0  0  0
 19 21  1  0  0  0  0
 21  1  2  0  0  0  0
 21 22  1  0  0  0  0
M  END
> <ChemID>
100486

> <source_casrn>
38411-22-2

> <CAS>
38411-22-2

> <SMILES>
Clc1ccc(Cl)c(Cl)c1-c1c(Cl)c(Cl)ccc1Cl

> <NAME>
2,2',3,3',6,6'-Hexachloro-1,1'-biphenyl

> <preferred_name>
2,2',3,3',6,6'-Hexachlorobiphenyl

> <iupac>
1,2,4-trichloro-3-(2,3,6-trichlorophenyl)benzene

> <MPID>
102088

> <dsstox_substance_id>
DTXSID6073499

> <Canonical_QSARr>
Clc1ccc(Cl)c(Cl)c1-c1c(Cl)c(Cl)ccc1Cl

> <InChI_Code_QSARr>
InChI=1S/C12H4Cl6/c13-5-1-3-7(15)11(17)9(5)10-6(14)2-4-8(16)12(10)18/h1-4H

> <InChI Key_QSARr>
FZFUUSROAHKTTF-UHFFFAOYSA-N

> <LogKmHL>
2.34

$$$$
100487
  -INDIGO-08031722222D

 22 23  0  0  0  0  0  0  0  0999 V2000
   -0.0001    0.0000    0.0000 C   0  0  0  0  0  0  0  0  0  0  0  0
    1.6001   -0.0000    0.0000 C   0  0  0  0  0  0  0  0  0  0  0  0
    2.4001   -1.3856    0.0000 C   0  0  0  0  0  0  0  0  0  0  0  0
    1.6001   -2.7713    0.0000 Cl  0  0  0  0  0  0  0  0  0  0  0  0
    4.0000   -1.3856    0.0000 C   0  0  0  0  0  0  0  0  0  0  0  0
    4.8000   -2.7713    0.0000 Cl  0  0  0  0  0  0  0  0  0  0  0  0
    4.8000    0.0000    0.0000 C   0  0  0  0  0  0  0  0  0  0  0  0
    6.4000    0.0000    0.0000 Cl  0  0  0  0  0  0  0  0  0  0  0  0
    4.0000    1.3856    0.0000 C   0  0  0  0  0  0  0  0  0  0  0  0
    4.8000    2.7713    0.0000 Cl  0  0  0  0  0  0  0  0  0  0  0  0
    2.4001    1.3856    0.0000 C   0  0  0  0  0  0  0  0  0  0  0  0
    1.6001    2.7713    0.0000 H   0  0  0  0  0  0  0  0  0  0  0  0
   -0.8001    1.3856    0.0000 C   0  0  0  0  0  0  0  0  0  0  0  0
   -0.0001    2.7713    0.0000 Cl  0  0  0  0  0  0  0  0  0  0  0  0
   -2.4000    1.3856    0.0000 C   0  0  0  0  0  0  0  0  0  0  0  0
   -3.2000    2.7713    0.0000 Cl  0  0  0  0  0  0  0  0  0  0  0  0
   -3.2000    0.0000    0.0000 C   0  0  0  0  0  0  0  0  0  0  0  0
   -4.8000   -0.0000    0.0000 H   0  0  0  0  0  0  0  0  0  0  0  0
   -2.4000   -1.3856    0.0000 C   0  0  0  0  0  0  0  0  0  0  0  0
   -3.2000   -2.7713    0.0000 H   0  0  0  0  0  0  0  0  0  0  0  0
   -0.8001   -1.3856    0.0000 C   0  0  0  0  0  0  0  0  0  0  0  0
   -0.0001   -2.7713    0.0000 Cl  0  0  0  0  0  0  0  0  0  0  0  0
  1  2  1  0  0  0  0
  2  3  1  0  0  0  0
  3  4  1  0  0  0  0
  3  5  2  0  0  0  0
  5  6  1  0  0  0  0
  5  7  1  0  0  0  0
  7  8  1  0  0  0  0
  7  9  2  0  0  0  0
  9 10  1  0  0  0  0
  9 11  1  0  0  0  0
 11  2  2  0  0  0  0
 11 12  1  0  0  0  0
  1 13  1  0  0  0  0
 13 14  1  0  0  0  0
 13 15  2  0  0  0  0
 15 16  1  0  0  0  0
 15 17  1  0  0  0  0
 17 18  1  0  0  0  0
 17 19  2  0  0  0  0
 19 20  1  0  0  0  0
 19 21  1  0  0  0  0
 21  1  2  0  0  0  0
 21 22  1  0  0  0  0
M  END
> <ChemID>
100487

> <source_casrn>
38411-25-5

> <CAS>
38411-25-5

> <SMILES>
Clc1c(cc(Cl)c(Cl)c1Cl)-c1c(Cl)c(Cl)ccc1Cl

> <NAME>
2,2',3,3',4,5,6'-heptachlorobiphenyl

> <preferred_name>
2,2',3,3',4,5,6'-Heptachlorobiphenyl

> <iupac>
1,2,3,4-tetrachloro-5-(2,3,6-trichlorophenyl)benzene

> <MPID>
102089

> <dsstox_substance_id>
DTXSID4074142

> <Canonical_QSARr>
Clc1c(cc(Cl)c(Cl)c1Cl)-c1c(Cl)c(Cl)ccc1Cl

> <InChI_Code_QSARr>
InChI=1S/C12H3Cl7/c13-5-1-2-6(14)10(17)8(5)4-3-7(15)11(18)12(19)9(4)16/h1-3H

> <InChI Key_QSARr>
ZDLMBNHYTPHDLF-UHFFFAOYSA-N

> <LogKmHL>
2.47

$$$$
100489
  -INDIGO-08031722222D

 22 23  0  0  0  0  0  0  0  0999 V2000
   -0.0001    0.0000    0.0000 C   0  0  0  0  0  0  0  0  0  0  0  0
    1.6001   -0.0000    0.0000 C   0  0  0  0  0  0  0  0  0  0  0  0
    2.4001   -1.3856    0.0000 C   0  0  0  0  0  0  0  0  0  0  0  0
    1.6001   -2.7713    0.0000 H   0  0  0  0  0  0  0  0  0  0  0  0
    4.0000   -1.3856    0.0000 C   0  0  0  0  0  0  0  0  0  0  0  0
    4.8000   -2.7713    0.0000 H   0  0  0  0  0  0  0  0  0  0  0  0
    4.8000    0.0000    0.0000 C   0  0  0  0  0  0  0  0  0  0  0  0
    6.4000    0.0000    0.0000 Cl  0  0  0  0  0  0  0  0  0  0  0  0
    4.0000    1.3856    0.0000 C   0  0  0  0  0  0  0  0  0  0  0  0
    4.8000    2.7713    0.0000 H   0  0  0  0  0  0  0  0  0  0  0  0
    2.4001    1.3856    0.0000 C   0  0  0  0  0  0  0  0  0  0  0  0
    1.6001    2.7713    0.0000 H   0  0  0  0  0  0  0  0  0  0  0  0
   -0.8001    1.3856    0.0000 C   0  0  0  0  0  0  0  0  0  0  0  0
   -0.0001    2.7713    0.0000 Cl  0  0  0  0  0  0  0  0  0  0  0  0
   -2.4000    1.3856    0.0000 C   0  0  0  0  0  0  0  0  0  0  0  0
   -3.2000    2.7713    0.0000 H   0  0  0  0  0  0  0  0  0  0  0  0
   -3.2000    0.0000    0.0000 C   0  0  0  0  0  0  0  0  0  0  0  0
   -4.8000   -0.0000    0.0000 H   0  0  0  0  0  0  0  0  0  0  0  0
   -2.4000   -1.3856    0.0000 C   0  0  0  0  0  0  0  0  0  0  0  0
   -3.2000   -2.7713    0.0000 H   0  0  0  0  0  0  0  0  0  0  0  0
   -0.8001   -1.3856    0.0000 C   0  0  0  0  0  0  0  0  0  0  0  0
   -0.0001   -2.7713    0.0000 Cl  0  0  0  0  0  0  0  0  0  0  0  0
  1  2  1  0  0  0  0
  2  3  1  0  0  0  0
  3  4  1  0  0  0  0
  3  5  2  0  0  0  0
  5  6  1  0  0  0  0
  5  7  1  0  0  0  0
  7  8  1  0  0  0  0
  7  9  2  0  0  0  0
  9 10  1  0  0  0  0
  9 11  1  0  0  0  0
 11  2  2  0  0  0  0
 11 12  1  0  0  0  0
  1 13  1  0  0  0  0
 13 14  1  0  0  0  0
 13 15  2  0  0  0  0
 15 16  1  0  0  0  0
 15 17  1  0  0  0  0
 17 18  1  0  0  0  0
 17 19  2  0  0  0  0
 19 20  1  0  0  0  0
 19 21  1  0  0  0  0
 21  1  2  0  0  0  0
 21 22  1  0  0  0  0
M  END
> <ChemID>
100489

> <source_casrn>
38444-77-8

> <CAS>
38444-77-8

> <SMILES>
Clc1ccc(cc1)-c1c(Cl)cccc1Cl

> <NAME>
2,4',6-trichlorobiphenyl

> <preferred_name>
2,4',6-Trichlorobiphenyl

> <iupac>
1,3-dichloro-2-(4-chlorophenyl)benzene

> <MPID>
102091

> <dsstox_substance_id>
DTXSID8073500

> <Canonical_QSARr>
Clc1ccc(cc1)-c1c(Cl)cccc1Cl

> <InChI_Code_QSARr>
InChI=1S/C12H7Cl3/c13-9-6-4-8(5-7-9)12-10(14)2-1-3-11(12)15/h1-7H

> <InChI Key_QSARr>
IHIDFKLAWYPTKB-UHFFFAOYSA-N

> <LogKmHL>
2.44

$$$$
100490
  -INDIGO-08031722222D

 22 23  0  0  0  0  0  0  0  0999 V2000
   -0.0001    0.0000    0.0000 C   0  0  0  0  0  0  0  0  0  0  0  0
    1.6001   -0.0000    0.0000 C   0  0  0  0  0  0  0  0  0  0  0  0
    2.4001   -1.3856    0.0000 C   0  0  0  0  0  0  0  0  0  0  0  0
    1.6001   -2.7713    0.0000 H   0  0  0  0  0  0  0  0  0  0  0  0
    4.0000   -1.3856    0.0000 C   0  0  0  0  0  0  0  0  0  0  0  0
    4.8000   -2.7713    0.0000 H   0  0  0  0  0  0  0  0  0  0  0  0
    4.8000    0.0000    0.0000 C   0  0  0  0  0  0  0  0  0  0  0  0
    6.4000    0.0000    0.0000 Cl  0  0  0  0  0  0  0  0  0  0  0  0
    4.0000    1.3856    0.0000 C   0  0  0  0  0  0  0  0  0  0  0  0
    4.8000    2.7713    0.0000 H   0  0  0  0  0  0  0  0  0  0  0  0
    2.4001    1.3856    0.0000 C   0  0  0  0  0  0  0  0  0  0  0  0
    1.6001    2.7713    0.0000 H   0  0  0  0  0  0  0  0  0  0  0  0
   -0.8001    1.3856    0.0000 C   0  0  0  0  0  0  0  0  0  0  0  0
   -0.0001    2.7713    0.0000 H   0  0  0  0  0  0  0  0  0  0  0  0
   -2.4000    1.3856    0.0000 C   0  0  0  0  0  0  0  0  0  0  0  0
   -3.2000    2.7713    0.0000 H   0  0  0  0  0  0  0  0  0  0  0  0
   -3.2000    0.0000    0.0000 C   0  0  0  0  0  0  0  0  0  0  0  0
   -4.8000   -0.0000    0.0000 H   0  0  0  0  0  0  0  0  0  0  0  0
   -2.4000   -1.3856    0.0000 C   0  0  0  0  0  0  0  0  0  0  0  0
   -3.2000   -2.7713    0.0000 Cl  0  0  0  0  0  0  0  0  0  0  0  0
   -0.8001   -1.3856    0.0000 C   0  0  0  0  0  0  0  0  0  0  0  0
   -0.0001   -2.7713    0.0000 Cl  0  0  0  0  0  0  0  0  0  0  0  0
  1  2  1  0  0  0  0
  2  3  1  0  0  0  0
  3  4  1  0  0  0  0
  3  5  2  0  0  0  0
  5  6  1  0  0  0  0
  5  7  1  0  0  0  0
  7  8  1  0  0  0  0
  7  9  2  0  0  0  0
  9 10  1  0  0  0  0
  9 11  1  0  0  0  0
 11  2  2  0  0  0  0
 11 12  1  0  0  0  0
  1 13  1  0  0  0  0
 13 14  1  0  0  0  0
 13 15  2  0  0  0  0
 15 16  1  0  0  0  0
 15 17  1  0  0  0  0
 17 18  1  0  0  0  0
 17 19  2  0  0  0  0
 19 20  1  0  0  0  0
 19 21  1  0  0  0  0
 21  1  2  0  0  0  0
 21 22  1  0  0  0  0
M  END
> <ChemID>
100490

> <source_casrn>
38444-85-8

> <CAS>
38444-85-8

> <SMILES>
Clc1ccc(cc1)-c1cccc(Cl)c1Cl

> <NAME>
2,3,4'-Trichloro-1,1'-biphenyl

> <preferred_name>
2,3,4'-Trichlorobiphenyl

> <iupac>
1,2-dichloro-3-(4-chlorophenyl)benzene

> <MPID>
102092

> <dsstox_substance_id>
DTXSID7091549

> <Canonical_QSARr>
Clc1ccc(cc1)-c1cccc(Cl)c1Cl

> <InChI_Code_QSARr>
InChI=1S/C12H7Cl3/c13-9-6-4-8(5-7-9)10-2-1-3-11(14)12(10)15/h1-7H

> <InChI Key_QSARr>
ZMHWQAHZKUPENF-UHFFFAOYSA-N

> <LogKmHL>
2.16

$$$$
100491
  -INDIGO-08031722222D

 22 23  0  0  0  0  0  0  0  0999 V2000
   -0.0001    0.0000    0.0000 C   0  0  0  0  0  0  0  0  0  0  0  0
    1.6001   -0.0000    0.0000 C   0  0  0  0  0  0  0  0  0  0  0  0
    2.4001   -1.3856    0.0000 C   0  0  0  0  0  0  0  0  0  0  0  0
    1.6001   -2.7713    0.0000 Cl  0  0  0  0  0  0  0  0  0  0  0  0
    4.0000   -1.3856    0.0000 C   0  0  0  0  0  0  0  0  0  0  0  0
    4.8000   -2.7713    0.0000 Cl  0  0  0  0  0  0  0  0  0  0  0  0
    4.8000    0.0000    0.0000 C   0  0  0  0  0  0  0  0  0  0  0  0
    6.4000    0.0000    0.0000 H   0  0  0  0  0  0  0  0  0  0  0  0
    4.0000    1.3856    0.0000 C   0  0  0  0  0  0  0  0  0  0  0  0
    4.8000    2.7713    0.0000 H   0  0  0  0  0  0  0  0  0  0  0  0
    2.4001    1.3856    0.0000 C   0  0  0  0  0  0  0  0  0  0  0  0
    1.6001    2.7713    0.0000 H   0  0  0  0  0  0  0  0  0  0  0  0
   -0.8001    1.3856    0.0000 C   0  0  0  0  0  0  0  0  0  0  0  0
   -0.0001    2.7713    0.0000 Cl  0  0  0  0  0  0  0  0  0  0  0  0
   -2.4000    1.3856    0.0000 C   0  0  0  0  0  0  0  0  0  0  0  0
   -3.2000    2.7713    0.0000 Cl  0  0  0  0  0  0  0  0  0  0  0  0
   -3.2000    0.0000    0.0000 C   0  0  0  0  0  0  0  0  0  0  0  0
   -4.8000   -0.0000    0.0000 H   0  0  0  0  0  0  0  0  0  0  0  0
   -2.4000   -1.3856    0.0000 C   0  0  0  0  0  0  0  0  0  0  0  0
   -3.2000   -2.7713    0.0000 H   0  0  0  0  0  0  0  0  0  0  0  0
   -0.8001   -1.3856    0.0000 C   0  0  0  0  0  0  0  0  0  0  0  0
   -0.0001   -2.7713    0.0000 H   0  0  0  0  0  0  0  0  0  0  0  0
  1  2  1  0  0  0  0
  2  3  1  0  0  0  0
  3  4  1  0  0  0  0
  3  5  2  0  0  0  0
  5  6  1  0  0  0  0
  5  7  1  0  0  0  0
  7  8  1  0  0  0  0
  7  9  2  0  0  0  0
  9 10  1  0  0  0  0
  9 11  1  0  0  0  0
 11  2  2  0  0  0  0
 11 12  1  0  0  0  0
  1 13  1  0  0  0  0
 13 14  1  0  0  0  0
 13 15  2  0  0  0  0
 15 16  1  0  0  0  0
 15 17  1  0  0  0  0
 17 18  1  0  0  0  0
 17 19  2  0  0  0  0
 19 20  1  0  0  0  0
 19 21  1  0  0  0  0
 21  1  2  0  0  0  0
 21 22  1  0  0  0  0
M  END
> <ChemID>
100491

> <source_casrn>
38444-93-8

> <CAS>
38444-93-8

> <SMILES>
Clc1cccc(-c2cccc(Cl)c2Cl)c1Cl

> <NAME>
2,2',3,3'-Tetrachloro-1,1'-biphenyl

> <preferred_name>
2,2',3,3'-Tetrachlorobiphenyl

> <iupac>
1,2-dichloro-3-(2,3-dichlorophenyl)benzene

> <MPID>
102093

> <dsstox_substance_id>
DTXSID3073503

> <Canonical_QSARr>
Clc1cccc(-c2cccc(Cl)c2Cl)c1Cl

> <InChI_Code_QSARr>
InChI=1S/C12H6Cl4/c13-9-5-1-3-7(11(9)15)8-4-2-6-10(14)12(8)16/h1-6H

> <InChI Key_QSARr>
VTLYHLREPCPDKX-UHFFFAOYSA-N

> <LogKmHL>
2.0

$$$$
100494
  -INDIGO-08031722222D

 22 24  0  0  0  0  0  0  0  0999 V2000
    0.0001   -0.0000    0.0000 C   0  0  0  0  0  0  0  0  0  0  0  0
   -1.3856    0.8000    0.0000 C   0  0  0  0  0  0  0  0  0  0  0  0
   -1.3856    2.4000    0.0000 H   0  0  0  0  0  0  0  0  0  0  0  0
   -2.7713   -0.0000    0.0000 C   0  0  0  0  0  0  0  0  0  0  0  0
   -4.1569    0.8000    0.0000 Cl  0  0  0  0  0  0  0  0  0  0  0  0
   -2.7713   -1.6000    0.0000 C   0  0  0  0  0  0  0  0  0  0  0  0
   -4.1569   -2.4000    0.0000 Cl  0  0  0  0  0  0  0  0  0  0  0  0
   -1.3856   -2.4000    0.0000 C   0  0  0  0  0  0  0  0  0  0  0  0
   -1.3856   -4.0000    0.0000 H   0  0  0  0  0  0  0  0  0  0  0  0
    0.0001   -1.6000    0.0000 C   0  0  0  0  0  0  0  0  0  0  0  0
    1.3857   -2.4000    0.0000 O   0  0  0  0  0  0  0  0  0  0  0  0
    2.7712   -1.6000    0.0000 C   0  0  0  0  0  0  0  0  0  0  0  0
    2.7712   -0.0000    0.0000 C   0  0  0  0  0  0  0  0  0  0  0  0
    4.1569    0.8000    0.0000 C   0  0  0  0  0  0  0  0  0  0  0  0
    4.1569    2.4000    0.0000 Cl  0  0  0  0  0  0  0  0  0  0  0  0
    5.5425   -0.0000    0.0000 C   0  0  0  0  0  0  0  0  0  0  0  0
    6.9282    0.8000    0.0000 Cl  0  0  0  0  0  0  0  0  0  0  0  0
    5.5425   -1.6000    0.0000 C   0  0  0  0  0  0  0  0  0  0  0  0
    6.9282   -2.4000    0.0000 Cl  0  0  0  0  0  0  0  0  0  0  0  0
    4.1569   -2.4000    0.0000 C   0  0  0  0  0  0  0  0  0  0  0  0
    4.1569   -4.0000    0.0000 Cl  0  0  0  0  0  0  0  0  0  0  0  0
    1.3857    0.8000    0.0000 O   0  0  0  0  0  0  0  0  0  0  0  0
  1  2  1  0  0  0  0
  2  3  1  0  0  0  0
  2  4  2  0  0  0  0
  4  5  1  0  0  0  0
  4  6  1  0  0  0  0
  6  7  1  0  0  0  0
  6  8  2  0  0  0  0
  8  9  1  0  0  0  0
  8 10  1  0  0  0  0
 10  1  2  0  0  0  0
 10 11  1  0  0  0  0
 11 12  1  0  0  0  0
 12 13  1  0  0  0  0
 13 14  2  0  0  0  0
 14 15  1  0  0  0  0
 14 16  1  0  0  0  0
 16 17  1  0  0  0  0
 16 18  2  0  0  0  0
 18 19  1  0  0  0  0
 18 20  1  0  0  0  0
 20 12  2  0  0  0  0
 20 21  1  0  0  0  0
 13 22  1  0  0  0  0
 22  1  1  0  0  0  0
M  END
> <ChemID>
100494

> <source_casrn>
39227-28-6

> <CAS>
39227-28-6

> <SMILES>
Clc1cc2Oc3c(Oc2cc1Cl)c(Cl)c(Cl)c(Cl)c3Cl

> <NAME>
1,2,3,4,7,8-Hexachlorodibenzo-p-dioxin

> <preferred_name>
1,2,3,4,7,8-Hexachlorodibenzodioxin

> <iupac>
1,2,3,4,7,8-hexachlorooxanthrene

> <MPID>
102095

> <dsstox_substance_id>
DTXSID8052067

> <Canonical_QSARr>
Clc1cc2Oc3c(Oc2cc1Cl)c(Cl)c(Cl)c(Cl)c3Cl

> <InChI_Code_QSARr>
InChI=1S/C12H2Cl6O2/c13-3-1-5-6(2-4(3)14)20-12-10(18)8(16)7(15)9(17)11(12)19-5/h1-2H

> <InChI Key_QSARr>
WCYYQNSQJHPVMG-UHFFFAOYSA-N

> <LogKmHL>
1.27

$$$$
100495
  -INDIGO-08031722222D

 22 24  0  0  0  0  0  0  0  0999 V2000
   -1.3856   -4.0000    0.0000 Cl  0  0  0  0  0  0  0  0  0  0  0  0
   -1.3856   -2.4000    0.0000 C   0  0  0  0  0  0  0  0  0  0  0  0
    0.0001   -1.6000    0.0000 C   0  0  0  0  0  0  0  0  0  0  0  0
    1.3857   -2.4000    0.0000 O   0  0  0  0  0  0  0  0  0  0  0  0
    2.7712   -1.6000    0.0000 C   0  0  0  0  0  0  0  0  0  0  0  0
    2.7712   -0.0000    0.0000 C   0  0  0  0  0  0  0  0  0  0  0  0
    1.3857    0.8000    0.0000 O   0  0  0  0  0  0  0  0  0  0  0  0
    0.0001   -0.0000    0.0000 C   0  0  0  0  0  0  0  0  0  0  0  0
   -1.3856    0.8000    0.0000 C   0  0  0  0  0  0  0  0  0  0  0  0
   -1.3856    2.4000    0.0000 Cl  0  0  0  0  0  0  0  0  0  0  0  0
   -2.7713   -0.0000    0.0000 C   0  0  0  0  0  0  0  0  0  0  0  0
   -4.1569    0.8000    0.0000 H   0  0  0  0  0  0  0  0  0  0  0  0
   -2.7713   -1.6000    0.0000 C   0  0  0  0  0  0  0  0  0  0  0  0
   -4.1569   -2.4000    0.0000 Cl  0  0  0  0  0  0  0  0  0  0  0  0
    4.1569    0.8000    0.0000 C   0  0  0  0  0  0  0  0  0  0  0  0
    4.1569    2.4000    0.0000 H   0  0  0  0  0  0  0  0  0  0  0  0
    5.5425   -0.0000    0.0000 C   0  0  0  0  0  0  0  0  0  0  0  0
    6.9282    0.8000    0.0000 H   0  0  0  0  0  0  0  0  0  0  0  0
    5.5425   -1.6000    0.0000 C   0  0  0  0  0  0  0  0  0  0  0  0
    6.9282   -2.4000    0.0000 H   0  0  0  0  0  0  0  0  0  0  0  0
    4.1569   -2.4000    0.0000 C   0  0  0  0  0  0  0  0  0  0  0  0
    4.1569   -4.0000    0.0000 H   0  0  0  0  0  0  0  0  0  0  0  0
  1  2  1  0  0  0  0
  2  3  1  0  0  0  0
  3  4  1  0  0  0  0
  4  5  1  0  0  0  0
  5  6  1  0  0  0  0
  6  7  1  0  0  0  0
  7  8  1  0  0  0  0
  8  3  2  0  0  0  0
  8  9  1  0  0  0  0
  9 10  1  0  0  0  0
  9 11  2  0  0  0  0
 11 12  1  0  0  0  0
 11 13  1  0  0  0  0
 13  2  2  0  0  0  0
 13 14  1  0  0  0  0
  6 15  2  0  0  0  0
 15 16  1  0  0  0  0
 15 17  1  0  0  0  0
 17 18  1  0  0  0  0
 17 19  2  0  0  0  0
 19 20  1  0  0  0  0
 19 21  1  0  0  0  0
 21  5  2  0  0  0  0
 21 22  1  0  0  0  0
M  END
> <ChemID>
100495

> <source_casrn>
39227-58-2

> <CAS>
39227-58-2

> <SMILES>
Clc1cc(Cl)c(Cl)c2Oc3ccccc3Oc12

> <NAME>
1,2,4-Trichlorodibenzo[b,e][1,4]dioxin

> <preferred_name>
1,2,4-Trichlorodibenzo-1,4-dioxin

> <iupac>
1,2,4-trichlorooxanthrene

> <MPID>
102096

> <dsstox_substance_id>
DTXSID50192489

> <Canonical_QSARr>
Clc1cc(Cl)c(Cl)c2Oc3ccccc3Oc12

> <InChI_Code_QSARr>
InChI=1S/C12H5Cl3O2/c13-6-5-7(14)11-12(10(6)15)17-9-4-2-1-3-8(9)16-11/h1-5H

> <InChI Key_QSARr>
HRVUKLBFRPWXPJ-UHFFFAOYSA-N

> <LogKmHL>
0.43

$$$$
100496
  -INDIGO-08031722222D

 22 23  0  0  0  0  0  0  0  0999 V2000
   -0.0001    0.0000    0.0000 C   0  0  0  0  0  0  0  0  0  0  0  0
    1.6001   -0.0000    0.0000 C   0  0  0  0  0  0  0  0  0  0  0  0
    2.4001   -1.3856    0.0000 C   0  0  0  0  0  0  0  0  0  0  0  0
    1.6001   -2.7713    0.0000 Cl  0  0  0  0  0  0  0  0  0  0  0  0
    4.0000   -1.3856    0.0000 C   0  0  0  0  0  0  0  0  0  0  0  0
    4.8000   -2.7713    0.0000 Cl  0  0  0  0  0  0  0  0  0  0  0  0
    4.8000    0.0000    0.0000 C   0  0  0  0  0  0  0  0  0  0  0  0
    6.4000    0.0000    0.0000 Cl  0  0  0  0  0  0  0  0  0  0  0  0
    4.0000    1.3856    0.0000 C   0  0  0  0  0  0  0  0  0  0  0  0
    4.8000    2.7713    0.0000 Cl  0  0  0  0  0  0  0  0  0  0  0  0
    2.4001    1.3856    0.0000 C   0  0  0  0  0  0  0  0  0  0  0  0
    1.6001    2.7713    0.0000 H   0  0  0  0  0  0  0  0  0  0  0  0
   -0.8001    1.3856    0.0000 C   0  0  0  0  0  0  0  0  0  0  0  0
   -0.0001    2.7713    0.0000 H   0  0  0  0  0  0  0  0  0  0  0  0
   -2.4000    1.3856    0.0000 C   0  0  0  0  0  0  0  0  0  0  0  0
   -3.2000    2.7713    0.0000 Cl  0  0  0  0  0  0  0  0  0  0  0  0
   -3.2000    0.0000    0.0000 C   0  0  0  0  0  0  0  0  0  0  0  0
   -4.8000   -0.0000    0.0000 Cl  0  0  0  0  0  0  0  0  0  0  0  0
   -2.4000   -1.3856    0.0000 C   0  0  0  0  0  0  0  0  0  0  0  0
   -3.2000   -2.7713    0.0000 Cl  0  0  0  0  0  0  0  0  0  0  0  0
   -0.8001   -1.3856    0.0000 C   0  0  0  0  0  0  0  0  0  0  0  0
   -0.0001   -2.7713    0.0000 H   0  0  0  0  0  0  0  0  0  0  0  0
  1  2  1  0  0  0  0
  2  3  1  0  0  0  0
  3  4  1  0  0  0  0
  3  5  2  0  0  0  0
  5  6  1  0  0  0  0
  5  7  1  0  0  0  0
  7  8  1  0  0  0  0
  7  9  2  0  0  0  0
  9 10  1  0  0  0  0
  9 11  1  0  0  0  0
 11  2  2  0  0  0  0
 11 12  1  0  0  0  0
  1 13  1  0  0  0  0
 13 14  1  0  0  0  0
 13 15  2  0  0  0  0
 15 16  1  0  0  0  0
 15 17  1  0  0  0  0
 17 18  1  0  0  0  0
 17 19  2  0  0  0  0
 19 20  1  0  0  0  0
 19 21  1  0  0  0  0
 21  1  2  0  0  0  0
 21 22  1  0  0  0  0
M  END
> <ChemID>
100496

> <source_casrn>
39635-31-9

> <CAS>
39635-31-9

> <SMILES>
Clc1c(cc(Cl)c(Cl)c1Cl)-c1cc(Cl)c(Cl)c(Cl)c1

> <NAME>
2,3,3',4,4',5,5'-heptachlorobiphenyl

> <preferred_name>
2,3,3',4,4',5,5'-Heptachlorobiphenyl

> <iupac>
1,2,3,4-tetrachloro-5-(3,4,5-trichlorophenyl)benzene

> <MPID>
102097

> <dsstox_substance_id>
DTXSID4074144

> <Canonical_QSARr>
Clc1c(cc(Cl)c(Cl)c1Cl)-c1cc(Cl)c(Cl)c(Cl)c1

> <InChI_Code_QSARr>
InChI=1S/C12H3Cl7/c13-6-1-4(2-7(14)10(6)17)5-3-8(15)11(18)12(19)9(5)16/h1-3H

> <InChI Key_QSARr>
XUAWBXBYHDRROL-UHFFFAOYSA-N

> <LogKmHL>
2.32

$$$$
100498
  -INDIGO-08031722222D

 22 23  0  0  0  0  0  0  0  0999 V2000
   -2.4000    1.3856    0.0000 C   0  0  0  0  0  0  0  0  0  0  0  0
   -0.8001    1.3856    0.0000 C   0  0  0  0  0  0  0  0  0  0  0  0
   -0.0001    2.7713    0.0000 Cl  0  0  0  0  0  0  0  0  0  0  0  0
   -0.0001   -0.0000    0.0000 C   0  0  0  0  0  0  0  0  0  0  0  0
    1.6001    0.0000    0.0000 C   0  0  0  0  0  0  0  0  0  0  0  0
    2.4001    1.3856    0.0000 C   0  0  0  0  0  0  0  0  0  0  0  0
    1.6001    2.7713    0.0000 H   0  0  0  0  0  0  0  0  0  0  0  0
    4.0000    1.3856    0.0000 C   0  0  0  0  0  0  0  0  0  0  0  0
    4.8000    2.7713    0.0000 Cl  0  0  0  0  0  0  0  0  0  0  0  0
    4.8000    0.0000    0.0000 C   0  0  0  0  0  0  0  0  0  0  0  0
    6.4000    0.0000    0.0000 Cl  0  0  0  0  0  0  0  0  0  0  0  0
    4.0000   -1.3856    0.0000 C   0  0  0  0  0  0  0  0  0  0  0  0
    4.8000   -2.7713    0.0000 Cl  0  0  0  0  0  0  0  0  0  0  0  0
    2.4001   -1.3856    0.0000 C   0  0  0  0  0  0  0  0  0  0  0  0
    1.6001   -2.7713    0.0000 Cl  0  0  0  0  0  0  0  0  0  0  0  0
   -0.8001   -1.3856    0.0000 C   0  0  0  0  0  0  0  0  0  0  0  0
   -0.0001   -2.7713    0.0000 Cl  0  0  0  0  0  0  0  0  0  0  0  0
   -2.4000   -1.3856    0.0000 C   0  0  0  0  0  0  0  0  0  0  0  0
   -3.2000   -2.7713    0.0000 Cl  0  0  0  0  0  0  0  0  0  0  0  0
   -3.2000   -0.0000    0.0000 C   0  0  0  0  0  0  0  0  0  0  0  0
   -4.8000   -0.0000    0.0000 Cl  0  0  0  0  0  0  0  0  0  0  0  0
   -3.2000    2.7713    0.0000 Cl  0  0  0  0  0  0  0  0  0  0  0  0
  1  2  1  0  0  0  0
  2  3  1  0  0  0  0
  2  4  2  0  0  0  0
  4  5  1  0  0  0  0
  5  6  1  0  0  0  0
  6  7  1  0  0  0  0
  6  8  2  0  0  0  0
  8  9  1  0  0  0  0
  8 10  1  0  0  0  0
 10 11  1  0  0  0  0
 10 12  2  0  0  0  0
 12 13  1  0  0  0  0
 12 14  1  0  0  0  0
 14  5  2  0  0  0  0
 14 15  1  0  0  0  0
  4 16  1  0  0  0  0
 16 17  1  0  0  0  0
 16 18  2  0  0  0  0
 18 19  1  0  0  0  0
 18 20  1  0  0  0  0
 20  1  2  0  0  0  0
 20 21  1  0  0  0  0
  1 22  1  0  0  0  0
M  END
> <ChemID>
100498

> <source_casrn>
40186-72-9

> <CAS>
40186-72-9

> <SMILES>
Clc1c(Cl)c(Cl)c(Cl)c(Cl)c1c2c(Cl)c(Cl)c(Cl)c(Cl)c2

> <NAME>
2,2',3,3',4,4',5,5',6-Nonachloro-1,1'-biphenyl

> <preferred_name>


> <iupac>


> <MPID>
102099

> <dsstox_substance_id>
DTXSID50865989

> <Canonical_QSARr>
Clc1cc(-c2c(Cl)c(Cl)c(Cl)c(Cl)c2Cl)c(Cl)c(Cl)c1Cl

> <InChI_Code_QSARr>
InChI=1S/C12HCl9/c13-3-1-2(5(14)9(18)6(3)15)4-7(16)10(19)12(21)11(20)8(4)17/h1H

> <InChI Key_QSARr>
JFIMDKGRGPNPRQ-UHFFFAOYSA-N

> <LogKmHL>
2.68

$$$$
100499
  -INDIGO-08031722222D

 22 24  0  0  0  0  0  0  0  0999 V2000
    0.0001   -0.0000    0.0000 C   0  0  0  0  0  0  0  0  0  0  0  0
   -1.3856    0.8000    0.0000 C   0  0  0  0  0  0  0  0  0  0  0  0
   -1.3856    2.4000    0.0000 H   0  0  0  0  0  0  0  0  0  0  0  0
   -2.7713   -0.0000    0.0000 C   0  0  0  0  0  0  0  0  0  0  0  0
   -4.1569    0.8000    0.0000 Cl  0  0  0  0  0  0  0  0  0  0  0  0
   -2.7713   -1.6000    0.0000 C   0  0  0  0  0  0  0  0  0  0  0  0
   -4.1569   -2.4000    0.0000 Cl  0  0  0  0  0  0  0  0  0  0  0  0
   -1.3856   -2.4000    0.0000 C   0  0  0  0  0  0  0  0  0  0  0  0
   -1.3856   -4.0000    0.0000 H   0  0  0  0  0  0  0  0  0  0  0  0
    0.0001   -1.6000    0.0000 C   0  0  0  0  0  0  0  0  0  0  0  0
    1.3857   -2.4000    0.0000 O   0  0  0  0  0  0  0  0  0  0  0  0
    2.7712   -1.6000    0.0000 C   0  0  0  0  0  0  0  0  0  0  0  0
    2.7712   -0.0000    0.0000 C   0  0  0  0  0  0  0  0  0  0  0  0
    4.1569    0.8000    0.0000 C   0  0  0  0  0  0  0  0  0  0  0  0
    4.1569    2.4000    0.0000 Cl  0  0  0  0  0  0  0  0  0  0  0  0
    5.5425   -0.0000    0.0000 C   0  0  0  0  0  0  0  0  0  0  0  0
    6.9282    0.8000    0.0000 Cl  0  0  0  0  0  0  0  0  0  0  0  0
    5.5425   -1.6000    0.0000 C   0  0  0  0  0  0  0  0  0  0  0  0
    6.9282   -2.4000    0.0000 Cl  0  0  0  0  0  0  0  0  0  0  0  0
    4.1569   -2.4000    0.0000 C   0  0  0  0  0  0  0  0  0  0  0  0
    4.1569   -4.0000    0.0000 H   0  0  0  0  0  0  0  0  0  0  0  0
    1.3857    0.8000    0.0000 O   0  0  0  0  0  0  0  0  0  0  0  0
  1  2  1  0  0  0  0
  2  3  1  0  0  0  0
  2  4  2  0  0  0  0
  4  5  1  0  0  0  0
  4  6  1  0  0  0  0
  6  7  1  0  0  0  0
  6  8  2  0  0  0  0
  8  9  1  0  0  0  0
  8 10  1  0  0  0  0
 10  1  2  0  0  0  0
 10 11  1  0  0  0  0
 11 12  1  0  0  0  0
 12 13  1  0  0  0  0
 13 14  2  0  0  0  0
 14 15  1  0  0  0  0
 14 16  1  0  0  0  0
 16 17  1  0  0  0  0
 16 18  2  0  0  0  0
 18 19  1  0  0  0  0
 18 20  1  0  0  0  0
 20 12  2  0  0  0  0
 20 21  1  0  0  0  0
 13 22  1  0  0  0  0
 22  1  1  0  0  0  0
M  END
> <ChemID>
100499

> <source_casrn>
40321-76-4

> <CAS>
40321-76-4

> <SMILES>
Clc1c(Cl)c2Oc3cc(Cl)c(Cl)cc3Oc2cc1Cl

> <NAME>
1,2,3,7,8-Pentachlorodibenzo-p-dioxin

> <preferred_name>
1,2,3,7,8-Pentachlorodibenzo-p-dioxin

> <iupac>
1,2,3,7,8-pentachlorooxanthrene

> <MPID>
102100

> <dsstox_substance_id>
DTXSID7052078

> <Canonical_QSARr>
Clc1c(Cl)c2Oc3cc(Cl)c(Cl)cc3Oc2cc1Cl

> <InChI_Code_QSARr>
InChI=1S/C12H3Cl5O2/c13-4-1-7-8(2-5(4)14)19-12-9(18-7)3-6(15)10(16)11(12)17/h1-3H

> <InChI Key_QSARr>
FSPZPQQWDODWAU-UHFFFAOYSA-N

> <LogKmHL>
1.56

$$$$
100501
  -INDIGO-08031722222D

 41 42  0  0  0  0  0  0  0  0999 V2000
    3.1999    2.7713    0.0000 C   0  0  0  0  0  0  0  0  0  0  0  0
    4.0001    4.1569    0.0000 H   0  0  0  0  0  0  0  0  0  0  0  0
    4.8000    2.7713    0.0000 H   0  0  0  0  0  0  0  0  0  0  0  0
    2.4001    4.1569    0.0000 H   0  0  0  0  0  0  0  0  0  0  0  0
    2.4001    1.3856    0.0000 C   0  0  0  0  0  0  0  0  0  0  0  0
    3.6693    0.4116    0.0000 H   0  0  0  0  0  0  0  0  0  0  0  0
    2.6088   -0.2006    0.0000 H   0  0  0  0  0  0  0  0  0  0  0  0
    0.8000    1.3856    0.0000 C   0  0  0  0  0  0  0  0  0  0  0  0
   -0.4692    2.3597    0.0000 H   0  0  0  0  0  0  0  0  0  0  0  0
    0.5913    2.9719    0.0000 H   0  0  0  0  0  0  0  0  0  0  0  0
    0.0001    0.0001    0.0000 C   0  0  0  0  0  0  0  0  0  0  0  0
    1.2694   -0.9740    0.0000 H   0  0  0  0  0  0  0  0  0  0  0  0
    0.2089   -1.5863    0.0000 H   0  0  0  0  0  0  0  0  0  0  0  0
   -1.5999    0.0001    0.0000 C   0  0  0  0  0  0  0  0  0  0  0  0
   -2.8695    0.9740    0.0000 H   0  0  0  0  0  0  0  0  0  0  0  0
   -1.8090    1.5863    0.0000 H   0  0  0  0  0  0  0  0  0  0  0  0
   -2.4001   -1.3856    0.0000 C   0  0  0  0  0  0  0  0  0  0  0  0
   -1.1306   -2.3597    0.0000 H   0  0  0  0  0  0  0  0  0  0  0  0
   -2.1911   -2.9719    0.0000 H   0  0  0  0  0  0  0  0  0  0  0  0
   -3.9999   -1.3856    0.0000 C   0  0  0  0  0  0  0  0  0  0  0  0
   -4.8001    0.0001    0.0000 C   0  0  0  0  0  0  0  0  0  0  0  0
   -3.9999    1.3856    0.0000 H   0  0  0  0  0  0  0  0  0  0  0  0
   -6.4001    0.0001    0.0000 C   0  0  0  0  0  0  0  0  0  0  0  0
   -7.2000    1.3856    0.0000 H   0  0  0  0  0  0  0  0  0  0  0  0
   -7.2000   -1.3856    0.0000 C   0  0  0  0  0  0  0  0  0  0  0  0
   -8.8001   -1.3856    0.0000 C   0  0  0  0  0  0  0  0  0  0  0  0
   -9.5999    0.0001    0.0000 C   0  0  0  0  0  0  0  0  0  0  0  0
   -8.8001    1.3856    0.0000 H   0  0  0  0  0  0  0  0  0  0  0  0
  -11.2000    0.0001    0.0000 C   0  0  0  0  0  0  0  0  0  0  0  0
  -11.9999    1.3856    0.0000 H   0  0  0  0  0  0  0  0  0  0  0  0
  -11.9999   -1.3856    0.0000 C   0  0  0  0  0  0  0  0  0  0  0  0
  -13.5999   -1.3856    0.0000 C   0  0  0  0  0  0  0  0  0  0  0  0
  -15.2000   -1.3856    0.0000 N   0  0  0  0  0  0  0  0  0  0  0  0
  -11.2000   -2.7712    0.0000 C   0  0  0  0  0  0  0  0  0  0  0  0
  -11.9999   -4.1569    0.0000 H   0  0  0  0  0  0  0  0  0  0  0  0
   -9.5999   -2.7712    0.0000 C   0  0  0  0  0  0  0  0  0  0  0  0
   -8.8001   -4.1569    0.0000 H   0  0  0  0  0  0  0  0  0  0  0  0
   -6.4001   -2.7712    0.0000 C   0  0  0  0  0  0  0  0  0  0  0  0
   -7.2000   -4.1569    0.0000 H   0  0  0  0  0  0  0  0  0  0  0  0
   -4.8001   -2.7712    0.0000 C   0  0  0  0  0  0  0  0  0  0  0  0
   -3.9999   -4.1569    0.0000 H   0  0  0  0  0  0  0  0  0  0  0  0
  1  2  1  0  0  0  0
  1  3  1  0  0  0  0
  1  4  1  0  0  0  0
  1  5  1  0  0  0  0
  5  6  1  0  0  0  0
  5  7  1  0  0  0  0
  5  8  1  0  0  0  0
  8  9  1  0  0  0  0
  8 10  1  0  0  0  0
  8 11  1  0  0  0  0
 11 12  1  0  0  0  0
 11 13  1  0  0  0  0
 11 14  1  0  0  0  0
 14 15  1  0  0  0  0
 14 16  1  0  0  0  0
 14 17  1  0  0  0  0
 17 18  1  0  0  0  0
 17 19  1  0  0  0  0
 17 20  1  0  0  0  0
 20 21  1  0  0  0  0
 21 22  1  0  0  0  0
 21 23  2  0  0  0  0
 23 24  1  0  0  0  0
 23 25  1  0  0  0  0
 25 26  1  0  0  0  0
 26 27  1  0  0  0  0
 27 28  1  0  0  0  0
 27 29  2  0  0  0  0
 29 30  1  0  0  0  0
 29 31  1  0  0  0  0
 31 32  1  0  0  0  0
 32 33  3  0  0  0  0
 31 34  2  0  0  0  0
 34 35  1  0  0  0  0
 34 36  1  0  0  0  0
 36 26  2  0  0  0  0
 36 37  1  0  0  0  0
 25 38  2  0  0  0  0
 38 39  1  0  0  0  0
 38 40  1  0  0  0  0
 40 20  2  0  0  0  0
 40 41  1  0  0  0  0
M  END
> <ChemID>
100501

> <source_casrn>
41122-70-7

> <CAS>
41122-70-7

> <SMILES>
CCCCCCc1ccc(cc1)-c1ccc(cc1)C#N

> <NAME>
4'-n-hexyl-4-cyanobiphenyl

> <preferred_name>
4-Hexyl-4'-cyanobiphenyl

> <iupac>
4'-hexylbiphenyl-4-carbonitrile

> <MPID>
102101

> <dsstox_substance_id>
DTXSID4025404

> <Canonical_QSARr>
CCCCCCc1ccc(cc1)-c1ccc(cc1)C#N

> <InChI_Code_QSARr>
InChI=1S/C19H21N/c1-2-3-4-5-6-16-7-11-18(12-8-16)19-13-9-17(15-20)10-14-19/h7-14H,2-6H2,1H3

> <InChI Key_QSARr>
VADSDVGLFDVIMG-UHFFFAOYSA-N

> <LogKmHL>
0.85

$$$$
100503
  -INDIGO-08031722222D

 22 23  0  0  0  0  0  0  0  0999 V2000
   -0.0001    0.0000    0.0000 C   0  0  0  0  0  0  0  0  0  0  0  0
    1.6001   -0.0000    0.0000 C   0  0  0  0  0  0  0  0  0  0  0  0
    2.4001   -1.3856    0.0000 C   0  0  0  0  0  0  0  0  0  0  0  0
    1.6001   -2.7713    0.0000 Cl  0  0  0  0  0  0  0  0  0  0  0  0
    4.0000   -1.3856    0.0000 C   0  0  0  0  0  0  0  0  0  0  0  0
    4.8000   -2.7713    0.0000 H   0  0  0  0  0  0  0  0  0  0  0  0
    4.8000    0.0000    0.0000 C   0  0  0  0  0  0  0  0  0  0  0  0
    6.4000    0.0000    0.0000 H   0  0  0  0  0  0  0  0  0  0  0  0
    4.0000    1.3856    0.0000 C   0  0  0  0  0  0  0  0  0  0  0  0
    4.8000    2.7713    0.0000 Cl  0  0  0  0  0  0  0  0  0  0  0  0
    2.4001    1.3856    0.0000 C   0  0  0  0  0  0  0  0  0  0  0  0
    1.6001    2.7713    0.0000 H   0  0  0  0  0  0  0  0  0  0  0  0
   -0.8001    1.3856    0.0000 C   0  0  0  0  0  0  0  0  0  0  0  0
   -0.0001    2.7713    0.0000 Cl  0  0  0  0  0  0  0  0  0  0  0  0
   -2.4000    1.3856    0.0000 C   0  0  0  0  0  0  0  0  0  0  0  0
   -3.2000    2.7713    0.0000 Cl  0  0  0  0  0  0  0  0  0  0  0  0
   -3.2000    0.0000    0.0000 C   0  0  0  0  0  0  0  0  0  0  0  0
   -4.8000   -0.0000    0.0000 H   0  0  0  0  0  0  0  0  0  0  0  0
   -2.4000   -1.3856    0.0000 C   0  0  0  0  0  0  0  0  0  0  0  0
   -3.2000   -2.7713    0.0000 H   0  0  0  0  0  0  0  0  0  0  0  0
   -0.8001   -1.3856    0.0000 C   0  0  0  0  0  0  0  0  0  0  0  0
   -0.0001   -2.7713    0.0000 H   0  0  0  0  0  0  0  0  0  0  0  0
  1  2  1  0  0  0  0
  2  3  1  0  0  0  0
  3  4  1  0  0  0  0
  3  5  2  0  0  0  0
  5  6  1  0  0  0  0
  5  7  1  0  0  0  0
  7  8  1  0  0  0  0
  7  9  2  0  0  0  0
  9 10  1  0  0  0  0
  9 11  1  0  0  0  0
 11  2  2  0  0  0  0
 11 12  1  0  0  0  0
  1 13  1  0  0  0  0
 13 14  1  0  0  0  0
 13 15  2  0  0  0  0
 15 16  1  0  0  0  0
 15 17  1  0  0  0  0
 17 18  1  0  0  0  0
 17 19  2  0  0  0  0
 19 20  1  0  0  0  0
 19 21  1  0  0  0  0
 21  1  2  0  0  0  0
 21 22  1  0  0  0  0
M  END
> <ChemID>
100503

> <source_casrn>
41464-39-5

> <CAS>
41464-39-5

> <SMILES>
Clc1cc(-c2cccc(Cl)c2Cl)c(Cl)cc1

> <NAME>
2,2',3,5'-Tetrachloro-1,1'-biphenyl

> <preferred_name>
2,2',3,5'-tetrachlorobiphenyl

> <iupac>
2,2',3,5'-tetrachlorobiphenyl

> <MPID>
102103

> <dsstox_substance_id>
DTXSID8038302

> <Canonical_QSARr>
Clc1cc(-c2cccc(Cl)c2Cl)c(Cl)cc1

> <InChI_Code_QSARr>
InChI=1S/C12H6Cl4/c13-7-4-5-10(14)9(6-7)8-2-1-3-11(15)12(8)16/h1-6H

> <InChI Key_QSARr>
ALDJIKXAHSDLLB-UHFFFAOYSA-N

> <LogKmHL>
2.33

$$$$
100504
  -INDIGO-08031722222D

 22 23  0  0  0  0  0  0  0  0999 V2000
   -0.0001    0.0000    0.0000 C   0  0  0  0  0  0  0  0  0  0  0  0
    1.6001   -0.0000    0.0000 C   0  0  0  0  0  0  0  0  0  0  0  0
    2.4001   -1.3856    0.0000 C   0  0  0  0  0  0  0  0  0  0  0  0
    1.6001   -2.7713    0.0000 H   0  0  0  0  0  0  0  0  0  0  0  0
    4.0000   -1.3856    0.0000 C   0  0  0  0  0  0  0  0  0  0  0  0
    4.8000   -2.7713    0.0000 Cl  0  0  0  0  0  0  0  0  0  0  0  0
    4.8000    0.0000    0.0000 C   0  0  0  0  0  0  0  0  0  0  0  0
    6.4000    0.0000    0.0000 Cl  0  0  0  0  0  0  0  0  0  0  0  0
    4.0000    1.3856    0.0000 C   0  0  0  0  0  0  0  0  0  0  0  0
    4.8000    2.7713    0.0000 H   0  0  0  0  0  0  0  0  0  0  0  0
    2.4001    1.3856    0.0000 C   0  0  0  0  0  0  0  0  0  0  0  0
    1.6001    2.7713    0.0000 H   0  0  0  0  0  0  0  0  0  0  0  0
   -0.8001    1.3856    0.0000 C   0  0  0  0  0  0  0  0  0  0  0  0
   -0.0001    2.7713    0.0000 Cl  0  0  0  0  0  0  0  0  0  0  0  0
   -2.4000    1.3856    0.0000 C   0  0  0  0  0  0  0  0  0  0  0  0
   -3.2000    2.7713    0.0000 Cl  0  0  0  0  0  0  0  0  0  0  0  0
   -3.2000    0.0000    0.0000 C   0  0  0  0  0  0  0  0  0  0  0  0
   -4.8000   -0.0000    0.0000 H   0  0  0  0  0  0  0  0  0  0  0  0
   -2.4000   -1.3856    0.0000 C   0  0  0  0  0  0  0  0  0  0  0  0
   -3.2000   -2.7713    0.0000 H   0  0  0  0  0  0  0  0  0  0  0  0
   -0.8001   -1.3856    0.0000 C   0  0  0  0  0  0  0  0  0  0  0  0
   -0.0001   -2.7713    0.0000 H   0  0  0  0  0  0  0  0  0  0  0  0
  1  2  1  0  0  0  0
  2  3  1  0  0  0  0
  3  4  1  0  0  0  0
  3  5  2  0  0  0  0
  5  6  1  0  0  0  0
  5  7  1  0  0  0  0
  7  8  1  0  0  0  0
  7  9  2  0  0  0  0
  9 10  1  0  0  0  0
  9 11  1  0  0  0  0
 11  2  2  0  0  0  0
 11 12  1  0  0  0  0
  1 13  1  0  0  0  0
 13 14  1  0  0  0  0
 13 15  2  0  0  0  0
 15 16  1  0  0  0  0
 15 17  1  0  0  0  0
 17 18  1  0  0  0  0
 17 19  2  0  0  0  0
 19 20  1  0  0  0  0
 19 21  1  0  0  0  0
 21  1  2  0  0  0  0
 21 22  1  0  0  0  0
M  END
> <ChemID>
100504

> <source_casrn>
41464-43-1

> <CAS>
41464-43-1

> <SMILES>
Clc1cc(ccc1Cl)-c1cccc(Cl)c1Cl

> <NAME>
2,3,3',4'-tetrachlorobiphenyl

> <preferred_name>
2,3,3',4'-Tetrachlorobiphenyl

> <iupac>
1,2-dichloro-4-(2,3-dichlorophenyl)benzene

> <MPID>
102104

> <dsstox_substance_id>
DTXSID3074153

> <Canonical_QSARr>
Clc1cc(ccc1Cl)-c1cccc(Cl)c1Cl

> <InChI_Code_QSARr>
InChI=1S/C12H6Cl4/c13-9-5-4-7(6-11(9)15)8-2-1-3-10(14)12(8)16/h1-6H

> <InChI Key_QSARr>
UNCGJRRROFURDV-UHFFFAOYSA-N

> <LogKmHL>
2.47

$$$$
100505
  -INDIGO-08031722222D

 22 23  0  0  0  0  0  0  0  0999 V2000
   -0.0001    0.0000    0.0000 C   0  0  0  0  0  0  0  0  0  0  0  0
    1.6001   -0.0000    0.0000 C   0  0  0  0  0  0  0  0  0  0  0  0
    2.4001   -1.3856    0.0000 C   0  0  0  0  0  0  0  0  0  0  0  0
    1.6001   -2.7713    0.0000 Cl  0  0  0  0  0  0  0  0  0  0  0  0
    4.0000   -1.3856    0.0000 C   0  0  0  0  0  0  0  0  0  0  0  0
    4.8000   -2.7713    0.0000 H   0  0  0  0  0  0  0  0  0  0  0  0
    4.8000    0.0000    0.0000 C   0  0  0  0  0  0  0  0  0  0  0  0
    6.4000    0.0000    0.0000 H   0  0  0  0  0  0  0  0  0  0  0  0
    4.0000    1.3856    0.0000 C   0  0  0  0  0  0  0  0  0  0  0  0
    4.8000    2.7713    0.0000 H   0  0  0  0  0  0  0  0  0  0  0  0
    2.4001    1.3856    0.0000 C   0  0  0  0  0  0  0  0  0  0  0  0
    1.6001    2.7713    0.0000 Cl  0  0  0  0  0  0  0  0  0  0  0  0
   -0.8001    1.3856    0.0000 C   0  0  0  0  0  0  0  0  0  0  0  0
   -0.0001    2.7713    0.0000 Cl  0  0  0  0  0  0  0  0  0  0  0  0
   -2.4000    1.3856    0.0000 C   0  0  0  0  0  0  0  0  0  0  0  0
   -3.2000    2.7713    0.0000 Cl  0  0  0  0  0  0  0  0  0  0  0  0
   -3.2000    0.0000    0.0000 C   0  0  0  0  0  0  0  0  0  0  0  0
   -4.8000   -0.0000    0.0000 H   0  0  0  0  0  0  0  0  0  0  0  0
   -2.4000   -1.3856    0.0000 C   0  0  0  0  0  0  0  0  0  0  0  0
   -3.2000   -2.7713    0.0000 H   0  0  0  0  0  0  0  0  0  0  0  0
   -0.8001   -1.3856    0.0000 C   0  0  0  0  0  0  0  0  0  0  0  0
   -0.0001   -2.7713    0.0000 H   0  0  0  0  0  0  0  0  0  0  0  0
  1  2  1  0  0  0  0
  2  3  1  0  0  0  0
  3  4  1  0  0  0  0
  3  5  2  0  0  0  0
  5  6  1  0  0  0  0
  5  7  1  0  0  0  0
  7  8  1  0  0  0  0
  7  9  2  0  0  0  0
  9 10  1  0  0  0  0
  9 11  1  0  0  0  0
 11  2  2  0  0  0  0
 11 12  1  0  0  0  0
  1 13  1  0  0  0  0
 13 14  1  0  0  0  0
 13 15  2  0  0  0  0
 15 16  1  0  0  0  0
 15 17  1  0  0  0  0
 17 18  1  0  0  0  0
 17 19  2  0  0  0  0
 19 20  1  0  0  0  0
 19 21  1  0  0  0  0
 21  1  2  0  0  0  0
 21 22  1  0  0  0  0
M  END
> <ChemID>
100505

> <source_casrn>
41464-47-5

> <CAS>
41464-47-5

> <SMILES>
Clc(ccc1)c(Cl)c1c(c(Cl)cc2)c(Cl)c2

> <NAME>
2,2',3,6'-tetrachlorobiphenyl

> <preferred_name>


> <iupac>


> <MPID>
102105

> <dsstox_substance_id>
DTXSID40866046

> <Canonical_QSARr>
Clc1c(cccc1Cl)-c1c(Cl)cccc1Cl

> <InChI_Code_QSARr>
InChI=1S/C12H6Cl4/c13-8-4-2-5-9(14)11(8)7-3-1-6-10(15)12(7)16/h1-6H

> <InChI Key_QSARr>
CUGLICQCTXWQNF-UHFFFAOYSA-N

> <LogKmHL>
2.18

$$$$
100509
  -INDIGO-08031722222D

 21 23  0  0  0  0  0  0  0  0999 V2000
   -1.7322    1.9239    0.0000 C   0  0  0  0  0  0  0  0  0  0  0  0
   -3.1939    2.5747    0.0000 C   0  0  0  0  0  0  0  0  0  0  0  0
   -3.3612    4.1659    0.0000 H   0  0  0  0  0  0  0  0  0  0  0  0
   -4.4883    1.6342    0.0000 C   0  0  0  0  0  0  0  0  0  0  0  0
   -5.9501    2.2850    0.0000 Cl  0  0  0  0  0  0  0  0  0  0  0  0
   -4.3212    0.0430    0.0000 C   0  0  0  0  0  0  0  0  0  0  0  0
   -5.6156   -0.8974    0.0000 Cl  0  0  0  0  0  0  0  0  0  0  0  0
   -2.8595   -0.6078    0.0000 C   0  0  0  0  0  0  0  0  0  0  0  0
   -2.6921   -2.1990    0.0000 H   0  0  0  0  0  0  0  0  0  0  0  0
   -1.5651    0.3327    0.0000 C   0  0  0  0  0  0  0  0  0  0  0  0
    0.0000    0.0000    0.0000 C   0  0  0  0  0  0  0  0  0  0  0  0
    0.8000    1.3856    0.0000 C   0  0  0  0  0  0  0  0  0  0  0  0
    2.4000    1.3856    0.0000 C   0  0  0  0  0  0  0  0  0  0  0  0
    3.2000    2.7713    0.0000 H   0  0  0  0  0  0  0  0  0  0  0  0
    3.2000    0.0000    0.0000 C   0  0  0  0  0  0  0  0  0  0  0  0
    4.8000    0.0000    0.0000 Cl  0  0  0  0  0  0  0  0  0  0  0  0
    2.4000   -1.3856    0.0000 C   0  0  0  0  0  0  0  0  0  0  0  0
    3.2000   -2.7713    0.0000 Cl  0  0  0  0  0  0  0  0  0  0  0  0
    0.8000   -1.3856    0.0000 C   0  0  0  0  0  0  0  0  0  0  0  0
    0.0000   -2.7713    0.0000 H   0  0  0  0  0  0  0  0  0  0  0  0
   -0.2707    2.5747    0.0000 O   0  0  0  0  0  0  0  0  0  0  0  0
  1  2  1  0  0  0  0
  2  3  1  0  0  0  0
  2  4  2  0  0  0  0
  4  5  1  0  0  0  0
  4  6  1  0  0  0  0
  6  7  1  0  0  0  0
  6  8  2  0  0  0  0
  8  9  1  0  0  0  0
  8 10  1  0  0  0  0
 10  1  2  0  0  0  0
 10 11  1  0  0  0  0
 11 12  1  0  0  0  0
 12 13  2  0  0  0  0
 13 14  1  0  0  0  0
 13 15  1  0  0  0  0
 15 16  1  0  0  0  0
 15 17  2  0  0  0  0
 17 18  1  0  0  0  0
 17 19  1  0  0  0  0
 19 11  2  0  0  0  0
 19 20  1  0  0  0  0
 12 21  1  0  0  0  0
 21  1  1  0  0  0  0
M  END
> <ChemID>
100509

> <source_casrn>
51207-31-9

> <CAS>
51207-31-9

> <SMILES>
Clc1cc2c(cc1Cl)oc1cc(Cl)c(Cl)cc21

> <NAME>
2,3,7,8-tetrachlorodibenzofuran

> <preferred_name>
2,3,7,8-Tetrachlorodibenzofuran

> <iupac>
2,3,7,8-tetrachlorodibenzo[b,d]furan

> <MPID>
102107

> <dsstox_substance_id>
DTXSID3052147

> <Canonical_QSARr>
Clc1cc2c(cc1Cl)oc1cc(Cl)c(Cl)cc21

> <InChI_Code_QSARr>
InChI=1S/C12H4Cl4O/c13-7-1-5-6-2-8(14)10(16)4-12(6)17-11(5)3-9(7)15/h1-4H

> <InChI Key_QSARr>
KSMVNVHUTQZITP-UHFFFAOYSA-N

> <LogKmHL>
0.56

$$$$
100510
  -INDIGO-08031722222D

 52 54  0  0  0  0  0  0  0  0999 V2000
   -2.8893    0.2528    0.0000 O   0  0  0  0  0  0  0  0  0  0  0  0
   -1.5035   -0.5473    0.0000 C   0  0  0  0  0  0  0  0  0  0  0  0
    0.0001    0.0001    0.0000 C   0  0  0  0  0  0  0  0  0  0  0  0
    0.0001   -1.6001    0.0000 H   0  0  0  0  0  0  0  0  0  0  0  0
    1.5756   -0.2778    0.0000 C   0  0  0  0  0  0  0  0  0  0  0  0
    2.6041    0.9479    0.0000 C   0  0  0  0  0  0  0  0  0  0  0  0
    2.0568    2.4513    0.0000 H   0  0  0  0  0  0  0  0  0  0  0  0
    4.1799    0.6700    0.0000 C   0  0  0  0  0  0  0  0  0  0  0  0
    5.2085    1.8956    0.0000 H   0  0  0  0  0  0  0  0  0  0  0  0
    4.7269   -0.8336    0.0000 C   0  0  0  0  0  0  0  0  0  0  0  0
    6.3028   -1.1114    0.0000 Cl  0  0  0  0  0  0  0  0  0  0  0  0
    3.6988   -2.0591    0.0000 C   0  0  0  0  0  0  0  0  0  0  0  0
    4.2458   -3.5627    0.0000 H   0  0  0  0  0  0  0  0  0  0  0  0
    2.1229   -1.7814    0.0000 C   0  0  0  0  0  0  0  0  0  0  0  0
    1.0944   -3.0070    0.0000 H   0  0  0  0  0  0  0  0  0  0  0  0
    0.0001    1.6000    0.0000 C   0  0  0  0  0  0  0  0  0  0  0  0
    1.6000    1.6000    0.0000 H   0  0  0  0  0  0  0  0  0  0  0  0
    0.2778    3.1757    0.0000 C   0  0  0  0  0  0  0  0  0  0  0  0
    0.5558    4.7514    0.0000 H   0  0  0  0  0  0  0  0  0  0  0  0
   -0.9478    4.2042    0.0000 H   0  0  0  0  0  0  0  0  0  0  0  0
    1.7814    3.7229    0.0000 H   0  0  0  0  0  0  0  0  0  0  0  0
   -1.6001    1.6000    0.0000 C   0  0  0  0  0  0  0  0  0  0  0  0
   -2.4001    2.9857    0.0000 H   0  0  0  0  0  0  0  0  0  0  0  0
   -3.2000    1.6000    0.0000 H   0  0  0  0  0  0  0  0  0  0  0  0
   -0.7999    2.9857    0.0000 H   0  0  0  0  0  0  0  0  0  0  0  0
   -1.5035   -2.1472    0.0000 O   0  0  0  0  0  0  0  0  0  0  0  0
   -2.8893   -2.9473    0.0000 C   0  0  0  0  0  0  0  0  0  0  0  0
   -2.8893   -1.3472    0.0000 H   0  0  0  0  0  0  0  0  0  0  0  0
   -4.2748   -3.7471    0.0000 C   0  0  0  0  0  0  0  0  0  0  0  0
   -4.2748   -5.3473    0.0000 C   0  0  0  0  0  0  0  0  0  0  0  0
   -2.8893   -6.1473    0.0000 H   0  0  0  0  0  0  0  0  0  0  0  0
   -5.6606   -6.1473    0.0000 C   0  0  0  0  0  0  0  0  0  0  0  0
   -5.6606   -7.7472    0.0000 H   0  0  0  0  0  0  0  0  0  0  0  0
   -7.0460   -5.3473    0.0000 C   0  0  0  0  0  0  0  0  0  0  0  0
   -8.4318   -6.1473    0.0000 H   0  0  0  0  0  0  0  0  0  0  0  0
   -7.0460   -3.7471    0.0000 C   0  0  0  0  0  0  0  0  0  0  0  0
   -8.4318   -2.9473    0.0000 O   0  0  0  0  0  0  0  0  0  0  0  0
  -10.0073   -3.2251    0.0000 C   0  0  0  0  0  0  0  0  0  0  0  0
  -10.5546   -4.7286    0.0000 C   0  0  0  0  0  0  0  0  0  0  0  0
   -9.5261   -5.9543    0.0000 H   0  0  0  0  0  0  0  0  0  0  0  0
  -12.1305   -5.0064    0.0000 C   0  0  0  0  0  0  0  0  0  0  0  0
  -12.6775   -6.5099    0.0000 H   0  0  0  0  0  0  0  0  0  0  0  0
  -13.1587   -3.7807    0.0000 C   0  0  0  0  0  0  0  0  0  0  0  0
  -14.7345   -4.0586    0.0000 H   0  0  0  0  0  0  0  0  0  0  0  0
  -12.6117   -2.2773    0.0000 C   0  0  0  0  0  0  0  0  0  0  0  0
  -13.6402   -1.0516    0.0000 H   0  0  0  0  0  0  0  0  0  0  0  0
  -11.0358   -1.9994    0.0000 C   0  0  0  0  0  0  0  0  0  0  0  0
  -10.4885   -0.4958    0.0000 H   0  0  0  0  0  0  0  0  0  0  0  0
   -5.6606   -2.9473    0.0000 C   0  0  0  0  0  0  0  0  0  0  0  0
   -5.6606   -1.3472    0.0000 H   0  0  0  0  0  0  0  0  0  0  0  0
   -1.5035   -3.7471    0.0000 C   0  0  0  0  0  0  0  0  0  0  0  0
   -0.1177   -4.5472    0.0000 N   0  0  0  0  0  0  0  0  0  0  0  0
  1  2  2  0  0  0  0
  2  3  1  0  0  0  0
  3  4  1  0  0  0  0
  3  5  1  0  0  0  0
  5  6  1  0  0  0  0
  6  7  1  0  0  0  0
  6  8  2  0  0  0  0
  8  9  1  0  0  0  0
  8 10  1  0  0  0  0
 10 11  1  0  0  0  0
 10 12  2  0  0  0  0
 12 13  1  0  0  0  0
 12 14  1  0  0  0  0
 14  5  2  0  0  0  0
 14 15  1  0  0  0  0
  3 16  1  0  0  0  0
 16 17  1  0  0  0  0
 16 18  1  0  0  0  0
 18 19  1  0  0  0  0
 18 20  1  0  0  0  0
 18 21  1  0  0  0  0
 16 22  1  0  0  0  0
 22 23  1  0  0  0  0
 22 24  1  0  0  0  0
 22 25  1  0  0  0  0
  2 26  1  0  0  0  0
 26 27  1  0  0  0  0
 27 28  1  0  0  0  0
 27 29  1  0  0  0  0
 29 30  1  0  0  0  0
 30 31  1  0  0  0  0
 30 32  2  0  0  0  0
 32 33  1  0  0  0  0
 32 34  1  0  0  0  0
 34 35  1  0  0  0  0
 34 36  2  0  0  0  0
 36 37  1  0  0  0  0
 37 38  1  0  0  0  0
 38 39  1  0  0  0  0
 39 40  1  0  0  0  0
 39 41  2  0  0  0  0
 41 42  1  0  0  0  0
 41 43  1  0  0  0  0
 43 44  1  0  0  0  0
 43 45  2  0  0  0  0
 45 46  1  0  0  0  0
 45 47  1  0  0  0  0
 47 38  2  0  0  0  0
 47 48  1  0  0  0  0
 36 49  1  0  0  0  0
 49 29  2  0  0  0  0
 49 50  1  0  0  0  0
 27 51  1  0  0  0  0
 51 52  3  0  0  0  0
M  END
> <ChemID>
100510

> <source_casrn>
51630-58-1

> <CAS>
51630-58-1

> <SMILES>
CC(C)C(C(=O)OC(C#N)c1cc(ccc1)Oc1ccccc1)c1ccc(Cl)cc1

> <NAME>
Fenvalerate

> <preferred_name>
Fenvalerate

> <iupac>
cyano(3-phenoxyphenyl)methyl 2-(4-chlorophenyl)-3-methylbutanoate

> <MPID>
102108

> <dsstox_substance_id>
DTXSID3020621

> <Canonical_QSARr>
CC(C)C(C(=O)OC(C#N)c1cc(ccc1)Oc1ccccc1)c1ccc(Cl)cc1

> <InChI_Code_QSARr>
InChI=1S/C25H22ClNO3/c1-17(2)24(18-11-13-20(26)14-12-18)25(28)30-23(16-27)19-7-6-10-22(15-19)29-21-8-4-3-5-9-21/h3-15,17,23-24H,1-2H3

> <InChI Key_QSARr>
NYPJDWWKZLNGGM-UHFFFAOYSA-N

> <LogKmHL>
0.69

$$$$
100511
  -INDIGO-08031722222D

 42 41  0  0  0  0  0  0  0  0999 V2000
   -1.3855    0.8000    0.0000 C   0  0  0  0  0  0  0  0  0  0  0  0
   -0.7734    2.2782    0.0000 H   0  0  0  0  0  0  0  0  0  0  0  0
   -1.9980    2.2782    0.0000 H   0  0  0  0  0  0  0  0  0  0  0  0
    0.0001    0.0000    0.0000 C   0  0  0  0  0  0  0  0  0  0  0  0
   -0.6123   -1.4782    0.0000 H   0  0  0  0  0  0  0  0  0  0  0  0
    0.6123   -1.4782    0.0000 H   0  0  0  0  0  0  0  0  0  0  0  0
    1.3857    0.8000    0.0000 C   0  0  0  0  0  0  0  0  0  0  0  0
    1.9979    2.2782    0.0000 H   0  0  0  0  0  0  0  0  0  0  0  0
    0.7733    2.2782    0.0000 H   0  0  0  0  0  0  0  0  0  0  0  0
    2.7713    0.0000    0.0000 C   0  0  0  0  0  0  0  0  0  0  0  0
    2.1589   -1.4782    0.0000 H   0  0  0  0  0  0  0  0  0  0  0  0
    3.3835   -1.4782    0.0000 H   0  0  0  0  0  0  0  0  0  0  0  0
    4.1570    0.8000    0.0000 C   0  0  0  0  0  0  0  0  0  0  0  0
    4.7691    2.2782    0.0000 H   0  0  0  0  0  0  0  0  0  0  0  0
    3.5445    2.2782    0.0000 H   0  0  0  0  0  0  0  0  0  0  0  0
    5.5426    0.0000    0.0000 C   0  0  0  0  0  0  0  0  0  0  0  0
    6.9282   -0.8000    0.0000 H   0  0  0  0  0  0  0  0  0  0  0  0
    6.9282    0.8000    0.0000 H   0  0  0  0  0  0  0  0  0  0  0  0
    5.5426   -1.6000    0.0000 H   0  0  0  0  0  0  0  0  0  0  0  0
   -2.7711    0.0000    0.0000 C   0  0  0  0  0  0  0  0  0  0  0  0
   -3.3836   -1.4782    0.0000 H   0  0  0  0  0  0  0  0  0  0  0  0
   -2.1590   -1.4782    0.0000 H   0  0  0  0  0  0  0  0  0  0  0  0
   -4.1570    0.8000    0.0000 C   0  0  0  0  0  0  0  0  0  0  0  0
   -3.5446    2.2782    0.0000 H   0  0  0  0  0  0  0  0  0  0  0  0
   -4.7692    2.2782    0.0000 H   0  0  0  0  0  0  0  0  0  0  0  0
   -5.5427    0.0000    0.0000 C   0  0  0  0  0  0  0  0  0  0  0  0
   -6.9283    0.8000    0.0000 C   0  0  0  0  0  0  0  0  0  0  0  0
   -6.3158    2.2782    0.0000 H   0  0  0  0  0  0  0  0  0  0  0  0
   -7.5404    2.2782    0.0000 H   0  0  0  0  0  0  0  0  0  0  0  0
   -8.3139    0.0000    0.0000 C   0  0  0  0  0  0  0  0  0  0  0  0
   -8.9261   -1.4782    0.0000 H   0  0  0  0  0  0  0  0  0  0  0  0
   -7.7015   -1.4782    0.0000 H   0  0  0  0  0  0  0  0  0  0  0  0
   -9.6995    0.8000    0.0000 C   0  0  0  0  0  0  0  0  0  0  0  0
   -9.0871    2.2782    0.0000 H   0  0  0  0  0  0  0  0  0  0  0  0
  -10.3117    2.2782    0.0000 H   0  0  0  0  0  0  0  0  0  0  0  0
  -11.0851    0.0000    0.0000 C   0  0  0  0  0  0  0  0  0  0  0  0
  -12.4708   -0.8000    0.0000 H   0  0  0  0  0  0  0  0  0  0  0  0
  -12.4708    0.8000    0.0000 H   0  0  0  0  0  0  0  0  0  0  0  0
  -11.0851   -1.6000    0.0000 H   0  0  0  0  0  0  0  0  0  0  0  0
   -5.5427   -1.6000    0.0000 C   0  0  0  0  0  0  0  0  0  0  0  0
   -6.9283   -2.4000    0.0000 H   0  0  0  0  0  0  0  0  0  0  0  0
   -4.1570   -2.4000    0.0000 H   0  0  0  0  0  0  0  0  0  0  0  0
  1  2  1  0  0  0  0
  1  3  1  0  0  0  0
  1  4  1  0  0  0  0
  4  5  1  0  0  0  0
  4  6  1  0  0  0  0
  4  7  1  0  0  0  0
  7  8  1  0  0  0  0
  7  9  1  0  0  0  0
  7 10  1  0  0  0  0
 10 11  1  0  0  0  0
 10 12  1  0  0  0  0
 10 13  1  0  0  0  0
 13 14  1  0  0  0  0
 13 15  1  0  0  0  0
 13 16  1  0  0  0  0
 16 17  1  0  0  0  0
 16 18  1  0  0  0  0
 16 19  1  0  0  0  0
  1 20  1  0  0  0  0
 20 21  1  0  0  0  0
 20 22  1  0  0  0  0
 20 23  1  0  0  0  0
 23 24  1  0  0  0  0
 23 25  1  0  0  0  0
 23 26  1  0  0  0  0
 26 27  1  0  0  0  0
 27 28  1  0  0  0  0
 27 29  1  0  0  0  0
 27 30  1  0  0  0  0
 30 31  1  0  0  0  0
 30 32  1  0  0  0  0
 30 33  1  0  0  0  0
 33 34  1  0  0  0  0
 33 35  1  0  0  0  0
 33 36  1  0  0  0  0
 36 37  1  0  0  0  0
 36 38  1  0  0  0  0
 36 39  1  0  0  0  0
 26 40  2  0  0  0  0
 40 41  1  0  0  0  0
 40 42  1  0  0  0  0
M  END
> <ChemID>
100511

> <source_casrn>
51655-65-3

> <CAS>
51655-65-3

> <SMILES>
CCCCC(=C)CCCCCCCC

> <NAME>
2-butyl-1-decene

> <preferred_name>
2-Butyl-1-decene

> <iupac>
C14H28

> <MPID>
102109

> <dsstox_substance_id>
DTXSID30334623

> <Canonical_QSARr>
CCCCC(=C)CCCCCCCC

> <InChI_Code_QSARr>
InChI=1S/C14H28/c1-4-6-8-9-10-11-13-14(3)12-7-5-2/h3-13H2,1-2H3

> <InChI Key_QSARr>
RMTSLZJISCPGBT-UHFFFAOYSA-N

> <LogKmHL>
0.88

$$$$
100513
  -INDIGO-08031722222D

 22 23  0  0  0  0  0  0  0  0999 V2000
    3.2000   -0.0000    0.0000 C   0  0  0  0  0  0  0  0  0  0  0  0
    2.4000    1.3856    0.0000 C   0  0  0  0  0  0  0  0  0  0  0  0
    3.2000    2.7713    0.0000 H   0  0  0  0  0  0  0  0  0  0  0  0
    0.8001    1.3856    0.0000 C   0  0  0  0  0  0  0  0  0  0  0  0
    0.0001    2.7713    0.0000 H   0  0  0  0  0  0  0  0  0  0  0  0
    0.0001   -0.0000    0.0000 C   0  0  0  0  0  0  0  0  0  0  0  0
   -1.6001    0.0000    0.0000 C   0  0  0  0  0  0  0  0  0  0  0  0
   -2.4001    1.3856    0.0000 C   0  0  0  0  0  0  0  0  0  0  0  0
   -1.6001    2.7713    0.0000 Cl  0  0  0  0  0  0  0  0  0  0  0  0
   -4.0000    1.3856    0.0000 C   0  0  0  0  0  0  0  0  0  0  0  0
   -4.8000    2.7713    0.0000 H   0  0  0  0  0  0  0  0  0  0  0  0
   -4.8000    0.0000    0.0000 C   0  0  0  0  0  0  0  0  0  0  0  0
   -6.4000    0.0000    0.0000 H   0  0  0  0  0  0  0  0  0  0  0  0
   -4.0000   -1.3856    0.0000 C   0  0  0  0  0  0  0  0  0  0  0  0
   -4.8000   -2.7713    0.0000 Cl  0  0  0  0  0  0  0  0  0  0  0  0
   -2.4001   -1.3856    0.0000 C   0  0  0  0  0  0  0  0  0  0  0  0
   -1.6001   -2.7713    0.0000 Cl  0  0  0  0  0  0  0  0  0  0  0  0
    0.8001   -1.3856    0.0000 C   0  0  0  0  0  0  0  0  0  0  0  0
    0.0001   -2.7713    0.0000 H   0  0  0  0  0  0  0  0  0  0  0  0
    2.4000   -1.3856    0.0000 C   0  0  0  0  0  0  0  0  0  0  0  0
    3.2000   -2.7713    0.0000 H   0  0  0  0  0  0  0  0  0  0  0  0
    4.8000   -0.0000    0.0000 Cl  0  0  0  0  0  0  0  0  0  0  0  0
  1  2  1  0  0  0  0
  2  3  1  0  0  0  0
  2  4  2  0  0  0  0
  4  5  1  0  0  0  0
  4  6  1  0  0  0  0
  6  7  1  0  0  0  0
  7  8  1  0  0  0  0
  8  9  1  0  0  0  0
  8 10  2  0  0  0  0
 10 11  1  0  0  0  0
 10 12  1  0  0  0  0
 12 13  1  0  0  0  0
 12 14  2  0  0  0  0
 14 15  1  0  0  0  0
 14 16  1  0  0  0  0
 16  7  2  0  0  0  0
 16 17  1  0  0  0  0
  6 18  2  0  0  0  0
 18 19  1  0  0  0  0
 18 20  1  0  0  0  0
 20  1  2  0  0  0  0
 20 21  1  0  0  0  0
  1 22  1  0  0  0  0
M  END
> <ChemID>
100513

> <source_casrn>
52663-58-8

> <CAS>
52663-58-8

> <SMILES>
Clc1ccc(cc1)-c1c(Cl)c(Cl)ccc1Cl

> <NAME>
2,3,4',6-tetrachlorobiphenyl

> <preferred_name>
2,3,4',6-Tetrachlorobiphenyl

> <iupac>
1,2,4-trichloro-3-(4-chlorophenyl)benzene

> <MPID>
102111

> <dsstox_substance_id>
DTXSID3074159

> <Canonical_QSARr>
Clc1ccc(cc1)-c1c(Cl)c(Cl)ccc1Cl

> <InChI_Code_QSARr>
InChI=1S/C12H6Cl4/c13-8-3-1-7(2-4-8)11-9(14)5-6-10(15)12(11)16/h1-6H

> <InChI Key_QSARr>
FXRXQYZZALWWGA-UHFFFAOYSA-N

> <LogKmHL>
2.35

$$$$
100514
  -INDIGO-08031722222D

 22 23  0  0  0  0  0  0  0  0999 V2000
   -0.0001    0.0000    0.0000 C   0  0  0  0  0  0  0  0  0  0  0  0
    1.6001   -0.0000    0.0000 C   0  0  0  0  0  0  0  0  0  0  0  0
    2.4001   -1.3856    0.0000 C   0  0  0  0  0  0  0  0  0  0  0  0
    1.6001   -2.7713    0.0000 Cl  0  0  0  0  0  0  0  0  0  0  0  0
    4.0000   -1.3856    0.0000 C   0  0  0  0  0  0  0  0  0  0  0  0
    4.8000   -2.7713    0.0000 H   0  0  0  0  0  0  0  0  0  0  0  0
    4.8000    0.0000    0.0000 C   0  0  0  0  0  0  0  0  0  0  0  0
    6.4000    0.0000    0.0000 Cl  0  0  0  0  0  0  0  0  0  0  0  0
    4.0000    1.3856    0.0000 C   0  0  0  0  0  0  0  0  0  0  0  0
    4.8000    2.7713    0.0000 Cl  0  0  0  0  0  0  0  0  0  0  0  0
    2.4001    1.3856    0.0000 C   0  0  0  0  0  0  0  0  0  0  0  0
    1.6001    2.7713    0.0000 H   0  0  0  0  0  0  0  0  0  0  0  0
   -0.8001    1.3856    0.0000 C   0  0  0  0  0  0  0  0  0  0  0  0
   -0.0001    2.7713    0.0000 Cl  0  0  0  0  0  0  0  0  0  0  0  0
   -2.4000    1.3856    0.0000 C   0  0  0  0  0  0  0  0  0  0  0  0
   -3.2000    2.7713    0.0000 Cl  0  0  0  0  0  0  0  0  0  0  0  0
   -3.2000    0.0000    0.0000 C   0  0  0  0  0  0  0  0  0  0  0  0
   -4.8000   -0.0000    0.0000 H   0  0  0  0  0  0  0  0  0  0  0  0
   -2.4000   -1.3856    0.0000 C   0  0  0  0  0  0  0  0  0  0  0  0
   -3.2000   -2.7713    0.0000 Cl  0  0  0  0  0  0  0  0  0  0  0  0
   -0.8001   -1.3856    0.0000 C   0  0  0  0  0  0  0  0  0  0  0  0
   -0.0001   -2.7713    0.0000 Cl  0  0  0  0  0  0  0  0  0  0  0  0
  1  2  1  0  0  0  0
  2  3  1  0  0  0  0
  3  4  1  0  0  0  0
  3  5  2  0  0  0  0
  5  6  1  0  0  0  0
  5  7  1  0  0  0  0
  7  8  1  0  0  0  0
  7  9  2  0  0  0  0
  9 10  1  0  0  0  0
  9 11  1  0  0  0  0
 11  2  2  0  0  0  0
 11 12  1  0  0  0  0
  1 13  1  0  0  0  0
 13 14  1  0  0  0  0
 13 15  2  0  0  0  0
 15 16  1  0  0  0  0
 15 17  1  0  0  0  0
 17 18  1  0  0  0  0
 17 19  2  0  0  0  0
 19 20  1  0  0  0  0
 19 21  1  0  0  0  0
 21  1  2  0  0  0  0
 21 22  1  0  0  0  0
M  END
> <ChemID>
100514

> <source_casrn>
52663-68-0

> <CAS>
52663-68-0

> <SMILES>
Clc1cc(Cl)c(Cl)cc1-c1c(Cl)c(Cl)cc(Cl)c1Cl

> <NAME>
2,2',3,4',5,5',6-heptachlorobiphenyl

> <preferred_name>
2,2',3,4',5,5',6-Heptachloro-1,1'-biphenyl

> <iupac>
2,2',3,4',5,5',6-heptachlorobiphenyl

> <MPID>
102112

> <dsstox_substance_id>
DTXSID5052832

> <Canonical_QSARr>
Clc1cc(Cl)c(Cl)cc1-c1c(Cl)c(Cl)cc(Cl)c1Cl

> <InChI_Code_QSARr>
InChI=1S/C12H3Cl7/c13-5-2-7(15)6(14)1-4(5)10-11(18)8(16)3-9(17)12(10)19/h1-3H

> <InChI Key_QSARr>
UDMZPLROONOSEF-UHFFFAOYSA-N

> <LogKmHL>
2.45

$$$$
100515
  -INDIGO-08031722222D

 22 23  0  0  0  0  0  0  0  0999 V2000
   -0.0001    0.0000    0.0000 C   0  0  0  0  0  0  0  0  0  0  0  0
    1.6001   -0.0000    0.0000 C   0  0  0  0  0  0  0  0  0  0  0  0
    2.4001   -1.3856    0.0000 C   0  0  0  0  0  0  0  0  0  0  0  0
    1.6001   -2.7713    0.0000 Cl  0  0  0  0  0  0  0  0  0  0  0  0
    4.0000   -1.3856    0.0000 C   0  0  0  0  0  0  0  0  0  0  0  0
    4.8000   -2.7713    0.0000 Cl  0  0  0  0  0  0  0  0  0  0  0  0
    4.8000    0.0000    0.0000 C   0  0  0  0  0  0  0  0  0  0  0  0
    6.4000    0.0000    0.0000 Cl  0  0  0  0  0  0  0  0  0  0  0  0
    4.0000    1.3856    0.0000 C   0  0  0  0  0  0  0  0  0  0  0  0
    4.8000    2.7713    0.0000 H   0  0  0  0  0  0  0  0  0  0  0  0
    2.4001    1.3856    0.0000 C   0  0  0  0  0  0  0  0  0  0  0  0
    1.6001    2.7713    0.0000 Cl  0  0  0  0  0  0  0  0  0  0  0  0
   -0.8001    1.3856    0.0000 C   0  0  0  0  0  0  0  0  0  0  0  0
   -0.0001    2.7713    0.0000 Cl  0  0  0  0  0  0  0  0  0  0  0  0
   -2.4000    1.3856    0.0000 C   0  0  0  0  0  0  0  0  0  0  0  0
   -3.2000    2.7713    0.0000 H   0  0  0  0  0  0  0  0  0  0  0  0
   -3.2000    0.0000    0.0000 C   0  0  0  0  0  0  0  0  0  0  0  0
   -4.8000   -0.0000    0.0000 Cl  0  0  0  0  0  0  0  0  0  0  0  0
   -2.4000   -1.3856    0.0000 C   0  0  0  0  0  0  0  0  0  0  0  0
   -3.2000   -2.7713    0.0000 Cl  0  0  0  0  0  0  0  0  0  0  0  0
   -0.8001   -1.3856    0.0000 C   0  0  0  0  0  0  0  0  0  0  0  0
   -0.0001   -2.7713    0.0000 H   0  0  0  0  0  0  0  0  0  0  0  0
  1  2  1  0  0  0  0
  2  3  1  0  0  0  0
  3  4  1  0  0  0  0
  3  5  2  0  0  0  0
  5  6  1  0  0  0  0
  5  7  1  0  0  0  0
  7  8  1  0  0  0  0
  7  9  2  0  0  0  0
  9 10  1  0  0  0  0
  9 11  1  0  0  0  0
 11  2  2  0  0  0  0
 11 12  1  0  0  0  0
  1 13  1  0  0  0  0
 13 14  1  0  0  0  0
 13 15  2  0  0  0  0
 15 16  1  0  0  0  0
 15 17  1  0  0  0  0
 17 18  1  0  0  0  0
 17 19  2  0  0  0  0
 19 20  1  0  0  0  0
 19 21  1  0  0  0  0
 21  1  2  0  0  0  0
 21 22  1  0  0  0  0
M  END
> <ChemID>
100515

> <source_casrn>
52663-69-1

> <CAS>
52663-69-1

> <SMILES>
Clc1c(Cl)c(-c2cc(Cl)c(Cl)cc2Cl)c(Cl)cc1Cl

> <NAME>
2,2',3,4,4',5',6-heptachlorobiphenyl

> <preferred_name>
2,2',3,4,4',5',6-Heptachlorobiphenyl

> <iupac>
1,2,3,5-tetrachloro-4-(2,4,5-trichlorophenyl)benzene

> <MPID>
102113

> <dsstox_substance_id>
DTXSID7074163

> <Canonical_QSARr>
Clc1c(Cl)c(-c2cc(Cl)c(Cl)cc2Cl)c(Cl)cc1Cl

> <InChI_Code_QSARr>
InChI=1S/C12H3Cl7/c13-5-2-7(15)6(14)1-4(5)10-8(16)3-9(17)11(18)12(10)19/h1-3H

> <InChI Key_QSARr>
KQBFUDNJKCZEDQ-UHFFFAOYSA-N

> <LogKmHL>
2.59

$$$$
100517
  -INDIGO-08031722222D

 22 23  0  0  0  0  0  0  0  0999 V2000
   -0.0001    0.0000    0.0000 C   0  0  0  0  0  0  0  0  0  0  0  0
    1.6001   -0.0000    0.0000 C   0  0  0  0  0  0  0  0  0  0  0  0
    2.4001   -1.3856    0.0000 C   0  0  0  0  0  0  0  0  0  0  0  0
    1.6001   -2.7713    0.0000 Cl  0  0  0  0  0  0  0  0  0  0  0  0
    4.0000   -1.3856    0.0000 C   0  0  0  0  0  0  0  0  0  0  0  0
    4.8000   -2.7713    0.0000 Cl  0  0  0  0  0  0  0  0  0  0  0  0
    4.8000    0.0000    0.0000 C   0  0  0  0  0  0  0  0  0  0  0  0
    6.4000    0.0000    0.0000 Cl  0  0  0  0  0  0  0  0  0  0  0  0
    4.0000    1.3856    0.0000 C   0  0  0  0  0  0  0  0  0  0  0  0
    4.8000    2.7713    0.0000 H   0  0  0  0  0  0  0  0  0  0  0  0
    2.4001    1.3856    0.0000 C   0  0  0  0  0  0  0  0  0  0  0  0
    1.6001    2.7713    0.0000 H   0  0  0  0  0  0  0  0  0  0  0  0
   -0.8001    1.3856    0.0000 C   0  0  0  0  0  0  0  0  0  0  0  0
   -0.0001    2.7713    0.0000 Cl  0  0  0  0  0  0  0  0  0  0  0  0
   -2.4000    1.3856    0.0000 C   0  0  0  0  0  0  0  0  0  0  0  0
   -3.2000    2.7713    0.0000 Cl  0  0  0  0  0  0  0  0  0  0  0  0
   -3.2000    0.0000    0.0000 C   0  0  0  0  0  0  0  0  0  0  0  0
   -4.8000   -0.0000    0.0000 Cl  0  0  0  0  0  0  0  0  0  0  0  0
   -2.4000   -1.3856    0.0000 C   0  0  0  0  0  0  0  0  0  0  0  0
   -3.2000   -2.7713    0.0000 H   0  0  0  0  0  0  0  0  0  0  0  0
   -0.8001   -1.3856    0.0000 C   0  0  0  0  0  0  0  0  0  0  0  0
   -0.0001   -2.7713    0.0000 Cl  0  0  0  0  0  0  0  0  0  0  0  0
  1  2  1  0  0  0  0
  2  3  1  0  0  0  0
  3  4  1  0  0  0  0
  3  5  2  0  0  0  0
  5  6  1  0  0  0  0
  5  7  1  0  0  0  0
  7  8  1  0  0  0  0
  7  9  2  0  0  0  0
  9 10  1  0  0  0  0
  9 11  1  0  0  0  0
 11  2  2  0  0  0  0
 11 12  1  0  0  0  0
  1 13  1  0  0  0  0
 13 14  1  0  0  0  0
 13 15  2  0  0  0  0
 15 16  1  0  0  0  0
 15 17  1  0  0  0  0
 17 18  1  0  0  0  0
 17 19  2  0  0  0  0
 19 20  1  0  0  0  0
 19 21  1  0  0  0  0
 21  1  2  0  0  0  0
 21 22  1  0  0  0  0
M  END
> <ChemID>
100517

> <source_casrn>
52663-71-5

> <CAS>
52663-71-5

> <SMILES>
Clc1cc(Cl)c(-c2ccc(Cl)c(Cl)c2Cl)c(Cl)c1Cl

> <NAME>
2,2',3,3',4,4',6-heptachlorobiphenyl

> <preferred_name>
2,2',3,3',4,4',6-Heptachlorobiphenyl

> <iupac>
1,2,3,5-tetrachloro-4-(2,3,4-trichlorophenyl)benzene

> <MPID>
102115

> <dsstox_substance_id>
DTXSID4073540

> <Canonical_QSARr>
Clc1cc(Cl)c(-c2ccc(Cl)c(Cl)c2Cl)c(Cl)c1Cl

> <InChI_Code_QSARr>
InChI=1S/C12H3Cl7/c13-5-2-1-4(9(16)10(5)17)8-6(14)3-7(15)11(18)12(8)19/h1-3H

> <InChI Key_QSARr>
TZMHVHLTPWKZCI-UHFFFAOYSA-N

> <LogKmHL>
2.52

$$$$
100518
  -INDIGO-08031722222D

 22 23  0  0  0  0  0  0  0  0999 V2000
   -0.0001    0.0000    0.0000 C   0  0  0  0  0  0  0  0  0  0  0  0
    1.6001   -0.0000    0.0000 C   0  0  0  0  0  0  0  0  0  0  0  0
    2.4001   -1.3856    0.0000 C   0  0  0  0  0  0  0  0  0  0  0  0
    1.6001   -2.7713    0.0000 Cl  0  0  0  0  0  0  0  0  0  0  0  0
    4.0000   -1.3856    0.0000 C   0  0  0  0  0  0  0  0  0  0  0  0
    4.8000   -2.7713    0.0000 H   0  0  0  0  0  0  0  0  0  0  0  0
    4.8000    0.0000    0.0000 C   0  0  0  0  0  0  0  0  0  0  0  0
    6.4000    0.0000    0.0000 Cl  0  0  0  0  0  0  0  0  0  0  0  0
    4.0000    1.3856    0.0000 C   0  0  0  0  0  0  0  0  0  0  0  0
    4.8000    2.7713    0.0000 Cl  0  0  0  0  0  0  0  0  0  0  0  0
    2.4001    1.3856    0.0000 C   0  0  0  0  0  0  0  0  0  0  0  0
    1.6001    2.7713    0.0000 H   0  0  0  0  0  0  0  0  0  0  0  0
   -0.8001    1.3856    0.0000 C   0  0  0  0  0  0  0  0  0  0  0  0
   -0.0001    2.7713    0.0000 H   0  0  0  0  0  0  0  0  0  0  0  0
   -2.4000    1.3856    0.0000 C   0  0  0  0  0  0  0  0  0  0  0  0
   -3.2000    2.7713    0.0000 Cl  0  0  0  0  0  0  0  0  0  0  0  0
   -3.2000    0.0000    0.0000 C   0  0  0  0  0  0  0  0  0  0  0  0
   -4.8000   -0.0000    0.0000 Cl  0  0  0  0  0  0  0  0  0  0  0  0
   -2.4000   -1.3856    0.0000 C   0  0  0  0  0  0  0  0  0  0  0  0
   -3.2000   -2.7713    0.0000 Cl  0  0  0  0  0  0  0  0  0  0  0  0
   -0.8001   -1.3856    0.0000 C   0  0  0  0  0  0  0  0  0  0  0  0
   -0.0001   -2.7713    0.0000 H   0  0  0  0  0  0  0  0  0  0  0  0
  1  2  1  0  0  0  0
  2  3  1  0  0  0  0
  3  4  1  0  0  0  0
  3  5  2  0  0  0  0
  5  6  1  0  0  0  0
  5  7  1  0  0  0  0
  7  8  1  0  0  0  0
  7  9  2  0  0  0  0
  9 10  1  0  0  0  0
  9 11  1  0  0  0  0
 11  2  2  0  0  0  0
 11 12  1  0  0  0  0
  1 13  1  0  0  0  0
 13 14  1  0  0  0  0
 13 15  2  0  0  0  0
 15 16  1  0  0  0  0
 15 17  1  0  0  0  0
 17 18  1  0  0  0  0
 17 19  2  0  0  0  0
 19 20  1  0  0  0  0
 19 21  1  0  0  0  0
 21  1  2  0  0  0  0
 21 22  1  0  0  0  0
M  END
> <ChemID>
100518

> <source_casrn>
52663-72-6

> <CAS>
52663-72-6

> <SMILES>
Clc1c(Cl)cc(cc1Cl)-c1cc(Cl)c(Cl)cc1Cl

> <NAME>
2,3',4,4',5,5'-hexachlorobiphenyl

> <preferred_name>
2,3',4,4',5,5'-Hexachlorobiphenyl

> <iupac>
1,2,3-trichloro-5-(2,4,5-trichlorophenyl)benzene

> <MPID>
102116

> <dsstox_substance_id>
DTXSID7074165

> <Canonical_QSARr>
Clc1c(Cl)cc(cc1Cl)-c1cc(Cl)c(Cl)cc1Cl

> <InChI_Code_QSARr>
InChI=1S/C12H4Cl6/c13-7-4-9(15)8(14)3-6(7)5-1-10(16)12(18)11(17)2-5/h1-4H

> <InChI Key_QSARr>
AZXHAWRMEPZSSV-UHFFFAOYSA-N

> <LogKmHL>
2.43

$$$$
100519
  -INDIGO-08031722222D

 22 23  0  0  0  0  0  0  0  0999 V2000
   -0.0001    0.0000    0.0000 C   0  0  0  0  0  0  0  0  0  0  0  0
    1.6001   -0.0000    0.0000 C   0  0  0  0  0  0  0  0  0  0  0  0
    2.4001   -1.3856    0.0000 C   0  0  0  0  0  0  0  0  0  0  0  0
    1.6001   -2.7713    0.0000 Cl  0  0  0  0  0  0  0  0  0  0  0  0
    4.0000   -1.3856    0.0000 C   0  0  0  0  0  0  0  0  0  0  0  0
    4.8000   -2.7713    0.0000 Cl  0  0  0  0  0  0  0  0  0  0  0  0
    4.8000    0.0000    0.0000 C   0  0  0  0  0  0  0  0  0  0  0  0
    6.4000    0.0000    0.0000 H   0  0  0  0  0  0  0  0  0  0  0  0
    4.0000    1.3856    0.0000 C   0  0  0  0  0  0  0  0  0  0  0  0
    4.8000    2.7713    0.0000 Cl  0  0  0  0  0  0  0  0  0  0  0  0
    2.4001    1.3856    0.0000 C   0  0  0  0  0  0  0  0  0  0  0  0
    1.6001    2.7713    0.0000 H   0  0  0  0  0  0  0  0  0  0  0  0
   -0.8001    1.3856    0.0000 C   0  0  0  0  0  0  0  0  0  0  0  0
   -0.0001    2.7713    0.0000 Cl  0  0  0  0  0  0  0  0  0  0  0  0
   -2.4000    1.3856    0.0000 C   0  0  0  0  0  0  0  0  0  0  0  0
   -3.2000    2.7713    0.0000 Cl  0  0  0  0  0  0  0  0  0  0  0  0
   -3.2000    0.0000    0.0000 C   0  0  0  0  0  0  0  0  0  0  0  0
   -4.8000   -0.0000    0.0000 Cl  0  0  0  0  0  0  0  0  0  0  0  0
   -2.4000   -1.3856    0.0000 C   0  0  0  0  0  0  0  0  0  0  0  0
   -3.2000   -2.7713    0.0000 Cl  0  0  0  0  0  0  0  0  0  0  0  0
   -0.8001   -1.3856    0.0000 C   0  0  0  0  0  0  0  0  0  0  0  0
   -0.0001   -2.7713    0.0000 H   0  0  0  0  0  0  0  0  0  0  0  0
  1  2  1  0  0  0  0
  2  3  1  0  0  0  0
  3  4  1  0  0  0  0
  3  5  2  0  0  0  0
  5  6  1  0  0  0  0
  5  7  1  0  0  0  0
  7  8  1  0  0  0  0
  7  9  2  0  0  0  0
  9 10  1  0  0  0  0
  9 11  1  0  0  0  0
 11  2  2  0  0  0  0
 11 12  1  0  0  0  0
  1 13  1  0  0  0  0
 13 14  1  0  0  0  0
 13 15  2  0  0  0  0
 15 16  1  0  0  0  0
 15 17  1  0  0  0  0
 17 18  1  0  0  0  0
 17 19  2  0  0  0  0
 19 20  1  0  0  0  0
 19 21  1  0  0  0  0
 21  1  2  0  0  0  0
 21 22  1  0  0  0  0
M  END
> <ChemID>
100519

> <source_casrn>
52663-74-8

> <CAS>
52663-74-8

> <SMILES>
Clc1cc(Cl)c(Cl)c(c1)-c1cc(Cl)c(Cl)c(Cl)c1Cl

> <NAME>
2,2',3,3',4,5,5'-heptachlorobiphenyl

> <preferred_name>
2,2',3,3',4,5,5'-Heptachlorobiphenyl

> <iupac>
1,2,3,4-tetrachloro-5-(2,3,5-trichlorophenyl)benzene

> <MPID>
102117

> <dsstox_substance_id>
DTXSID7074167

> <Canonical_QSARr>
Clc1cc(Cl)c(Cl)c(c1)-c1cc(Cl)c(Cl)c(Cl)c1Cl

> <InChI_Code_QSARr>
InChI=1S/C12H3Cl7/c13-4-1-5(9(16)7(14)2-4)6-3-8(15)11(18)12(19)10(6)17/h1-3H

> <InChI Key_QSARr>
HOPMUCXYRNOABF-UHFFFAOYSA-N

> <LogKmHL>
2.51

$$$$
100521
  -INDIGO-08031722222D

 22 23  0  0  0  0  0  0  0  0999 V2000
   -0.0001    0.0000    0.0000 C   0  0  0  0  0  0  0  0  0  0  0  0
    1.6001   -0.0000    0.0000 C   0  0  0  0  0  0  0  0  0  0  0  0
    2.4001   -1.3856    0.0000 C   0  0  0  0  0  0  0  0  0  0  0  0
    1.6001   -2.7713    0.0000 Cl  0  0  0  0  0  0  0  0  0  0  0  0
    4.0000   -1.3856    0.0000 C   0  0  0  0  0  0  0  0  0  0  0  0
    4.8000   -2.7713    0.0000 Cl  0  0  0  0  0  0  0  0  0  0  0  0
    4.8000    0.0000    0.0000 C   0  0  0  0  0  0  0  0  0  0  0  0
    6.4000    0.0000    0.0000 H   0  0  0  0  0  0  0  0  0  0  0  0
    4.0000    1.3856    0.0000 C   0  0  0  0  0  0  0  0  0  0  0  0
    4.8000    2.7713    0.0000 Cl  0  0  0  0  0  0  0  0  0  0  0  0
    2.4001    1.3856    0.0000 C   0  0  0  0  0  0  0  0  0  0  0  0
    1.6001    2.7713    0.0000 Cl  0  0  0  0  0  0  0  0  0  0  0  0
   -0.8001    1.3856    0.0000 C   0  0  0  0  0  0  0  0  0  0  0  0
   -0.0001    2.7713    0.0000 Cl  0  0  0  0  0  0  0  0  0  0  0  0
   -2.4000    1.3856    0.0000 C   0  0  0  0  0  0  0  0  0  0  0  0
   -3.2000    2.7713    0.0000 Cl  0  0  0  0  0  0  0  0  0  0  0  0
   -3.2000    0.0000    0.0000 C   0  0  0  0  0  0  0  0  0  0  0  0
   -4.8000   -0.0000    0.0000 Cl  0  0  0  0  0  0  0  0  0  0  0  0
   -2.4000   -1.3856    0.0000 C   0  0  0  0  0  0  0  0  0  0  0  0
   -3.2000   -2.7713    0.0000 Cl  0  0  0  0  0  0  0  0  0  0  0  0
   -0.8001   -1.3856    0.0000 C   0  0  0  0  0  0  0  0  0  0  0  0
   -0.0001   -2.7713    0.0000 Cl  0  0  0  0  0  0  0  0  0  0  0  0
  1  2  1  0  0  0  0
  2  3  1  0  0  0  0
  3  4  1  0  0  0  0
  3  5  2  0  0  0  0
  5  6  1  0  0  0  0
  5  7  1  0  0  0  0
  7  8  1  0  0  0  0
  7  9  2  0  0  0  0
  9 10  1  0  0  0  0
  9 11  1  0  0  0  0
 11  2  2  0  0  0  0
 11 12  1  0  0  0  0
  1 13  1  0  0  0  0
 13 14  1  0  0  0  0
 13 15  2  0  0  0  0
 15 16  1  0  0  0  0
 15 17  1  0  0  0  0
 17 18  1  0  0  0  0
 17 19  2  0  0  0  0
 19 20  1  0  0  0  0
 19 21  1  0  0  0  0
 21  1  2  0  0  0  0
 21 22  1  0  0  0  0
M  END
> <ChemID>
100521

> <source_casrn>
52663-77-1

> <CAS>
52663-77-1

> <SMILES>
Clc1c(-c2c(Cl)c(Cl)c(Cl)c(Cl)c2Cl)c(Cl)c(Cl)cc1Cl

> <NAME>
2,2',3,3',4,5,5',6,6'-nonachlorobiphenyl

> <preferred_name>
2,2',3,3',4,5,5',6,6'-Nonachlorobiphenyl

> <iupac>
1,2,3,4,5-pentachloro-6-(2,3,5,6-tetrachlorophenyl)benzene

> <MPID>
102119

> <dsstox_substance_id>
DTXSID6074170

> <Canonical_QSARr>
Clc1c(-c2c(Cl)c(Cl)c(Cl)c(Cl)c2Cl)c(Cl)c(Cl)cc1Cl

> <InChI_Code_QSARr>
InChI=1S/C12HCl9/c13-2-1-3(14)7(16)4(6(2)15)5-8(17)10(19)12(21)11(20)9(5)18/h1H

> <InChI Key_QSARr>
XIFFTDRFWYFAPO-UHFFFAOYSA-N

> <LogKmHL>
2.63

$$$$
100522
  -INDIGO-08031722222D

 22 23  0  0  0  0  0  0  0  0999 V2000
   -0.0001    0.0000    0.0000 C   0  0  0  0  0  0  0  0  0  0  0  0
    1.6001   -0.0000    0.0000 C   0  0  0  0  0  0  0  0  0  0  0  0
    2.4001   -1.3856    0.0000 C   0  0  0  0  0  0  0  0  0  0  0  0
    1.6001   -2.7713    0.0000 Cl  0  0  0  0  0  0  0  0  0  0  0  0
    4.0000   -1.3856    0.0000 C   0  0  0  0  0  0  0  0  0  0  0  0
    4.8000   -2.7713    0.0000 Cl  0  0  0  0  0  0  0  0  0  0  0  0
    4.8000    0.0000    0.0000 C   0  0  0  0  0  0  0  0  0  0  0  0
    6.4000    0.0000    0.0000 Cl  0  0  0  0  0  0  0  0  0  0  0  0
    4.0000    1.3856    0.0000 C   0  0  0  0  0  0  0  0  0  0  0  0
    4.8000    2.7713    0.0000 H   0  0  0  0  0  0  0  0  0  0  0  0
    2.4001    1.3856    0.0000 C   0  0  0  0  0  0  0  0  0  0  0  0
    1.6001    2.7713    0.0000 H   0  0  0  0  0  0  0  0  0  0  0  0
   -0.8001    1.3856    0.0000 C   0  0  0  0  0  0  0  0  0  0  0  0
   -0.0001    2.7713    0.0000 Cl  0  0  0  0  0  0  0  0  0  0  0  0
   -2.4000    1.3856    0.0000 C   0  0  0  0  0  0  0  0  0  0  0  0
   -3.2000    2.7713    0.0000 Cl  0  0  0  0  0  0  0  0  0  0  0  0
   -3.2000    0.0000    0.0000 C   0  0  0  0  0  0  0  0  0  0  0  0
   -4.8000   -0.0000    0.0000 Cl  0  0  0  0  0  0  0  0  0  0  0  0
   -2.4000   -1.3856    0.0000 C   0  0  0  0  0  0  0  0  0  0  0  0
   -3.2000   -2.7713    0.0000 Cl  0  0  0  0  0  0  0  0  0  0  0  0
   -0.8001   -1.3856    0.0000 C   0  0  0  0  0  0  0  0  0  0  0  0
   -0.0001   -2.7713    0.0000 Cl  0  0  0  0  0  0  0  0  0  0  0  0
  1  2  1  0  0  0  0
  2  3  1  0  0  0  0
  3  4  1  0  0  0  0
  3  5  2  0  0  0  0
  5  6  1  0  0  0  0
  5  7  1  0  0  0  0
  7  8  1  0  0  0  0
  7  9  2  0  0  0  0
  9 10  1  0  0  0  0
  9 11  1  0  0  0  0
 11  2  2  0  0  0  0
 11 12  1  0  0  0  0
  1 13  1  0  0  0  0
 13 14  1  0  0  0  0
 13 15  2  0  0  0  0
 15 16  1  0  0  0  0
 15 17  1  0  0  0  0
 17 18  1  0  0  0  0
 17 19  2  0  0  0  0
 19 20  1  0  0  0  0
 19 21  1  0  0  0  0
 21  1  2  0  0  0  0
 21 22  1  0  0  0  0
M  END
> <ChemID>
100522

> <source_casrn>
52663-78-2

> <CAS>
52663-78-2

> <SMILES>
Clc1ccc(-c2c(Cl)c(Cl)c(Cl)c(Cl)c2Cl)c(Cl)c1Cl

> <NAME>
2,2',3,3',4,4',5,6-Octachloro-1,1'-biphenyl

> <preferred_name>
2,2',3,3',4,4',5,6-Octachlorobiphenyl

> <iupac>
1,2,3,4,5-pentachloro-6-(2,3,4-trichlorophenyl)benzene

> <MPID>
102120

> <dsstox_substance_id>
DTXSID1074171

> <Canonical_QSARr>
Clc1ccc(-c2c(Cl)c(Cl)c(Cl)c(Cl)c2Cl)c(Cl)c1Cl

> <InChI_Code_QSARr>
InChI=1S/C12H2Cl8/c13-4-2-1-3(6(14)7(4)15)5-8(16)10(18)12(20)11(19)9(5)17/h1-2H

> <InChI Key_QSARr>
JAHJITLFJSDRCG-UHFFFAOYSA-N

> <LogKmHL>
2.54

$$$$
100523
  -INDIGO-08031722222D

 22 23  0  0  0  0  0  0  0  0999 V2000
   -0.8001   -1.3856    0.0000 C   0  0  0  0  0  0  0  0  0  0  0  0
   -0.0001   -2.7713    0.0000 Cl  0  0  0  0  0  0  0  0  0  0  0  0
   -2.4000   -1.3856    0.0000 C   0  0  0  0  0  0  0  0  0  0  0  0
   -3.2000   -2.7713    0.0000 Cl  0  0  0  0  0  0  0  0  0  0  0  0
   -3.2000   -0.0000    0.0000 C   0  0  0  0  0  0  0  0  0  0  0  0
   -4.8000   -0.0000    0.0000 Cl  0  0  0  0  0  0  0  0  0  0  0  0
   -2.4000    1.3856    0.0000 C   0  0  0  0  0  0  0  0  0  0  0  0
   -3.2000    2.7713    0.0000 Cl  0  0  0  0  0  0  0  0  0  0  0  0
   -0.8001    1.3856    0.0000 C   0  0  0  0  0  0  0  0  0  0  0  0
   -0.0001    2.7713    0.0000 Cl  0  0  0  0  0  0  0  0  0  0  0  0
   -0.0001   -0.0000    0.0000 C   0  0  0  0  0  0  0  0  0  0  0  0
    1.6001    0.0000    0.0000 C   0  0  0  0  0  0  0  0  0  0  0  0
    2.4001    1.3856    0.0000 C   0  0  0  0  0  0  0  0  0  0  0  0
    1.6001    2.7713    0.0000 Cl  0  0  0  0  0  0  0  0  0  0  0  0
    4.0000    1.3856    0.0000 C   0  0  0  0  0  0  0  0  0  0  0  0
    4.8000    2.7713    0.0000 Cl  0  0  0  0  0  0  0  0  0  0  0  0
    4.8000    0.0000    0.0000 C   0  0  0  0  0  0  0  0  0  0  0  0
    6.4000    0.0000    0.0000 Cl  0  0  0  0  0  0  0  0  0  0  0  0
    4.0000   -1.3856    0.0000 C   0  0  0  0  0  0  0  0  0  0  0  0
    4.8000   -2.7713    0.0000 H   0  0  0  0  0  0  0  0  0  0  0  0
    2.4001   -1.3856    0.0000 C   0  0  0  0  0  0  0  0  0  0  0  0
    1.6001   -2.7713    0.0000 Cl  0  0  0  0  0  0  0  0  0  0  0  0
  1  2  1  0  0  0  0
  1  3  1  0  0  0  0
  3  4  1  0  0  0  0
  3  5  2  0  0  0  0
  5  6  1  0  0  0  0
  5  7  1  0  0  0  0
  7  8  1  0  0  0  0
  7  9  2  0  0  0  0
  9 10  1  0  0  0  0
  9 11  1  0  0  0  0
 11  1  2  0  0  0  0
 11 12  1  0  0  0  0
 12 13  1  0  0  0  0
 13 14  1  0  0  0  0
 13 15  2  0  0  0  0
 15 16  1  0  0  0  0
 15 17  1  0  0  0  0
 17 18  1  0  0  0  0
 17 19  2  0  0  0  0
 19 20  1  0  0  0  0
 19 21  1  0  0  0  0
 21 12  2  0  0  0  0
 21 22  1  0  0  0  0
M  END
> <ChemID>
100523

> <source_casrn>
52663-79-3

> <CAS>
52663-79-3

> <SMILES>
Clc1cc(Cl)c(Cl)c(Cl)c1-c1c(Cl)c(Cl)c(Cl)c(Cl)c1Cl

> <NAME>
2,2',3,3',4,4',5,6,6'-nonachlorobiphenyl

> <preferred_name>
2,2',3,3',4,4',5,6,6'-Nonachlorobiphenyl

> <iupac>
1,2,3,4,5-pentachloro-6-(2,3,4,6-tetrachlorophenyl)benzene

> <MPID>
102121

> <dsstox_substance_id>
DTXSID6074172

> <Canonical_QSARr>
Clc1cc(Cl)c(Cl)c(Cl)c1-c1c(Cl)c(Cl)c(Cl)c(Cl)c1Cl

> <InChI_Code_QSARr>
InChI=1S/C12HCl9/c13-2-1-3(14)6(15)7(16)4(2)5-8(17)10(19)12(21)11(20)9(5)18/h1H

> <InChI Key_QSARr>
YGDPIDTZOQGPAX-UHFFFAOYSA-N

> <LogKmHL>
2.66

$$$$
100525
  -INDIGO-08031722222D

 22 23  0  0  0  0  0  0  0  0999 V2000
   -0.0001    0.0000    0.0000 C   0  0  0  0  0  0  0  0  0  0  0  0
    1.6001   -0.0000    0.0000 C   0  0  0  0  0  0  0  0  0  0  0  0
    2.4001   -1.3856    0.0000 C   0  0  0  0  0  0  0  0  0  0  0  0
    1.6001   -2.7713    0.0000 Cl  0  0  0  0  0  0  0  0  0  0  0  0
    4.0000   -1.3856    0.0000 C   0  0  0  0  0  0  0  0  0  0  0  0
    4.8000   -2.7713    0.0000 Cl  0  0  0  0  0  0  0  0  0  0  0  0
    4.8000    0.0000    0.0000 C   0  0  0  0  0  0  0  0  0  0  0  0
    6.4000    0.0000    0.0000 H   0  0  0  0  0  0  0  0  0  0  0  0
    4.0000    1.3856    0.0000 C   0  0  0  0  0  0  0  0  0  0  0  0
    4.8000    2.7713    0.0000 H   0  0  0  0  0  0  0  0  0  0  0  0
    2.4001    1.3856    0.0000 C   0  0  0  0  0  0  0  0  0  0  0  0
    1.6001    2.7713    0.0000 Cl  0  0  0  0  0  0  0  0  0  0  0  0
   -0.8001    1.3856    0.0000 C   0  0  0  0  0  0  0  0  0  0  0  0
   -0.0001    2.7713    0.0000 Cl  0  0  0  0  0  0  0  0  0  0  0  0
   -2.4000    1.3856    0.0000 C   0  0  0  0  0  0  0  0  0  0  0  0
   -3.2000    2.7713    0.0000 Cl  0  0  0  0  0  0  0  0  0  0  0  0
   -3.2000    0.0000    0.0000 C   0  0  0  0  0  0  0  0  0  0  0  0
   -4.8000   -0.0000    0.0000 H   0  0  0  0  0  0  0  0  0  0  0  0
   -2.4000   -1.3856    0.0000 C   0  0  0  0  0  0  0  0  0  0  0  0
   -3.2000   -2.7713    0.0000 Cl  0  0  0  0  0  0  0  0  0  0  0  0
   -0.8001   -1.3856    0.0000 C   0  0  0  0  0  0  0  0  0  0  0  0
   -0.0001   -2.7713    0.0000 H   0  0  0  0  0  0  0  0  0  0  0  0
  1  2  1  0  0  0  0
  2  3  1  0  0  0  0
  3  4  1  0  0  0  0
  3  5  2  0  0  0  0
  5  6  1  0  0  0  0
  5  7  1  0  0  0  0
  7  8  1  0  0  0  0
  7  9  2  0  0  0  0
  9 10  1  0  0  0  0
  9 11  1  0  0  0  0
 11  2  2  0  0  0  0
 11 12  1  0  0  0  0
  1 13  1  0  0  0  0
 13 14  1  0  0  0  0
 13 15  2  0  0  0  0
 15 16  1  0  0  0  0
 15 17  1  0  0  0  0
 17 18  1  0  0  0  0
 17 19  2  0  0  0  0
 19 20  1  0  0  0  0
 19 21  1  0  0  0  0
 21  1  2  0  0  0  0
 21 22  1  0  0  0  0
M  END
> <ChemID>
100525

> <source_casrn>
52744-13-5

> <CAS>
52744-13-5

> <SMILES>
Clc1cc(-c2c(Cl)c(Cl)ccc2Cl)c(Cl)c(Cl)c1

> <NAME>
2,2',3,3',5,6'-hexachlorobiphenyl

> <preferred_name>
2,2',3,3',5,6'-Hexachlorobiphenyl

> <iupac>
1,2,5-trichloro-3-(2,3,6-trichlorophenyl)benzene

> <MPID>
102123

> <dsstox_substance_id>
DTXSID9073541

> <Canonical_QSARr>
Clc1cc(-c2c(Cl)c(Cl)ccc2Cl)c(Cl)c(Cl)c1

> <InChI_Code_QSARr>
InChI=1S/C12H4Cl6/c13-5-3-6(11(17)9(16)4-5)10-7(14)1-2-8(15)12(10)18/h1-4H

> <InChI Key_QSARr>
UUTNFLRSJBQQJM-UHFFFAOYSA-N

> <LogKmHL>
2.32

$$$$
100526
  -INDIGO-08031722222D

 39 39  0  0  0  0  0  0  0  0999 V2000
    0.0001    0.0000    0.0000 C   0  0  0  0  0  0  0  0  0  0  0  0
    1.2256    1.0285    0.0000 H   0  0  0  0  0  0  0  0  0  0  0  0
   -0.8000    1.3857    0.0000 C   0  0  0  0  0  0  0  0  0  0  0  0
    0.7036    1.9329    0.0000 H   0  0  0  0  0  0  0  0  0  0  0  0
   -1.0778    2.9614    0.0000 H   0  0  0  0  0  0  0  0  0  0  0  0
   -2.4000    1.3857    0.0000 C   0  0  0  0  0  0  0  0  0  0  0  0
   -2.1222    2.9614    0.0000 H   0  0  0  0  0  0  0  0  0  0  0  0
   -3.7856    2.1857    0.0000 C   0  0  0  0  0  0  0  0  0  0  0  0
   -5.1713    2.9857    0.0000 H   0  0  0  0  0  0  0  0  0  0  0  0
   -5.1713    1.3857    0.0000 H   0  0  0  0  0  0  0  0  0  0  0  0
   -3.7856    3.7856    0.0000 H   0  0  0  0  0  0  0  0  0  0  0  0
   -3.2001    0.0000    0.0000 C   0  0  0  0  0  0  0  0  0  0  0  0
   -4.4256    1.0285    0.0000 H   0  0  0  0  0  0  0  0  0  0  0  0
   -4.4256   -1.0285    0.0000 H   0  0  0  0  0  0  0  0  0  0  0  0
   -2.4000   -1.3856    0.0000 C   0  0  0  0  0  0  0  0  0  0  0  0
   -3.9036   -1.9329    0.0000 H   0  0  0  0  0  0  0  0  0  0  0  0
   -2.1222   -2.9613    0.0000 H   0  0  0  0  0  0  0  0  0  0  0  0
   -0.8000   -1.3856    0.0000 C   0  0  0  0  0  0  0  0  0  0  0  0
   -1.0778   -2.9613    0.0000 H   0  0  0  0  0  0  0  0  0  0  0  0
    0.7757   -1.6634    0.0000 H   0  0  0  0  0  0  0  0  0  0  0  0
    1.2256   -1.0285    0.0000 C   0  0  0  0  0  0  0  0  0  0  0  0
    1.5719   -2.5905    0.0000 H   0  0  0  0  0  0  0  0  0  0  0  0
    0.3659   -2.3779    0.0000 H   0  0  0  0  0  0  0  0  0  0  0  0
    2.7292   -0.4813    0.0000 C   0  0  0  0  0  0  0  0  0  0  0  0
    2.3829    1.0809    0.0000 H   0  0  0  0  0  0  0  0  0  0  0  0
    3.5890    0.8682    0.0000 H   0  0  0  0  0  0  0  0  0  0  0  0
    3.9548   -1.5097    0.0000 C   0  0  0  0  0  0  0  0  0  0  0  0
    4.3011   -3.0718    0.0000 H   0  0  0  0  0  0  0  0  0  0  0  0
    3.0952   -2.8592    0.0000 H   0  0  0  0  0  0  0  0  0  0  0  0
    5.4583   -0.9624    0.0000 C   0  0  0  0  0  0  0  0  0  0  0  0
    5.1120    0.5996    0.0000 H   0  0  0  0  0  0  0  0  0  0  0  0
    6.3181    0.3869    0.0000 H   0  0  0  0  0  0  0  0  0  0  0  0
    6.6841   -1.9909    0.0000 C   0  0  0  0  0  0  0  0  0  0  0  0
    7.0304   -3.5530    0.0000 H   0  0  0  0  0  0  0  0  0  0  0  0
    5.8244   -3.3403    0.0000 H   0  0  0  0  0  0  0  0  0  0  0  0
    8.1875   -1.4437    0.0000 C   0  0  0  0  0  0  0  0  0  0  0  0
    9.6910   -0.8965    0.0000 H   0  0  0  0  0  0  0  0  0  0  0  0
    9.4132   -2.4722    0.0000 H   0  0  0  0  0  0  0  0  0  0  0  0
    8.4653    0.1321    0.0000 H   0  0  0  0  0  0  0  0  0  0  0  0
  1  2  1  0  0  0  0
  1  3  1  0  0  0  0
  3  4  1  0  0  0  0
  3  5  1  0  0  0  0
  3  6  1  0  0  0  0
  6  7  1  0  0  0  0
  6  8  1  0  0  0  0
  8  9  1  0  0  0  0
  8 10  1  0  0  0  0
  8 11  1  0  0  0  0
  6 12  1  0  0  0  0
 12 13  1  0  0  0  0
 12 14  1  0  0  0  0
 12 15  1  0  0  0  0
 15 16  1  0  0  0  0
 15 17  1  0  0  0  0
 15 18  1  0  0  0  0
 18  1  1  0  0  0  0
 18 19  1  0  0  0  0
 18 20  1  0  0  0  0
  1 21  1  0  0  0  0
 21 22  1  0  0  0  0
 21 23  1  0  0  0  0
 21 24  1  0  0  0  0
 24 25  1  0  0  0  0
 24 26  1  0  0  0  0
 24 27  1  0  0  0  0
 27 28  1  0  0  0  0
 27 29  1  0  0  0  0
 27 30  1  0  0  0  0
 30 31  1  0  0  0  0
 30 32  1  0  0  0  0
 30 33  1  0  0  0  0
 33 34  1  0  0  0  0
 33 35  1  0  0  0  0
 33 36  1  0  0  0  0
 36 37  1  0  0  0  0
 36 38  1  0  0  0  0
 36 39  1  0  0  0  0
M  END
> <ChemID>
100526

> <source_casrn>
52886-35-8

> <CAS>
52886-35-8

> <SMILES>
CCCCCCC1CC(C)CCC1

> <NAME>
3-methyl-1-hexyl cyclohexane

> <preferred_name>
PUBCHEM_53425803

> <iupac>
C13H26

> <MPID>
102124

> <dsstox_substance_id>
DTXSID60698987

> <Canonical_QSARr>
CC1CCCC(C1)CCCCCC

> <InChI_Code_QSARr>
InChI=1S/C13H26/c1-3-4-5-6-9-13-10-7-8-12(2)11-13/h12-13H,3-11H2,1-2H3

> <InChI Key_QSARr>
JDRSBYDVSKONQG-UHFFFAOYSA-N

> <LogKmHL>
0.97

$$$$
100527
  -INDIGO-08031722222D

 47 49  0  0  0  0  0  0  0  0999 V2000
   -0.0000    0.0000    0.0000 C   0  0  0  0  0  0  0  0  0  0  0  0
   -0.8000   -1.3857    0.0000 C   0  0  0  0  0  0  0  0  0  0  0  0
    0.4257   -2.4141    0.0000 H   0  0  0  0  0  0  0  0  0  0  0  0
   -2.1856   -2.1856    0.0000 C   0  0  0  0  0  0  0  0  0  0  0  0
   -3.1445   -2.1354    0.0000 H   0  0  0  0  0  0  0  0  0  0  0  0
   -2.1856   -3.7857    0.0000 C   0  0  0  0  0  0  0  0  0  0  0  0
   -3.5711   -4.5856    0.0000 Br  0  0  0  0  0  0  0  0  0  0  0  0
   -0.8000   -4.5856    0.0000 Br  0  0  0  0  0  0  0  0  0  0  0  0
   -1.6000    0.0000    0.0000 C   0  0  0  0  0  0  0  0  0  0  0  0
   -1.8780    1.5756    0.0000 H   0  0  0  0  0  0  0  0  0  0  0  0
   -3.1034   -0.5472    0.0000 C   0  0  0  0  0  0  0  0  0  0  0  0
   -4.3291    0.4812    0.0000 O   0  0  0  0  0  0  0  0  0  0  0  0
   -5.8328   -0.0660    0.0000 C   0  0  0  0  0  0  0  0  0  0  0  0
   -6.1104   -1.6417    0.0000 H   0  0  0  0  0  0  0  0  0  0  0  0
   -6.6328    1.3196    0.0000 C   0  0  0  0  0  0  0  0  0  0  0  0
   -7.4328    2.7053    0.0000 N   0  0  0  0  0  0  0  0  0  0  0  0
   -7.3362   -0.6133    0.0000 C   0  0  0  0  0  0  0  0  0  0  0  0
   -8.5619    0.4153    0.0000 C   0  0  0  0  0  0  0  0  0  0  0  0
   -8.2840    1.9909    0.0000 H   0  0  0  0  0  0  0  0  0  0  0  0
  -10.0653   -0.1320    0.0000 C   0  0  0  0  0  0  0  0  0  0  0  0
  -11.2910    0.8965    0.0000 O   0  0  0  0  0  0  0  0  0  0  0  0
  -12.8910    0.8965    0.0000 C   0  0  0  0  0  0  0  0  0  0  0  0
  -13.6910   -0.4892    0.0000 C   0  0  0  0  0  0  0  0  0  0  0  0
  -12.8910   -1.8748    0.0000 H   0  0  0  0  0  0  0  0  0  0  0  0
  -15.2910   -0.4892    0.0000 C   0  0  0  0  0  0  0  0  0  0  0  0
  -16.0910   -1.8748    0.0000 H   0  0  0  0  0  0  0  0  0  0  0  0
  -16.0910    0.8965    0.0000 C   0  0  0  0  0  0  0  0  0  0  0  0
  -17.6911    0.8965    0.0000 H   0  0  0  0  0  0  0  0  0  0  0  0
  -15.2910    2.2820    0.0000 C   0  0  0  0  0  0  0  0  0  0  0  0
  -16.0910    3.6677    0.0000 H   0  0  0  0  0  0  0  0  0  0  0  0
  -13.6910    2.2820    0.0000 C   0  0  0  0  0  0  0  0  0  0  0  0
  -12.8910    3.6677    0.0000 H   0  0  0  0  0  0  0  0  0  0  0  0
  -10.3432   -1.7077    0.0000 C   0  0  0  0  0  0  0  0  0  0  0  0
  -11.8466   -2.2549    0.0000 H   0  0  0  0  0  0  0  0  0  0  0  0
   -9.1175   -2.7361    0.0000 C   0  0  0  0  0  0  0  0  0  0  0  0
   -9.3954   -4.3119    0.0000 H   0  0  0  0  0  0  0  0  0  0  0  0
   -7.6141   -2.1889    0.0000 C   0  0  0  0  0  0  0  0  0  0  0  0
   -6.3884   -3.2174    0.0000 H   0  0  0  0  0  0  0  0  0  0  0  0
   -3.5711   -1.3857    0.0000 O   0  0  0  0  0  0  0  0  0  0  0  0
    0.2779    1.5756    0.0000 C   0  0  0  0  0  0  0  0  0  0  0  0
    0.5555    3.1514    0.0000 H   0  0  0  0  0  0  0  0  0  0  0  0
    1.7813    2.1230    0.0000 H   0  0  0  0  0  0  0  0  0  0  0  0
   -0.9478    2.6042    0.0000 H   0  0  0  0  0  0  0  0  0  0  0  0
    1.5037   -0.5472    0.0000 C   0  0  0  0  0  0  0  0  0  0  0  0
    3.0070   -1.0945    0.0000 H   0  0  0  0  0  0  0  0  0  0  0  0
    2.7291    0.4812    0.0000 H   0  0  0  0  0  0  0  0  0  0  0  0
    1.7813   -2.1229    0.0000 H   0  0  0  0  0  0  0  0  0  0  0  0
  1  2  1  0  0  0  0
  2  3  1  0  0  0  0
  2  4  1  0  0  0  0
  4  5  1  0  0  0  0
  4  6  2  0  0  0  0
  6  7  1  0  0  0  0
  6  8  1  0  0  0  0
  2  9  1  0  0  0  0
  9  1  1  0  0  0  0
  9 10  1  0  0  0  0
  9 11  1  0  0  0  0
 11 12  1  0  0  0  0
 12 13  1  0  0  0  0
 13 14  1  0  0  0  0
 13 15  1  0  0  0  0
 15 16  3  0  0  0  0
 13 17  1  0  0  0  0
 17 18  1  0  0  0  0
 18 19  1  0  0  0  0
 18 20  2  0  0  0  0
 20 21  1  0  0  0  0
 21 22  1  0  0  0  0
 22 23  1  0  0  0  0
 23 24  1  0  0  0  0
 23 25  2  0  0  0  0
 25 26  1  0  0  0  0
 25 27  1  0  0  0  0
 27 28  1  0  0  0  0
 27 29  2  0  0  0  0
 29 30  1  0  0  0  0
 29 31  1  0  0  0  0
 31 22  2  0  0  0  0
 31 32  1  0  0  0  0
 20 33  1  0  0  0  0
 33 34  1  0  0  0  0
 33 35  2  0  0  0  0
 35 36  1  0  0  0  0
 35 37  1  0  0  0  0
 37 17  2  0  0  0  0
 37 38  1  0  0  0  0
 11 39  2  0  0  0  0
  1 40  1  0  0  0  0
 40 41  1  0  0  0  0
 40 42  1  0  0  0  0
 40 43  1  0  0  0  0
  1 44  1  0  0  0  0
 44 45  1  0  0  0  0
 44 46  1  0  0  0  0
 44 47  1  0  0  0  0
M  END
> <ChemID>
100527

> <source_casrn>
52918-63-5

> <CAS>
52918-63-5

> <SMILES>
CC1(C)[C@@H]([C@@H]1C=C(Br)Br)C(=O)O[C@H](C#N)c1cccc(c1)Oc1ccccc1

> <NAME>
Decamethrin

> <preferred_name>
Deltamethrin

> <iupac>
(S)-cyano(3-phenoxyphenyl)methyl (1R,3R)-3-(2,2-dibromoethenyl)-2,2-dimethylcyclopropanecarboxylate

> <MPID>
102125

> <dsstox_substance_id>
DTXSID8020381

> <Canonical_QSARr>
CC1(C)C(C1C=C(Br)Br)C(=O)OC(C#N)c1cccc(c1)Oc1ccccc1

> <InChI_Code_QSARr>
InChI=1S/C22H19Br2NO3/c1-22(2)17(12-19(23)24)20(22)21(26)28-18(13-25)14-7-6-10-16(11-14)27-15-8-4-3-5-9-15/h3-12,17-18,20H,1-2H3

> <InChI Key_QSARr>
OWZREIFADZCYQD-UHFFFAOYSA-N

> <LogKmHL>
0.51

$$$$
100529
  -INDIGO-08031722222D

 27 27  0  0  0  0  0  0  0  0999 V2000
    0.0000   -0.0000    0.0000 P   0  0  0  0  0  0  0  0  0  0  0  0
    0.0000    1.6000    0.0000 S   0  0  0  0  0  0  0  0  0  0  0  0
    1.3857    0.8000    0.0000 O   0  0  0  0  0  0  0  0  0  0  0  0
    2.7712   -0.0000    0.0000 C   0  0  0  0  0  0  0  0  0  0  0  0
    2.7712   -1.6000    0.0000 C   0  0  0  0  0  0  0  0  0  0  0  0
    1.3857   -2.4000    0.0000 Cl  0  0  0  0  0  0  0  0  0  0  0  0
    4.1569   -2.4000    0.0000 C   0  0  0  0  0  0  0  0  0  0  0  0
    4.1569   -4.0000    0.0000 H   0  0  0  0  0  0  0  0  0  0  0  0
    5.5426   -1.6000    0.0000 C   0  0  0  0  0  0  0  0  0  0  0  0
    6.9281   -2.4000    0.0000 C   0  0  0  0  0  0  0  0  0  0  0  0
    8.3138   -3.2000    0.0000 H   0  0  0  0  0  0  0  0  0  0  0  0
    8.3138   -1.6000    0.0000 H   0  0  0  0  0  0  0  0  0  0  0  0
    6.9281   -4.0000    0.0000 H   0  0  0  0  0  0  0  0  0  0  0  0
    5.5426   -0.0000    0.0000 C   0  0  0  0  0  0  0  0  0  0  0  0
    6.9281    0.8000    0.0000 H   0  0  0  0  0  0  0  0  0  0  0  0
    4.1569    0.8000    0.0000 C   0  0  0  0  0  0  0  0  0  0  0  0
    4.1569    2.4000    0.0000 Cl  0  0  0  0  0  0  0  0  0  0  0  0
   -1.3857    0.8000    0.0000 O   0  0  0  0  0  0  0  0  0  0  0  0
   -2.7712   -0.0000    0.0000 C   0  0  0  0  0  0  0  0  0  0  0  0
   -4.1569    0.8000    0.0000 H   0  0  0  0  0  0  0  0  0  0  0  0
   -4.1569   -0.8000    0.0000 H   0  0  0  0  0  0  0  0  0  0  0  0
   -2.7712    1.6000    0.0000 H   0  0  0  0  0  0  0  0  0  0  0  0
   -1.3857   -0.8000    0.0000 O   0  0  0  0  0  0  0  0  0  0  0  0
   -1.3857   -2.4000    0.0000 C   0  0  0  0  0  0  0  0  0  0  0  0
   -1.3857   -4.0000    0.0000 H   0  0  0  0  0  0  0  0  0  0  0  0
   -2.7712   -3.2000    0.0000 H   0  0  0  0  0  0  0  0  0  0  0  0
    0.0000   -3.2000    0.0000 H   0  0  0  0  0  0  0  0  0  0  0  0
  1  2  2  0  0  0  0
  1  3  1  0  0  0  0
  3  4  1  0  0  0  0
  4  5  1  0  0  0  0
  5  6  1  0  0  0  0
  5  7  2  0  0  0  0
  7  8  1  0  0  0  0
  7  9  1  0  0  0  0
  9 10  1  0  0  0  0
 10 11  1  0  0  0  0
 10 12  1  0  0  0  0
 10 13  1  0  0  0  0
  9 14  2  0  0  0  0
 14 15  1  0  0  0  0
 14 16  1  0  0  0  0
 16  4  2  0  0  0  0
 16 17  1  0  0  0  0
  1 18  1  0  0  0  0
 18 19  1  0  0  0  0
 19 20  1  0  0  0  0
 19 21  1  0  0  0  0
 19 22  1  0  0  0  0
  1 23  1  0  0  0  0
 23 24  1  0  0  0  0
 24 25  1  0  0  0  0
 24 26  1  0  0  0  0
 24 27  1  0  0  0  0
M  END
> <ChemID>
100529

> <source_casrn>
57018-04-9

> <CAS>
57018-04-9

> <SMILES>
Cc1cc(Cl)c(OP(=S)(OC)OC)c(Cl)c1

> <NAME>
Tolclofos-methyl

> <preferred_name>
Tolclofos-methyl

> <iupac>
O-(2,6-dichloro-4-methylphenyl) O,O-dimethyl phosphorothioate

> <MPID>
102127

> <dsstox_substance_id>
DTXSID0034776

> <Canonical_QSARr>
Cc1cc(Cl)c(OP(=S)(OC)OC)c(Cl)c1

> <InChI_Code_QSARr>
InChI=1S/C9H11Cl2O3PS/c1-6-4-7(10)9(8(11)5-6)14-15(16,12-2)13-3/h4-5H,1-3H3

> <InChI Key_QSARr>
OBZIQQJJIKNWNO-UHFFFAOYSA-N

> <LogKmHL>
-0.11

$$$$
100530
  -INDIGO-08031722222D

 17 17  0  0  0  0  0  0  0  0999 V2000
    0.8000    1.3856    0.0000 C   0  0  0  0  0  0  0  0  0  0  0  0
    0.0000    2.7713    0.0000 O   0  0  0  0  0  0  0  0  0  0  0  0
    0.8000    4.1569    0.0000 H   0  0  0  0  0  0  0  0  0  0  0  0
    0.0000    0.0000    0.0000 C   0  0  0  0  0  0  0  0  0  0  0  0
   -1.6000    0.0000    0.0000 O   0  0  0  0  0  0  0  0  0  0  0  0
   -2.4001   -1.3856    0.0000 C   0  0  0  0  0  0  0  0  0  0  0  0
   -4.0000   -1.3856    0.0000 H   0  0  0  0  0  0  0  0  0  0  0  0
   -3.2000   -2.7713    0.0000 H   0  0  0  0  0  0  0  0  0  0  0  0
   -3.2000    0.0000    0.0000 H   0  0  0  0  0  0  0  0  0  0  0  0
    0.8000   -1.3856    0.0000 C   0  0  0  0  0  0  0  0  0  0  0  0
    0.0000   -2.7713    0.0000 Cl  0  0  0  0  0  0  0  0  0  0  0  0
    2.4000   -1.3856    0.0000 C   0  0  0  0  0  0  0  0  0  0  0  0
    3.2001   -2.7713    0.0000 Cl  0  0  0  0  0  0  0  0  0  0  0  0
    3.2001    0.0000    0.0000 C   0  0  0  0  0  0  0  0  0  0  0  0
    4.8000    0.0000    0.0000 Cl  0  0  0  0  0  0  0  0  0  0  0  0
    2.4000    1.3856    0.0000 C   0  0  0  0  0  0  0  0  0  0  0  0
    3.2001    2.7713    0.0000 H   0  0  0  0  0  0  0  0  0  0  0  0
  1  2  1  0  0  0  0
  2  3  1  0  0  0  0
  1  4  1  0  0  0  0
  4  5  1  0  0  0  0
  5  6  1  0  0  0  0
  6  7  1  0  0  0  0
  6  8  1  0  0  0  0
  6  9  1  0  0  0  0
  4 10  2  0  0  0  0
 10 11  1  0  0  0  0
 10 12  1  0  0  0  0
 12 13  1  0  0  0  0
 12 14  2  0  0  0  0
 14 15  1  0  0  0  0
 14 16  1  0  0  0  0
 16  1  2  0  0  0  0
 16 17  1  0  0  0  0
M  END
> <ChemID>
100530

> <source_casrn>
57057-83-7

> <CAS>
57057-83-7

> <SMILES>
COc1c(O)cc(Cl)c(Cl)c1Cl

> <NAME>
Phenol, 3,4,5-trichloro-2-methoxy-

> <preferred_name>
3,4,5-Trichloro-2-methoxyphenol

> <iupac>
C7H5Cl3O2

> <MPID>
102128

> <dsstox_substance_id>
DTXSID7052232

> <Canonical_QSARr>
COc1c(O)cc(Cl)c(Cl)c1Cl

> <InChI_Code_QSARr>
InChI=1S/C7H5Cl3O2/c1-12-7-4(11)2-3(8)5(9)6(7)10/h2,11H,1H3

> <InChI Key_QSARr>
RKEHLKXRUVUBJN-UHFFFAOYSA-N

> <LogKmHL>
0.11

$$$$
100531
  -INDIGO-08031722222D

 21 23  0  0  0  0  0  0  0  0999 V2000
   -0.2707    2.5747    0.0000 O   0  0  0  0  0  0  0  0  0  0  0  0
   -1.7322    1.9239    0.0000 C   0  0  0  0  0  0  0  0  0  0  0  0
   -1.5651    0.3327    0.0000 C   0  0  0  0  0  0  0  0  0  0  0  0
   -2.8595   -0.6078    0.0000 C   0  0  0  0  0  0  0  0  0  0  0  0
   -2.6921   -2.1990    0.0000 H   0  0  0  0  0  0  0  0  0  0  0  0
   -4.3212    0.0430    0.0000 C   0  0  0  0  0  0  0  0  0  0  0  0
   -4.4883    1.6342    0.0000 C   0  0  0  0  0  0  0  0  0  0  0  0
   -3.1939    2.5747    0.0000 C   0  0  0  0  0  0  0  0  0  0  0  0
   -3.3612    4.1659    0.0000 Cl  0  0  0  0  0  0  0  0  0  0  0  0
   -5.9501    2.2850    0.0000 Cl  0  0  0  0  0  0  0  0  0  0  0  0
   -5.6156   -0.8974    0.0000 Cl  0  0  0  0  0  0  0  0  0  0  0  0
    0.0000    0.0000    0.0000 C   0  0  0  0  0  0  0  0  0  0  0  0
    0.8000    1.3856    0.0000 C   0  0  0  0  0  0  0  0  0  0  0  0
    2.4000    1.3856    0.0000 C   0  0  0  0  0  0  0  0  0  0  0  0
    3.2000    2.7713    0.0000 H   0  0  0  0  0  0  0  0  0  0  0  0
    3.2000    0.0000    0.0000 C   0  0  0  0  0  0  0  0  0  0  0  0
    2.4000   -1.3856    0.0000 C   0  0  0  0  0  0  0  0  0  0  0  0
    0.8000   -1.3856    0.0000 C   0  0  0  0  0  0  0  0  0  0  0  0
    0.0000   -2.7713    0.0000 H   0  0  0  0  0  0  0  0  0  0  0  0
    3.2000   -2.7713    0.0000 Cl  0  0  0  0  0  0  0  0  0  0  0  0
    4.8000    0.0000    0.0000 Cl  0  0  0  0  0  0  0  0  0  0  0  0
  1  2  1  0  0  0  0
  2  3  1  0  0  0  0
  3  4  2  0  0  0  0
  4  5  1  0  0  0  0
  4  6  1  0  0  0  0
  6  7  2  0  0  0  0
  7  8  1  0  0  0  0
  8  2  2  0  0  0  0
  8  9  1  0  0  0  0
  7 10  1  0  0  0  0
  6 11  1  0  0  0  0
  3 12  1  0  0  0  0
 12 13  1  0  0  0  0
 13  1  1  0  0  0  0
 13 14  2  0  0  0  0
 14 15  1  0  0  0  0
 14 16  1  0  0  0  0
 16 17  2  0  0  0  0
 17 18  1  0  0  0  0
 18 12  2  0  0  0  0
 18 19  1  0  0  0  0
 17 20  1  0  0  0  0
 16 21  1  0  0  0  0
M  END
> <ChemID>
100531

> <source_casrn>
57117-31-4

> <CAS>
57117-31-4

> <SMILES>
Clc1c(Cl)c2oc3cc(Cl)c(Cl)cc3c2cc1Cl

> <NAME>
2,3,4,7,8-pentachlorodibenzofuran

> <preferred_name>
2,3,4,7,8-Pentachlorodibenzofuran

> <iupac>
2,3,4,7,8-pentachlorodibenzo[b,d]furan

> <MPID>
102129

> <dsstox_substance_id>
DTXSID7030066

> <Canonical_QSARr>
Clc1c(Cl)c2oc3cc(Cl)c(Cl)cc3c2cc1Cl

> <InChI_Code_QSARr>
InChI=1S/C12H3Cl5O/c13-6-1-4-5-2-8(15)10(16)11(17)12(5)18-9(4)3-7(6)14/h1-3H

> <InChI Key_QSARr>
OGBQILNBLMPPDP-UHFFFAOYSA-N

> <LogKmHL>
1.36

$$$$
100533
  -INDIGO-08031722222D

 21 23  0  0  0  0  0  0  0  0999 V2000
   -0.8000    1.3856    0.0000 C   0  0  0  0  0  0  0  0  0  0  0  0
    0.0000    2.7713    0.0000 H   0  0  0  0  0  0  0  0  0  0  0  0
    0.0000    0.0000    0.0000 C   0  0  0  0  0  0  0  0  0  0  0  0
    1.5651   -0.3327    0.0000 C   0  0  0  0  0  0  0  0  0  0  0  0
    1.7322   -1.9239    0.0000 C   0  0  0  0  0  0  0  0  0  0  0  0
    0.2707   -2.5747    0.0000 O   0  0  0  0  0  0  0  0  0  0  0  0
   -0.8000   -1.3856    0.0000 C   0  0  0  0  0  0  0  0  0  0  0  0
   -2.4000   -1.3856    0.0000 C   0  0  0  0  0  0  0  0  0  0  0  0
   -3.2000   -2.7713    0.0000 Cl  0  0  0  0  0  0  0  0  0  0  0  0
   -3.2000    0.0000    0.0000 C   0  0  0  0  0  0  0  0  0  0  0  0
   -4.8000    0.0000    0.0000 Cl  0  0  0  0  0  0  0  0  0  0  0  0
   -2.4000    1.3856    0.0000 C   0  0  0  0  0  0  0  0  0  0  0  0
   -3.2000    2.7713    0.0000 Cl  0  0  0  0  0  0  0  0  0  0  0  0
    3.1939   -2.5747    0.0000 C   0  0  0  0  0  0  0  0  0  0  0  0
    3.3612   -4.1659    0.0000 H   0  0  0  0  0  0  0  0  0  0  0  0
    4.4883   -1.6342    0.0000 C   0  0  0  0  0  0  0  0  0  0  0  0
    5.9501   -2.2850    0.0000 Cl  0  0  0  0  0  0  0  0  0  0  0  0
    4.3212   -0.0430    0.0000 C   0  0  0  0  0  0  0  0  0  0  0  0
    5.6156    0.8974    0.0000 Cl  0  0  0  0  0  0  0  0  0  0  0  0
    2.8595    0.6078    0.0000 C   0  0  0  0  0  0  0  0  0  0  0  0
    2.6921    2.1990    0.0000 Cl  0  0  0  0  0  0  0  0  0  0  0  0
  1  2  1  0  0  0  0
  1  3  1  0  0  0  0
  3  4  1  0  0  0  0
  4  5  1  0  0  0  0
  5  6  1  0  0  0  0
  6  7  1  0  0  0  0
  7  3  2  0  0  0  0
  7  8  1  0  0  0  0
  8  9  1  0  0  0  0
  8 10  2  0  0  0  0
 10 11  1  0  0  0  0
 10 12  1  0  0  0  0
 12  1  2  0  0  0  0
 12 13  1  0  0  0  0
  5 14  2  0  0  0  0
 14 15  1  0  0  0  0
 14 16  1  0  0  0  0
 16 17  1  0  0  0  0
 16 18  2  0  0  0  0
 18 19  1  0  0  0  0
 18 20  1  0  0  0  0
 20  4  2  0  0  0  0
 20 21  1  0  0  0  0
M  END
> <ChemID>
100533

> <source_casrn>
57117-44-9

> <CAS>
57117-44-9

> <SMILES>
Clc1cc2c(oc3cc(Cl)c(Cl)c(Cl)c23)c(Cl)c1Cl

> <NAME>
1,2,3,6,7,8-hexachlorodibenzofuran

> <preferred_name>
1,2,3,6,7,8-Hexachlorodibenzofuran

> <iupac>
1,2,3,6,7,8-HEXACHLORODIBENZOFURAN

> <MPID>
102131

> <dsstox_substance_id>
DTXSID2069155

> <Canonical_QSARr>
Clc1cc2c(oc3cc(Cl)c(Cl)c(Cl)c23)c(Cl)c1Cl

> <InChI_Code_QSARr>
InChI=1S/C12H2Cl6O/c13-4-1-3-7-6(2-5(14)8(15)10(7)17)19-12(3)11(18)9(4)16/h1-2H

> <InChI Key_QSARr>
JEYJJJXOFWNEHN-UHFFFAOYSA-N

> <LogKmHL>
1.0

$$$$
100534
  -INDIGO-08031722222D

 22 23  0  0  0  0  0  0  0  0999 V2000
   -0.0001    0.0000    0.0000 C   0  0  0  0  0  0  0  0  0  0  0  0
    1.6001   -0.0000    0.0000 C   0  0  0  0  0  0  0  0  0  0  0  0
    2.4001   -1.3856    0.0000 C   0  0  0  0  0  0  0  0  0  0  0  0
    1.6001   -2.7713    0.0000 H   0  0  0  0  0  0  0  0  0  0  0  0
    4.0000   -1.3856    0.0000 C   0  0  0  0  0  0  0  0  0  0  0  0
    4.8000   -2.7713    0.0000 Cl  0  0  0  0  0  0  0  0  0  0  0  0
    4.8000    0.0000    0.0000 C   0  0  0  0  0  0  0  0  0  0  0  0
    6.4000    0.0000    0.0000 Cl  0  0  0  0  0  0  0  0  0  0  0  0
    4.0000    1.3856    0.0000 C   0  0  0  0  0  0  0  0  0  0  0  0
    4.8000    2.7713    0.0000 H   0  0  0  0  0  0  0  0  0  0  0  0
    2.4001    1.3856    0.0000 C   0  0  0  0  0  0  0  0  0  0  0  0
    1.6001    2.7713    0.0000 H   0  0  0  0  0  0  0  0  0  0  0  0
   -0.8001    1.3856    0.0000 C   0  0  0  0  0  0  0  0  0  0  0  0
   -0.0001    2.7713    0.0000 H   0  0  0  0  0  0  0  0  0  0  0  0
   -2.4000    1.3856    0.0000 C   0  0  0  0  0  0  0  0  0  0  0  0
   -3.2000    2.7713    0.0000 Cl  0  0  0  0  0  0  0  0  0  0  0  0
   -3.2000    0.0000    0.0000 C   0  0  0  0  0  0  0  0  0  0  0  0
   -4.8000   -0.0000    0.0000 Cl  0  0  0  0  0  0  0  0  0  0  0  0
   -2.4000   -1.3856    0.0000 C   0  0  0  0  0  0  0  0  0  0  0  0
   -3.2000   -2.7713    0.0000 Cl  0  0  0  0  0  0  0  0  0  0  0  0
   -0.8001   -1.3856    0.0000 C   0  0  0  0  0  0  0  0  0  0  0  0
   -0.0001   -2.7713    0.0000 H   0  0  0  0  0  0  0  0  0  0  0  0
  1  2  1  0  0  0  0
  2  3  1  0  0  0  0
  3  4  1  0  0  0  0
  3  5  2  0  0  0  0
  5  6  1  0  0  0  0
  5  7  1  0  0  0  0
  7  8  1  0  0  0  0
  7  9  2  0  0  0  0
  9 10  1  0  0  0  0
  9 11  1  0  0  0  0
 11  2  2  0  0  0  0
 11 12  1  0  0  0  0
  1 13  1  0  0  0  0
 13 14  1  0  0  0  0
 13 15  2  0  0  0  0
 15 16  1  0  0  0  0
 15 17  1  0  0  0  0
 17 18  1  0  0  0  0
 17 19  2  0  0  0  0
 19 20  1  0  0  0  0
 19 21  1  0  0  0  0
 21  1  2  0  0  0  0
 21 22  1  0  0  0  0
M  END
> <ChemID>
100534

> <source_casrn>
57465-28-8

> <CAS>
57465-28-8

> <SMILES>
Clc1ccc(cc1Cl)-c1cc(Cl)c(Cl)c(Cl)c1

> <NAME>
3,3',4,4',5-Pentachloro-1,1'-biphenyl

> <preferred_name>
3,3',4,4',5-Pentachlorobiphenyl

> <iupac>
3,3',4,4',5-pentachlorobiphenyl

> <MPID>
102132

> <dsstox_substance_id>
DTXSID3032179

> <Canonical_QSARr>
Clc1ccc(cc1Cl)-c1cc(Cl)c(Cl)c(Cl)c1

> <InChI_Code_QSARr>
InChI=1S/C12H5Cl5/c13-8-2-1-6(3-9(8)14)7-4-10(15)12(17)11(16)5-7/h1-5H

> <InChI Key_QSARr>
REHONNLQRWTIFF-UHFFFAOYSA-N

> <LogKmHL>
2.4

$$$$
100535
  -INDIGO-08031722222D

 22 24  0  0  0  0  0  0  0  0999 V2000
   -0.0001   -0.0000    0.0000 C   0  0  0  0  0  0  0  0  0  0  0  0
    1.3856    0.8000    0.0000 C   0  0  0  0  0  0  0  0  0  0  0  0
    1.3856    2.4000    0.0000 Cl  0  0  0  0  0  0  0  0  0  0  0  0
    2.7713   -0.0000    0.0000 C   0  0  0  0  0  0  0  0  0  0  0  0
    4.1569    0.8000    0.0000 Cl  0  0  0  0  0  0  0  0  0  0  0  0
    2.7713   -1.6000    0.0000 C   0  0  0  0  0  0  0  0  0  0  0  0
    4.1569   -2.4000    0.0000 Cl  0  0  0  0  0  0  0  0  0  0  0  0
    1.3856   -2.4000    0.0000 C   0  0  0  0  0  0  0  0  0  0  0  0
    1.3856   -4.0000    0.0000 H   0  0  0  0  0  0  0  0  0  0  0  0
   -0.0001   -1.6000    0.0000 C   0  0  0  0  0  0  0  0  0  0  0  0
   -1.3857   -2.4000    0.0000 O   0  0  0  0  0  0  0  0  0  0  0  0
   -2.7712   -1.6000    0.0000 C   0  0  0  0  0  0  0  0  0  0  0  0
   -4.1569   -2.4000    0.0000 C   0  0  0  0  0  0  0  0  0  0  0  0
   -5.5425   -1.6000    0.0000 C   0  0  0  0  0  0  0  0  0  0  0  0
   -5.5425   -0.0000    0.0000 C   0  0  0  0  0  0  0  0  0  0  0  0
   -4.1569    0.8000    0.0000 C   0  0  0  0  0  0  0  0  0  0  0  0
   -4.1569    2.4000    0.0000 H   0  0  0  0  0  0  0  0  0  0  0  0
   -2.7712   -0.0000    0.0000 C   0  0  0  0  0  0  0  0  0  0  0  0
   -1.3857    0.8000    0.0000 O   0  0  0  0  0  0  0  0  0  0  0  0
   -6.9282    0.8000    0.0000 Cl  0  0  0  0  0  0  0  0  0  0  0  0
   -6.9282   -2.4000    0.0000 Cl  0  0  0  0  0  0  0  0  0  0  0  0
   -4.1569   -4.0000    0.0000 Cl  0  0  0  0  0  0  0  0  0  0  0  0
  1  2  1  0  0  0  0
  2  3  1  0  0  0  0
  2  4  2  0  0  0  0
  4  5  1  0  0  0  0
  4  6  1  0  0  0  0
  6  7  1  0  0  0  0
  6  8  2  0  0  0  0
  8  9  1  0  0  0  0
  8 10  1  0  0  0  0
 10  1  2  0  0  0  0
 10 11  1  0  0  0  0
 11 12  1  0  0  0  0
 12 13  1  0  0  0  0
 13 14  2  0  0  0  0
 14 15  1  0  0  0  0
 15 16  2  0  0  0  0
 16 17  1  0  0  0  0
 16 18  1  0  0  0  0
 18 12  2  0  0  0  0
 18 19  1  0  0  0  0
 19  1  1  0  0  0  0
 15 20  1  0  0  0  0
 14 21  1  0  0  0  0
 13 22  1  0  0  0  0
M  END
> <ChemID>
100535

> <source_casrn>
57653-85-7

> <CAS>
57653-85-7

> <SMILES>
Clc1cc2Oc3c(cc(Cl)c(Cl)c3Cl)Oc2c(Cl)c1Cl

> <NAME>
1,2,3,6,7,8-Hexachlorodibenzo-p-dioxin

> <preferred_name>
1,2,3,6,7,8-Hexachlorodibenzo-p-dioxin

> <iupac>
1,2,3,6,7,8-hexachlorooxanthrene

> <MPID>
102133

> <dsstox_substance_id>
DTXSID0023824

> <Canonical_QSARr>
Clc1cc2Oc3c(cc(Cl)c(Cl)c3Cl)Oc2c(Cl)c1Cl

> <InChI_Code_QSARr>
InChI=1S/C12H2Cl6O2/c13-3-1-5-11(9(17)7(3)15)20-6-2-4(14)8(16)10(18)12(6)19-5/h1-2H

> <InChI Key_QSARr>
YCLUIPQDHHPDJJ-UHFFFAOYSA-N

> <LogKmHL>
1.21

$$$$
100537
  -INDIGO-08031722222D

 22 23  0  0  0  0  0  0  0  0999 V2000
    0.0001   -0.0000    0.0000 C   0  0  0  0  0  0  0  0  0  0  0  0
    0.8001   -1.3856    0.0000 C   0  0  0  0  0  0  0  0  0  0  0  0
    0.0001   -2.7713    0.0000 Br  0  0  0  0  0  0  0  0  0  0  0  0
    2.4000   -1.3856    0.0000 C   0  0  0  0  0  0  0  0  0  0  0  0
    3.2000   -2.7713    0.0000 H   0  0  0  0  0  0  0  0  0  0  0  0
    3.2000   -0.0000    0.0000 C   0  0  0  0  0  0  0  0  0  0  0  0
    4.8000    0.0000    0.0000 Br  0  0  0  0  0  0  0  0  0  0  0  0
    2.4000    1.3856    0.0000 C   0  0  0  0  0  0  0  0  0  0  0  0
    3.2000    2.7713    0.0000 H   0  0  0  0  0  0  0  0  0  0  0  0
    0.8001    1.3856    0.0000 C   0  0  0  0  0  0  0  0  0  0  0  0
    0.0001    2.7713    0.0000 Br  0  0  0  0  0  0  0  0  0  0  0  0
   -1.6001    0.0000    0.0000 C   0  0  0  0  0  0  0  0  0  0  0  0
   -2.4001    1.3856    0.0000 C   0  0  0  0  0  0  0  0  0  0  0  0
   -1.6001    2.7713    0.0000 H   0  0  0  0  0  0  0  0  0  0  0  0
   -4.0000    1.3856    0.0000 C   0  0  0  0  0  0  0  0  0  0  0  0
   -4.8000    2.7713    0.0000 H   0  0  0  0  0  0  0  0  0  0  0  0
   -4.8000    0.0000    0.0000 C   0  0  0  0  0  0  0  0  0  0  0  0
   -6.4000    0.0000    0.0000 H   0  0  0  0  0  0  0  0  0  0  0  0
   -4.0000   -1.3856    0.0000 C   0  0  0  0  0  0  0  0  0  0  0  0
   -4.8000   -2.7713    0.0000 H   0  0  0  0  0  0  0  0  0  0  0  0
   -2.4001   -1.3856    0.0000 C   0  0  0  0  0  0  0  0  0  0  0  0
   -1.6001   -2.7713    0.0000 H   0  0  0  0  0  0  0  0  0  0  0  0
  1  2  1  0  0  0  0
  2  3  1  0  0  0  0
  2  4  2  0  0  0  0
  4  5  1  0  0  0  0
  4  6  1  0  0  0  0
  6  7  1  0  0  0  0
  6  8  2  0  0  0  0
  8  9  1  0  0  0  0
  8 10  1  0  0  0  0
 10  1  2  0  0  0  0
 10 11  1  0  0  0  0
  1 12  1  0  0  0  0
 12 13  1  0  0  0  0
 13 14  1  0  0  0  0
 13 15  2  0  0  0  0
 15 16  1  0  0  0  0
 15 17  1  0  0  0  0
 17 18  1  0  0  0  0
 17 19  2  0  0  0  0
 19 20  1  0  0  0  0
 19 21  1  0  0  0  0
 21 12  2  0  0  0  0
 21 22  1  0  0  0  0
M  END
> <ChemID>
100537

> <source_casrn>
59080-33-0

> <CAS>
59080-33-0

> <SMILES>
Brc1cc(Br)c(-c2ccccc2)c(Br)c1

> <NAME>
2,4,6-tribromobiphenyl

> <preferred_name>
PBB 030

> <iupac>
1,3,5-tribromo-2-phenylbenzene

> <MPID>
102135

> <dsstox_substance_id>
DTXSID5074767

> <Canonical_QSARr>
Brc1cc(Br)c(-c2ccccc2)c(Br)c1

> <InChI_Code_QSARr>
InChI=1S/C12H7Br3/c13-9-6-10(14)12(11(15)7-9)8-4-2-1-3-5-8/h1-7H

> <InChI Key_QSARr>
YCLZBYQDXVJFII-UHFFFAOYSA-N

> <LogKmHL>
1.25

$$$$
100539
  -INDIGO-08031722222D

 22 23  0  0  0  0  0  0  0  0999 V2000
   -0.0001    0.0000    0.0000 C   0  0  0  0  0  0  0  0  0  0  0  0
    1.6001   -0.0000    0.0000 C   0  0  0  0  0  0  0  0  0  0  0  0
    2.4001   -1.3856    0.0000 C   0  0  0  0  0  0  0  0  0  0  0  0
    1.6001   -2.7713    0.0000 Br  0  0  0  0  0  0  0  0  0  0  0  0
    4.0000   -1.3856    0.0000 C   0  0  0  0  0  0  0  0  0  0  0  0
    4.8000   -2.7713    0.0000 H   0  0  0  0  0  0  0  0  0  0  0  0
    4.8000    0.0000    0.0000 C   0  0  0  0  0  0  0  0  0  0  0  0
    6.4000    0.0000    0.0000 Br  0  0  0  0  0  0  0  0  0  0  0  0
    4.0000    1.3856    0.0000 C   0  0  0  0  0  0  0  0  0  0  0  0
    4.8000    2.7713    0.0000 H   0  0  0  0  0  0  0  0  0  0  0  0
    2.4001    1.3856    0.0000 C   0  0  0  0  0  0  0  0  0  0  0  0
    1.6001    2.7713    0.0000 Br  0  0  0  0  0  0  0  0  0  0  0  0
   -0.8001    1.3856    0.0000 C   0  0  0  0  0  0  0  0  0  0  0  0
   -0.0001    2.7713    0.0000 Br  0  0  0  0  0  0  0  0  0  0  0  0
   -2.4000    1.3856    0.0000 C   0  0  0  0  0  0  0  0  0  0  0  0
   -3.2000    2.7713    0.0000 H   0  0  0  0  0  0  0  0  0  0  0  0
   -3.2000    0.0000    0.0000 C   0  0  0  0  0  0  0  0  0  0  0  0
   -4.8000   -0.0000    0.0000 Br  0  0  0  0  0  0  0  0  0  0  0  0
   -2.4000   -1.3856    0.0000 C   0  0  0  0  0  0  0  0  0  0  0  0
   -3.2000   -2.7713    0.0000 H   0  0  0  0  0  0  0  0  0  0  0  0
   -0.8001   -1.3856    0.0000 C   0  0  0  0  0  0  0  0  0  0  0  0
   -0.0001   -2.7713    0.0000 Br  0  0  0  0  0  0  0  0  0  0  0  0
  1  2  1  0  0  0  0
  2  3  1  0  0  0  0
  3  4  1  0  0  0  0
  3  5  2  0  0  0  0
  5  6  1  0  0  0  0
  5  7  1  0  0  0  0
  7  8  1  0  0  0  0
  7  9  2  0  0  0  0
  9 10  1  0  0  0  0
  9 11  1  0  0  0  0
 11  2  2  0  0  0  0
 11 12  1  0  0  0  0
  1 13  1  0  0  0  0
 13 14  1  0  0  0  0
 13 15  2  0  0  0  0
 15 16  1  0  0  0  0
 15 17  1  0  0  0  0
 17 18  1  0  0  0  0
 17 19  2  0  0  0  0
 19 20  1  0  0  0  0
 19 21  1  0  0  0  0
 21  1  2  0  0  0  0
 21 22  1  0  0  0  0
M  END
> <ChemID>
100539

> <source_casrn>
59261-08-4

> <CAS>
59261-08-4

> <SMILES>
Brc1cc(Br)c(-c2c(Br)cc(Br)cc2Br)c(Br)c1

> <NAME>
2,2',4,4',6,6'-hexabromobiphenyl

> <preferred_name>
PBB 155

> <iupac>
1,3,5-tribromo-2-(2,4,6-tribromophenyl)benzene

> <MPID>
102136

> <dsstox_substance_id>
DTXSID4074772

> <Canonical_QSARr>
Brc1cc(Br)c(-c2c(Br)cc(Br)cc2Br)c(Br)c1

> <InChI_Code_QSARr>
InChI=1S/C12H4Br6/c13-5-1-7(15)11(8(16)2-5)12-9(17)3-6(14)4-10(12)18/h1-4H

> <InChI Key_QSARr>
LNFYSRMCCKKDEH-UHFFFAOYSA-N

> <LogKmHL>
2.66

$$$$
100541
  -INDIGO-08031722222D

 23 24  0  0  0  0  0  0  0  0999 V2000
    1.3857    0.8000    0.0000 O   0  0  0  0  0  0  0  0  0  0  0  0
    2.9613    0.5222    0.0000 C   0  0  0  0  0  0  0  0  0  0  0  0
    3.5086   -0.9813    0.0000 C   0  0  0  0  0  0  0  0  0  0  0  0
    2.4802   -2.2071    0.0000 H   0  0  0  0  0  0  0  0  0  0  0  0
    5.0842   -1.2591    0.0000 C   0  0  0  0  0  0  0  0  0  0  0  0
    5.6315   -2.7627    0.0000 Cl  0  0  0  0  0  0  0  0  0  0  0  0
    6.1126   -0.0335    0.0000 C   0  0  0  0  0  0  0  0  0  0  0  0
    7.6884   -0.3113    0.0000 Cl  0  0  0  0  0  0  0  0  0  0  0  0
    5.5655    1.4700    0.0000 C   0  0  0  0  0  0  0  0  0  0  0  0
    6.5940    2.6957    0.0000 H   0  0  0  0  0  0  0  0  0  0  0  0
    3.9898    1.7479    0.0000 C   0  0  0  0  0  0  0  0  0  0  0  0
    3.4426    3.2513    0.0000 Cl  0  0  0  0  0  0  0  0  0  0  0  0
   -0.0001    0.0001    0.0000 C   0  0  0  0  0  0  0  0  0  0  0  0
   -0.0001   -1.6000    0.0000 C   0  0  0  0  0  0  0  0  0  0  0  0
    1.3857   -2.4000    0.0000 H   0  0  0  0  0  0  0  0  0  0  0  0
   -1.3857   -2.4000    0.0000 C   0  0  0  0  0  0  0  0  0  0  0  0
   -1.3857   -4.0000    0.0000 H   0  0  0  0  0  0  0  0  0  0  0  0
   -2.7713   -1.6000    0.0000 C   0  0  0  0  0  0  0  0  0  0  0  0
   -4.1569   -2.4000    0.0000 Cl  0  0  0  0  0  0  0  0  0  0  0  0
   -2.7713    0.0001    0.0000 C   0  0  0  0  0  0  0  0  0  0  0  0
   -4.1569    0.8000    0.0000 H   0  0  0  0  0  0  0  0  0  0  0  0
   -1.3857    0.8000    0.0000 C   0  0  0  0  0  0  0  0  0  0  0  0
   -1.3857    2.4000    0.0000 Cl  0  0  0  0  0  0  0  0  0  0  0  0
  1  2  1  0  0  0  0
  2  3  1  0  0  0  0
  3  4  1  0  0  0  0
  3  5  2  0  0  0  0
  5  6  1  0  0  0  0
  5  7  1  0  0  0  0
  7  8  1  0  0  0  0
  7  9  2  0  0  0  0
  9 10  1  0  0  0  0
  9 11  1  0  0  0  0
 11  2  2  0  0  0  0
 11 12  1  0  0  0  0
  1 13  1  0  0  0  0
 13 14  1  0  0  0  0
 14 15  1  0  0  0  0
 14 16  2  0  0  0  0
 16 17  1  0  0  0  0
 16 18  1  0  0  0  0
 18 19  1  0  0  0  0
 18 20  2  0  0  0  0
 20 21  1  0  0  0  0
 20 22  1  0  0  0  0
 22 13  2  0  0  0  0
 22 23  1  0  0  0  0
M  END
> <ChemID>
100541

> <source_casrn>


> <CAS>
60123-64-0

> <SMILES>
Clc2ccc(Oc1cc(Cl)c(Cl)cc1Cl)c(Cl)c2

> <NAME>
2,2',4,4',5-Pentachlorodiphenyl ether

> <preferred_name>


> <iupac>


> <MPID>
102137

> <dsstox_substance_id>


> <Canonical_QSARr>
Clc1cc(Cl)c(cc1)Oc1cc(Cl)c(Cl)cc1Cl

> <InChI_Code_QSARr>
InChI=1S/C12H5Cl5O/c13-6-1-2-11(9(16)3-6)18-12-5-8(15)7(14)4-10(12)17/h1-5H

> <InChI Key_QSARr>
AVURWLKSFZBANQ-UHFFFAOYSA-N

> <LogKmHL>
2.02

$$$$
100543
  -INDIGO-08031722222D

 22 23  0  0  0  0  0  0  0  0999 V2000
    3.2000   -0.0000    0.0000 C   0  0  0  0  0  0  0  0  0  0  0  0
    2.4000    1.3856    0.0000 C   0  0  0  0  0  0  0  0  0  0  0  0
    3.2000    2.7713    0.0000 H   0  0  0  0  0  0  0  0  0  0  0  0
    0.8001    1.3856    0.0000 C   0  0  0  0  0  0  0  0  0  0  0  0
    0.0001    2.7713    0.0000 Cl  0  0  0  0  0  0  0  0  0  0  0  0
    0.0001   -0.0000    0.0000 C   0  0  0  0  0  0  0  0  0  0  0  0
   -1.6001    0.0000    0.0000 C   0  0  0  0  0  0  0  0  0  0  0  0
   -2.4001    1.3856    0.0000 C   0  0  0  0  0  0  0  0  0  0  0  0
   -1.6001    2.7713    0.0000 Cl  0  0  0  0  0  0  0  0  0  0  0  0
   -4.0000    1.3856    0.0000 C   0  0  0  0  0  0  0  0  0  0  0  0
   -4.8000    2.7713    0.0000 Cl  0  0  0  0  0  0  0  0  0  0  0  0
   -4.8000    0.0000    0.0000 C   0  0  0  0  0  0  0  0  0  0  0  0
   -6.4000    0.0000    0.0000 Cl  0  0  0  0  0  0  0  0  0  0  0  0
   -4.0000   -1.3856    0.0000 C   0  0  0  0  0  0  0  0  0  0  0  0
   -4.8000   -2.7713    0.0000 Cl  0  0  0  0  0  0  0  0  0  0  0  0
   -2.4001   -1.3856    0.0000 C   0  0  0  0  0  0  0  0  0  0  0  0
   -1.6001   -2.7713    0.0000 H   0  0  0  0  0  0  0  0  0  0  0  0
    0.8001   -1.3856    0.0000 C   0  0  0  0  0  0  0  0  0  0  0  0
    0.0001   -2.7713    0.0000 Cl  0  0  0  0  0  0  0  0  0  0  0  0
    2.4000   -1.3856    0.0000 C   0  0  0  0  0  0  0  0  0  0  0  0
    3.2000   -2.7713    0.0000 H   0  0  0  0  0  0  0  0  0  0  0  0
    4.8000   -0.0000    0.0000 Cl  0  0  0  0  0  0  0  0  0  0  0  0
  1  2  1  0  0  0  0
  2  3  1  0  0  0  0
  2  4  2  0  0  0  0
  4  5  1  0  0  0  0
  4  6  1  0  0  0  0
  6  7  1  0  0  0  0
  7  8  1  0  0  0  0
  8  9  1  0  0  0  0
  8 10  2  0  0  0  0
 10 11  1  0  0  0  0
 10 12  1  0  0  0  0
 12 13  1  0  0  0  0
 12 14  2  0  0  0  0
 14 15  1  0  0  0  0
 14 16  1  0  0  0  0
 16  7  2  0  0  0  0
 16 17  1  0  0  0  0
  6 18  2  0  0  0  0
 18 19  1  0  0  0  0
 18 20  1  0  0  0  0
 20  1  2  0  0  0  0
 20 21  1  0  0  0  0
  1 22  1  0  0  0  0
M  END
> <ChemID>
100543

> <source_casrn>
60145-23-5

> <CAS>
60145-23-5

> <SMILES>
Clc1cc(Cl)c(-c2cc(Cl)c(Cl)c(Cl)c2Cl)c(Cl)c1

> <NAME>
2,2',3,4,4',5,6'-heptachlorobiphenyl

> <preferred_name>
2,2',3,4,4',5,6'-Heptachlorobiphenyl

> <iupac>
1,2,3,4-tetrachloro-5-(2,4,6-trichlorophenyl)benzene

> <MPID>
102139

> <dsstox_substance_id>
DTXSID9074191

> <Canonical_QSARr>
Clc1cc(Cl)c(-c2cc(Cl)c(Cl)c(Cl)c2Cl)c(Cl)c1

> <InChI_Code_QSARr>
InChI=1S/C12H3Cl7/c13-4-1-6(14)9(7(15)2-4)5-3-8(16)11(18)12(19)10(5)17/h1-3H

> <InChI Key_QSARr>
RXRLRYZUMSYVLS-UHFFFAOYSA-N

> <LogKmHL>
2.51

$$$$
100544
  -INDIGO-08031722222D

 34 36  0  0  0  0  0  0  0  0999 V2000
    0.0000   -0.0001    0.0000 C   0  0  0  0  0  0  0  0  0  0  0  0
    1.3856    0.8000    0.0000 C   0  0  0  0  0  0  0  0  0  0  0  0
    1.6635    2.3757    0.0000 C   0  0  0  0  0  0  0  0  0  0  0  0
    1.0944    3.0070    0.0000 Cl  0  0  0  0  0  0  0  0  0  0  0  0
    3.1670    2.9228    0.0000 C   0  0  0  0  0  0  0  0  0  0  0  0
    3.4449    4.4986    0.0000 H   0  0  0  0  0  0  0  0  0  0  0  0
    4.3927    1.8944    0.0000 C   0  0  0  0  0  0  0  0  0  0  0  0
    5.8962    2.4417    0.0000 H   0  0  0  0  0  0  0  0  0  0  0  0
    4.1148    0.3188    0.0000 C   0  0  0  0  0  0  0  0  0  0  0  0
    5.3406   -0.7098    0.0000 H   0  0  0  0  0  0  0  0  0  0  0  0
    2.6114   -0.2284    0.0000 C   0  0  0  0  0  0  0  0  0  0  0  0
    2.3335   -1.8041    0.0000 H   0  0  0  0  0  0  0  0  0  0  0  0
   -1.0285    1.2257    0.0000 C   0  0  0  0  0  0  0  0  0  0  0  0
   -0.4812    2.7292    0.0000 C   0  0  0  0  0  0  0  0  0  0  0  0
    0.2037    3.2323    0.0000 H   0  0  0  0  0  0  0  0  0  0  0  0
   -1.5096    3.9549    0.0000 N   0  0  0  0  0  0  0  0  0  0  0  0
   -3.0854    3.6770    0.0000 C   0  0  0  0  0  0  0  0  0  0  0  0
   -4.1138    4.9027    0.0000 H   0  0  0  0  0  0  0  0  0  0  0  0
   -3.6327    2.1734    0.0000 N   0  0  0  0  0  0  0  0  0  0  0  0
   -2.6042    0.9479    0.0000 C   0  0  0  0  0  0  0  0  0  0  0  0
   -3.2186    0.3606    0.0000 H   0  0  0  0  0  0  0  0  0  0  0  0
   -1.0285   -1.2256    0.0000 C   0  0  0  0  0  0  0  0  0  0  0  0
   -2.6285   -1.2256    0.0000 C   0  0  0  0  0  0  0  0  0  0  0  0
   -3.1514   -0.5556    0.0000 H   0  0  0  0  0  0  0  0  0  0  0  0
   -3.4285   -2.6113    0.0000 C   0  0  0  0  0  0  0  0  0  0  0  0
   -5.0285   -2.6113    0.0000 H   0  0  0  0  0  0  0  0  0  0  0  0
   -2.6285   -3.9969    0.0000 C   0  0  0  0  0  0  0  0  0  0  0  0
   -3.4285   -5.3826    0.0000 Cl  0  0  0  0  0  0  0  0  0  0  0  0
   -1.0285   -3.9969    0.0000 C   0  0  0  0  0  0  0  0  0  0  0  0
   -0.2285   -5.3826    0.0000 H   0  0  0  0  0  0  0  0  0  0  0  0
   -0.2285   -2.6113    0.0000 C   0  0  0  0  0  0  0  0  0  0  0  0
    0.4813   -2.7292    0.0000 H   0  0  0  0  0  0  0  0  0  0  0  0
    1.0284   -1.2256    0.0000 O   0  0  0  0  0  0  0  0  0  0  0  0
    1.2014   -1.9240    0.0000 H   0  0  0  0  0  0  0  0  0  0  0  0
  1  2  1  0  0  0  0
  2  3  1  0  0  0  0
  3  4  1  0  0  0  0
  3  5  2  0  0  0  0
  5  6  1  0  0  0  0
  5  7  1  0  0  0  0
  7  8  1  0  0  0  0
  7  9  2  0  0  0  0
  9 10  1  0  0  0  0
  9 11  1  0  0  0  0
 11  2  2  0  0  0  0
 11 12  1  0  0  0  0
  1 13  1  0  0  0  0
 13 14  1  0  0  0  0
 14 15  1  0  0  0  0
 14 16  2  0  0  0  0
 16 17  1  0  0  0  0
 17 18  1  0  0  0  0
 17 19  2  0  0  0  0
 19 20  1  0  0  0  0
 20 13  2  0  0  0  0
 20 21  1  0  0  0  0
  1 22  1  0  0  0  0
 22 23  1  0  0  0  0
 23 24  1  0  0  0  0
 23 25  2  0  0  0  0
 25 26  1  0  0  0  0
 25 27  1  0  0  0  0
 27 28  1  0  0  0  0
 27 29  2  0  0  0  0
 29 30  1  0  0  0  0
 29 31  1  0  0  0  0
 31 22  2  0  0  0  0
 31 32  1  0  0  0  0
  1 33  1  0  0  0  0
 33 34  1  0  0  0  0
M  END
> <ChemID>
100544

> <source_casrn>
60168-88-9

> <CAS>
60168-88-9

> <SMILES>
OC(c1ccccc1Cl)(c1ccc(Cl)cc1)c1c[n]c[n]c1

> <NAME>
Fenarimol

> <preferred_name>
Fenarimol

> <iupac>
(2-chlorophenyl)(4-chlorophenyl)pyrimidin-5-ylmethanol

> <MPID>
102140

> <dsstox_substance_id>
DTXSID2032390

> <Canonical_QSARr>
OC(c1ccccc1Cl)(c1ccc(Cl)cc1)c1c[n]c[n]c1

> <InChI_Code_QSARr>
InChI=1S/C17H12Cl2N2O/c18-14-7-5-12(6-8-14)17(22,13-9-20-11-21-10-13)15-3-1-2-4-16(15)19/h1-11,22H

> <InChI Key_QSARr>
NHOWDZOIZKMVAI-UHFFFAOYSA-N

> <LogKmHL>
0.57

$$$$
100545
  -INDIGO-08031722222D

 39 41  0  0  0  0  0  0  0  0999 V2000
   -0.0001    0.0001    0.0000 C   0  0  0  0  0  0  0  0  0  0  0  0
    1.4128   -0.7511    0.0000 C   0  0  0  0  0  0  0  0  0  0  0  0
    2.7697    0.0968    0.0000 C   0  0  0  0  0  0  0  0  0  0  0  0
    2.9923    1.6811    0.0000 Cl  0  0  0  0  0  0  0  0  0  0  0  0
    4.1823   -0.6544    0.0000 C   0  0  0  0  0  0  0  0  0  0  0  0
    5.5392    0.1935    0.0000 H   0  0  0  0  0  0  0  0  0  0  0  0
    4.2382   -2.2535    0.0000 C   0  0  0  0  0  0  0  0  0  0  0  0
    5.6509   -3.0047    0.0000 Cl  0  0  0  0  0  0  0  0  0  0  0  0
    2.8813   -3.1014    0.0000 C   0  0  0  0  0  0  0  0  0  0  0  0
    2.9370   -4.7004    0.0000 H   0  0  0  0  0  0  0  0  0  0  0  0
    1.4685   -2.3502    0.0000 C   0  0  0  0  0  0  0  0  0  0  0  0
    0.1117   -3.1981    0.0000 H   0  0  0  0  0  0  0  0  0  0  0  0
    0.6507    1.4616    0.0000 C   0  0  0  0  0  0  0  0  0  0  0  0
    2.1850    1.0073    0.0000 H   0  0  0  0  0  0  0  0  0  0  0  0
    2.0569    2.2252    0.0000 H   0  0  0  0  0  0  0  0  0  0  0  0
   -0.2896    2.7561    0.0000 N   0  0  0  0  0  0  0  0  0  0  0  0
    0.2047    4.2778    0.0000 C   0  0  0  0  0  0  0  0  0  0  0  0
    1.7265    4.7722    0.0000 H   0  0  0  0  0  0  0  0  0  0  0  0
   -1.0896    5.2182    0.0000 N   0  0  0  0  0  0  0  0  0  0  0  0
   -2.3841    4.2778    0.0000 C   0  0  0  0  0  0  0  0  0  0  0  0
   -3.9058    4.7722    0.0000 H   0  0  0  0  0  0  0  0  0  0  0  0
   -1.8897    2.7561    0.0000 N   0  0  0  0  0  0  0  0  0  0  0  0
   -0.3327   -1.5650    0.0000 O   0  0  0  0  0  0  0  0  0  0  0  0
   -1.9238   -1.7323    0.0000 C   0  0  0  0  0  0  0  0  0  0  0  0
   -1.5912   -3.2974    0.0000 H   0  0  0  0  0  0  0  0  0  0  0  0
   -3.4457   -2.2267    0.0000 C   0  0  0  0  0  0  0  0  0  0  0  0
   -3.1541   -3.8000    0.0000 H   0  0  0  0  0  0  0  0  0  0  0  0
   -4.3518   -3.5453    0.0000 H   0  0  0  0  0  0  0  0  0  0  0  0
   -4.9290   -1.6274    0.0000 C   0  0  0  0  0  0  0  0  0  0  0  0
   -5.7411   -0.2488    0.0000 H   0  0  0  0  0  0  0  0  0  0  0  0
   -4.5285   -0.0783    0.0000 H   0  0  0  0  0  0  0  0  0  0  0  0
   -6.1898   -2.6124    0.0000 C   0  0  0  0  0  0  0  0  0  0  0  0
   -7.4508   -3.5975    0.0000 H   0  0  0  0  0  0  0  0  0  0  0  0
   -7.6734   -2.0130    0.0000 H   0  0  0  0  0  0  0  0  0  0  0  0
   -5.9672   -4.1968    0.0000 H   0  0  0  0  0  0  0  0  0  0  0  0
   -2.5747   -0.2705    0.0000 C   0  0  0  0  0  0  0  0  0  0  0  0
   -3.9602   -1.0706    0.0000 H   0  0  0  0  0  0  0  0  0  0  0  0
   -3.5152    1.0238    0.0000 H   0  0  0  0  0  0  0  0  0  0  0  0
   -1.3857    0.7999    0.0000 O   0  0  0  0  0  0  0  0  0  0  0  0
  1  2  1  0  0  0  0
  2  3  1  0  0  0  0
  3  4  1  0  0  0  0
  3  5  2  0  0  0  0
  5  6  1  0  0  0  0
  5  7  1  0  0  0  0
  7  8  1  0  0  0  0
  7  9  2  0  0  0  0
  9 10  1  0  0  0  0
  9 11  1  0  0  0  0
 11  2  2  0  0  0  0
 11 12  1  0  0  0  0
  1 13  1  0  0  0  0
 13 14  1  0  0  0  0
 13 15  1  0  0  0  0
 13 16  1  0  0  0  0
 16 17  1  0  0  0  0
 17 18  1  0  0  0  0
 17 19  2  0  0  0  0
 19 20  1  0  0  0  0
 20 21  1  0  0  0  0
 20 22  2  0  0  0  0
 22 16  1  0  0  0  0
  1 23  1  0  0  0  0
 23 24  1  0  0  0  0
 24 25  1  0  0  0  0
 24 26  1  0  0  0  0
 26 27  1  0  0  0  0
 26 28  1  0  0  0  0
 26 29  1  0  0  0  0
 29 30  1  0  0  0  0
 29 31  1  0  0  0  0
 29 32  1  0  0  0  0
 32 33  1  0  0  0  0
 32 34  1  0  0  0  0
 32 35  1  0  0  0  0
 24 36  1  0  0  0  0
 36 37  1  0  0  0  0
 36 38  1  0  0  0  0
 36 39  1  0  0  0  0
 39  1  1  0  0  0  0
M  END
> <ChemID>
100545

> <source_casrn>
60207-90-1

> <CAS>
60207-90-1

> <SMILES>
CCCC1COC(C[n]2c[n]c[n]2)(O1)c1ccc(Cl)cc1Cl

> <NAME>
Propiconazole

> <preferred_name>
Propiconazole

> <iupac>
1-{[2-(2,4-dichlorophenyl)-4-propyl-1,3-dioxolan-2-yl]methyl}-1H-1,2,4-triazole

> <MPID>
102141

> <dsstox_substance_id>
DTXSID8024280

> <Canonical_QSARr>
CCCC1COC(C[n]2c[n]c[n]2)(O1)c1ccc(Cl)cc1Cl

> <InChI_Code_QSARr>
InChI=1S/C15H17Cl2N3O2/c1-2-3-12-7-21-15(22-12,8-20-10-18-9-19-20)13-5-4-11(16)6-14(13)17/h4-6,9-10,12H,2-3,7-8H2,1H3

> <InChI Key_QSARr>
STJLVHWMYQXCPB-UHFFFAOYSA-N

> <LogKmHL>
0.7

$$$$
100547
  -INDIGO-08031722222D

 60 59  0  0  0  0  0  0  0  0999 V2000
    0.0000   -0.0000    0.0000 Si  0  0  0  0  0  0  0  0  0  0  0  0
    0.7999    1.3856    0.0000 O   0  0  0  0  0  0  0  0  0  0  0  0
    0.2529    2.8891    0.0000 H   0  0  0  0  0  0  0  0  0  0  0  0
   -1.3855    0.8001    0.0000 C   0  0  0  0  0  0  0  0  0  0  0  0
   -1.9980    2.2783    0.0000 H   0  0  0  0  0  0  0  0  0  0  0  0
   -0.7733    2.2783    0.0000 H   0  0  0  0  0  0  0  0  0  0  0  0
   -2.9613    1.0779    0.0000 C   0  0  0  0  0  0  0  0  0  0  0  0
   -3.4423   -0.4481    0.0000 H   0  0  0  0  0  0  0  0  0  0  0  0
   -4.3806    0.3391    0.0000 H   0  0  0  0  0  0  0  0  0  0  0  0
   -3.5086    2.5814    0.0000 C   0  0  0  0  0  0  0  0  0  0  0  0
   -3.0275    4.1074    0.0000 H   0  0  0  0  0  0  0  0  0  0  0  0
   -2.0892    3.3201    0.0000 H   0  0  0  0  0  0  0  0  0  0  0  0
   -5.0843    2.8592    0.0000 C   0  0  0  0  0  0  0  0  0  0  0  0
   -5.5654    1.3332    0.0000 H   0  0  0  0  0  0  0  0  0  0  0  0
   -6.5034    2.1205    0.0000 H   0  0  0  0  0  0  0  0  0  0  0  0
   -5.6314    4.3627    0.0000 C   0  0  0  0  0  0  0  0  0  0  0  0
   -5.1503    5.8887    0.0000 H   0  0  0  0  0  0  0  0  0  0  0  0
   -4.2123    5.1015    0.0000 H   0  0  0  0  0  0  0  0  0  0  0  0
   -7.2071    4.6406    0.0000 C   0  0  0  0  0  0  0  0  0  0  0  0
   -8.7829    4.9184    0.0000 H   0  0  0  0  0  0  0  0  0  0  0  0
   -7.7545    6.1440    0.0000 H   0  0  0  0  0  0  0  0  0  0  0  0
   -8.2355    3.4149    0.0000 H   0  0  0  0  0  0  0  0  0  0  0  0
   -0.7999   -1.3857    0.0000 C   0  0  0  0  0  0  0  0  0  0  0  0
   -2.2781   -0.7732    0.0000 H   0  0  0  0  0  0  0  0  0  0  0  0
   -2.2781   -1.9979    0.0000 H   0  0  0  0  0  0  0  0  0  0  0  0
   -0.5221   -2.9614    0.0000 C   0  0  0  0  0  0  0  0  0  0  0  0
    0.6574   -4.0423    0.0000 H   0  0  0  0  0  0  0  0  0  0  0  0
    1.0764   -2.8916    0.0000 H   0  0  0  0  0  0  0  0  0  0  0  0
   -1.7479   -3.9899    0.0000 C   0  0  0  0  0  0  0  0  0  0  0  0
   -2.9274   -2.9088    0.0000 H   0  0  0  0  0  0  0  0  0  0  0  0
   -3.3464   -4.0595    0.0000 H   0  0  0  0  0  0  0  0  0  0  0  0
   -1.4701   -5.5654    0.0000 C   0  0  0  0  0  0  0  0  0  0  0  0
   -0.2903   -6.6465    0.0000 H   0  0  0  0  0  0  0  0  0  0  0  0
    0.1284   -5.4958    0.0000 H   0  0  0  0  0  0  0  0  0  0  0  0
   -2.6956   -6.5939    0.0000 C   0  0  0  0  0  0  0  0  0  0  0  0
   -3.8754   -5.5130    0.0000 H   0  0  0  0  0  0  0  0  0  0  0  0
   -4.2941   -6.6637    0.0000 H   0  0  0  0  0  0  0  0  0  0  0  0
   -2.4178   -8.1696    0.0000 C   0  0  0  0  0  0  0  0  0  0  0  0
   -2.1400   -9.7453    0.0000 H   0  0  0  0  0  0  0  0  0  0  0  0
   -3.6436   -9.1981    0.0000 H   0  0  0  0  0  0  0  0  0  0  0  0
   -0.9144   -8.7168    0.0000 H   0  0  0  0  0  0  0  0  0  0  0  0
    1.5757   -0.2779    0.0000 C   0  0  0  0  0  0  0  0  0  0  0  0
    1.5059   -1.8764    0.0000 H   0  0  0  0  0  0  0  0  0  0  0  0
    2.6565   -1.4574    0.0000 H   0  0  0  0  0  0  0  0  0  0  0  0
    2.6041    0.9477    0.0000 C   0  0  0  0  0  0  0  0  0  0  0  0
    2.6740    2.5462    0.0000 H   0  0  0  0  0  0  0  0  0  0  0  0
    1.5233    2.1275    0.0000 H   0  0  0  0  0  0  0  0  0  0  0  0
    4.1799    0.6701    0.0000 C   0  0  0  0  0  0  0  0  0  0  0  0
    4.1100   -0.9284    0.0000 H   0  0  0  0  0  0  0  0  0  0  0  0
    5.2607   -0.5097    0.0000 H   0  0  0  0  0  0  0  0  0  0  0  0
    5.2083    1.8957    0.0000 C   0  0  0  0  0  0  0  0  0  0  0  0
    5.2781    3.4942    0.0000 H   0  0  0  0  0  0  0  0  0  0  0  0
    4.1275    3.0753    0.0000 H   0  0  0  0  0  0  0  0  0  0  0  0
    6.7840    1.6179    0.0000 C   0  0  0  0  0  0  0  0  0  0  0  0
    6.7141    0.0194    0.0000 H   0  0  0  0  0  0  0  0  0  0  0  0
    7.8648    0.4381    0.0000 H   0  0  0  0  0  0  0  0  0  0  0  0
    7.8124    2.8435    0.0000 C   0  0  0  0  0  0  0  0  0  0  0  0
    8.8408    4.0691    0.0000 H   0  0  0  0  0  0  0  0  0  0  0  0
    9.3881    2.5656    0.0000 H   0  0  0  0  0  0  0  0  0  0  0  0
    7.2654    4.3470    0.0000 H   0  0  0  0  0  0  0  0  0  0  0  0
  1  2  1  0  0  0  0
  2  3  1  0  0  0  0
  1  4  1  0  0  0  0
  4  5  1  0  0  0  0
  4  6  1  0  0  0  0
  4  7  1  0  0  0  0
  7  8  1  0  0  0  0
  7  9  1  0  0  0  0
  7 10  1  0  0  0  0
 10 11  1  0  0  0  0
 10 12  1  0  0  0  0
 10 13  1  0  0  0  0
 13 14  1  0  0  0  0
 13 15  1  0  0  0  0
 13 16  1  0  0  0  0
 16 17  1  0  0  0  0
 16 18  1  0  0  0  0
 16 19  1  0  0  0  0
 19 20  1  0  0  0  0
 19 21  1  0  0  0  0
 19 22  1  0  0  0  0
  1 23  1  0  0  0  0
 23 24  1  0  0  0  0
 23 25  1  0  0  0  0
 23 26  1  0  0  0  0
 26 27  1  0  0  0  0
 26 28  1  0  0  0  0
 26 29  1  0  0  0  0
 29 30  1  0  0  0  0
 29 31  1  0  0  0  0
 29 32  1  0  0  0  0
 32 33  1  0  0  0  0
 32 34  1  0  0  0  0
 32 35  1  0  0  0  0
 35 36  1  0  0  0  0
 35 37  1  0  0  0  0
 35 38  1  0  0  0  0
 38 39  1  0  0  0  0
 38 40  1  0  0  0  0
 38 41  1  0  0  0  0
  1 42  1  0  0  0  0
 42 43  1  0  0  0  0
 42 44  1  0  0  0  0
 42 45  1  0  0  0  0
 45 46  1  0  0  0  0
 45 47  1  0  0  0  0
 45 48  1  0  0  0  0
 48 49  1  0  0  0  0
 48 50  1  0  0  0  0
 48 51  1  0  0  0  0
 51 52  1  0  0  0  0
 51 53  1  0  0  0  0
 51 54  1  0  0  0  0
 54 55  1  0  0  0  0
 54 56  1  0  0  0  0
 54 57  1  0  0  0  0
 57 58  1  0  0  0  0
 57 59  1  0  0  0  0
 57 60  1  0  0  0  0
M  END
> <ChemID>
100547

> <source_casrn>
60782-58-3

> <CAS>
60782-58-3

> <SMILES>
O[Si](CCCCCC)(CCCCCC)CCCCCC

> <NAME>
Trihexylsilanol

> <preferred_name>


> <iupac>


> <MPID>
102143

> <dsstox_substance_id>
DTXSID30878375

> <Canonical_QSARr>
CCCCCC[Si](O)(CCCCCC)CCCCCC

> <InChI_Code_QSARr>
InChI=1S/C18H40OSi/c1-4-7-10-13-16-20(19,17-14-11-8-5-2)18-15-12-9-6-3/h19H,4-18H2,1-3H3

> <InChI Key_QSARr>
NOVLNRUYLAGEMC-UHFFFAOYSA-N

> <LogKmHL>
0.04

$$$$
100548
  -INDIGO-08031722222D

 21 23  0  0  0  0  0  0  0  0999 V2000
   -1.7322    1.9239    0.0000 C   0  0  0  0  0  0  0  0  0  0  0  0
   -3.1939    2.5747    0.0000 C   0  0  0  0  0  0  0  0  0  0  0  0
   -3.3612    4.1659    0.0000 Cl  0  0  0  0  0  0  0  0  0  0  0  0
   -4.4883    1.6342    0.0000 C   0  0  0  0  0  0  0  0  0  0  0  0
   -5.9501    2.2850    0.0000 Cl  0  0  0  0  0  0  0  0  0  0  0  0
   -4.3212    0.0430    0.0000 C   0  0  0  0  0  0  0  0  0  0  0  0
   -5.6156   -0.8974    0.0000 Cl  0  0  0  0  0  0  0  0  0  0  0  0
   -2.8595   -0.6078    0.0000 C   0  0  0  0  0  0  0  0  0  0  0  0
   -2.6921   -2.1990    0.0000 H   0  0  0  0  0  0  0  0  0  0  0  0
   -1.5651    0.3327    0.0000 C   0  0  0  0  0  0  0  0  0  0  0  0
    0.0000    0.0000    0.0000 C   0  0  0  0  0  0  0  0  0  0  0  0
    0.8000    1.3856    0.0000 C   0  0  0  0  0  0  0  0  0  0  0  0
    2.4000    1.3856    0.0000 C   0  0  0  0  0  0  0  0  0  0  0  0
    3.2000    2.7713    0.0000 Cl  0  0  0  0  0  0  0  0  0  0  0  0
    3.2000    0.0000    0.0000 C   0  0  0  0  0  0  0  0  0  0  0  0
    4.8000    0.0000    0.0000 Cl  0  0  0  0  0  0  0  0  0  0  0  0
    2.4000   -1.3856    0.0000 C   0  0  0  0  0  0  0  0  0  0  0  0
    3.2000   -2.7713    0.0000 Cl  0  0  0  0  0  0  0  0  0  0  0  0
    0.8000   -1.3856    0.0000 C   0  0  0  0  0  0  0  0  0  0  0  0
    0.0000   -2.7713    0.0000 H   0  0  0  0  0  0  0  0  0  0  0  0
   -0.2707    2.5747    0.0000 O   0  0  0  0  0  0  0  0  0  0  0  0
  1  2  1  0  0  0  0
  2  3  1  0  0  0  0
  2  4  2  0  0  0  0
  4  5  1  0  0  0  0
  4  6  1  0  0  0  0
  6  7  1  0  0  0  0
  6  8  2  0  0  0  0
  8  9  1  0  0  0  0
  8 10  1  0  0  0  0
 10  1  2  0  0  0  0
 10 11  1  0  0  0  0
 11 12  1  0  0  0  0
 12 13  2  0  0  0  0
 13 14  1  0  0  0  0
 13 15  1  0  0  0  0
 15 16  1  0  0  0  0
 15 17  2  0  0  0  0
 17 18  1  0  0  0  0
 17 19  1  0  0  0  0
 19 11  2  0  0  0  0
 19 20  1  0  0  0  0
 12 21  1  0  0  0  0
 21  1  1  0  0  0  0
M  END
> <ChemID>
100548

> <source_casrn>
60851-34-5

> <CAS>
60851-34-5

> <SMILES>
Clc1cc2c(oc3c2cc(Cl)c(Cl)c3Cl)c(Cl)c1Cl

> <NAME>
2,3,4,6,7,8-hexachlorodibenzofuran

> <preferred_name>
2,3,4,6,7,8-Hexachlorodibenzo[b,d]furan

> <iupac>
2,3,4,6,7,8-hexachlorodibenzo[b,d]furan

> <MPID>
102144

> <dsstox_substance_id>
DTXSID3052276

> <Canonical_QSARr>
Clc1cc2c(oc3c2cc(Cl)c(Cl)c3Cl)c(Cl)c1Cl

> <InChI_Code_QSARr>
InChI=1S/C12H2Cl6O/c13-5-1-3-4-2-6(14)8(16)10(18)12(4)19-11(3)9(17)7(5)15/h1-2H

> <InChI Key_QSARr>
XTAHLACQOVXINQ-UHFFFAOYSA-N

> <LogKmHL>
1.12

$$$$
100549
  -INDIGO-08031722222D

 23 24  0  0  0  0  0  0  0  0999 V2000
   -0.4813    2.7292    0.0000 Cl  0  0  0  0  0  0  0  0  0  0  0  0
   -1.0284    1.2257    0.0000 C   0  0  0  0  0  0  0  0  0  0  0  0
    0.0000    0.0000    0.0000 C   0  0  0  0  0  0  0  0  0  0  0  0
    1.5756    0.2779    0.0000 O   0  0  0  0  0  0  0  0  0  0  0  0
    2.9614   -0.5221    0.0000 C   0  0  0  0  0  0  0  0  0  0  0  0
    2.9614   -2.1222    0.0000 C   0  0  0  0  0  0  0  0  0  0  0  0
    1.5756   -2.9222    0.0000 H   0  0  0  0  0  0  0  0  0  0  0  0
    4.3470   -2.9222    0.0000 C   0  0  0  0  0  0  0  0  0  0  0  0
    4.3470   -4.5222    0.0000 H   0  0  0  0  0  0  0  0  0  0  0  0
    5.7326   -2.1222    0.0000 C   0  0  0  0  0  0  0  0  0  0  0  0
    7.1183   -2.9222    0.0000 Cl  0  0  0  0  0  0  0  0  0  0  0  0
    5.7326   -0.5221    0.0000 C   0  0  0  0  0  0  0  0  0  0  0  0
    7.1183    0.2779    0.0000 H   0  0  0  0  0  0  0  0  0  0  0  0
    4.3470    0.2779    0.0000 C   0  0  0  0  0  0  0  0  0  0  0  0
    4.3470    1.8779    0.0000 H   0  0  0  0  0  0  0  0  0  0  0  0
   -0.5473   -1.5035    0.0000 C   0  0  0  0  0  0  0  0  0  0  0  0
    0.4812   -2.7292    0.0000 H   0  0  0  0  0  0  0  0  0  0  0  0
   -2.1229   -1.7813    0.0000 C   0  0  0  0  0  0  0  0  0  0  0  0
   -2.6702   -3.2849    0.0000 Cl  0  0  0  0  0  0  0  0  0  0  0  0
   -3.1513   -0.5556    0.0000 C   0  0  0  0  0  0  0  0  0  0  0  0
   -4.7271   -0.8335    0.0000 Cl  0  0  0  0  0  0  0  0  0  0  0  0
   -2.6042    0.9479    0.0000 C   0  0  0  0  0  0  0  0  0  0  0  0
   -3.6326    2.1735    0.0000 H   0  0  0  0  0  0  0  0  0  0  0  0
  1  2  1  0  0  0  0
  2  3  1  0  0  0  0
  3  4  1  0  0  0  0
  4  5  1  0  0  0  0
  5  6  1  0  0  0  0
  6  7  1  0  0  0  0
  6  8  2  0  0  0  0
  8  9  1  0  0  0  0
  8 10  1  0  0  0  0
 10 11  1  0  0  0  0
 10 12  2  0  0  0  0
 12 13  1  0  0  0  0
 12 14  1  0  0  0  0
 14  5  2  0  0  0  0
 14 15  1  0  0  0  0
  3 16  2  0  0  0  0
 16 17  1  0  0  0  0
 16 18  1  0  0  0  0
 18 19  1  0  0  0  0
 18 20  2  0  0  0  0
 20 21  1  0  0  0  0
 20 22  1  0  0  0  0
 22  2  2  0  0  0  0
 22 23  1  0  0  0  0
M  END
> <ChemID>
100549

> <source_casrn>
61328-45-8

> <CAS>
61328-45-8

> <SMILES>
Clc1ccc(cc1)Oc1cc(Cl)c(Cl)cc1Cl

> <NAME>
2,4,4',5-Tetrachlorodiphenyl ether

> <preferred_name>
2,4,4',5-Tetrachlorodiphenyl ether

> <iupac>
1,2,4-trichloro-5-(4-chlorophenoxy)benzene

> <MPID>
102145

> <dsstox_substance_id>
DTXSID40210242

> <Canonical_QSARr>
Clc1ccc(cc1)Oc1cc(Cl)c(Cl)cc1Cl

> <InChI_Code_QSARr>
InChI=1S/C12H6Cl4O/c13-7-1-3-8(4-2-7)17-12-6-10(15)9(14)5-11(12)16/h1-6H

> <InChI Key_QSARr>
KXOJXWNARBQHNX-UHFFFAOYSA-N

> <LogKmHL>
1.93

$$$$
100553
  -INDIGO-08031722222D

 33 34  0  0  0  0  0  0  0  0999 V2000
    1.6635    2.3756    0.0000 N   0  0  0  0  0  0  0  0  0  0  0  0
    3.1251    1.7249    0.0000 N   0  0  0  0  0  0  0  0  0  0  0  0
    4.1957    2.9140    0.0000 C   0  0  0  0  0  0  0  0  0  0  0  0
    5.7870    2.7466    0.0000 H   0  0  0  0  0  0  0  0  0  0  0  0
    3.3958    4.2996    0.0000 N   0  0  0  0  0  0  0  0  0  0  0  0
    1.8308    3.9670    0.0000 C   0  0  0  0  0  0  0  0  0  0  0  0
    0.6417    5.0375    0.0000 H   0  0  0  0  0  0  0  0  0  0  0  0
    0.2779    1.5757    0.0000 C   0  0  0  0  0  0  0  0  0  0  0  0
   -1.2482    2.0569    0.0000 H   0  0  0  0  0  0  0  0  0  0  0  0
   -0.4609    2.9949    0.0000 H   0  0  0  0  0  0  0  0  0  0  0  0
    0.0001   -0.0000    0.0000 C   0  0  0  0  0  0  0  0  0  0  0  0
   -0.2779   -1.5757    0.0000 H   0  0  0  0  0  0  0  0  0  0  0  0
    1.5758   -0.2778    0.0000 C   0  0  0  0  0  0  0  0  0  0  0  0
    2.0568    1.2481    0.0000 H   0  0  0  0  0  0  0  0  0  0  0  0
    2.9950    0.4610    0.0000 H   0  0  0  0  0  0  0  0  0  0  0  0
    2.1229   -1.7814    0.0000 C   0  0  0  0  0  0  0  0  0  0  0  0
    1.6418   -3.3073    0.0000 H   0  0  0  0  0  0  0  0  0  0  0  0
    0.7037   -2.5202    0.0000 H   0  0  0  0  0  0  0  0  0  0  0  0
    3.6985   -2.0592    0.0000 C   0  0  0  0  0  0  0  0  0  0  0  0
    4.2459   -3.5627    0.0000 H   0  0  0  0  0  0  0  0  0  0  0  0
    5.2744   -2.3370    0.0000 H   0  0  0  0  0  0  0  0  0  0  0  0
    4.7271   -0.8335    0.0000 H   0  0  0  0  0  0  0  0  0  0  0  0
   -1.5758    0.2778    0.0000 C   0  0  0  0  0  0  0  0  0  0  0  0
   -2.3757    1.6635    0.0000 C   0  0  0  0  0  0  0  0  0  0  0  0
   -1.5758    3.0491    0.0000 Cl  0  0  0  0  0  0  0  0  0  0  0  0
   -3.9756    1.6635    0.0000 C   0  0  0  0  0  0  0  0  0  0  0  0
   -4.7757    3.0491    0.0000 H   0  0  0  0  0  0  0  0  0  0  0  0
   -4.7757    0.2778    0.0000 C   0  0  0  0  0  0  0  0  0  0  0  0
   -6.3757    0.2778    0.0000 Cl  0  0  0  0  0  0  0  0  0  0  0  0
   -3.9756   -1.1078    0.0000 C   0  0  0  0  0  0  0  0  0  0  0  0
   -4.7757   -2.4934    0.0000 H   0  0  0  0  0  0  0  0  0  0  0  0
   -2.3757   -1.1078    0.0000 C   0  0  0  0  0  0  0  0  0  0  0  0
   -1.5758   -2.4934    0.0000 H   0  0  0  0  0  0  0  0  0  0  0  0
  1  2  1  0  0  0  0
  2  3  2  0  0  0  0
  3  4  1  0  0  0  0
  3  5  1  0  0  0  0
  5  6  2  0  0  0  0
  6  1  1  0  0  0  0
  6  7  1  0  0  0  0
  1  8  1  0  0  0  0
  8  9  1  0  0  0  0
  8 10  1  0  0  0  0
  8 11  1  0  0  0  0
 11 12  1  0  0  0  0
 11 13  1  0  0  0  0
 13 14  1  0  0  0  0
 13 15  1  0  0  0  0
 13 16  1  0  0  0  0
 16 17  1  0  0  0  0
 16 18  1  0  0  0  0
 16 19  1  0  0  0  0
 19 20  1  0  0  0  0
 19 21  1  0  0  0  0
 19 22  1  0  0  0  0
 11 23  1  0  0  0  0
 23 24  1  0  0  0  0
 24 25  1  0  0  0  0
 24 26  2  0  0  0  0
 26 27  1  0  0  0  0
 26 28  1  0  0  0  0
 28 29  1  0  0  0  0
 28 30  2  0  0  0  0
 30 31  1  0  0  0  0
 30 32  1  0  0  0  0
 32 23  2  0  0  0  0
 32 33  1  0  0  0  0
M  END
> <ChemID>
100553

> <source_casrn>
66246-88-6

> <CAS>
66246-88-6

> <SMILES>
n1cncn1CC(c2c(Cl)cc(Cl)cc2)CCC

> <NAME>
1H-1,2,4-Triazole, 1-[2-(2,4-dichlorophenyl)pent

> <preferred_name>
Penconazole

> <iupac>
1-[2-(2,4-dichlorophenyl)pentyl]-1H-1,2,4-triazole

> <MPID>
102147

> <dsstox_substance_id>
DTXSID8042260

> <Canonical_QSARr>
CCCC(C[n]1c[n]c[n]1)c1ccc(Cl)cc1Cl

> <InChI_Code_QSARr>
InChI=1S/C13H15Cl2N3/c1-2-3-10(7-18-9-16-8-17-18)12-5-4-11(14)6-13(12)15/h4-6,8-10H,2-3,7H2,1H3

> <InChI Key_QSARr>
WKBPZYKAUNRMKP-UHFFFAOYSA-N

> <LogKmHL>
1.19

$$$$
100554
  -INDIGO-08031722222D

 39 40  0  0  0  0  0  0  0  0999 V2000
   -9.6994   -0.8000    0.0000 C   0  0  0  0  0  0  0  0  0  0  0  0
   -8.3138   -0.0000    0.0000 C   0  0  0  0  0  0  0  0  0  0  0  0
   -6.9283   -0.8000    0.0000 N   0  0  0  0  0  0  0  0  0  0  0  0
   -6.9283   -2.4000    0.0000 H   0  0  0  0  0  0  0  0  0  0  0  0
   -5.5424   -0.0000    0.0000 C   0  0  0  0  0  0  0  0  0  0  0  0
   -4.1569   -0.8000    0.0000 C   0  0  0  0  0  0  0  0  0  0  0  0
   -4.1569   -2.4000    0.0000 H   0  0  0  0  0  0  0  0  0  0  0  0
   -2.7713   -0.0000    0.0000 C   0  0  0  0  0  0  0  0  0  0  0  0
   -1.3857   -0.8000    0.0000 O   0  0  0  0  0  0  0  0  0  0  0  0
    0.0001   -0.0000    0.0000 C   0  0  0  0  0  0  0  0  0  0  0  0
   -0.8001    1.3856    0.0000 H   0  0  0  0  0  0  0  0  0  0  0  0
    1.3857    0.8000    0.0000 C   0  0  0  0  0  0  0  0  0  0  0  0
    2.7713    1.6000    0.0000 H   0  0  0  0  0  0  0  0  0  0  0  0
    2.7713   -0.0000    0.0000 H   0  0  0  0  0  0  0  0  0  0  0  0
    1.3857    2.4001    0.0000 H   0  0  0  0  0  0  0  0  0  0  0  0
    0.8001   -1.3857    0.0000 C   0  0  0  0  0  0  0  0  0  0  0  0
    1.6001   -2.7713    0.0000 H   0  0  0  0  0  0  0  0  0  0  0  0
    0.0001   -2.7713    0.0000 H   0  0  0  0  0  0  0  0  0  0  0  0
    2.4001   -1.3857    0.0000 H   0  0  0  0  0  0  0  0  0  0  0  0
   -2.7713    1.6000    0.0000 C   0  0  0  0  0  0  0  0  0  0  0  0
   -1.3857    2.4001    0.0000 H   0  0  0  0  0  0  0  0  0  0  0  0
   -4.1569    2.4001    0.0000 C   0  0  0  0  0  0  0  0  0  0  0  0
   -4.1569    4.0000    0.0000 H   0  0  0  0  0  0  0  0  0  0  0  0
   -5.5424    1.6000    0.0000 C   0  0  0  0  0  0  0  0  0  0  0  0
   -6.9283    2.4001    0.0000 H   0  0  0  0  0  0  0  0  0  0  0  0
   -8.3138    1.6000    0.0000 O   0  0  0  0  0  0  0  0  0  0  0  0
  -11.0850   -0.0000    0.0000 C   0  0  0  0  0  0  0  0  0  0  0  0
  -11.0850    1.6000    0.0000 C   0  0  0  0  0  0  0  0  0  0  0  0
  -11.0850    3.2000    0.0000 F   0  0  0  0  0  0  0  0  0  0  0  0
  -12.4708    2.4001    0.0000 F   0  0  0  0  0  0  0  0  0  0  0  0
   -9.6994    2.4001    0.0000 F   0  0  0  0  0  0  0  0  0  0  0  0
  -12.4708   -0.8000    0.0000 C   0  0  0  0  0  0  0  0  0  0  0  0
  -13.8564   -0.0000    0.0000 H   0  0  0  0  0  0  0  0  0  0  0  0
  -12.4708   -2.4000    0.0000 C   0  0  0  0  0  0  0  0  0  0  0  0
  -13.8564   -3.2001    0.0000 H   0  0  0  0  0  0  0  0  0  0  0  0
  -11.0850   -3.2001    0.0000 C   0  0  0  0  0  0  0  0  0  0  0  0
  -11.0850   -4.8000    0.0000 H   0  0  0  0  0  0  0  0  0  0  0  0
   -9.6994   -2.4000    0.0000 C   0  0  0  0  0  0  0  0  0  0  0  0
   -8.3138   -3.2001    0.0000 H   0  0  0  0  0  0  0  0  0  0  0  0
  1  2  1  0  0  0  0
  2  3  1  0  0  0  0
  3  4  1  0  0  0  0
  3  5  1  0  0  0  0
  5  6  1  0  0  0  0
  6  7  1  0  0  0  0
  6  8  2  0  0  0  0
  8  9  1  0  0  0  0
  9 10  1  0  0  0  0
 10 11  1  0  0  0  0
 10 12  1  0  0  0  0
 12 13  1  0  0  0  0
 12 14  1  0  0  0  0
 12 15  1  0  0  0  0
 10 16  1  0  0  0  0
 16 17  1  0  0  0  0
 16 18  1  0  0  0  0
 16 19  1  0  0  0  0
  8 20  1  0  0  0  0
 20 21  1  0  0  0  0
 20 22  2  0  0  0  0
 22 23  1  0  0  0  0
 22 24  1  0  0  0  0
 24  5  2  0  0  0  0
 24 25  1  0  0  0  0
  2 26  2  0  0  0  0
  1 27  1  0  0  0  0
 27 28  1  0  0  0  0
 28 29  1  0  0  0  0
 28 30  1  0  0  0  0
 28 31  1  0  0  0  0
 27 32  2  0  0  0  0
 32 33  1  0  0  0  0
 32 34  1  0  0  0  0
 34 35  1  0  0  0  0
 34 36  2  0  0  0  0
 36 37  1  0  0  0  0
 36 38  1  0  0  0  0
 38  1  2  0  0  0  0
 38 39  1  0  0  0  0
M  END
> <ChemID>
100554

> <source_casrn>
66332-96-5

> <CAS>
66332-96-5

> <SMILES>
C(F)(F)(F)c1ccccc1C(=O)Nc2cccc(OC(C)C)c2

> <NAME>
n-[3-(1-Methylethoxy)phenyl]-2-(trifluoromethyl)

> <preferred_name>
Flutolanil

> <iupac>
N-[3-(propan-2-yloxy)phenyl]-2-(trifluoromethyl)benzamide

> <MPID>
102148

> <dsstox_substance_id>
DTXSID8024109

> <Canonical_QSARr>
CC(C)Oc1cc(ccc1)NC(=O)c1ccccc1C(F)(F)F

> <InChI_Code_QSARr>
InChI=1S/C17H16F3NO2/c1-11(2)23-13-7-5-6-12(10-13)21-16(22)14-8-3-4-9-15(14)17(18,19)20/h3-11H,1-2H3,(H,21,22)

> <InChI Key_QSARr>
PTCGDEVVHUXTMP-UHFFFAOYSA-N

> <LogKmHL>
-0.61

$$$$
100555
  -INDIGO-08031722222D

 47 49  0  0  0  0  0  0  0  0999 V2000
   -0.0000    0.0000    0.0000 C   0  0  0  0  0  0  0  0  0  0  0  0
   -0.8000   -1.3857    0.0000 C   0  0  0  0  0  0  0  0  0  0  0  0
    0.4257   -2.4141    0.0000 H   0  0  0  0  0  0  0  0  0  0  0  0
   -2.1856   -2.1856    0.0000 C   0  0  0  0  0  0  0  0  0  0  0  0
   -3.1445   -2.1354    0.0000 H   0  0  0  0  0  0  0  0  0  0  0  0
   -2.1856   -3.7857    0.0000 C   0  0  0  0  0  0  0  0  0  0  0  0
   -3.5711   -4.5856    0.0000 Cl  0  0  0  0  0  0  0  0  0  0  0  0
   -0.8000   -4.5856    0.0000 Cl  0  0  0  0  0  0  0  0  0  0  0  0
   -1.6000    0.0000    0.0000 C   0  0  0  0  0  0  0  0  0  0  0  0
   -1.8780    1.5756    0.0000 H   0  0  0  0  0  0  0  0  0  0  0  0
   -3.1034   -0.5472    0.0000 C   0  0  0  0  0  0  0  0  0  0  0  0
   -4.3291    0.4812    0.0000 O   0  0  0  0  0  0  0  0  0  0  0  0
   -5.8328   -0.0660    0.0000 C   0  0  0  0  0  0  0  0  0  0  0  0
   -6.1104   -1.6417    0.0000 H   0  0  0  0  0  0  0  0  0  0  0  0
   -7.3362   -0.6133    0.0000 C   0  0  0  0  0  0  0  0  0  0  0  0
   -8.5619    0.4153    0.0000 C   0  0  0  0  0  0  0  0  0  0  0  0
   -8.2840    1.9909    0.0000 H   0  0  0  0  0  0  0  0  0  0  0  0
  -10.0653   -0.1320    0.0000 C   0  0  0  0  0  0  0  0  0  0  0  0
  -11.2910    0.8965    0.0000 O   0  0  0  0  0  0  0  0  0  0  0  0
  -12.8910    0.8965    0.0000 C   0  0  0  0  0  0  0  0  0  0  0  0
  -13.6910   -0.4892    0.0000 C   0  0  0  0  0  0  0  0  0  0  0  0
  -12.8910   -1.8748    0.0000 H   0  0  0  0  0  0  0  0  0  0  0  0
  -15.2910   -0.4892    0.0000 C   0  0  0  0  0  0  0  0  0  0  0  0
  -16.0910   -1.8748    0.0000 H   0  0  0  0  0  0  0  0  0  0  0  0
  -16.0910    0.8965    0.0000 C   0  0  0  0  0  0  0  0  0  0  0  0
  -17.6911    0.8965    0.0000 H   0  0  0  0  0  0  0  0  0  0  0  0
  -15.2910    2.2820    0.0000 C   0  0  0  0  0  0  0  0  0  0  0  0
  -16.0910    3.6677    0.0000 H   0  0  0  0  0  0  0  0  0  0  0  0
  -13.6910    2.2820    0.0000 C   0  0  0  0  0  0  0  0  0  0  0  0
  -12.8910    3.6677    0.0000 H   0  0  0  0  0  0  0  0  0  0  0  0
  -10.3432   -1.7077    0.0000 C   0  0  0  0  0  0  0  0  0  0  0  0
  -11.8466   -2.2549    0.0000 H   0  0  0  0  0  0  0  0  0  0  0  0
   -9.1175   -2.7361    0.0000 C   0  0  0  0  0  0  0  0  0  0  0  0
   -9.3954   -4.3119    0.0000 H   0  0  0  0  0  0  0  0  0  0  0  0
   -7.6141   -2.1889    0.0000 C   0  0  0  0  0  0  0  0  0  0  0  0
   -6.3884   -3.2174    0.0000 H   0  0  0  0  0  0  0  0  0  0  0  0
   -6.6328    1.3196    0.0000 C   0  0  0  0  0  0  0  0  0  0  0  0
   -7.4328    2.7053    0.0000 N   0  0  0  0  0  0  0  0  0  0  0  0
   -3.5711   -1.3857    0.0000 O   0  0  0  0  0  0  0  0  0  0  0  0
    0.2779    1.5756    0.0000 C   0  0  0  0  0  0  0  0  0  0  0  0
    0.5555    3.1514    0.0000 H   0  0  0  0  0  0  0  0  0  0  0  0
    1.7813    2.1230    0.0000 H   0  0  0  0  0  0  0  0  0  0  0  0
   -0.9478    2.6042    0.0000 H   0  0  0  0  0  0  0  0  0  0  0  0
    1.5037   -0.5472    0.0000 C   0  0  0  0  0  0  0  0  0  0  0  0
    3.0070   -1.0945    0.0000 H   0  0  0  0  0  0  0  0  0  0  0  0
    2.7291    0.4812    0.0000 H   0  0  0  0  0  0  0  0  0  0  0  0
    1.7813   -2.1229    0.0000 H   0  0  0  0  0  0  0  0  0  0  0  0
  1  2  1  0  0  0  0
  2  3  1  0  0  0  0
  2  4  1  0  0  0  0
  4  5  1  0  0  0  0
  4  6  2  0  0  0  0
  6  7  1  0  0  0  0
  6  8  1  0  0  0  0
  2  9  1  0  0  0  0
  9  1  1  0  0  0  0
  9 10  1  0  0  0  0
  9 11  1  0  0  0  0
 11 12  1  0  0  0  0
 12 13  1  0  0  0  0
 13 14  1  0  0  0  0
 13 15  1  0  0  0  0
 15 16  1  0  0  0  0
 16 17  1  0  0  0  0
 16 18  2  0  0  0  0
 18 19  1  0  0  0  0
 19 20  1  0  0  0  0
 20 21  1  0  0  0  0
 21 22  1  0  0  0  0
 21 23  2  0  0  0  0
 23 24  1  0  0  0  0
 23 25  1  0  0  0  0
 25 26  1  0  0  0  0
 25 27  2  0  0  0  0
 27 28  1  0  0  0  0
 27 29  1  0  0  0  0
 29 20  2  0  0  0  0
 29 30  1  0  0  0  0
 18 31  1  0  0  0  0
 31 32  1  0  0  0  0
 31 33  2  0  0  0  0
 33 34  1  0  0  0  0
 33 35  1  0  0  0  0
 35 15  2  0  0  0  0
 35 36  1  0  0  0  0
 13 37  1  0  0  0  0
 37 38  3  0  0  0  0
 11 39  2  0  0  0  0
  1 40  1  0  0  0  0
 40 41  1  0  0  0  0
 40 42  1  0  0  0  0
 40 43  1  0  0  0  0
  1 44  1  0  0  0  0
 44 45  1  0  0  0  0
 44 46  1  0  0  0  0
 44 47  1  0  0  0  0
M  END
> <ChemID>
100555

> <source_casrn>
67375-30-8

> <CAS>
67375-30-8

> <SMILES>
CC1(C)[C@@H]([C@@H]1C=C(Cl)Cl)C(=O)O[C@@H](C#N)c1cccc(c1)Oc1ccccc1 |o1:3,4,a:12|

> <NAME>
alpha-cypermethrin

> <preferred_name>
alpha-Cypermethrin

> <iupac>


> <MPID>
102149

> <dsstox_substance_id>
DTXSID7041201

> <Canonical_QSARr>
CC1(C)C(C1C=C(Cl)Cl)C(=O)OC(C#N)c1cccc(c1)Oc1ccccc1

> <InChI_Code_QSARr>
InChI=1S/C22H19Cl2NO3/c1-22(2)17(12-19(23)24)20(22)21(26)28-18(13-25)14-7-6-10-16(11-14)27-15-8-4-3-5-9-15/h3-12,17-18,20H,1-2H3

> <InChI Key_QSARr>
KAATUXNTWXVJKI-UHFFFAOYSA-N

> <LogKmHL>
0.7

$$$$
100557
  -INDIGO-08031722222D

 22 23  0  0  0  0  0  0  0  0999 V2000
    3.2000   -0.0000    0.0000 C   0  0  0  0  0  0  0  0  0  0  0  0
    4.8000   -0.0000    0.0000 H   0  0  0  0  0  0  0  0  0  0  0  0
    2.4000    1.3856    0.0000 C   0  0  0  0  0  0  0  0  0  0  0  0
    3.2000    2.7713    0.0000 H   0  0  0  0  0  0  0  0  0  0  0  0
    0.8001    1.3856    0.0000 C   0  0  0  0  0  0  0  0  0  0  0  0
    0.0001    2.7713    0.0000 Cl  0  0  0  0  0  0  0  0  0  0  0  0
    0.0001   -0.0000    0.0000 C   0  0  0  0  0  0  0  0  0  0  0  0
   -1.6001    0.0000    0.0000 C   0  0  0  0  0  0  0  0  0  0  0  0
   -2.4001    1.3856    0.0000 C   0  0  0  0  0  0  0  0  0  0  0  0
   -1.6001    2.7713    0.0000 H   0  0  0  0  0  0  0  0  0  0  0  0
   -4.0000    1.3856    0.0000 C   0  0  0  0  0  0  0  0  0  0  0  0
   -4.8000    2.7713    0.0000 H   0  0  0  0  0  0  0  0  0  0  0  0
   -4.8000    0.0000    0.0000 C   0  0  0  0  0  0  0  0  0  0  0  0
   -6.4000    0.0000    0.0000 Cl  0  0  0  0  0  0  0  0  0  0  0  0
   -4.0000   -1.3856    0.0000 C   0  0  0  0  0  0  0  0  0  0  0  0
   -4.8000   -2.7713    0.0000 H   0  0  0  0  0  0  0  0  0  0  0  0
   -2.4001   -1.3856    0.0000 C   0  0  0  0  0  0  0  0  0  0  0  0
   -1.6001   -2.7713    0.0000 Cl  0  0  0  0  0  0  0  0  0  0  0  0
    0.8001   -1.3856    0.0000 C   0  0  0  0  0  0  0  0  0  0  0  0
    0.0001   -2.7713    0.0000 Cl  0  0  0  0  0  0  0  0  0  0  0  0
    2.4000   -1.3856    0.0000 C   0  0  0  0  0  0  0  0  0  0  0  0
    3.2000   -2.7713    0.0000 H   0  0  0  0  0  0  0  0  0  0  0  0
  1  2  1  0  0  0  0
  1  3  1  0  0  0  0
  3  4  1  0  0  0  0
  3  5  2  0  0  0  0
  5  6  1  0  0  0  0
  5  7  1  0  0  0  0
  7  8  1  0  0  0  0
  8  9  1  0  0  0  0
  9 10  1  0  0  0  0
  9 11  2  0  0  0  0
 11 12  1  0  0  0  0
 11 13  1  0  0  0  0
 13 14  1  0  0  0  0
 13 15  2  0  0  0  0
 15 16  1  0  0  0  0
 15 17  1  0  0  0  0
 17  8  2  0  0  0  0
 17 18  1  0  0  0  0
  7 19  2  0  0  0  0
 19 20  1  0  0  0  0
 19 21  1  0  0  0  0
 21  1  2  0  0  0  0
 21 22  1  0  0  0  0
M  END
> <ChemID>
100557

> <source_casrn>
68194-04-7

> <CAS>
68194-04-7

> <SMILES>
Clc1cc(Cl)c(cc1)-c1c(Cl)cccc1Cl

> <NAME>
2,2',4,6'-tetrachlorobiphenyl

> <preferred_name>
2,2',4,6'-Tetrachlorobiphenyl

> <iupac>
2,4-dichloro-1-(2,6-dichlorophenyl)benzene

> <MPID>
102151

> <dsstox_substance_id>
DTXSID9074195

> <Canonical_QSARr>
Clc1cc(Cl)c(cc1)-c1c(Cl)cccc1Cl

> <InChI_Code_QSARr>
InChI=1S/C12H6Cl4/c13-7-4-5-8(11(16)6-7)12-9(14)2-1-3-10(12)15/h1-6H

> <InChI Key_QSARr>
WVHNUGRFECMVLQ-UHFFFAOYSA-N

> <LogKmHL>
2.47

$$$$
100558
  -INDIGO-08031722222D

 22 23  0  0  0  0  0  0  0  0999 V2000
   -0.0001    0.0000    0.0000 C   0  0  0  0  0  0  0  0  0  0  0  0
    1.6001   -0.0000    0.0000 C   0  0  0  0  0  0  0  0  0  0  0  0
    2.4001   -1.3856    0.0000 C   0  0  0  0  0  0  0  0  0  0  0  0
    1.6001   -2.7713    0.0000 Cl  0  0  0  0  0  0  0  0  0  0  0  0
    4.0000   -1.3856    0.0000 C   0  0  0  0  0  0  0  0  0  0  0  0
    4.8000   -2.7713    0.0000 H   0  0  0  0  0  0  0  0  0  0  0  0
    4.8000    0.0000    0.0000 C   0  0  0  0  0  0  0  0  0  0  0  0
    6.4000    0.0000    0.0000 Cl  0  0  0  0  0  0  0  0  0  0  0  0
    4.0000    1.3856    0.0000 C   0  0  0  0  0  0  0  0  0  0  0  0
    4.8000    2.7713    0.0000 H   0  0  0  0  0  0  0  0  0  0  0  0
    2.4001    1.3856    0.0000 C   0  0  0  0  0  0  0  0  0  0  0  0
    1.6001    2.7713    0.0000 H   0  0  0  0  0  0  0  0  0  0  0  0
   -0.8001    1.3856    0.0000 C   0  0  0  0  0  0  0  0  0  0  0  0
   -0.0001    2.7713    0.0000 Cl  0  0  0  0  0  0  0  0  0  0  0  0
   -2.4000    1.3856    0.0000 C   0  0  0  0  0  0  0  0  0  0  0  0
   -3.2000    2.7713    0.0000 Cl  0  0  0  0  0  0  0  0  0  0  0  0
   -3.2000    0.0000    0.0000 C   0  0  0  0  0  0  0  0  0  0  0  0
   -4.8000   -0.0000    0.0000 H   0  0  0  0  0  0  0  0  0  0  0  0
   -2.4000   -1.3856    0.0000 C   0  0  0  0  0  0  0  0  0  0  0  0
   -3.2000   -2.7713    0.0000 H   0  0  0  0  0  0  0  0  0  0  0  0
   -0.8001   -1.3856    0.0000 C   0  0  0  0  0  0  0  0  0  0  0  0
   -0.0001   -2.7713    0.0000 Cl  0  0  0  0  0  0  0  0  0  0  0  0
  1  2  1  0  0  0  0
  2  3  1  0  0  0  0
  3  4  1  0  0  0  0
  3  5  2  0  0  0  0
  5  6  1  0  0  0  0
  5  7  1  0  0  0  0
  7  8  1  0  0  0  0
  7  9  2  0  0  0  0
  9 10  1  0  0  0  0
  9 11  1  0  0  0  0
 11  2  2  0  0  0  0
 11 12  1  0  0  0  0
  1 13  1  0  0  0  0
 13 14  1  0  0  0  0
 13 15  2  0  0  0  0
 15 16  1  0  0  0  0
 15 17  1  0  0  0  0
 17 18  1  0  0  0  0
 17 19  2  0  0  0  0
 19 20  1  0  0  0  0
 19 21  1  0  0  0  0
 21  1  2  0  0  0  0
 21 22  1  0  0  0  0
M  END
> <ChemID>
100558

> <source_casrn>
68194-05-8

> <CAS>
68194-05-8

> <SMILES>
Clc1cc(Cl)c(cc1)-c1c(Cl)c(Cl)ccc1Cl

> <NAME>
2,2',3,4',6-pentachlorobiphenyl

> <preferred_name>
2,2',3,4',6-Pentachlorobiphenyl

> <iupac>
1,2,4-trichloro-3-(2,4-dichlorophenyl)benzene

> <MPID>
102152

> <dsstox_substance_id>
DTXSID1073608

> <Canonical_QSARr>
Clc1cc(Cl)c(cc1)-c1c(Cl)c(Cl)ccc1Cl

> <InChI_Code_QSARr>
InChI=1S/C12H5Cl5/c13-6-1-2-7(10(16)5-6)11-8(14)3-4-9(15)12(11)17/h1-5H

> <InChI Key_QSARr>
CXKIGWXPPVZSQK-UHFFFAOYSA-N

> <LogKmHL>
2.61

$$$$
100559
  -INDIGO-08031722222D

 22 23  0  0  0  0  0  0  0  0999 V2000
    3.2000   -0.0000    0.0000 C   0  0  0  0  0  0  0  0  0  0  0  0
    4.8000   -0.0000    0.0000 H   0  0  0  0  0  0  0  0  0  0  0  0
    2.4000    1.3856    0.0000 C   0  0  0  0  0  0  0  0  0  0  0  0
    3.2000    2.7713    0.0000 H   0  0  0  0  0  0  0  0  0  0  0  0
    0.8001    1.3856    0.0000 C   0  0  0  0  0  0  0  0  0  0  0  0
    0.0001    2.7713    0.0000 Cl  0  0  0  0  0  0  0  0  0  0  0  0
    0.0001   -0.0000    0.0000 C   0  0  0  0  0  0  0  0  0  0  0  0
   -1.6001    0.0000    0.0000 C   0  0  0  0  0  0  0  0  0  0  0  0
   -2.4001    1.3856    0.0000 C   0  0  0  0  0  0  0  0  0  0  0  0
   -1.6001    2.7713    0.0000 Cl  0  0  0  0  0  0  0  0  0  0  0  0
   -4.0000    1.3856    0.0000 C   0  0  0  0  0  0  0  0  0  0  0  0
   -4.8000    2.7713    0.0000 Cl  0  0  0  0  0  0  0  0  0  0  0  0
   -4.8000    0.0000    0.0000 C   0  0  0  0  0  0  0  0  0  0  0  0
   -6.4000    0.0000    0.0000 Cl  0  0  0  0  0  0  0  0  0  0  0  0
   -4.0000   -1.3856    0.0000 C   0  0  0  0  0  0  0  0  0  0  0  0
   -4.8000   -2.7713    0.0000 H   0  0  0  0  0  0  0  0  0  0  0  0
   -2.4001   -1.3856    0.0000 C   0  0  0  0  0  0  0  0  0  0  0  0
   -1.6001   -2.7713    0.0000 Cl  0  0  0  0  0  0  0  0  0  0  0  0
    0.8001   -1.3856    0.0000 C   0  0  0  0  0  0  0  0  0  0  0  0
    0.0001   -2.7713    0.0000 H   0  0  0  0  0  0  0  0  0  0  0  0
    2.4000   -1.3856    0.0000 C   0  0  0  0  0  0  0  0  0  0  0  0
    3.2000   -2.7713    0.0000 Cl  0  0  0  0  0  0  0  0  0  0  0  0
  1  2  1  0  0  0  0
  1  3  1  0  0  0  0
  3  4  1  0  0  0  0
  3  5  2  0  0  0  0
  5  6  1  0  0  0  0
  5  7  1  0  0  0  0
  7  8  1  0  0  0  0
  8  9  1  0  0  0  0
  9 10  1  0  0  0  0
  9 11  2  0  0  0  0
 11 12  1  0  0  0  0
 11 13  1  0  0  0  0
 13 14  1  0  0  0  0
 13 15  2  0  0  0  0
 15 16  1  0  0  0  0
 15 17  1  0  0  0  0
 17  8  2  0  0  0  0
 17 18  1  0  0  0  0
  7 19  2  0  0  0  0
 19 20  1  0  0  0  0
 19 21  1  0  0  0  0
 21  1  2  0  0  0  0
 21 22  1  0  0  0  0
M  END
> <ChemID>
100559

> <source_casrn>
68194-14-9

> <CAS>
68194-14-9

> <SMILES>
Clc1cc(-c2c(Cl)c(Cl)c(Cl)cc2Cl)c(Cl)cc1

> <NAME>
2,2',3,4,5',6-hexachlorobiphenyl

> <preferred_name>
2,2',3,4,5',6-Hexachlorobiphenyl

> <iupac>
1,2,3,5-tetrachloro-4-(2,5-dichlorophenyl)benzene

> <MPID>
102153

> <dsstox_substance_id>
DTXSID6074201

> <Canonical_QSARr>
Clc1cc(-c2c(Cl)c(Cl)c(Cl)cc2Cl)c(Cl)cc1

> <InChI_Code_QSARr>
InChI=1S/C12H4Cl6/c13-5-1-2-7(14)6(3-5)10-8(15)4-9(16)11(17)12(10)18/h1-4H

> <InChI Key_QSARr>
CXXRQFOKRZJAJA-UHFFFAOYSA-N

> <LogKmHL>
2.23

$$$$
100566
  -INDIGO-08031722222D

 22 23  0  0  0  0  0  0  0  0999 V2000
   -0.0001    2.7713    0.0000 Cl  0  0  0  0  0  0  0  0  0  0  0  0
   -0.8001    1.3856    0.0000 C   0  0  0  0  0  0  0  0  0  0  0  0
   -0.0001   -0.0000    0.0000 C   0  0  0  0  0  0  0  0  0  0  0  0
    1.6001    0.0000    0.0000 C   0  0  0  0  0  0  0  0  0  0  0  0
    2.4001    1.3856    0.0000 C   0  0  0  0  0  0  0  0  0  0  0  0
    1.6001    2.7713    0.0000 H   0  0  0  0  0  0  0  0  0  0  0  0
    4.0000    1.3856    0.0000 C   0  0  0  0  0  0  0  0  0  0  0  0
    4.8000    2.7713    0.0000 H   0  0  0  0  0  0  0  0  0  0  0  0
    4.8000    0.0000    0.0000 C   0  0  0  0  0  0  0  0  0  0  0  0
    6.4000    0.0000    0.0000 H   0  0  0  0  0  0  0  0  0  0  0  0
    4.0000   -1.3856    0.0000 C   0  0  0  0  0  0  0  0  0  0  0  0
    4.8000   -2.7713    0.0000 H   0  0  0  0  0  0  0  0  0  0  0  0
    2.4001   -1.3856    0.0000 C   0  0  0  0  0  0  0  0  0  0  0  0
    1.6001   -2.7713    0.0000 Cl  0  0  0  0  0  0  0  0  0  0  0  0
   -0.8001   -1.3856    0.0000 C   0  0  0  0  0  0  0  0  0  0  0  0
   -0.0001   -2.7713    0.0000 Cl  0  0  0  0  0  0  0  0  0  0  0  0
   -2.4000   -1.3856    0.0000 C   0  0  0  0  0  0  0  0  0  0  0  0
   -3.2000   -2.7713    0.0000 H   0  0  0  0  0  0  0  0  0  0  0  0
   -3.2000   -0.0000    0.0000 C   0  0  0  0  0  0  0  0  0  0  0  0
   -4.8000   -0.0000    0.0000 H   0  0  0  0  0  0  0  0  0  0  0  0
   -2.4000    1.3856    0.0000 C   0  0  0  0  0  0  0  0  0  0  0  0
   -3.2000    2.7713    0.0000 Cl  0  0  0  0  0  0  0  0  0  0  0  0
  1  2  1  0  0  0  0
  2  3  1  0  0  0  0
  3  4  1  0  0  0  0
  4  5  1  0  0  0  0
  5  6  1  0  0  0  0
  5  7  2  0  0  0  0
  7  8  1  0  0  0  0
  7  9  1  0  0  0  0
  9 10  1  0  0  0  0
  9 11  2  0  0  0  0
 11 12  1  0  0  0  0
 11 13  1  0  0  0  0
 13  4  2  0  0  0  0
 13 14  1  0  0  0  0
  3 15  2  0  0  0  0
 15 16  1  0  0  0  0
 15 17  1  0  0  0  0
 17 18  1  0  0  0  0
 17 19  2  0  0  0  0
 19 20  1  0  0  0  0
 19 21  1  0  0  0  0
 21  2  2  0  0  0  0
 21 22  1  0  0  0  0
M  END
> <ChemID>
100566

> <source_casrn>
70362-45-7

> <CAS>
70362-45-7

> <SMILES>
Clc1ccc(Cl)c(-c2ccccc2Cl)c1Cl

> <NAME>
2,2',3,6-tetrachlorobiphenyl

> <preferred_name>
PCB 045

> <iupac>
1,2,4-trichloro-3-(2-chlorophenyl)benzene

> <MPID>
102155

> <dsstox_substance_id>
DTXSID9074779

> <Canonical_QSARr>
Clc1ccc(Cl)c(-c2ccccc2Cl)c1Cl

> <InChI_Code_QSARr>
InChI=1S/C12H6Cl4/c13-8-4-2-1-3-7(8)11-9(14)5-6-10(15)12(11)16/h1-6H

> <InChI Key_QSARr>
VHGHHZZTMJLTJX-UHFFFAOYSA-N

> <LogKmHL>
2.38

$$$$
100567
  -INDIGO-08031722222D

 22 23  0  0  0  0  0  0  0  0999 V2000
   -0.0001    0.0000    0.0000 C   0  0  0  0  0  0  0  0  0  0  0  0
    1.6001   -0.0000    0.0000 C   0  0  0  0  0  0  0  0  0  0  0  0
    2.4001   -1.3856    0.0000 C   0  0  0  0  0  0  0  0  0  0  0  0
    1.6001   -2.7713    0.0000 Cl  0  0  0  0  0  0  0  0  0  0  0  0
    4.0000   -1.3856    0.0000 C   0  0  0  0  0  0  0  0  0  0  0  0
    4.8000   -2.7713    0.0000 H   0  0  0  0  0  0  0  0  0  0  0  0
    4.8000    0.0000    0.0000 C   0  0  0  0  0  0  0  0  0  0  0  0
    6.4000    0.0000    0.0000 H   0  0  0  0  0  0  0  0  0  0  0  0
    4.0000    1.3856    0.0000 C   0  0  0  0  0  0  0  0  0  0  0  0
    4.8000    2.7713    0.0000 H   0  0  0  0  0  0  0  0  0  0  0  0
    2.4001    1.3856    0.0000 C   0  0  0  0  0  0  0  0  0  0  0  0
    1.6001    2.7713    0.0000 H   0  0  0  0  0  0  0  0  0  0  0  0
   -0.8001    1.3856    0.0000 C   0  0  0  0  0  0  0  0  0  0  0  0
   -0.0001    2.7713    0.0000 Cl  0  0  0  0  0  0  0  0  0  0  0  0
   -2.4000    1.3856    0.0000 C   0  0  0  0  0  0  0  0  0  0  0  0
   -3.2000    2.7713    0.0000 Cl  0  0  0  0  0  0  0  0  0  0  0  0
   -3.2000    0.0000    0.0000 C   0  0  0  0  0  0  0  0  0  0  0  0
   -4.8000   -0.0000    0.0000 H   0  0  0  0  0  0  0  0  0  0  0  0
   -2.4000   -1.3856    0.0000 C   0  0  0  0  0  0  0  0  0  0  0  0
   -3.2000   -2.7713    0.0000 Cl  0  0  0  0  0  0  0  0  0  0  0  0
   -0.8001   -1.3856    0.0000 C   0  0  0  0  0  0  0  0  0  0  0  0
   -0.0001   -2.7713    0.0000 H   0  0  0  0  0  0  0  0  0  0  0  0
  1  2  1  0  0  0  0
  2  3  1  0  0  0  0
  3  4  1  0  0  0  0
  3  5  2  0  0  0  0
  5  6  1  0  0  0  0
  5  7  1  0  0  0  0
  7  8  1  0  0  0  0
  7  9  2  0  0  0  0
  9 10  1  0  0  0  0
  9 11  1  0  0  0  0
 11  2  2  0  0  0  0
 11 12  1  0  0  0  0
  1 13  1  0  0  0  0
 13 14  1  0  0  0  0
 13 15  2  0  0  0  0
 15 16  1  0  0  0  0
 15 17  1  0  0  0  0
 17 18  1  0  0  0  0
 17 19  2  0  0  0  0
 19 20  1  0  0  0  0
 19 21  1  0  0  0  0
 21  1  2  0  0  0  0
 21 22  1  0  0  0  0
M  END
> <ChemID>
100567

> <source_casrn>
70362-46-8

> <CAS>
70362-46-8

> <SMILES>
Clc1c(cc(cc1c2ccccc2Cl)Cl)Cl

> <NAME>
2,2',3,5-tetrachlorobiphenyl

> <preferred_name>


> <iupac>


> <MPID>
102156

> <dsstox_substance_id>
DTXSID00867918

> <Canonical_QSARr>
Clc1cc(-c2ccccc2Cl)c(Cl)c(Cl)c1

> <InChI_Code_QSARr>
InChI=1S/C12H6Cl4/c13-7-5-9(12(16)11(15)6-7)8-3-1-2-4-10(8)14/h1-6H

> <InChI Key_QSARr>
NRBNBYFPJCCKTO-UHFFFAOYSA-N

> <LogKmHL>
2.8

$$$$
100568
  -INDIGO-08031722222D

 22 23  0  0  0  0  0  0  0  0999 V2000
   -0.0001    0.0000    0.0000 C   0  0  0  0  0  0  0  0  0  0  0  0
    1.6001   -0.0000    0.0000 C   0  0  0  0  0  0  0  0  0  0  0  0
    2.4001   -1.3856    0.0000 C   0  0  0  0  0  0  0  0  0  0  0  0
    1.6001   -2.7713    0.0000 H   0  0  0  0  0  0  0  0  0  0  0  0
    4.0000   -1.3856    0.0000 C   0  0  0  0  0  0  0  0  0  0  0  0
    4.8000   -2.7713    0.0000 H   0  0  0  0  0  0  0  0  0  0  0  0
    4.8000    0.0000    0.0000 C   0  0  0  0  0  0  0  0  0  0  0  0
    6.4000    0.0000    0.0000 Cl  0  0  0  0  0  0  0  0  0  0  0  0
    4.0000    1.3856    0.0000 C   0  0  0  0  0  0  0  0  0  0  0  0
    4.8000    2.7713    0.0000 H   0  0  0  0  0  0  0  0  0  0  0  0
    2.4001    1.3856    0.0000 C   0  0  0  0  0  0  0  0  0  0  0  0
    1.6001    2.7713    0.0000 H   0  0  0  0  0  0  0  0  0  0  0  0
   -0.8001    1.3856    0.0000 C   0  0  0  0  0  0  0  0  0  0  0  0
   -0.0001    2.7713    0.0000 H   0  0  0  0  0  0  0  0  0  0  0  0
   -2.4000    1.3856    0.0000 C   0  0  0  0  0  0  0  0  0  0  0  0
   -3.2000    2.7713    0.0000 Cl  0  0  0  0  0  0  0  0  0  0  0  0
   -3.2000    0.0000    0.0000 C   0  0  0  0  0  0  0  0  0  0  0  0
   -4.8000   -0.0000    0.0000 Cl  0  0  0  0  0  0  0  0  0  0  0  0
   -2.4000   -1.3856    0.0000 C   0  0  0  0  0  0  0  0  0  0  0  0
   -3.2000   -2.7713    0.0000 Cl  0  0  0  0  0  0  0  0  0  0  0  0
   -0.8001   -1.3856    0.0000 C   0  0  0  0  0  0  0  0  0  0  0  0
   -0.0001   -2.7713    0.0000 H   0  0  0  0  0  0  0  0  0  0  0  0
  1  2  1  0  0  0  0
  2  3  1  0  0  0  0
  3  4  1  0  0  0  0
  3  5  2  0  0  0  0
  5  6  1  0  0  0  0
  5  7  1  0  0  0  0
  7  8  1  0  0  0  0
  7  9  2  0  0  0  0
  9 10  1  0  0  0  0
  9 11  1  0  0  0  0
 11  2  2  0  0  0  0
 11 12  1  0  0  0  0
  1 13  1  0  0  0  0
 13 14  1  0  0  0  0
 13 15  2  0  0  0  0
 15 16  1  0  0  0  0
 15 17  1  0  0  0  0
 17 18  1  0  0  0  0
 17 19  2  0  0  0  0
 19 20  1  0  0  0  0
 19 21  1  0  0  0  0
 21  1  2  0  0  0  0
 21 22  1  0  0  0  0
M  END
> <ChemID>
100568

> <source_casrn>
70362-50-4

> <CAS>
70362-50-4

> <SMILES>
Clc1ccc(cc1)-c1cc(Cl)c(Cl)c(Cl)c1

> <NAME>
3,4,4',5-Tetrachlorobiphenyl

> <preferred_name>
3,4,4',5-Tetrachlorobiphenyl

> <iupac>
1,2,3-trichloro-5-(4-chlorophenyl)benzene

> <MPID>
102157

> <dsstox_substance_id>
DTXSID6074209

> <Canonical_QSARr>
Clc1ccc(cc1)-c1cc(Cl)c(Cl)c(Cl)c1

> <InChI_Code_QSARr>
InChI=1S/C12H6Cl4/c13-9-3-1-7(2-4-9)8-5-10(14)12(16)11(15)6-8/h1-6H

> <InChI Key_QSARr>
BHWVLZJTVIYLIV-UHFFFAOYSA-N

> <LogKmHL>
1.69

$$$$
100572
  -INDIGO-08031722222D

 22 23  0  0  0  0  0  0  0  0999 V2000
   -0.0001    0.0000    0.0000 C   0  0  0  0  0  0  0  0  0  0  0  0
    1.6001   -0.0000    0.0000 C   0  0  0  0  0  0  0  0  0  0  0  0
    2.4001   -1.3856    0.0000 C   0  0  0  0  0  0  0  0  0  0  0  0
    1.6001   -2.7713    0.0000 H   0  0  0  0  0  0  0  0  0  0  0  0
    4.0000   -1.3856    0.0000 C   0  0  0  0  0  0  0  0  0  0  0  0
    4.8000   -2.7713    0.0000 Cl  0  0  0  0  0  0  0  0  0  0  0  0
    4.8000    0.0000    0.0000 C   0  0  0  0  0  0  0  0  0  0  0  0
    6.4000    0.0000    0.0000 H   0  0  0  0  0  0  0  0  0  0  0  0
    4.0000    1.3856    0.0000 C   0  0  0  0  0  0  0  0  0  0  0  0
    4.8000    2.7713    0.0000 H   0  0  0  0  0  0  0  0  0  0  0  0
    2.4001    1.3856    0.0000 C   0  0  0  0  0  0  0  0  0  0  0  0
    1.6001    2.7713    0.0000 H   0  0  0  0  0  0  0  0  0  0  0  0
   -0.8001    1.3856    0.0000 C   0  0  0  0  0  0  0  0  0  0  0  0
   -0.0001    2.7713    0.0000 Cl  0  0  0  0  0  0  0  0  0  0  0  0
   -2.4000    1.3856    0.0000 C   0  0  0  0  0  0  0  0  0  0  0  0
   -3.2000    2.7713    0.0000 Cl  0  0  0  0  0  0  0  0  0  0  0  0
   -3.2000    0.0000    0.0000 C   0  0  0  0  0  0  0  0  0  0  0  0
   -4.8000   -0.0000    0.0000 H   0  0  0  0  0  0  0  0  0  0  0  0
   -2.4000   -1.3856    0.0000 C   0  0  0  0  0  0  0  0  0  0  0  0
   -3.2000   -2.7713    0.0000 H   0  0  0  0  0  0  0  0  0  0  0  0
   -0.8001   -1.3856    0.0000 C   0  0  0  0  0  0  0  0  0  0  0  0
   -0.0001   -2.7713    0.0000 Cl  0  0  0  0  0  0  0  0  0  0  0  0
  1  2  1  0  0  0  0
  2  3  1  0  0  0  0
  3  4  1  0  0  0  0
  3  5  2  0  0  0  0
  5  6  1  0  0  0  0
  5  7  1  0  0  0  0
  7  8  1  0  0  0  0
  7  9  2  0  0  0  0
  9 10  1  0  0  0  0
  9 11  1  0  0  0  0
 11  2  2  0  0  0  0
 11 12  1  0  0  0  0
  1 13  1  0  0  0  0
 13 14  1  0  0  0  0
 13 15  2  0  0  0  0
 15 16  1  0  0  0  0
 15 17  1  0  0  0  0
 17 18  1  0  0  0  0
 17 19  2  0  0  0  0
 19 20  1  0  0  0  0
 19 21  1  0  0  0  0
 21  1  2  0  0  0  0
 21 22  1  0  0  0  0
M  END
> <ChemID>
100572

> <source_casrn>
74472-33-6

> <CAS>
74472-33-6

> <SMILES>
Clc1cc(ccc1)-c1c(Cl)c(Cl)ccc1Cl

> <NAME>
2,3,3',6-tetrachlorobiphenyl

> <preferred_name>
2,3,3',6-Tetrachlorobiphenyl

> <iupac>
1,2,4-trichloro-3-(3-chlorophenyl)benzene

> <MPID>
102159

> <dsstox_substance_id>
DTXSID9074222

> <Canonical_QSARr>
Clc1cc(ccc1)-c1c(Cl)c(Cl)ccc1Cl

> <InChI_Code_QSARr>
InChI=1S/C12H6Cl4/c13-8-3-1-2-7(6-8)11-9(14)4-5-10(15)12(11)16/h1-6H

> <InChI Key_QSARr>
WZNAMGYIQPAXDH-UHFFFAOYSA-N

> <LogKmHL>
2.47

$$$$
100573
  -INDIGO-08031722222D

 22 23  0  0  0  0  0  0  0  0999 V2000
   -0.0001    0.0000    0.0000 C   0  0  0  0  0  0  0  0  0  0  0  0
    1.6001   -0.0000    0.0000 C   0  0  0  0  0  0  0  0  0  0  0  0
    2.4001   -1.3856    0.0000 C   0  0  0  0  0  0  0  0  0  0  0  0
    1.6001   -2.7713    0.0000 H   0  0  0  0  0  0  0  0  0  0  0  0
    4.0000   -1.3856    0.0000 C   0  0  0  0  0  0  0  0  0  0  0  0
    4.8000   -2.7713    0.0000 H   0  0  0  0  0  0  0  0  0  0  0  0
    4.8000    0.0000    0.0000 C   0  0  0  0  0  0  0  0  0  0  0  0
    6.4000    0.0000    0.0000 Cl  0  0  0  0  0  0  0  0  0  0  0  0
    4.0000    1.3856    0.0000 C   0  0  0  0  0  0  0  0  0  0  0  0
    4.8000    2.7713    0.0000 H   0  0  0  0  0  0  0  0  0  0  0  0
    2.4001    1.3856    0.0000 C   0  0  0  0  0  0  0  0  0  0  0  0
    1.6001    2.7713    0.0000 H   0  0  0  0  0  0  0  0  0  0  0  0
   -0.8001    1.3856    0.0000 C   0  0  0  0  0  0  0  0  0  0  0  0
   -0.0001    2.7713    0.0000 Cl  0  0  0  0  0  0  0  0  0  0  0  0
   -2.4000    1.3856    0.0000 C   0  0  0  0  0  0  0  0  0  0  0  0
   -3.2000    2.7713    0.0000 Cl  0  0  0  0  0  0  0  0  0  0  0  0
   -3.2000    0.0000    0.0000 C   0  0  0  0  0  0  0  0  0  0  0  0
   -4.8000   -0.0000    0.0000 H   0  0  0  0  0  0  0  0  0  0  0  0
   -2.4000   -1.3856    0.0000 C   0  0  0  0  0  0  0  0  0  0  0  0
   -3.2000   -2.7713    0.0000 Cl  0  0  0  0  0  0  0  0  0  0  0  0
   -0.8001   -1.3856    0.0000 C   0  0  0  0  0  0  0  0  0  0  0  0
   -0.0001   -2.7713    0.0000 H   0  0  0  0  0  0  0  0  0  0  0  0
  1  2  1  0  0  0  0
  2  3  1  0  0  0  0
  3  4  1  0  0  0  0
  3  5  2  0  0  0  0
  5  6  1  0  0  0  0
  5  7  1  0  0  0  0
  7  8  1  0  0  0  0
  7  9  2  0  0  0  0
  9 10  1  0  0  0  0
  9 11  1  0  0  0  0
 11  2  2  0  0  0  0
 11 12  1  0  0  0  0
  1 13  1  0  0  0  0
 13 14  1  0  0  0  0
 13 15  2  0  0  0  0
 15 16  1  0  0  0  0
 15 17  1  0  0  0  0
 17 18  1  0  0  0  0
 17 19  2  0  0  0  0
 19 20  1  0  0  0  0
 19 21  1  0  0  0  0
 21  1  2  0  0  0  0
 21 22  1  0  0  0  0
M  END
> <ChemID>
100573

> <source_casrn>
74472-34-7

> <CAS>
74472-34-7

> <SMILES>
Clc1cc(Cl)cc(-c2ccc(Cl)cc2)c1Cl

> <NAME>
2,3,4',5-tetrachlorobiphenyl

> <preferred_name>
2,3,4',5-Tetrachlorobiphenyl

> <iupac>
1,2,5-trichloro-3-(4-chlorophenyl)benzene

> <MPID>
102160

> <dsstox_substance_id>
DTXSID4074223

> <Canonical_QSARr>
Clc1cc(Cl)cc(-c2ccc(Cl)cc2)c1Cl

> <InChI_Code_QSARr>
InChI=1S/C12H6Cl4/c13-8-3-1-7(2-4-8)10-5-9(14)6-11(15)12(10)16/h1-6H

> <InChI Key_QSARr>
CITMYAMXIZQCJD-UHFFFAOYSA-N

> <LogKmHL>
2.43

$$$$
100574
  -INDIGO-08031722222D

 22 23  0  0  0  0  0  0  0  0999 V2000
   -0.0001    0.0000    0.0000 C   0  0  0  0  0  0  0  0  0  0  0  0
    1.6001   -0.0000    0.0000 C   0  0  0  0  0  0  0  0  0  0  0  0
    2.4001   -1.3856    0.0000 C   0  0  0  0  0  0  0  0  0  0  0  0
    1.6001   -2.7713    0.0000 H   0  0  0  0  0  0  0  0  0  0  0  0
    4.0000   -1.3856    0.0000 C   0  0  0  0  0  0  0  0  0  0  0  0
    4.8000   -2.7713    0.0000 H   0  0  0  0  0  0  0  0  0  0  0  0
    4.8000    0.0000    0.0000 C   0  0  0  0  0  0  0  0  0  0  0  0
    6.4000    0.0000    0.0000 Cl  0  0  0  0  0  0  0  0  0  0  0  0
    4.0000    1.3856    0.0000 C   0  0  0  0  0  0  0  0  0  0  0  0
    4.8000    2.7713    0.0000 H   0  0  0  0  0  0  0  0  0  0  0  0
    2.4001    1.3856    0.0000 C   0  0  0  0  0  0  0  0  0  0  0  0
    1.6001    2.7713    0.0000 H   0  0  0  0  0  0  0  0  0  0  0  0
   -0.8001    1.3856    0.0000 C   0  0  0  0  0  0  0  0  0  0  0  0
   -0.0001    2.7713    0.0000 Cl  0  0  0  0  0  0  0  0  0  0  0  0
   -2.4000    1.3856    0.0000 C   0  0  0  0  0  0  0  0  0  0  0  0
   -3.2000    2.7713    0.0000 Cl  0  0  0  0  0  0  0  0  0  0  0  0
   -3.2000    0.0000    0.0000 C   0  0  0  0  0  0  0  0  0  0  0  0
   -4.8000   -0.0000    0.0000 Cl  0  0  0  0  0  0  0  0  0  0  0  0
   -2.4000   -1.3856    0.0000 C   0  0  0  0  0  0  0  0  0  0  0  0
   -3.2000   -2.7713    0.0000 Cl  0  0  0  0  0  0  0  0  0  0  0  0
   -0.8001   -1.3856    0.0000 C   0  0  0  0  0  0  0  0  0  0  0  0
   -0.0001   -2.7713    0.0000 H   0  0  0  0  0  0  0  0  0  0  0  0
  1  2  1  0  0  0  0
  2  3  1  0  0  0  0
  3  4  1  0  0  0  0
  3  5  2  0  0  0  0
  5  6  1  0  0  0  0
  5  7  1  0  0  0  0
  7  8  1  0  0  0  0
  7  9  2  0  0  0  0
  9 10  1  0  0  0  0
  9 11  1  0  0  0  0
 11  2  2  0  0  0  0
 11 12  1  0  0  0  0
  1 13  1  0  0  0  0
 13 14  1  0  0  0  0
 13 15  2  0  0  0  0
 15 16  1  0  0  0  0
 15 17  1  0  0  0  0
 17 18  1  0  0  0  0
 17 19  2  0  0  0  0
 19 20  1  0  0  0  0
 19 21  1  0  0  0  0
 21  1  2  0  0  0  0
 21 22  1  0  0  0  0
M  END
> <ChemID>
100574

> <source_casrn>
74472-37-0

> <CAS>
74472-37-0

> <SMILES>
Clc1ccc(cc1)-c1cc(Cl)c(Cl)c(Cl)c1Cl

> <NAME>
2,3,4,4',5-pentachlorobiphenyl

> <preferred_name>
2,3,4,4',5-Pentachlorobiphenyl

> <iupac>
1,2,3,4-tetrachloro-5-(4-chlorophenyl)benzene

> <MPID>
102161

> <dsstox_substance_id>
DTXSID9074226

> <Canonical_QSARr>
Clc1ccc(cc1)-c1cc(Cl)c(Cl)c(Cl)c1Cl

> <InChI_Code_QSARr>
InChI=1S/C12H5Cl5/c13-7-3-1-6(2-4-7)8-5-9(14)11(16)12(17)10(8)15/h1-5H

> <InChI Key_QSARr>
SXZSFWHOSHAKMN-UHFFFAOYSA-N

> <LogKmHL>
2.36

$$$$
100576
  -INDIGO-08031722222D

 22 23  0  0  0  0  0  0  0  0999 V2000
    3.2000   -0.0000    0.0000 C   0  0  0  0  0  0  0  0  0  0  0  0
    2.4000    1.3856    0.0000 C   0  0  0  0  0  0  0  0  0  0  0  0
    3.2000    2.7713    0.0000 H   0  0  0  0  0  0  0  0  0  0  0  0
    0.8001    1.3856    0.0000 C   0  0  0  0  0  0  0  0  0  0  0  0
    0.0001    2.7713    0.0000 H   0  0  0  0  0  0  0  0  0  0  0  0
    0.0001   -0.0000    0.0000 C   0  0  0  0  0  0  0  0  0  0  0  0
   -1.6001    0.0000    0.0000 C   0  0  0  0  0  0  0  0  0  0  0  0
   -2.4001    1.3856    0.0000 C   0  0  0  0  0  0  0  0  0  0  0  0
   -1.6001    2.7713    0.0000 Cl  0  0  0  0  0  0  0  0  0  0  0  0
   -4.0000    1.3856    0.0000 C   0  0  0  0  0  0  0  0  0  0  0  0
   -4.8000    2.7713    0.0000 Cl  0  0  0  0  0  0  0  0  0  0  0  0
   -4.8000    0.0000    0.0000 C   0  0  0  0  0  0  0  0  0  0  0  0
   -6.4000    0.0000    0.0000 Cl  0  0  0  0  0  0  0  0  0  0  0  0
   -4.0000   -1.3856    0.0000 C   0  0  0  0  0  0  0  0  0  0  0  0
   -4.8000   -2.7713    0.0000 H   0  0  0  0  0  0  0  0  0  0  0  0
   -2.4001   -1.3856    0.0000 C   0  0  0  0  0  0  0  0  0  0  0  0
   -1.6001   -2.7713    0.0000 Cl  0  0  0  0  0  0  0  0  0  0  0  0
    0.8001   -1.3856    0.0000 C   0  0  0  0  0  0  0  0  0  0  0  0
    0.0001   -2.7713    0.0000 H   0  0  0  0  0  0  0  0  0  0  0  0
    2.4000   -1.3856    0.0000 C   0  0  0  0  0  0  0  0  0  0  0  0
    3.2000   -2.7713    0.0000 Cl  0  0  0  0  0  0  0  0  0  0  0  0
    4.8000   -0.0000    0.0000 Cl  0  0  0  0  0  0  0  0  0  0  0  0
  1  2  1  0  0  0  0
  2  3  1  0  0  0  0
  2  4  2  0  0  0  0
  4  5  1  0  0  0  0
  4  6  1  0  0  0  0
  6  7  1  0  0  0  0
  7  8  1  0  0  0  0
  8  9  1  0  0  0  0
  8 10  2  0  0  0  0
 10 11  1  0  0  0  0
 10 12  1  0  0  0  0
 12 13  1  0  0  0  0
 12 14  2  0  0  0  0
 14 15  1  0  0  0  0
 14 16  1  0  0  0  0
 16  7  2  0  0  0  0
 16 17  1  0  0  0  0
  6 18  2  0  0  0  0
 18 19  1  0  0  0  0
 18 20  1  0  0  0  0
 20  1  2  0  0  0  0
 20 21  1  0  0  0  0
  1 22  1  0  0  0  0
M  END
> <ChemID>
100576

> <source_casrn>
74472-42-7

> <CAS>
74472-42-7

> <SMILES>
Clc1c(Cl)c(-c2cc(Cl)c(Cl)cc2)c(Cl)cc1Cl

> <NAME>
2,3,3',4,4',6-hexachlorobiphenyl

> <preferred_name>
2,3,3',4,4',6-Hexachlorobiphenyl

> <iupac>
1,2,3,5-tetrachloro-4-(3,4-dichlorophenyl)benzene

> <MPID>
102163

> <dsstox_substance_id>
DTXSID8074231

> <Canonical_QSARr>
Clc1c(Cl)c(-c2cc(Cl)c(Cl)cc2)c(Cl)cc1Cl

> <InChI_Code_QSARr>
InChI=1S/C12H4Cl6/c13-6-2-1-5(3-7(6)14)10-8(15)4-9(16)11(17)12(10)18/h1-4H

> <InChI Key_QSARr>
ZQUPQXINXTWCQR-UHFFFAOYSA-N

> <LogKmHL>
2.57

$$$$
100577
  -INDIGO-08031722222D

 22 23  0  0  0  0  0  0  0  0999 V2000
   -0.0001    2.7713    0.0000 Cl  0  0  0  0  0  0  0  0  0  0  0  0
   -0.8001    1.3856    0.0000 C   0  0  0  0  0  0  0  0  0  0  0  0
   -0.0001   -0.0000    0.0000 C   0  0  0  0  0  0  0  0  0  0  0  0
    1.6001    0.0000    0.0000 C   0  0  0  0  0  0  0  0  0  0  0  0
    2.4001    1.3856    0.0000 C   0  0  0  0  0  0  0  0  0  0  0  0
    1.6001    2.7713    0.0000 H   0  0  0  0  0  0  0  0  0  0  0  0
    4.0000    1.3856    0.0000 C   0  0  0  0  0  0  0  0  0  0  0  0
    4.8000    2.7713    0.0000 H   0  0  0  0  0  0  0  0  0  0  0  0
    4.8000    0.0000    0.0000 C   0  0  0  0  0  0  0  0  0  0  0  0
    6.4000    0.0000    0.0000 Cl  0  0  0  0  0  0  0  0  0  0  0  0
    4.0000   -1.3856    0.0000 C   0  0  0  0  0  0  0  0  0  0  0  0
    4.8000   -2.7713    0.0000 Cl  0  0  0  0  0  0  0  0  0  0  0  0
    2.4001   -1.3856    0.0000 C   0  0  0  0  0  0  0  0  0  0  0  0
    1.6001   -2.7713    0.0000 H   0  0  0  0  0  0  0  0  0  0  0  0
   -0.8001   -1.3856    0.0000 C   0  0  0  0  0  0  0  0  0  0  0  0
   -0.0001   -2.7713    0.0000 Cl  0  0  0  0  0  0  0  0  0  0  0  0
   -2.4000   -1.3856    0.0000 C   0  0  0  0  0  0  0  0  0  0  0  0
   -3.2000   -2.7713    0.0000 Cl  0  0  0  0  0  0  0  0  0  0  0  0
   -3.2000   -0.0000    0.0000 C   0  0  0  0  0  0  0  0  0  0  0  0
   -4.8000   -0.0000    0.0000 H   0  0  0  0  0  0  0  0  0  0  0  0
   -2.4000    1.3856    0.0000 C   0  0  0  0  0  0  0  0  0  0  0  0
   -3.2000    2.7713    0.0000 Cl  0  0  0  0  0  0  0  0  0  0  0  0
  1  2  1  0  0  0  0
  2  3  1  0  0  0  0
  3  4  1  0  0  0  0
  4  5  1  0  0  0  0
  5  6  1  0  0  0  0
  5  7  2  0  0  0  0
  7  8  1  0  0  0  0
  7  9  1  0  0  0  0
  9 10  1  0  0  0  0
  9 11  2  0  0  0  0
 11 12  1  0  0  0  0
 11 13  1  0  0  0  0
 13  4  2  0  0  0  0
 13 14  1  0  0  0  0
  3 15  2  0  0  0  0
 15 16  1  0  0  0  0
 15 17  1  0  0  0  0
 17 18  1  0  0  0  0
 17 19  2  0  0  0  0
 19 20  1  0  0  0  0
 19 21  1  0  0  0  0
 21  2  2  0  0  0  0
 21 22  1  0  0  0  0
M  END
> <ChemID>
100577

> <source_casrn>
74472-44-9

> <CAS>
74472-44-9

> <SMILES>
Clc1ccc(cc1Cl)-c1c(Cl)c(Cl)cc(Cl)c1Cl

> <NAME>
2,3,3',4',5,6-hexachlorobiphenyl

> <preferred_name>
2,3,3',4',5,6-Hexachlorobiphenyl

> <iupac>
1,2,4,5-tetrachloro-3-(3,4-dichlorophenyl)benzene

> <MPID>
102164

> <dsstox_substance_id>
DTXSID8074233

> <Canonical_QSARr>
Clc1ccc(cc1Cl)-c1c(Cl)c(Cl)cc(Cl)c1Cl

> <InChI_Code_QSARr>
InChI=1S/C12H4Cl6/c13-6-2-1-5(3-7(6)14)10-11(17)8(15)4-9(16)12(10)18/h1-4H

> <InChI Key_QSARr>
ZAGRQXMWMRUYRB-UHFFFAOYSA-N

> <LogKmHL>
2.61

$$$$
100578
  -INDIGO-08031722222D

 22 23  0  0  0  0  0  0  0  0999 V2000
   -0.8001   -1.3856    0.0000 C   0  0  0  0  0  0  0  0  0  0  0  0
   -0.0001   -2.7713    0.0000 Cl  0  0  0  0  0  0  0  0  0  0  0  0
   -2.4000   -1.3856    0.0000 C   0  0  0  0  0  0  0  0  0  0  0  0
   -3.2000   -2.7713    0.0000 Cl  0  0  0  0  0  0  0  0  0  0  0  0
   -3.2000   -0.0000    0.0000 C   0  0  0  0  0  0  0  0  0  0  0  0
   -4.8000   -0.0000    0.0000 Cl  0  0  0  0  0  0  0  0  0  0  0  0
   -2.4000    1.3856    0.0000 C   0  0  0  0  0  0  0  0  0  0  0  0
   -3.2000    2.7713    0.0000 Cl  0  0  0  0  0  0  0  0  0  0  0  0
   -0.8001    1.3856    0.0000 C   0  0  0  0  0  0  0  0  0  0  0  0
   -0.0001    2.7713    0.0000 Cl  0  0  0  0  0  0  0  0  0  0  0  0
   -0.0001   -0.0000    0.0000 C   0  0  0  0  0  0  0  0  0  0  0  0
    1.6001    0.0000    0.0000 C   0  0  0  0  0  0  0  0  0  0  0  0
    2.4001    1.3856    0.0000 C   0  0  0  0  0  0  0  0  0  0  0  0
    1.6001    2.7713    0.0000 H   0  0  0  0  0  0  0  0  0  0  0  0
    4.0000    1.3856    0.0000 C   0  0  0  0  0  0  0  0  0  0  0  0
    4.8000    2.7713    0.0000 Cl  0  0  0  0  0  0  0  0  0  0  0  0
    4.8000    0.0000    0.0000 C   0  0  0  0  0  0  0  0  0  0  0  0
    6.4000    0.0000    0.0000 Cl  0  0  0  0  0  0  0  0  0  0  0  0
    4.0000   -1.3856    0.0000 C   0  0  0  0  0  0  0  0  0  0  0  0
    4.8000   -2.7713    0.0000 Cl  0  0  0  0  0  0  0  0  0  0  0  0
    2.4001   -1.3856    0.0000 C   0  0  0  0  0  0  0  0  0  0  0  0
    1.6001   -2.7713    0.0000 H   0  0  0  0  0  0  0  0  0  0  0  0
  1  2  1  0  0  0  0
  1  3  1  0  0  0  0
  3  4  1  0  0  0  0
  3  5  2  0  0  0  0
  5  6  1  0  0  0  0
  5  7  1  0  0  0  0
  7  8  1  0  0  0  0
  7  9  2  0  0  0  0
  9 10  1  0  0  0  0
  9 11  1  0  0  0  0
 11  1  2  0  0  0  0
 11 12  1  0  0  0  0
 12 13  1  0  0  0  0
 13 14  1  0  0  0  0
 13 15  2  0  0  0  0
 15 16  1  0  0  0  0
 15 17  1  0  0  0  0
 17 18  1  0  0  0  0
 17 19  2  0  0  0  0
 19 20  1  0  0  0  0
 19 21  1  0  0  0  0
 21 12  2  0  0  0  0
 21 22  1  0  0  0  0
M  END
> <ChemID>
100578

> <source_casrn>
74472-53-0

> <CAS>
74472-53-0

> <SMILES>
Clc1cc(cc(Cl)c1Cl)-c1c(Cl)c(Cl)c(Cl)c(Cl)c1Cl

> <NAME>
2,3,3',4,4',5,5',6-octachlorobiphenyl

> <preferred_name>
2,3,3',4,4',5,5',6-Octachlorobiphenyl

> <iupac>
1,2,3,4,5-pentachloro-6-(3,4,5-trichlorophenyl)benzene

> <MPID>
102165

> <dsstox_substance_id>
DTXSID2074241

> <Canonical_QSARr>
Clc1cc(cc(Cl)c1Cl)-c1c(Cl)c(Cl)c(Cl)c(Cl)c1Cl

> <InChI_Code_QSARr>
InChI=1S/C12H2Cl8/c13-4-1-3(2-5(14)7(4)15)6-8(16)10(18)12(20)11(19)9(6)17/h1-2H

> <InChI Key_QSARr>
VXXBCDUYUQKWCK-UHFFFAOYSA-N

> <LogKmHL>
2.65

$$$$
100580
  -INDIGO-08031722222D

 21 23  0  0  0  0  0  0  0  0999 V2000
    0.0000    0.0000    0.0000 C   0  0  0  0  0  0  0  0  0  0  0  0
    1.5651    0.3327    0.0000 C   0  0  0  0  0  0  0  0  0  0  0  0
    1.7322    1.9239    0.0000 C   0  0  0  0  0  0  0  0  0  0  0  0
    3.1939    2.5747    0.0000 C   0  0  0  0  0  0  0  0  0  0  0  0
    4.4883    1.6342    0.0000 C   0  0  0  0  0  0  0  0  0  0  0  0
    5.9501    2.2850    0.0000 Cl  0  0  0  0  0  0  0  0  0  0  0  0
    4.3212    0.0430    0.0000 C   0  0  0  0  0  0  0  0  0  0  0  0
    5.6156   -0.8974    0.0000 H   0  0  0  0  0  0  0  0  0  0  0  0
    2.8595   -0.6078    0.0000 C   0  0  0  0  0  0  0  0  0  0  0  0
    2.6921   -2.1990    0.0000 H   0  0  0  0  0  0  0  0  0  0  0  0
    3.3612    4.1659    0.0000 Cl  0  0  0  0  0  0  0  0  0  0  0  0
    0.2707    2.5747    0.0000 O   0  0  0  0  0  0  0  0  0  0  0  0
   -0.8000    1.3856    0.0000 C   0  0  0  0  0  0  0  0  0  0  0  0
   -2.4000    1.3856    0.0000 C   0  0  0  0  0  0  0  0  0  0  0  0
   -3.2000    2.7713    0.0000 Cl  0  0  0  0  0  0  0  0  0  0  0  0
   -3.2000    0.0000    0.0000 C   0  0  0  0  0  0  0  0  0  0  0  0
   -4.8000    0.0000    0.0000 Cl  0  0  0  0  0  0  0  0  0  0  0  0
   -2.4000   -1.3856    0.0000 C   0  0  0  0  0  0  0  0  0  0  0  0
   -3.2000   -2.7713    0.0000 Cl  0  0  0  0  0  0  0  0  0  0  0  0
   -0.8000   -1.3856    0.0000 C   0  0  0  0  0  0  0  0  0  0  0  0
    0.0000   -2.7713    0.0000 Cl  0  0  0  0  0  0  0  0  0  0  0  0
  1  2  1  0  0  0  0
  2  3  1  0  0  0  0
  3  4  2  0  0  0  0
  4  5  1  0  0  0  0
  5  6  1  0  0  0  0
  5  7  2  0  0  0  0
  7  8  1  0  0  0  0
  7  9  1  0  0  0  0
  9  2  2  0  0  0  0
  9 10  1  0  0  0  0
  4 11  1  0  0  0  0
  3 12  1  0  0  0  0
 12 13  1  0  0  0  0
 13  1  1  0  0  0  0
 13 14  2  0  0  0  0
 14 15  1  0  0  0  0
 14 16  1  0  0  0  0
 16 17  1  0  0  0  0
 16 18  2  0  0  0  0
 18 19  1  0  0  0  0
 18 20  1  0  0  0  0
 20  1  2  0  0  0  0
 20 21  1  0  0  0  0
M  END
> <ChemID>
100580

> <source_casrn>
79060-60-9

> <CAS>
79060-60-9

> <SMILES>
Clc1ccc2c(oc3c2c(Cl)c(Cl)c(Cl)c3Cl)c1Cl

> <NAME>
1,2,3,4,6,7-hexachlorodibenzofuran

> <preferred_name>
Dibenzofuran, 1,2,3,4,6,7-hexachloro-

> <iupac>
1,2,3,4,6,7-HEXACHLORODIBENZOFURAN

> <MPID>
102167

> <dsstox_substance_id>
DTXSID1075270

> <Canonical_QSARr>
Clc1ccc2c(oc3c2c(Cl)c(Cl)c(Cl)c3Cl)c1Cl

> <InChI_Code_QSARr>
InChI=1S/C12H2Cl6O/c13-4-2-1-3-5-7(15)8(16)9(17)10(18)12(5)19-11(3)6(4)14/h1-2H

> <InChI Key_QSARr>
SNWFMKXFMVHBKD-UHFFFAOYSA-N

> <LogKmHL>
0.43

$$$$
100581
  -INDIGO-08031722222D

 44 44  0  0  0  0  0  0  0  0999 V2000
   -8.0001    2.7713    0.0000 C   0  0  0  0  0  0  0  0  0  0  0  0
   -8.8000    4.1570    0.0000 C   0  0  0  0  0  0  0  0  0  0  0  0
   -8.0001    5.5426    0.0000 Cl  0  0  0  0  0  0  0  0  0  0  0  0
  -10.4001    4.1570    0.0000 C   0  0  0  0  0  0  0  0  0  0  0  0
  -11.1999    5.5426    0.0000 N   0  0  0  0  0  0  0  0  0  0  0  0
  -12.8000    5.5426    0.0000 H   0  0  0  0  0  0  0  0  0  0  0  0
  -10.4001    6.9282    0.0000 H   0  0  0  0  0  0  0  0  0  0  0  0
  -11.1999    2.7713    0.0000 C   0  0  0  0  0  0  0  0  0  0  0  0
  -12.8000    2.7713    0.0000 Cl  0  0  0  0  0  0  0  0  0  0  0  0
  -10.4001    1.3857    0.0000 C   0  0  0  0  0  0  0  0  0  0  0  0
  -11.1999    0.0001    0.0000 F   0  0  0  0  0  0  0  0  0  0  0  0
   -8.8000    1.3857    0.0000 N   0  0  0  0  0  0  0  0  0  0  0  0
   -6.4001    2.7713    0.0000 O   0  0  0  0  0  0  0  0  0  0  0  0
   -5.5999    1.3857    0.0000 C   0  0  0  0  0  0  0  0  0  0  0  0
   -5.8089   -0.2006    0.0000 H   0  0  0  0  0  0  0  0  0  0  0  0
   -6.8694    0.4117    0.0000 H   0  0  0  0  0  0  0  0  0  0  0  0
   -4.0001    1.3857    0.0000 C   0  0  0  0  0  0  0  0  0  0  0  0
   -3.1999    0.0001    0.0000 O   0  0  0  0  0  0  0  0  0  0  0  0
   -1.5999    0.0001    0.0000 C   0  0  0  0  0  0  0  0  0  0  0  0
   -1.5999    1.6000    0.0000 H   0  0  0  0  0  0  0  0  0  0  0  0
   -0.0001    0.0001    0.0000 C   0  0  0  0  0  0  0  0  0  0  0  0
    0.2089   -1.5863    0.0000 H   0  0  0  0  0  0  0  0  0  0  0  0
    1.2694   -0.9740    0.0000 H   0  0  0  0  0  0  0  0  0  0  0  0
    0.8001    1.3857    0.0000 C   0  0  0  0  0  0  0  0  0  0  0  0
    0.5910    2.9719    0.0000 H   0  0  0  0  0  0  0  0  0  0  0  0
   -0.4695    2.3596    0.0000 H   0  0  0  0  0  0  0  0  0  0  0  0
    2.4001    1.3857    0.0000 C   0  0  0  0  0  0  0  0  0  0  0  0
    2.6089   -0.2006    0.0000 H   0  0  0  0  0  0  0  0  0  0  0  0
    3.6694    0.4117    0.0000 H   0  0  0  0  0  0  0  0  0  0  0  0
    3.2000    2.7713    0.0000 C   0  0  0  0  0  0  0  0  0  0  0  0
    2.9913    4.3577    0.0000 H   0  0  0  0  0  0  0  0  0  0  0  0
    1.9308    3.7454    0.0000 H   0  0  0  0  0  0  0  0  0  0  0  0
    4.8001    2.7713    0.0000 C   0  0  0  0  0  0  0  0  0  0  0  0
    5.0088    1.1850    0.0000 H   0  0  0  0  0  0  0  0  0  0  0  0
    6.0693    1.7973    0.0000 H   0  0  0  0  0  0  0  0  0  0  0  0
    5.5999    4.1570    0.0000 C   0  0  0  0  0  0  0  0  0  0  0  0
    6.4001    5.5426    0.0000 H   0  0  0  0  0  0  0  0  0  0  0  0
    7.2000    4.1570    0.0000 H   0  0  0  0  0  0  0  0  0  0  0  0
    4.8001    5.5426    0.0000 H   0  0  0  0  0  0  0  0  0  0  0  0
   -1.8779   -1.5757    0.0000 C   0  0  0  0  0  0  0  0  0  0  0  0
   -2.1556   -3.1514    0.0000 H   0  0  0  0  0  0  0  0  0  0  0  0
   -3.3812   -2.1229    0.0000 H   0  0  0  0  0  0  0  0  0  0  0  0
   -0.6523   -2.6041    0.0000 H   0  0  0  0  0  0  0  0  0  0  0  0
   -3.1999    2.7713    0.0000 O   0  0  0  0  0  0  0  0  0  0  0  0
  1  2  1  0  0  0  0
  2  3  1  0  0  0  0
  2  4  2  0  0  0  0
  4  5  1  0  0  0  0
  5  6  1  0  0  0  0
  5  7  1  0  0  0  0
  4  8  1  0  0  0  0
  8  9  1  0  0  0  0
  8 10  2  0  0  0  0
 10 11  1  0  0  0  0
 10 12  1  0  0  0  0
 12  1  2  0  0  0  0
  1 13  1  0  0  0  0
 13 14  1  0  0  0  0
 14 15  1  0  0  0  0
 14 16  1  0  0  0  0
 14 17  1  0  0  0  0
 17 18  1  0  0  0  0
 18 19  1  0  0  0  0
 19 20  1  0  0  0  0
 19 21  1  0  0  0  0
 21 22  1  0  0  0  0
 21 23  1  0  0  0  0
 21 24  1  0  0  0  0
 24 25  1  0  0  0  0
 24 26  1  0  0  0  0
 24 27  1  0  0  0  0
 27 28  1  0  0  0  0
 27 29  1  0  0  0  0
 27 30  1  0  0  0  0
 30 31  1  0  0  0  0
 30 32  1  0  0  0  0
 30 33  1  0  0  0  0
 33 34  1  0  0  0  0
 33 35  1  0  0  0  0
 33 36  1  0  0  0  0
 36 37  1  0  0  0  0
 36 38  1  0  0  0  0
 36 39  1  0  0  0  0
 19 40  1  0  0  0  0
 40 41  1  0  0  0  0
 40 42  1  0  0  0  0
 40 43  1  0  0  0  0
 17 44  2  0  0  0  0
M  END
> <ChemID>
100581

> <source_casrn>
81406-37-3

> <CAS>
81406-37-3

> <SMILES>
n1c(F)c(Cl)c(N)c(Cl)c1OCC(=O)OC(C)CCCCCC

> <NAME>
Fluroxypyr methylheptyl ester

> <preferred_name>
Fluroxypyr-meptyl

> <iupac>
octan-2-yl [(4-amino-3,5-dichloro-6-fluoropyridin-2-yl)oxy]acetate

> <MPID>
102168

> <dsstox_substance_id>
DTXSID5034303

> <Canonical_QSARr>
CCCCCCC(C)OC(=O)COc1[n]c(F)c(Cl)c(N)c1Cl

> <InChI_Code_QSARr>
InChI=1S/C15H21Cl2FN2O3/c1-3-4-5-6-7-9(2)23-10(21)8-22-15-12(17)13(19)11(16)14(18)20-15/h9H,3-8H2,1-2H3,(H2,19,20)

> <InChI Key_QSARr>
OLZQTUCTGLHFTQ-UHFFFAOYSA-N

> <LogKmHL>
-0.61

$$$$
100582
  -INDIGO-08031722222D

 23 24  0  0  0  0  0  0  0  0999 V2000
   -0.4813    2.7292    0.0000 Cl  0  0  0  0  0  0  0  0  0  0  0  0
   -1.0284    1.2257    0.0000 C   0  0  0  0  0  0  0  0  0  0  0  0
    0.0000    0.0000    0.0000 C   0  0  0  0  0  0  0  0  0  0  0  0
    1.5756    0.2779    0.0000 O   0  0  0  0  0  0  0  0  0  0  0  0
    2.9614   -0.5221    0.0000 C   0  0  0  0  0  0  0  0  0  0  0  0
    2.9614   -2.1222    0.0000 C   0  0  0  0  0  0  0  0  0  0  0  0
    1.5756   -2.9222    0.0000 Cl  0  0  0  0  0  0  0  0  0  0  0  0
    4.3470   -2.9222    0.0000 C   0  0  0  0  0  0  0  0  0  0  0  0
    4.3470   -4.5222    0.0000 H   0  0  0  0  0  0  0  0  0  0  0  0
    5.7326   -2.1222    0.0000 C   0  0  0  0  0  0  0  0  0  0  0  0
    7.1183   -2.9222    0.0000 Cl  0  0  0  0  0  0  0  0  0  0  0  0
    5.7326   -0.5221    0.0000 C   0  0  0  0  0  0  0  0  0  0  0  0
    7.1183    0.2779    0.0000 Cl  0  0  0  0  0  0  0  0  0  0  0  0
    4.3470    0.2779    0.0000 C   0  0  0  0  0  0  0  0  0  0  0  0
    4.3470    1.8779    0.0000 H   0  0  0  0  0  0  0  0  0  0  0  0
   -0.5473   -1.5035    0.0000 C   0  0  0  0  0  0  0  0  0  0  0  0
    0.4812   -2.7292    0.0000 H   0  0  0  0  0  0  0  0  0  0  0  0
   -2.1229   -1.7813    0.0000 C   0  0  0  0  0  0  0  0  0  0  0  0
   -2.6702   -3.2849    0.0000 Cl  0  0  0  0  0  0  0  0  0  0  0  0
   -3.1513   -0.5556    0.0000 C   0  0  0  0  0  0  0  0  0  0  0  0
   -4.7271   -0.8335    0.0000 Cl  0  0  0  0  0  0  0  0  0  0  0  0
   -2.6042    0.9479    0.0000 C   0  0  0  0  0  0  0  0  0  0  0  0
   -3.6326    2.1735    0.0000 Cl  0  0  0  0  0  0  0  0  0  0  0  0
  1  2  1  0  0  0  0
  2  3  1  0  0  0  0
  3  4  1  0  0  0  0
  4  5  1  0  0  0  0
  5  6  1  0  0  0  0
  6  7  1  0  0  0  0
  6  8  2  0  0  0  0
  8  9  1  0  0  0  0
  8 10  1  0  0  0  0
 10 11  1  0  0  0  0
 10 12  2  0  0  0  0
 12 13  1  0  0  0  0
 12 14  1  0  0  0  0
 14  5  2  0  0  0  0
 14 15  1  0  0  0  0
  3 16  2  0  0  0  0
 16 17  1  0  0  0  0
 16 18  1  0  0  0  0
 18 19  1  0  0  0  0
 18 20  2  0  0  0  0
 20 21  1  0  0  0  0
 20 22  1  0  0  0  0
 22  2  2  0  0  0  0
 22 23  1  0  0  0  0
M  END
> <ChemID>
100582

> <source_casrn>
83992-69-2

> <CAS>
83992-69-2

> <SMILES>
Clc1cc(Cl)c(Cl)cc1Oc2c(Cl)c(Cl)c(Cl)c(Cl)c2

> <NAME>
2,2',3,4,4',5,5'-Heptachlorodiphenylether

> <preferred_name>
2,2',3,4,4',5,5'-Heptachlorodiphenyl ether

> <iupac>
1,2,3,4-tetrachloro-5-(2,4,5-trichlorophenoxy)benzene

> <MPID>
102169

> <dsstox_substance_id>
DTXSID30232872

> <Canonical_QSARr>
Clc1cc(Cl)c(Cl)cc1Oc1cc(Cl)c(Cl)c(Cl)c1Cl

> <InChI_Code_QSARr>
InChI=1S/C12H3Cl7O/c13-4-1-6(15)8(2-5(4)14)20-9-3-7(16)10(17)12(19)11(9)18/h1-3H

> <InChI Key_QSARr>
YBYYCWMPXZRBNJ-UHFFFAOYSA-N

> <LogKmHL>
1.97

$$$$
100587
  -INDIGO-08031722222D

 23 24  0  0  0  0  0  0  0  0999 V2000
   -0.4813    2.7292    0.0000 Cl  0  0  0  0  0  0  0  0  0  0  0  0
   -1.0284    1.2257    0.0000 C   0  0  0  0  0  0  0  0  0  0  0  0
    0.0000    0.0000    0.0000 C   0  0  0  0  0  0  0  0  0  0  0  0
    1.5756    0.2779    0.0000 O   0  0  0  0  0  0  0  0  0  0  0  0
    2.9614   -0.5221    0.0000 C   0  0  0  0  0  0  0  0  0  0  0  0
    2.9614   -2.1222    0.0000 C   0  0  0  0  0  0  0  0  0  0  0  0
    1.5756   -2.9222    0.0000 Cl  0  0  0  0  0  0  0  0  0  0  0  0
    4.3470   -2.9222    0.0000 C   0  0  0  0  0  0  0  0  0  0  0  0
    4.3470   -4.5222    0.0000 H   0  0  0  0  0  0  0  0  0  0  0  0
    5.7326   -2.1222    0.0000 C   0  0  0  0  0  0  0  0  0  0  0  0
    7.1183   -2.9222    0.0000 Cl  0  0  0  0  0  0  0  0  0  0  0  0
    5.7326   -0.5221    0.0000 C   0  0  0  0  0  0  0  0  0  0  0  0
    7.1183    0.2779    0.0000 H   0  0  0  0  0  0  0  0  0  0  0  0
    4.3470    0.2779    0.0000 C   0  0  0  0  0  0  0  0  0  0  0  0
    4.3470    1.8779    0.0000 Cl  0  0  0  0  0  0  0  0  0  0  0  0
   -0.5473   -1.5035    0.0000 C   0  0  0  0  0  0  0  0  0  0  0  0
    0.4812   -2.7292    0.0000 H   0  0  0  0  0  0  0  0  0  0  0  0
   -2.1229   -1.7813    0.0000 C   0  0  0  0  0  0  0  0  0  0  0  0
   -2.6702   -3.2849    0.0000 Cl  0  0  0  0  0  0  0  0  0  0  0  0
   -3.1513   -0.5556    0.0000 C   0  0  0  0  0  0  0  0  0  0  0  0
   -4.7271   -0.8335    0.0000 Cl  0  0  0  0  0  0  0  0  0  0  0  0
   -2.6042    0.9479    0.0000 C   0  0  0  0  0  0  0  0  0  0  0  0
   -3.6326    2.1735    0.0000 H   0  0  0  0  0  0  0  0  0  0  0  0
  1  2  1  0  0  0  0
  2  3  1  0  0  0  0
  3  4  1  0  0  0  0
  4  5  1  0  0  0  0
  5  6  1  0  0  0  0
  6  7  1  0  0  0  0
  6  8  2  0  0  0  0
  8  9  1  0  0  0  0
  8 10  1  0  0  0  0
 10 11  1  0  0  0  0
 10 12  2  0  0  0  0
 12 13  1  0  0  0  0
 12 14  1  0  0  0  0
 14  5  2  0  0  0  0
 14 15  1  0  0  0  0
  3 16  2  0  0  0  0
 16 17  1  0  0  0  0
 16 18  1  0  0  0  0
 18 19  1  0  0  0  0
 18 20  2  0  0  0  0
 20 21  1  0  0  0  0
 20 22  1  0  0  0  0
 22  2  2  0  0  0  0
 22 23  1  0  0  0  0
M  END
> <ChemID>
100587

> <source_casrn>
106220-81-9

> <CAS>
106220-81-9

> <SMILES>
Clc1cc(Cl)cc(Cl)c1Oc2c(Cl)cc(Cl)c(Cl)c2

> <NAME>
2,2',4,4',5,6'-Hexachlorodiphenylether

> <preferred_name>
2,2',4,4',5,6'-Hexachlorodiphenyl ether

> <iupac>
1,2,4-trichloro-5-(2,4,6-trichlorophenoxy)benzene

> <MPID>
102171

> <dsstox_substance_id>
DTXSID20147547

> <Canonical_QSARr>
Clc1cc(Cl)c(Oc2cc(Cl)c(Cl)cc2Cl)c(Cl)c1

> <InChI_Code_QSARr>
InChI=1S/C12H4Cl6O/c13-5-1-9(17)12(10(18)2-5)19-11-4-7(15)6(14)3-8(11)16/h1-4H

> <InChI Key_QSARr>
XKQUAQGQLZDDBV-UHFFFAOYSA-N

> <LogKmHL>
2.01

$$$$
100588
  -INDIGO-08031722222D

 23 24  0  0  0  0  0  0  0  0999 V2000
   -0.4813    2.7292    0.0000 Cl  0  0  0  0  0  0  0  0  0  0  0  0
   -1.0284    1.2257    0.0000 C   0  0  0  0  0  0  0  0  0  0  0  0
    0.0000    0.0000    0.0000 C   0  0  0  0  0  0  0  0  0  0  0  0
    1.5756    0.2779    0.0000 O   0  0  0  0  0  0  0  0  0  0  0  0
    2.9614   -0.5221    0.0000 C   0  0  0  0  0  0  0  0  0  0  0  0
    2.9614   -2.1222    0.0000 C   0  0  0  0  0  0  0  0  0  0  0  0
    1.5756   -2.9222    0.0000 Cl  0  0  0  0  0  0  0  0  0  0  0  0
    4.3470   -2.9222    0.0000 C   0  0  0  0  0  0  0  0  0  0  0  0
    4.3470   -4.5222    0.0000 H   0  0  0  0  0  0  0  0  0  0  0  0
    5.7326   -2.1222    0.0000 C   0  0  0  0  0  0  0  0  0  0  0  0
    7.1183   -2.9222    0.0000 Cl  0  0  0  0  0  0  0  0  0  0  0  0
    5.7326   -0.5221    0.0000 C   0  0  0  0  0  0  0  0  0  0  0  0
    7.1183    0.2779    0.0000 H   0  0  0  0  0  0  0  0  0  0  0  0
    4.3470    0.2779    0.0000 C   0  0  0  0  0  0  0  0  0  0  0  0
    4.3470    1.8779    0.0000 H   0  0  0  0  0  0  0  0  0  0  0  0
   -0.5473   -1.5035    0.0000 C   0  0  0  0  0  0  0  0  0  0  0  0
    0.4812   -2.7292    0.0000 Cl  0  0  0  0  0  0  0  0  0  0  0  0
   -2.1229   -1.7813    0.0000 C   0  0  0  0  0  0  0  0  0  0  0  0
   -2.6702   -3.2849    0.0000 H   0  0  0  0  0  0  0  0  0  0  0  0
   -3.1513   -0.5556    0.0000 C   0  0  0  0  0  0  0  0  0  0  0  0
   -4.7271   -0.8335    0.0000 Cl  0  0  0  0  0  0  0  0  0  0  0  0
   -2.6042    0.9479    0.0000 C   0  0  0  0  0  0  0  0  0  0  0  0
   -3.6326    2.1735    0.0000 Cl  0  0  0  0  0  0  0  0  0  0  0  0
  1  2  1  0  0  0  0
  2  3  1  0  0  0  0
  3  4  1  0  0  0  0
  4  5  1  0  0  0  0
  5  6  1  0  0  0  0
  6  7  1  0  0  0  0
  6  8  2  0  0  0  0
  8  9  1  0  0  0  0
  8 10  1  0  0  0  0
 10 11  1  0  0  0  0
 10 12  2  0  0  0  0
 12 13  1  0  0  0  0
 12 14  1  0  0  0  0
 14  5  2  0  0  0  0
 14 15  1  0  0  0  0
  3 16  2  0  0  0  0
 16 17  1  0  0  0  0
 16 18  1  0  0  0  0
 18 19  1  0  0  0  0
 18 20  2  0  0  0  0
 20 21  1  0  0  0  0
 20 22  1  0  0  0  0
 22  2  2  0  0  0  0
 22 23  1  0  0  0  0
M  END
> <ChemID>
100588

> <source_casrn>
106220-83-1

> <CAS>
106220-83-1

> <SMILES>
Clc1cc(Cl)ccc1Oc2c(Cl)c(Cl)c(Cl)cc2Cl

> <NAME>
2,2',3,4,4',6-Hexachlorodiphenylether

> <preferred_name>
2,2',4,4',5,6-Hexachlorodiphenyl ether

> <iupac>
1,2,3,5-tetrachloro-4-(2,4-dichlorophenoxy)benzene

> <MPID>
102172

> <dsstox_substance_id>
DTXSID40147549

> <Canonical_QSARr>
Clc1cc(Cl)c(cc1)Oc1c(Cl)c(Cl)c(Cl)cc1Cl

> <InChI_Code_QSARr>
InChI=1S/C12H4Cl6O/c13-5-1-2-9(6(14)3-5)19-12-8(16)4-7(15)10(17)11(12)18/h1-4H

> <InChI Key_QSARr>
BIWCEXHDIQZFHI-UHFFFAOYSA-N

> <LogKmHL>
2.76

$$$$
100589
  -INDIGO-08031722222D

 43 44  0  0  0  0  0  0  0  0999 V2000
    2.9613    1.0779    0.0000 C   0  0  0  0  0  0  0  0  0  0  0  0
    3.5737    2.5560    0.0000 H   0  0  0  0  0  0  0  0  0  0  0  0
    2.3489    2.5560    0.0000 H   0  0  0  0  0  0  0  0  0  0  0  0
    1.5758    0.2779    0.0000 C   0  0  0  0  0  0  0  0  0  0  0  0
    2.3144   -1.1413    0.0000 H   0  0  0  0  0  0  0  0  0  0  0  0
    3.1016   -0.2033    0.0000 H   0  0  0  0  0  0  0  0  0  0  0  0
    0.0001    0.0000    0.0000 C   0  0  0  0  0  0  0  0  0  0  0  0
   -1.5757   -0.2778    0.0000 C   0  0  0  0  0  0  0  0  0  0  0  0
   -3.1514   -0.5557    0.0000 C   0  0  0  0  0  0  0  0  0  0  0  0
   -4.7271   -0.8335    0.0000 H   0  0  0  0  0  0  0  0  0  0  0  0
   -4.1798    0.6700    0.0000 H   0  0  0  0  0  0  0  0  0  0  0  0
   -3.6987   -2.0592    0.0000 H   0  0  0  0  0  0  0  0  0  0  0  0
   -1.8536    1.2979    0.0000 C   0  0  0  0  0  0  0  0  0  0  0  0
   -2.1313    2.8735    0.0000 H   0  0  0  0  0  0  0  0  0  0  0  0
   -3.2391    2.0978    0.0000 H   0  0  0  0  0  0  0  0  0  0  0  0
   -0.8250    2.5235    0.0000 H   0  0  0  0  0  0  0  0  0  0  0  0
   -1.2980   -1.8536    0.0000 C   0  0  0  0  0  0  0  0  0  0  0  0
   -1.0200   -3.4292    0.0000 H   0  0  0  0  0  0  0  0  0  0  0  0
    0.2057   -2.4008    0.0000 H   0  0  0  0  0  0  0  0  0  0  0  0
   -2.5236   -2.8820    0.0000 H   0  0  0  0  0  0  0  0  0  0  0  0
    0.2778   -1.5757    0.0000 O   0  0  0  0  0  0  0  0  0  0  0  0
    1.7814   -2.1229    0.0000 H   0  0  0  0  0  0  0  0  0  0  0  0
   -0.2779    1.5756    0.0000 C   0  0  0  0  0  0  0  0  0  0  0  0
    1.2482    2.0568    0.0000 H   0  0  0  0  0  0  0  0  0  0  0  0
    0.4610    2.9949    0.0000 H   0  0  0  0  0  0  0  0  0  0  0  0
   -1.7813    2.1229    0.0000 N   0  0  0  0  0  0  0  0  0  0  0  0
   -3.1079    1.2282    0.0000 N   0  0  0  0  0  0  0  0  0  0  0  0
   -4.3687    2.2132    0.0000 C   0  0  0  0  0  0  0  0  0  0  0  0
   -5.9066    1.7723    0.0000 H   0  0  0  0  0  0  0  0  0  0  0  0
   -3.8214    3.7167    0.0000 N   0  0  0  0  0  0  0  0  0  0  0  0
   -2.2224    3.6609    0.0000 C   0  0  0  0  0  0  0  0  0  0  0  0
   -1.2373    4.9218    0.0000 H   0  0  0  0  0  0  0  0  0  0  0  0
    4.3471    0.2779    0.0000 C   0  0  0  0  0  0  0  0  0  0  0  0
    5.7326    1.0779    0.0000 C   0  0  0  0  0  0  0  0  0  0  0  0
    5.7326    2.6778    0.0000 H   0  0  0  0  0  0  0  0  0  0  0  0
    7.1184    0.2779    0.0000 C   0  0  0  0  0  0  0  0  0  0  0  0
    8.5039    1.0779    0.0000 H   0  0  0  0  0  0  0  0  0  0  0  0
    7.1184   -1.3221    0.0000 C   0  0  0  0  0  0  0  0  0  0  0  0
    8.5039   -2.1221    0.0000 Cl  0  0  0  0  0  0  0  0  0  0  0  0
    5.7326   -2.1221    0.0000 C   0  0  0  0  0  0  0  0  0  0  0  0
    5.7326   -3.7222    0.0000 H   0  0  0  0  0  0  0  0  0  0  0  0
    4.3471   -1.3221    0.0000 C   0  0  0  0  0  0  0  0  0  0  0  0
    2.9613   -2.1221    0.0000 H   0  0  0  0  0  0  0  0  0  0  0  0
  1  2  1  0  0  0  0
  1  3  1  0  0  0  0
  1  4  1  0  0  0  0
  4  5  1  0  0  0  0
  4  6  1  0  0  0  0
  4  7  1  0  0  0  0
  7  8  1  0  0  0  0
  8  9  1  0  0  0  0
  9 10  1  0  0  0  0
  9 11  1  0  0  0  0
  9 12  1  0  0  0  0
  8 13  1  0  0  0  0
 13 14  1  0  0  0  0
 13 15  1  0  0  0  0
 13 16  1  0  0  0  0
  8 17  1  0  0  0  0
 17 18  1  0  0  0  0
 17 19  1  0  0  0  0
 17 20  1  0  0  0  0
  7 21  1  0  0  0  0
 21 22  1  0  0  0  0
  7 23  1  0  0  0  0
 23 24  1  0  0  0  0
 23 25  1  0  0  0  0
 23 26  1  0  0  0  0
 26 27  1  0  0  0  0
 27 28  2  0  0  0  0
 28 29  1  0  0  0  0
 28 30  1  0  0  0  0
 30 31  2  0  0  0  0
 31 26  1  0  0  0  0
 31 32  1  0  0  0  0
  1 33  1  0  0  0  0
 33 34  1  0  0  0  0
 34 35  1  0  0  0  0
 34 36  2  0  0  0  0
 36 37  1  0  0  0  0
 36 38  1  0  0  0  0
 38 39  1  0  0  0  0
 38 40  2  0  0  0  0
 40 41  1  0  0  0  0
 40 42  1  0  0  0  0
 42 33  2  0  0  0  0
 42 43  1  0  0  0  0
M  END
> <ChemID>
100589

> <source_casrn>
107534-96-3

> <CAS>
107534-96-3

> <SMILES>
CC(C)(C)C(O)(C[n]1c[n]c[n]1)CCc1ccc(Cl)cc1

> <NAME>
Tebuconazole

> <preferred_name>
Tebuconazole

> <iupac>
1-(4-chlorophenyl)-4,4-dimethyl-3-(1H-1,2,4-triazol-1-ylmethyl)pentan-3-ol

> <MPID>
102173

> <dsstox_substance_id>
DTXSID9032113

> <Canonical_QSARr>
CC(C)(C)C(O)(C[n]1c[n]c[n]1)CCc1ccc(Cl)cc1

> <InChI_Code_QSARr>
InChI=1S/C16H22ClN3O/c1-15(2,3)16(21,10-20-12-18-11-19-20)9-8-13-4-6-14(17)7-5-13/h4-7,11-12,21H,8-10H2,1-3H3

> <InChI Key_QSARr>
PXMNMQRDXWABCY-UHFFFAOYSA-N

> <LogKmHL>
0.77

$$$$
100591
  -INDIGO-08031722222D

 31 32  0  0  0  0  0  0  0  0999 V2000
   -2.5636   -0.3602    0.0000 N   0  0  0  0  0  0  0  0  0  0  0  0
   -1.8624   -1.7984    0.0000 N   0  0  0  0  0  0  0  0  0  0  0  0
   -0.2778   -1.5757    0.0000 C   0  0  0  0  0  0  0  0  0  0  0  0
    0.8335   -2.7266    0.0000 C   0  0  0  0  0  0  0  0  0  0  0  0
    1.9450   -3.8776    0.0000 N   0  0  0  0  0  0  0  0  0  0  0  0
   -0.0001    0.0000    0.0000 C   0  0  0  0  0  0  0  0  0  0  0  0
    1.4381    0.7013    0.0000 S   0  0  0  0  0  0  0  0  0  0  0  0
    2.1396   -0.7367    0.0000 O   0  0  0  0  0  0  0  0  0  0  0  0
    0.7366    2.1394    0.0000 O   0  0  0  0  0  0  0  0  0  0  0  0
    2.8760    1.4028    0.0000 C   0  0  0  0  0  0  0  0  0  0  0  0
    4.3142    2.1042    0.0000 F   0  0  0  0  0  0  0  0  0  0  0  0
    4.2025    0.5081    0.0000 F   0  0  0  0  0  0  0  0  0  0  0  0
    2.9877    2.9989    0.0000 F   0  0  0  0  0  0  0  0  0  0  0  0
   -1.4126    0.7512    0.0000 C   0  0  0  0  0  0  0  0  0  0  0  0
   -1.6353    2.3356    0.0000 N   0  0  0  0  0  0  0  0  0  0  0  0
   -0.3745    3.3206    0.0000 H   0  0  0  0  0  0  0  0  0  0  0  0
   -3.1189    2.9350    0.0000 H   0  0  0  0  0  0  0  0  0  0  0  0
   -4.1637   -0.3602    0.0000 C   0  0  0  0  0  0  0  0  0  0  0  0
   -4.9637    1.0254    0.0000 C   0  0  0  0  0  0  0  0  0  0  0  0
   -4.1637    2.4110    0.0000 Cl  0  0  0  0  0  0  0  0  0  0  0  0
   -6.5638    1.0254    0.0000 C   0  0  0  0  0  0  0  0  0  0  0  0
   -7.3636    2.4110    0.0000 H   0  0  0  0  0  0  0  0  0  0  0  0
   -7.3636   -0.3602    0.0000 C   0  0  0  0  0  0  0  0  0  0  0  0
   -8.9636   -0.3602    0.0000 C   0  0  0  0  0  0  0  0  0  0  0  0
  -10.5637   -0.3602    0.0000 F   0  0  0  0  0  0  0  0  0  0  0  0
   -9.7636   -1.7460    0.0000 F   0  0  0  0  0  0  0  0  0  0  0  0
   -9.7636    1.0254    0.0000 F   0  0  0  0  0  0  0  0  0  0  0  0
   -6.5638   -1.7460    0.0000 C   0  0  0  0  0  0  0  0  0  0  0  0
   -7.3636   -3.1316    0.0000 H   0  0  0  0  0  0  0  0  0  0  0  0
   -4.9637   -1.7460    0.0000 C   0  0  0  0  0  0  0  0  0  0  0  0
   -4.1637   -3.1316    0.0000 Cl  0  0  0  0  0  0  0  0  0  0  0  0
  1  2  1  0  0  0  0
  2  3  2  0  0  0  0
  3  4  1  0  0  0  0
  4  5  3  0  0  0  0
  3  6  1  0  0  0  0
  6  7  1  0  0  0  0
  7  8  2  0  0  0  0
  7  9  2  0  0  0  0
  7 10  1  0  0  0  0
 10 11  1  0  0  0  0
 10 12  1  0  0  0  0
 10 13  1  0  0  0  0
  6 14  2  0  0  0  0
 14  1  1  0  0  0  0
 14 15  1  0  0  0  0
 15 16  1  0  0  0  0
 15 17  1  0  0  0  0
  1 18  1  0  0  0  0
 18 19  1  0  0  0  0
 19 20  1  0  0  0  0
 19 21  2  0  0  0  0
 21 22  1  0  0  0  0
 21 23  1  0  0  0  0
 23 24  1  0  0  0  0
 24 25  1  0  0  0  0
 24 26  1  0  0  0  0
 24 27  1  0  0  0  0
 23 28  2  0  0  0  0
 28 29  1  0  0  0  0
 28 30  1  0  0  0  0
 30 18  2  0  0  0  0
 30 31  1  0  0  0  0
M  END
> <ChemID>
100591

> <source_casrn>
120068-36-2

> <CAS>
120068-36-2

> <SMILES>
Clc1cc(C(F)(F)F)cc(Cl)c1N2C(N)=C(S(=O)(=O)C(F)(F)F)C(C#N)=N2

> <NAME>
Fipronil sulfone

> <preferred_name>
Fipronil Sulfone

> <iupac>
5-amino-1-[2,6-dichloro-4-(trifluoromethyl)phenyl]-4-(trifluoromethylsulfonyl)pyrazole-3-carbonitrile

> <MPID>
102175

> <dsstox_substance_id>
DTXSID6074750

> <Canonical_QSARr>
Nc1c(c(C#N)[n][n]1-c1c(Cl)cc(cc1Cl)C(F)(F)F)S(=O)(=O)C(F)(F)F

> <InChI_Code_QSARr>
InChI=1S/C12H4Cl2F6N4O2S/c13-5-1-4(11(15,16)17)2-6(14)8(5)24-10(22)9(7(3-21)23-24)27(25,26)12(18,19)20/h1-2H,22H2

> <InChI Key_QSARr>
LGHZJDKSVUTELU-UHFFFAOYSA-N

> <LogKmHL>
1.05

$$$$
100592
  -INDIGO-08031722222D

 30 31  0  0  0  0  0  0  0  0999 V2000
    0.0001    0.0001    0.0000 N   0  0  0  0  0  0  0  0  0  0  0  0
    1.6000    0.0001    0.0000 C   0  0  0  0  0  0  0  0  0  0  0  0
    2.3999    1.3857    0.0000 C   0  0  0  0  0  0  0  0  0  0  0  0
    1.6000    2.7713    0.0000 Cl  0  0  0  0  0  0  0  0  0  0  0  0
    3.9999    1.3857    0.0000 C   0  0  0  0  0  0  0  0  0  0  0  0
    4.8000    2.7713    0.0000 H   0  0  0  0  0  0  0  0  0  0  0  0
    4.8000    0.0001    0.0000 C   0  0  0  0  0  0  0  0  0  0  0  0
    6.4000    0.0001    0.0000 C   0  0  0  0  0  0  0  0  0  0  0  0
    8.0000    0.0001    0.0000 F   0  0  0  0  0  0  0  0  0  0  0  0
    7.1999    1.3857    0.0000 F   0  0  0  0  0  0  0  0  0  0  0  0
    7.1999   -1.3857    0.0000 F   0  0  0  0  0  0  0  0  0  0  0  0
    3.9999   -1.3857    0.0000 C   0  0  0  0  0  0  0  0  0  0  0  0
    4.8000   -2.7713    0.0000 H   0  0  0  0  0  0  0  0  0  0  0  0
    2.3999   -1.3857    0.0000 C   0  0  0  0  0  0  0  0  0  0  0  0
    1.6000   -2.7713    0.0000 Cl  0  0  0  0  0  0  0  0  0  0  0  0
   -1.1509    1.1115    0.0000 C   0  0  0  0  0  0  0  0  0  0  0  0
   -0.9283    2.6959    0.0000 N   0  0  0  0  0  0  0  0  0  0  0  0
    0.5552    3.2953    0.0000 H   0  0  0  0  0  0  0  0  0  0  0  0
   -2.1891    3.6809    0.0000 H   0  0  0  0  0  0  0  0  0  0  0  0
   -2.5636    0.3603    0.0000 C   0  0  0  0  0  0  0  0  0  0  0  0
   -4.0018    1.0617    0.0000 S   0  0  0  0  0  0  0  0  0  0  0  0
   -5.3283    0.1670    0.0000 C   0  0  0  0  0  0  0  0  0  0  0  0
   -6.6547   -0.7277    0.0000 F   0  0  0  0  0  0  0  0  0  0  0  0
   -6.7663    0.8683    0.0000 F   0  0  0  0  0  0  0  0  0  0  0  0
   -5.2165   -1.4292    0.0000 F   0  0  0  0  0  0  0  0  0  0  0  0
   -4.1134    2.6578    0.0000 O   0  0  0  0  0  0  0  0  0  0  0  0
   -2.2858   -1.2154    0.0000 C   0  0  0  0  0  0  0  0  0  0  0  0
   -3.3973   -2.3663    0.0000 C   0  0  0  0  0  0  0  0  0  0  0  0
   -4.5088   -3.5173    0.0000 N   0  0  0  0  0  0  0  0  0  0  0  0
   -0.7014   -1.4381    0.0000 N   0  0  0  0  0  0  0  0  0  0  0  0
  1  2  1  0  0  0  0
  2  3  1  0  0  0  0
  3  4  1  0  0  0  0
  3  5  2  0  0  0  0
  5  6  1  0  0  0  0
  5  7  1  0  0  0  0
  7  8  1  0  0  0  0
  8  9  1  0  0  0  0
  8 10  1  0  0  0  0
  8 11  1  0  0  0  0
  7 12  2  0  0  0  0
 12 13  1  0  0  0  0
 12 14  1  0  0  0  0
 14  2  2  0  0  0  0
 14 15  1  0  0  0  0
  1 16  1  0  0  0  0
 16 17  1  0  0  0  0
 17 18  1  0  0  0  0
 17 19  1  0  0  0  0
 16 20  2  0  0  0  0
 20 21  1  0  0  0  0
 21 22  1  0  0  0  0
 22 23  1  0  0  0  0
 22 24  1  0  0  0  0
 22 25  1  0  0  0  0
 21 26  2  0  0  0  0
 20 27  1  0  0  0  0
 27 28  1  0  0  0  0
 28 29  3  0  0  0  0
 27 30  2  0  0  0  0
 30  1  1  0  0  0  0
M  END
> <ChemID>
100592

> <source_casrn>
120068-37-3

> <CAS>
120068-37-3

> <SMILES>
Nc1c(c(C#N)[n][n]1-c1c(Cl)cc(cc1Cl)C(F)(F)F)S(=O)C(F)(F)F

> <NAME>
Fipronil

> <preferred_name>
Fipronil

> <iupac>
5-amino-1-[2,6-dichloro-4-(trifluoromethyl)phenyl]-4-[(trifluoromethyl)sulfinyl]-1H-pyrazole-3-carbonitrile

> <MPID>
102176

> <dsstox_substance_id>
DTXSID4034609

> <Canonical_QSARr>
Nc1c(c(C#N)[n][n]1-c1c(Cl)cc(cc1Cl)C(F)(F)F)S(=O)C(F)(F)F

> <InChI_Code_QSARr>
InChI=1S/C12H4Cl2F6N4OS/c13-5-1-4(11(15,16)17)2-6(14)8(5)24-10(22)9(7(3-21)23-24)26(25)12(18,19)20/h1-2H,22H2

> <InChI Key_QSARr>
ZOCSXAVNDGMNBV-UHFFFAOYSA-N

> <LogKmHL>
-0.21

$$$$
100593
  -INDIGO-08031722222D

 44 46  0  0  0  0  0  0  0  0999 V2000
    0.0000    0.0000    0.0000 C   0  0  0  0  0  0  0  0  0  0  0  0
    0.4945   -1.5217    0.0000 C   0  0  0  0  0  0  0  0  0  0  0  0
    1.9562   -0.8709    0.0000 C   0  0  0  0  0  0  0  0  0  0  0  0
    3.4177   -0.2202    0.0000 H   0  0  0  0  0  0  0  0  0  0  0  0
    3.2505   -1.8114    0.0000 H   0  0  0  0  0  0  0  0  0  0  0  0
    2.3971    0.6672    0.0000 H   0  0  0  0  0  0  0  0  0  0  0  0
    1.2943   -2.9073    0.0000 C   0  0  0  0  0  0  0  0  0  0  0  0
    2.0944   -4.2930    0.0000 H   0  0  0  0  0  0  0  0  0  0  0  0
    2.8944   -2.9073    0.0000 H   0  0  0  0  0  0  0  0  0  0  0  0
    0.7472   -4.4108    0.0000 H   0  0  0  0  0  0  0  0  0  0  0  0
   -0.8000   -2.4622    0.0000 C   0  0  0  0  0  0  0  0  0  0  0  0
    0.2706   -3.6512    0.0000 H   0  0  0  0  0  0  0  0  0  0  0  0
   -1.8707   -3.6512    0.0000 H   0  0  0  0  0  0  0  0  0  0  0  0
   -2.0945   -1.5217    0.0000 C   0  0  0  0  0  0  0  0  0  0  0  0
   -2.8944   -2.9073    0.0000 H   0  0  0  0  0  0  0  0  0  0  0  0
   -3.4209   -0.6270    0.0000 H   0  0  0  0  0  0  0  0  0  0  0  0
   -1.6001    0.0000    0.0000 C   0  0  0  0  0  0  0  0  0  0  0  0
   -0.8986    1.4381    0.0000 H   0  0  0  0  0  0  0  0  0  0  0  0
   -2.9568    0.8478    0.0000 C   0  0  0  0  0  0  0  0  0  0  0  0
   -3.5173    2.3466    0.0000 H   0  0  0  0  0  0  0  0  0  0  0  0
   -2.2934    2.3038    0.0000 H   0  0  0  0  0  0  0  0  0  0  0  0
   -4.4785    0.3534    0.0000 C   0  0  0  0  0  0  0  0  0  0  0  0
   -5.6676    1.4240    0.0000 C   0  0  0  0  0  0  0  0  0  0  0  0
   -5.3350    2.9891    0.0000 H   0  0  0  0  0  0  0  0  0  0  0  0
   -7.1893    0.9296    0.0000 C   0  0  0  0  0  0  0  0  0  0  0  0
   -8.3782    2.0002    0.0000 H   0  0  0  0  0  0  0  0  0  0  0  0
   -7.5219   -0.6354    0.0000 C   0  0  0  0  0  0  0  0  0  0  0  0
   -9.0436   -1.1298    0.0000 Cl  0  0  0  0  0  0  0  0  0  0  0  0
   -6.3328   -1.7060    0.0000 C   0  0  0  0  0  0  0  0  0  0  0  0
   -6.6656   -3.2710    0.0000 H   0  0  0  0  0  0  0  0  0  0  0  0
   -4.8113   -1.2116    0.0000 C   0  0  0  0  0  0  0  0  0  0  0  0
   -3.4544   -2.0594    0.0000 H   0  0  0  0  0  0  0  0  0  0  0  0
    1.5649    0.3327    0.0000 O   0  0  0  0  0  0  0  0  0  0  0  0
    2.0594    1.8543    0.0000 H   0  0  0  0  0  0  0  0  0  0  0  0
    0.1116    1.5960    0.0000 C   0  0  0  0  0  0  0  0  0  0  0  0
   -0.7714    2.9303    0.0000 H   0  0  0  0  0  0  0  0  0  0  0  0
   -1.3771    2.1825    0.0000 H   0  0  0  0  0  0  0  0  0  0  0  0
    1.4059    2.5365    0.0000 N   0  0  0  0  0  0  0  0  0  0  0  0
    2.9276    2.0421    0.0000 N   0  0  0  0  0  0  0  0  0  0  0  0
    3.8681    3.3365    0.0000 C   0  0  0  0  0  0  0  0  0  0  0  0
    5.4682    3.3365    0.0000 H   0  0  0  0  0  0  0  0  0  0  0  0
    2.9276    4.6310    0.0000 N   0  0  0  0  0  0  0  0  0  0  0  0
    1.4059    4.1366    0.0000 C   0  0  0  0  0  0  0  0  0  0  0  0
    0.1116    5.0770    0.0000 H   0  0  0  0  0  0  0  0  0  0  0  0
  1  2  1  0  0  0  0
  2  3  1  0  0  0  0
  3  4  1  0  0  0  0
  3  5  1  0  0  0  0
  3  6  1  0  0  0  0
  2  7  1  0  0  0  0
  7  8  1  0  0  0  0
  7  9  1  0  0  0  0
  7 10  1  0  0  0  0
  2 11  1  0  0  0  0
 11 12  1  0  0  0  0
 11 13  1  0  0  0  0
 11 14  1  0  0  0  0
 14 15  1  0  0  0  0
 14 16  1  0  0  0  0
 14 17  1  0  0  0  0
 17  1  1  0  0  0  0
 17 18  1  0  0  0  0
 17 19  1  0  0  0  0
 19 20  1  0  0  0  0
 19 21  1  0  0  0  0
 19 22  1  0  0  0  0
 22 23  1  0  0  0  0
 23 24  1  0  0  0  0
 23 25  2  0  0  0  0
 25 26  1  0  0  0  0
 25 27  1  0  0  0  0
 27 28  1  0  0  0  0
 27 29  2  0  0  0  0
 29 30  1  0  0  0  0
 29 31  1  0  0  0  0
 31 22  2  0  0  0  0
 31 32  1  0  0  0  0
  1 33  1  0  0  0  0
 33 34  1  0  0  0  0
  1 35  1  0  0  0  0
 35 36  1  0  0  0  0
 35 37  1  0  0  0  0
 35 38  1  0  0  0  0
 38 39  1  0  0  0  0
 39 40  2  0  0  0  0
 40 41  1  0  0  0  0
 40 42  1  0  0  0  0
 42 43  2  0  0  0  0
 43 38  1  0  0  0  0
 43 44  1  0  0  0  0
M  END
> <ChemID>
100593

> <source_casrn>
125116-23-6

> <CAS>
125116-23-6

> <SMILES>
CC1(C)CCC(Cc2ccc(Cl)cc2)C1(O)C[n]1c[n]c[n]1

> <NAME>
Metconazole

> <preferred_name>
Metconazole

> <iupac>
5-(4-chlorobenzyl)-2,2-dimethyl-1-(1H-1,2,4-triazol-1-ylmethyl)cyclopentanol

> <MPID>
102177

> <dsstox_substance_id>
DTXSID4034497

> <Canonical_QSARr>
CC1(C)CCC(Cc2ccc(Cl)cc2)C1(O)C[n]1c[n]c[n]1

> <InChI_Code_QSARr>
InChI=1S/C17H22ClN3O/c1-16(2)8-7-14(9-13-3-5-15(18)6-4-13)17(16,22)10-21-12-19-11-20-21/h3-6,11-12,14,22H,7-10H2,1-2H3

> <InChI Key_QSARr>
XWPZUHJBOLQNMN-UHFFFAOYSA-N

> <LogKmHL>
0.23

$$$$
100595
  -INDIGO-08031722222D

 36 36  0  0  0  0  0  0  0  0999 V2000
   -2.4001    1.3856    0.0000 C   0  0  0  0  0  0  0  0  0  0  0  0
   -1.6000    2.7713    0.0000 O   0  0  0  0  0  0  0  0  0  0  0  0
   -3.9999    1.3856    0.0000 C   0  0  0  0  0  0  0  0  0  0  0  0
   -4.8000    2.7713    0.0000 C   0  0  0  0  0  0  0  0  0  0  0  0
   -3.9999    4.1569    0.0000 H   0  0  0  0  0  0  0  0  0  0  0  0
   -6.4000    2.7713    0.0000 C   0  0  0  0  0  0  0  0  0  0  0  0
   -7.2001    4.1569    0.0000 Cl  0  0  0  0  0  0  0  0  0  0  0  0
   -7.2001    1.3856    0.0000 C   0  0  0  0  0  0  0  0  0  0  0  0
   -8.7999    1.3856    0.0000 C   0  0  0  0  0  0  0  0  0  0  0  0
  -10.4000    1.3856    0.0000 H   0  0  0  0  0  0  0  0  0  0  0  0
   -9.6000    2.7713    0.0000 H   0  0  0  0  0  0  0  0  0  0  0  0
   -9.6000    0.0001    0.0000 H   0  0  0  0  0  0  0  0  0  0  0  0
   -6.4000    0.0001    0.0000 C   0  0  0  0  0  0  0  0  0  0  0  0
   -7.2001   -1.3856    0.0000 Cl  0  0  0  0  0  0  0  0  0  0  0  0
   -4.8000    0.0001    0.0000 C   0  0  0  0  0  0  0  0  0  0  0  0
   -3.9999   -1.3856    0.0000 H   0  0  0  0  0  0  0  0  0  0  0  0
   -1.6000    0.0001    0.0000 N   0  0  0  0  0  0  0  0  0  0  0  0
   -2.4001   -1.3856    0.0000 H   0  0  0  0  0  0  0  0  0  0  0  0
    0.0000    0.0001    0.0000 C   0  0  0  0  0  0  0  0  0  0  0  0
    0.0000   -1.6000    0.0000 C   0  0  0  0  0  0  0  0  0  0  0  0
    1.2257   -2.6285    0.0000 C   0  0  0  0  0  0  0  0  0  0  0  0
    0.9477   -4.2042    0.0000 H   0  0  0  0  0  0  0  0  0  0  0  0
   -0.2779   -3.1757    0.0000 H   0  0  0  0  0  0  0  0  0  0  0  0
    2.4513   -3.6570    0.0000 Cl  0  0  0  0  0  0  0  0  0  0  0  0
   -1.3856   -2.4000    0.0000 O   0  0  0  0  0  0  0  0  0  0  0  0
    1.6001    0.0001    0.0000 C   0  0  0  0  0  0  0  0  0  0  0  0
    1.8089   -1.5863    0.0000 H   0  0  0  0  0  0  0  0  0  0  0  0
    2.8693   -0.9740    0.0000 H   0  0  0  0  0  0  0  0  0  0  0  0
    2.3999    1.3856    0.0000 C   0  0  0  0  0  0  0  0  0  0  0  0
    4.0000    1.3856    0.0000 H   0  0  0  0  0  0  0  0  0  0  0  0
    3.2000    2.7713    0.0000 H   0  0  0  0  0  0  0  0  0  0  0  0
    3.2000    0.0001    0.0000 H   0  0  0  0  0  0  0  0  0  0  0  0
   -0.2779    1.5757    0.0000 C   0  0  0  0  0  0  0  0  0  0  0  0
    0.9477    2.6041    0.0000 H   0  0  0  0  0  0  0  0  0  0  0  0
   -0.5557    3.1513    0.0000 H   0  0  0  0  0  0  0  0  0  0  0  0
    1.2257    1.0285    0.0000 H   0  0  0  0  0  0  0  0  0  0  0  0
  1  2  2  0  0  0  0
  1  3  1  0  0  0  0
  3  4  1  0  0  0  0
  4  5  1  0  0  0  0
  4  6  2  0  0  0  0
  6  7  1  0  0  0  0
  6  8  1  0  0  0  0
  8  9  1  0  0  0  0
  9 10  1  0  0  0  0
  9 11  1  0  0  0  0
  9 12  1  0  0  0  0
  8 13  2  0  0  0  0
 13 14  1  0  0  0  0
 13 15  1  0  0  0  0
 15  3  2  0  0  0  0
 15 16  1  0  0  0  0
  1 17  1  0  0  0  0
 17 18  1  0  0  0  0
 17 19  1  0  0  0  0
 19 20  1  0  0  0  0
 20 21  1  0  0  0  0
 21 22  1  0  0  0  0
 21 23  1  0  0  0  0
 21 24  1  0  0  0  0
 20 25  2  0  0  0  0
 19 26  1  0  0  0  0
 26 27  1  0  0  0  0
 26 28  1  0  0  0  0
 26 29  1  0  0  0  0
 29 30  1  0  0  0  0
 29 31  1  0  0  0  0
 29 32  1  0  0  0  0
 19 33  1  0  0  0  0
 33 34  1  0  0  0  0
 33 35  1  0  0  0  0
 33 36  1  0  0  0  0
M  END
> <ChemID>
100595

> <source_casrn>
156052-68-5

> <CAS>
156052-68-5

> <SMILES>
Cc1c(Cl)cc(cc1Cl)C(=O)NC(C)(CC)C(=O)CCl

> <NAME>
Zoxamide

> <preferred_name>
Zoxamide

> <iupac>
3,5-dichloro-N-(1-chloro-3-methyl-2-oxopentan-3-yl)-4-methylbenzamide

> <MPID>
102179

> <dsstox_substance_id>
DTXSID9032581

> <Canonical_QSARr>
Cc1c(Cl)cc(cc1Cl)C(=O)NC(C)(CC)C(=O)CCl

> <InChI_Code_QSARr>
InChI=1S/C14H16Cl3NO2/c1-4-14(3,12(19)7-15)18-13(20)9-5-10(16)8(2)11(17)6-9/h5-6H,4,7H2,1-3H3,(H,18,20)

> <InChI Key_QSARr>
SOUGWDPPRBKJEX-UHFFFAOYSA-N

> <LogKmHL>
0.16

$$$$
100597
  -INDIGO-08031722222D

 23 24  0  0  0  0  0  0  0  0999 V2000
   -4.7271   -0.8335    0.0000 Br  0  0  0  0  0  0  0  0  0  0  0  0
   -3.1513   -0.5556    0.0000 C   0  0  0  0  0  0  0  0  0  0  0  0
   -2.6042    0.9479    0.0000 C   0  0  0  0  0  0  0  0  0  0  0  0
   -3.6326    2.1735    0.0000 H   0  0  0  0  0  0  0  0  0  0  0  0
   -1.0284    1.2257    0.0000 C   0  0  0  0  0  0  0  0  0  0  0  0
   -0.4813    2.7292    0.0000 Br  0  0  0  0  0  0  0  0  0  0  0  0
    0.0000    0.0000    0.0000 C   0  0  0  0  0  0  0  0  0  0  0  0
    1.5756    0.2779    0.0000 O   0  0  0  0  0  0  0  0  0  0  0  0
    2.9614   -0.5221    0.0000 C   0  0  0  0  0  0  0  0  0  0  0  0
    2.9614   -2.1222    0.0000 C   0  0  0  0  0  0  0  0  0  0  0  0
    1.5756   -2.9222    0.0000 H   0  0  0  0  0  0  0  0  0  0  0  0
    4.3470   -2.9222    0.0000 C   0  0  0  0  0  0  0  0  0  0  0  0
    4.3470   -4.5222    0.0000 H   0  0  0  0  0  0  0  0  0  0  0  0
    5.7326   -2.1222    0.0000 C   0  0  0  0  0  0  0  0  0  0  0  0
    7.1183   -2.9222    0.0000 Br  0  0  0  0  0  0  0  0  0  0  0  0
    5.7326   -0.5221    0.0000 C   0  0  0  0  0  0  0  0  0  0  0  0
    7.1183    0.2779    0.0000 Br  0  0  0  0  0  0  0  0  0  0  0  0
    4.3470    0.2779    0.0000 C   0  0  0  0  0  0  0  0  0  0  0  0
    4.3470    1.8779    0.0000 Br  0  0  0  0  0  0  0  0  0  0  0  0
   -0.5473   -1.5035    0.0000 C   0  0  0  0  0  0  0  0  0  0  0  0
    0.4812   -2.7292    0.0000 H   0  0  0  0  0  0  0  0  0  0  0  0
   -2.1229   -1.7813    0.0000 C   0  0  0  0  0  0  0  0  0  0  0  0
   -2.6702   -3.2849    0.0000 H   0  0  0  0  0  0  0  0  0  0  0  0
  1  2  1  0  0  0  0
  2  3  1  0  0  0  0
  3  4  1  0  0  0  0
  3  5  2  0  0  0  0
  5  6  1  0  0  0  0
  5  7  1  0  0  0  0
  7  8  1  0  0  0  0
  8  9  1  0  0  0  0
  9 10  1  0  0  0  0
 10 11  1  0  0  0  0
 10 12  2  0  0  0  0
 12 13  1  0  0  0  0
 12 14  1  0  0  0  0
 14 15  1  0  0  0  0
 14 16  2  0  0  0  0
 16 17  1  0  0  0  0
 16 18  1  0  0  0  0
 18  9  2  0  0  0  0
 18 19  1  0  0  0  0
  7 20  2  0  0  0  0
 20 21  1  0  0  0  0
 20 22  1  0  0  0  0
 22  2  2  0  0  0  0
 22 23  1  0  0  0  0
M  END
> <ChemID>
100597

> <source_casrn>
182346-21-0

> <CAS>
182346-21-0

> <SMILES>
BrC1=C(C(Br)=CC=C1OC2=CC=C(C=C2Br)Br)Br

> <NAME>
2,2',3,4,4'-Pentabromodiphenyl ether (BDE 85)

> <preferred_name>
2,2',3,4,4'-Pentabromodiphenyl ether (BDE 85)

> <iupac>
2,4-dibromophenyl 2,3,4-tribromophenyl ether

> <MPID>
102180

> <dsstox_substance_id>
DTXSID4052685

> <Canonical_QSARr>
Brc1cc(Br)c(cc1)Oc1ccc(Br)c(Br)c1Br

> <InChI_Code_QSARr>
InChI=1S/C12H5Br5O/c13-6-1-3-9(8(15)5-6)18-10-4-2-7(14)11(16)12(10)17/h1-5H

> <InChI Key_QSARr>
DMLQSUZPTTUUDP-UHFFFAOYSA-N

> <LogKmHL>
1.34

$$$$
100601
  -INDIGO-08031722222D

 42 43  0  0  0  0  0  0  0  0999 V2000
    1.6001    0.0001    0.0000 C   0  0  0  0  0  0  0  0  0  0  0  0
    2.8694   -0.9740    0.0000 H   0  0  0  0  0  0  0  0  0  0  0  0
    1.8089   -1.5863    0.0000 H   0  0  0  0  0  0  0  0  0  0  0  0
    2.3999    1.3857    0.0000 C   0  0  0  0  0  0  0  0  0  0  0  0
    1.1306    2.3596    0.0000 H   0  0  0  0  0  0  0  0  0  0  0  0
    2.1911    2.9719    0.0000 H   0  0  0  0  0  0  0  0  0  0  0  0
    4.0000    1.3857    0.0000 C   0  0  0  0  0  0  0  0  0  0  0  0
    5.2694    0.4117    0.0000 H   0  0  0  0  0  0  0  0  0  0  0  0
    4.2089   -0.2006    0.0000 H   0  0  0  0  0  0  0  0  0  0  0  0
    4.8001    2.7713    0.0000 C   0  0  0  0  0  0  0  0  0  0  0  0
    6.4000    2.7713    0.0000 C   0  0  0  0  0  0  0  0  0  0  0  0
    7.2000    4.1570    0.0000 C   0  0  0  0  0  0  0  0  0  0  0  0
    8.7999    4.1570    0.0000 C   0  0  0  0  0  0  0  0  0  0  0  0
    9.6000    5.5426    0.0000 H   0  0  0  0  0  0  0  0  0  0  0  0
    9.6000    2.7713    0.0000 C   0  0  0  0  0  0  0  0  0  0  0  0
    8.7999    1.3857    0.0000 C   0  0  0  0  0  0  0  0  0  0  0  0
    7.2000    1.3857    0.0000 C   0  0  0  0  0  0  0  0  0  0  0  0
    6.4000    0.0001    0.0000 H   0  0  0  0  0  0  0  0  0  0  0  0
    9.6000    0.0001    0.0000 C   0  0  0  0  0  0  0  0  0  0  0  0
   10.4001   -1.3857    0.0000 H   0  0  0  0  0  0  0  0  0  0  0  0
   11.2001    0.0001    0.0000 H   0  0  0  0  0  0  0  0  0  0  0  0
    8.7999   -1.3857    0.0000 H   0  0  0  0  0  0  0  0  0  0  0  0
   11.2001    2.7713    0.0000 C   0  0  0  0  0  0  0  0  0  0  0  0
   12.8000    2.7713    0.0000 H   0  0  0  0  0  0  0  0  0  0  0  0
   11.9999    4.1570    0.0000 H   0  0  0  0  0  0  0  0  0  0  0  0
   11.9999    1.3857    0.0000 H   0  0  0  0  0  0  0  0  0  0  0  0
    6.4000    5.5426    0.0000 C   0  0  0  0  0  0  0  0  0  0  0  0
    7.2000    6.9282    0.0000 H   0  0  0  0  0  0  0  0  0  0  0  0
    4.8001    5.5426    0.0000 C   0  0  0  0  0  0  0  0  0  0  0  0
    4.0000    6.9282    0.0000 H   0  0  0  0  0  0  0  0  0  0  0  0
    4.0000    4.1570    0.0000 C   0  0  0  0  0  0  0  0  0  0  0  0
    2.3999    4.1570    0.0000 H   0  0  0  0  0  0  0  0  0  0  0  0
   -0.0001    0.0001    0.0000 C   0  0  0  0  0  0  0  0  0  0  0  0
    0.2779    1.5756    0.0000 H   0  0  0  0  0  0  0  0  0  0  0  0
   -1.5756    0.2778    0.0000 C   0  0  0  0  0  0  0  0  0  0  0  0
   -3.1514    0.5556    0.0000 H   0  0  0  0  0  0  0  0  0  0  0  0
   -2.6042   -0.9478    0.0000 H   0  0  0  0  0  0  0  0  0  0  0  0
   -2.1230    1.7813    0.0000 H   0  0  0  0  0  0  0  0  0  0  0  0
   -0.2778   -1.5757    0.0000 C   0  0  0  0  0  0  0  0  0  0  0  0
   -0.5557   -3.1514    0.0000 H   0  0  0  0  0  0  0  0  0  0  0  0
    0.9478   -2.6041    0.0000 H   0  0  0  0  0  0  0  0  0  0  0  0
   -1.7813   -2.1229    0.0000 H   0  0  0  0  0  0  0  0  0  0  0  0
  1  2  1  0  0  0  0
  1  3  1  0  0  0  0
  1  4  1  0  0  0  0
  4  5  1  0  0  0  0
  4  6  1  0  0  0  0
  4  7  1  0  0  0  0
  7  8  1  0  0  0  0
  7  9  1  0  0  0  0
  7 10  1  0  0  0  0
 10 11  1  0  0  0  0
 11 12  1  0  0  0  0
 12 13  2  0  0  0  0
 13 14  1  0  0  0  0
 13 15  1  0  0  0  0
 15 16  2  0  0  0  0
 16 17  1  0  0  0  0
 17 11  2  0  0  0  0
 17 18  1  0  0  0  0
 16 19  1  0  0  0  0
 19 20  1  0  0  0  0
 19 21  1  0  0  0  0
 19 22  1  0  0  0  0
 15 23  1  0  0  0  0
 23 24  1  0  0  0  0
 23 25  1  0  0  0  0
 23 26  1  0  0  0  0
 12 27  1  0  0  0  0
 27 28  1  0  0  0  0
 27 29  2  0  0  0  0
 29 30  1  0  0  0  0
 29 31  1  0  0  0  0
 31 10  2  0  0  0  0
 31 32  1  0  0  0  0
  1 33  1  0  0  0  0
 33 34  1  0  0  0  0
 33 35  1  0  0  0  0
 35 36  1  0  0  0  0
 35 37  1  0  0  0  0
 35 38  1  0  0  0  0
 33 39  1  0  0  0  0
 39 40  1  0  0  0  0
 39 41  1  0  0  0  0
 39 42  1  0  0  0  0
M  END
> <ChemID>
100601

> <source_casrn>
204256-07-5

> <CAS>
204256-07-5

> <SMILES>
Cc2cc1c(CCCC(C)C)cccc1cc2C

> <NAME>
2,3 Dimethy-5(4methylpentyl) naphthalene

> <preferred_name>
PUBCHEM_53422841

> <iupac>
C18H24

> <MPID>
102181

> <dsstox_substance_id>
DTXSID80698161

> <Canonical_QSARr>
CC(C)CCCc1cccc2cc(C)c(C)cc12

> <InChI_Code_QSARr>
InChI=1S/C18H24/c1-13(2)7-5-8-16-9-6-10-17-11-14(3)15(4)12-18(16)17/h6,9-13H,5,7-8H2,1-4H3

> <InChI Key_QSARr>
FHYUZVPVYYWKMR-UHFFFAOYSA-N

> <LogKmHL>
0.06

$$$$
100603
  -INDIGO-08031722222D

 23 24  0  0  0  0  0  0  0  0999 V2000
   -4.7271   -0.8335    0.0000 Br  0  0  0  0  0  0  0  0  0  0  0  0
   -3.1513   -0.5556    0.0000 C   0  0  0  0  0  0  0  0  0  0  0  0
   -2.6042    0.9479    0.0000 C   0  0  0  0  0  0  0  0  0  0  0  0
   -3.6326    2.1735    0.0000 H   0  0  0  0  0  0  0  0  0  0  0  0
   -1.0284    1.2257    0.0000 C   0  0  0  0  0  0  0  0  0  0  0  0
   -0.4813    2.7292    0.0000 Br  0  0  0  0  0  0  0  0  0  0  0  0
    0.0000    0.0000    0.0000 C   0  0  0  0  0  0  0  0  0  0  0  0
    1.5756    0.2779    0.0000 O   0  0  0  0  0  0  0  0  0  0  0  0
    2.9614   -0.5221    0.0000 C   0  0  0  0  0  0  0  0  0  0  0  0
    2.9614   -2.1222    0.0000 C   0  0  0  0  0  0  0  0  0  0  0  0
    1.5756   -2.9222    0.0000 Br  0  0  0  0  0  0  0  0  0  0  0  0
    4.3470   -2.9222    0.0000 C   0  0  0  0  0  0  0  0  0  0  0  0
    4.3470   -4.5222    0.0000 Br  0  0  0  0  0  0  0  0  0  0  0  0
    5.7326   -2.1222    0.0000 C   0  0  0  0  0  0  0  0  0  0  0  0
    7.1183   -2.9222    0.0000 Br  0  0  0  0  0  0  0  0  0  0  0  0
    5.7326   -0.5221    0.0000 C   0  0  0  0  0  0  0  0  0  0  0  0
    7.1183    0.2779    0.0000 H   0  0  0  0  0  0  0  0  0  0  0  0
    4.3470    0.2779    0.0000 C   0  0  0  0  0  0  0  0  0  0  0  0
    4.3470    1.8779    0.0000 Br  0  0  0  0  0  0  0  0  0  0  0  0
   -0.5473   -1.5035    0.0000 C   0  0  0  0  0  0  0  0  0  0  0  0
    0.4812   -2.7292    0.0000 H   0  0  0  0  0  0  0  0  0  0  0  0
   -2.1229   -1.7813    0.0000 C   0  0  0  0  0  0  0  0  0  0  0  0
   -2.6702   -3.2849    0.0000 Br  0  0  0  0  0  0  0  0  0  0  0  0
  1  2  1  0  0  0  0
  2  3  1  0  0  0  0
  3  4  1  0  0  0  0
  3  5  2  0  0  0  0
  5  6  1  0  0  0  0
  5  7  1  0  0  0  0
  7  8  1  0  0  0  0
  8  9  1  0  0  0  0
  9 10  1  0  0  0  0
 10 11  1  0  0  0  0
 10 12  2  0  0  0  0
 12 13  1  0  0  0  0
 12 14  1  0  0  0  0
 14 15  1  0  0  0  0
 14 16  2  0  0  0  0
 16 17  1  0  0  0  0
 16 18  1  0  0  0  0
 18  9  2  0  0  0  0
 18 19  1  0  0  0  0
  7 20  2  0  0  0  0
 20 21  1  0  0  0  0
 20 22  1  0  0  0  0
 22  2  2  0  0  0  0
 22 23  1  0  0  0  0
M  END
> <ChemID>
100603

> <source_casrn>
207122-16-5

> <CAS>
207122-16-5

> <SMILES>
Brc2cc(Br)c(Br)c(Br)c2Oc1cc(Br)c(Br)cc1Br

> <NAME>
2,2',3,4,4',5',6-Heptabromodiphenyl ether (BDE 1

> <preferred_name>
2,2',3,4,4',5',6-Heptabromodiphenyl ether (BDE 183)

> <iupac>
2,3,4,6-tetrabromophenyl 2,4,5-tribromophenyl ether

> <MPID>
102183

> <dsstox_substance_id>
DTXSID8052693

> <Canonical_QSARr>
Brc1c(Br)c(Oc2cc(Br)c(Br)cc2Br)c(Br)cc1Br

> <InChI_Code_QSARr>
InChI=1S/C12H3Br7O/c13-4-1-6(15)9(3-5(4)14)20-12-8(17)2-7(16)10(18)11(12)19/h1-3H

> <InChI Key_QSARr>
ILPSCQCLBHQUEM-UHFFFAOYSA-N

> <LogKmHL>
1.65

$$$$
100628
  -INDIGO-08031722222D

 50 53  0  0  0  0  0  0  0  0999 V2000
    4.1569    0.8000    0.0000 C   0  0  0  0  0  0  0  0  0  0  0  0
    4.7693    2.2782    0.0000 H   0  0  0  0  0  0  0  0  0  0  0  0
    3.5445    2.2782    0.0000 H   0  0  0  0  0  0  0  0  0  0  0  0
    2.7713    0.0001    0.0000 C   0  0  0  0  0  0  0  0  0  0  0  0
    2.1589   -1.4782    0.0000 H   0  0  0  0  0  0  0  0  0  0  0  0
    3.3837   -1.4782    0.0000 H   0  0  0  0  0  0  0  0  0  0  0  0
    1.3856    0.8000    0.0000 C   0  0  0  0  0  0  0  0  0  0  0  0
    1.9981    2.2782    0.0000 H   0  0  0  0  0  0  0  0  0  0  0  0
    0.7732    2.2782    0.0000 H   0  0  0  0  0  0  0  0  0  0  0  0
    0.0000    0.0001    0.0000 C   0  0  0  0  0  0  0  0  0  0  0  0
   -0.6124   -1.4782    0.0000 H   0  0  0  0  0  0  0  0  0  0  0  0
    0.6124   -1.4782    0.0000 H   0  0  0  0  0  0  0  0  0  0  0  0
   -1.3856    0.8000    0.0000 C   0  0  0  0  0  0  0  0  0  0  0  0
   -0.7732    2.2782    0.0000 H   0  0  0  0  0  0  0  0  0  0  0  0
   -1.9981    2.2782    0.0000 H   0  0  0  0  0  0  0  0  0  0  0  0
   -2.7713    0.0001    0.0000 C   0  0  0  0  0  0  0  0  0  0  0  0
   -3.3837   -1.4782    0.0000 H   0  0  0  0  0  0  0  0  0  0  0  0
   -2.1589   -1.4782    0.0000 H   0  0  0  0  0  0  0  0  0  0  0  0
   -4.1569    0.8000    0.0000 C   0  0  0  0  0  0  0  0  0  0  0  0
   -3.5445    2.2782    0.0000 H   0  0  0  0  0  0  0  0  0  0  0  0
   -4.7693    2.2782    0.0000 H   0  0  0  0  0  0  0  0  0  0  0  0
   -5.5426    0.0001    0.0000 C   0  0  0  0  0  0  0  0  0  0  0  0
   -6.9282   -0.8000    0.0000 H   0  0  0  0  0  0  0  0  0  0  0  0
   -6.9282    0.8000    0.0000 H   0  0  0  0  0  0  0  0  0  0  0  0
   -5.5426   -1.6000    0.0000 H   0  0  0  0  0  0  0  0  0  0  0  0
    5.5426    0.0001    0.0000 C   0  0  0  0  0  0  0  0  0  0  0  0
    6.9282    0.8000    0.0000 C   0  0  0  0  0  0  0  0  0  0  0  0
    8.3138    0.0001    0.0000 C   0  0  0  0  0  0  0  0  0  0  0  0
    9.6995    0.8000    0.0000 C   0  0  0  0  0  0  0  0  0  0  0  0
   11.0851    0.0001    0.0000 C   0  0  0  0  0  0  0  0  0  0  0  0
   11.0851   -1.6000    0.0000 C   0  0  0  0  0  0  0  0  0  0  0  0
   12.4708   -2.4001    0.0000 H   0  0  0  0  0  0  0  0  0  0  0  0
    9.6995   -2.4001    0.0000 C   0  0  0  0  0  0  0  0  0  0  0  0
    9.6995   -4.0000    0.0000 H   0  0  0  0  0  0  0  0  0  0  0  0
    8.3138   -1.6000    0.0000 C   0  0  0  0  0  0  0  0  0  0  0  0
    6.9282   -2.4001    0.0000 C   0  0  0  0  0  0  0  0  0  0  0  0
    6.9282   -4.0000    0.0000 H   0  0  0  0  0  0  0  0  0  0  0  0
    5.5426   -1.6000    0.0000 C   0  0  0  0  0  0  0  0  0  0  0  0
    4.1569   -2.4001    0.0000 H   0  0  0  0  0  0  0  0  0  0  0  0
   12.4708    0.8000    0.0000 C   0  0  0  0  0  0  0  0  0  0  0  0
   13.8564    0.0001    0.0000 H   0  0  0  0  0  0  0  0  0  0  0  0
   12.4708    2.4000    0.0000 C   0  0  0  0  0  0  0  0  0  0  0  0
   13.8564    3.2001    0.0000 H   0  0  0  0  0  0  0  0  0  0  0  0
   11.0851    3.2001    0.0000 C   0  0  0  0  0  0  0  0  0  0  0  0
   11.0851    4.8000    0.0000 H   0  0  0  0  0  0  0  0  0  0  0  0
    9.6995    2.4000    0.0000 C   0  0  0  0  0  0  0  0  0  0  0  0
    8.3138    3.2001    0.0000 C   0  0  0  0  0  0  0  0  0  0  0  0
    8.3138    4.8000    0.0000 H   0  0  0  0  0  0  0  0  0  0  0  0
    6.9282    2.4000    0.0000 C   0  0  0  0  0  0  0  0  0  0  0  0
    5.5426    3.2001    0.0000 H   0  0  0  0  0  0  0  0  0  0  0  0
  1  2  1  0  0  0  0
  1  3  1  0  0  0  0
  1  4  1  0  0  0  0
  4  5  1  0  0  0  0
  4  6  1  0  0  0  0
  4  7  1  0  0  0  0
  7  8  1  0  0  0  0
  7  9  1  0  0  0  0
  7 10  1  0  0  0  0
 10 11  1  0  0  0  0
 10 12  1  0  0  0  0
 10 13  1  0  0  0  0
 13 14  1  0  0  0  0
 13 15  1  0  0  0  0
 13 16  1  0  0  0  0
 16 17  1  0  0  0  0
 16 18  1  0  0  0  0
 16 19  1  0  0  0  0
 19 20  1  0  0  0  0
 19 21  1  0  0  0  0
 19 22  1  0  0  0  0
 22 23  1  0  0  0  0
 22 24  1  0  0  0  0
 22 25  1  0  0  0  0
  1 26  1  0  0  0  0
 26 27  1  0  0  0  0
 27 28  1  0  0  0  0
 28 29  2  0  0  0  0
 29 30  1  0  0  0  0
 30 31  1  0  0  0  0
 31 32  1  0  0  0  0
 31 33  2  0  0  0  0
 33 34  1  0  0  0  0
 33 35  1  0  0  0  0
 35 28  1  0  0  0  0
 35 36  2  0  0  0  0
 36 37  1  0  0  0  0
 36 38  1  0  0  0  0
 38 26  2  0  0  0  0
 38 39  1  0  0  0  0
 30 40  2  0  0  0  0
 40 41  1  0  0  0  0
 40 42  1  0  0  0  0
 42 43  1  0  0  0  0
 42 44  2  0  0  0  0
 44 45  1  0  0  0  0
 44 46  1  0  0  0  0
 46 29  1  0  0  0  0
 46 47  2  0  0  0  0
 47 48  1  0  0  0  0
 47 49  1  0  0  0  0
 49 27  2  0  0  0  0
 49 50  1  0  0  0  0
M  END
> <ChemID>
100628

> <source_casrn>
KM00XO-M_-6

> <CAS>
71608-00-9

> <SMILES>
c12c3c4cccc3ccc1c(CCCCCCCC)ccc2C=C4

> <NAME>
1-octylpyrene

> <preferred_name>
PUBCHEM_14402350

> <iupac>
C24H26

> <MPID>
102185

> <dsstox_substance_id>
DTXSID80559900

> <Canonical_QSARr>
CCCCCCCCc1ccc2ccc3cccc4ccc1c2c34

> <InChI_Code_QSARr>
InChI=1S/C24H26/c1-2-3-4-5-6-7-9-18-12-13-21-15-14-19-10-8-11-20-16-17-22(18)24(21)23(19)20/h8,10-17H,2-7,9H2,1H3

> <InChI Key_QSARr>
URBDBPHPDMMRDF-UHFFFAOYSA-N

> <LogKmHL>
1.26

$$$$
