100001
  -INDIGO-08031722282D

 28 29  0  0  0  0  0  0  0  0999 V2000
   -1.3856    0.8000    0.0000 Cl  0  0  0  0  0  0  0  0  0  0  0  0
    0.0001    1.6001    0.0000 C   0  0  0  0  0  0  0  0  0  0  0  0
    0.0001    0.0000    0.0000 C   0  0  0  0  0  0  0  0  0  0  0  0
    0.0001   -1.6000    0.0000 H   0  0  0  0  0  0  0  0  0  0  0  0
   -1.5034   -0.5472    0.0000 C   0  0  0  0  0  0  0  0  0  0  0  0
   -2.7292    0.4813    0.0000 C   0  0  0  0  0  0  0  0  0  0  0  0
   -2.4513    2.0569    0.0000 H   0  0  0  0  0  0  0  0  0  0  0  0
   -4.2327   -0.0660    0.0000 C   0  0  0  0  0  0  0  0  0  0  0  0
   -5.4584    0.9624    0.0000 H   0  0  0  0  0  0  0  0  0  0  0  0
   -4.5106   -1.6416    0.0000 C   0  0  0  0  0  0  0  0  0  0  0  0
   -6.0140   -2.1889    0.0000 Cl  0  0  0  0  0  0  0  0  0  0  0  0
   -3.2848   -2.6701    0.0000 C   0  0  0  0  0  0  0  0  0  0  0  0
   -3.5627   -4.2459    0.0000 H   0  0  0  0  0  0  0  0  0  0  0  0
   -1.7813   -2.1229    0.0000 C   0  0  0  0  0  0  0  0  0  0  0  0
   -0.5557   -3.1514    0.0000 H   0  0  0  0  0  0  0  0  0  0  0  0
    1.5999    0.0000    0.0000 C   0  0  0  0  0  0  0  0  0  0  0  0
    2.4001    1.3857    0.0000 C   0  0  0  0  0  0  0  0  0  0  0  0
    1.5999    2.7713    0.0000 H   0  0  0  0  0  0  0  0  0  0  0  0
    4.0000    1.3857    0.0000 C   0  0  0  0  0  0  0  0  0  0  0  0
    4.7999    2.7713    0.0000 H   0  0  0  0  0  0  0  0  0  0  0  0
    4.7999    0.0000    0.0000 C   0  0  0  0  0  0  0  0  0  0  0  0
    6.4000    0.0000    0.0000 Cl  0  0  0  0  0  0  0  0  0  0  0  0
    4.0000   -1.3857    0.0000 C   0  0  0  0  0  0  0  0  0  0  0  0
    4.7999   -2.7712    0.0000 H   0  0  0  0  0  0  0  0  0  0  0  0
    2.4001   -1.3857    0.0000 C   0  0  0  0  0  0  0  0  0  0  0  0
    1.5999   -2.7712    0.0000 H   0  0  0  0  0  0  0  0  0  0  0  0
    0.0001    3.2000    0.0000 Cl  0  0  0  0  0  0  0  0  0  0  0  0
   -1.3856    2.4000    0.0000 Cl  0  0  0  0  0  0  0  0  0  0  0  0
  1  2  1  0  0  0  0
  2  3  1  0  0  0  0
  3  4  1  0  0  0  0
  3  5  1  0  0  0  0
  5  6  1  0  0  0  0
  6  7  1  0  0  0  0
  6  8  2  0  0  0  0
  8  9  1  0  0  0  0
  8 10  1  0  0  0  0
 10 11  1  0  0  0  0
 10 12  2  0  0  0  0
 12 13  1  0  0  0  0
 12 14  1  0  0  0  0
 14  5  2  0  0  0  0
 14 15  1  0  0  0  0
  3 16  1  0  0  0  0
 16 17  1  0  0  0  0
 17 18  1  0  0  0  0
 17 19  2  0  0  0  0
 19 20  1  0  0  0  0
 19 21  1  0  0  0  0
 21 22  1  0  0  0  0
 21 23  2  0  0  0  0
 23 24  1  0  0  0  0
 23 25  1  0  0  0  0
 25 16  2  0  0  0  0
 25 26  1  0  0  0  0
  2 27  1  0  0  0  0
  2 28  1  0  0  0  0
M  END
> <ChemID>
100001

> <source_casrn>
50-29-3

> <CAS>
50-29-3

> <SMILES>
ClC(Cl)(Cl)C(c1ccc(Cl)cc1)c1ccc(Cl)cc1

> <NAME>
P,P'-DDT

> <preferred_name>
p,p'-DDT

> <iupac>
1,1'-(2,2,2-trichloroethane-1,1-diyl)bis(4-chlorobenzene)

> <MPID>
99278

> <dsstox_substance_id>
DTXSID4020375

> <Canonical_QSARr>
ClC(Cl)(Cl)C(c1ccc(Cl)cc1)c1ccc(Cl)cc1

> <InChI_Code_QSARr>
InChI=1S/C14H9Cl5/c15-11-5-1-9(2-6-11)13(14(17,18)19)10-3-7-12(16)8-4-10/h1-8,13H

> <InChI Key_QSARr>
YVGGHNCTFXOJCH-UHFFFAOYSA-N

> <LogKOC>
5.31

$$$$
100002
  -INDIGO-08031722282D

 32 36  0  0  0  0  0  0  0  0999 V2000
    0.0000    2.7712    0.0000 C   0  0  0  0  0  0  0  0  0  0  0  0
    0.8000    4.1569    0.0000 H   0  0  0  0  0  0  0  0  0  0  0  0
   -1.6000    2.7712    0.0000 C   0  0  0  0  0  0  0  0  0  0  0  0
   -2.4000    4.1569    0.0000 H   0  0  0  0  0  0  0  0  0  0  0  0
   -2.4000    1.3856    0.0000 C   0  0  0  0  0  0  0  0  0  0  0  0
   -1.6000    0.0001    0.0000 C   0  0  0  0  0  0  0  0  0  0  0  0
   -2.4000   -1.3856    0.0000 C   0  0  0  0  0  0  0  0  0  0  0  0
   -4.0000   -1.3856    0.0000 C   0  0  0  0  0  0  0  0  0  0  0  0
   -4.8000   -2.7712    0.0000 H   0  0  0  0  0  0  0  0  0  0  0  0
   -4.8000    0.0001    0.0000 C   0  0  0  0  0  0  0  0  0  0  0  0
   -6.4000    0.0001    0.0000 H   0  0  0  0  0  0  0  0  0  0  0  0
   -4.0000    1.3856    0.0000 C   0  0  0  0  0  0  0  0  0  0  0  0
   -4.8000    2.7713    0.0000 H   0  0  0  0  0  0  0  0  0  0  0  0
   -1.6000   -2.7712    0.0000 C   0  0  0  0  0  0  0  0  0  0  0  0
   -2.4000   -4.1569    0.0000 H   0  0  0  0  0  0  0  0  0  0  0  0
    0.0000   -2.7712    0.0000 C   0  0  0  0  0  0  0  0  0  0  0  0
    0.8000   -4.1569    0.0000 H   0  0  0  0  0  0  0  0  0  0  0  0
    0.8000   -1.3856    0.0000 C   0  0  0  0  0  0  0  0  0  0  0  0
    0.0000   -0.0001    0.0000 C   0  0  0  0  0  0  0  0  0  0  0  0
    0.8000    1.3856    0.0000 C   0  0  0  0  0  0  0  0  0  0  0  0
    2.4000    1.3856    0.0000 C   0  0  0  0  0  0  0  0  0  0  0  0
    3.2000    0.0001    0.0000 C   0  0  0  0  0  0  0  0  0  0  0  0
    2.4000   -1.3856    0.0000 C   0  0  0  0  0  0  0  0  0  0  0  0
    3.2000   -2.7713    0.0000 H   0  0  0  0  0  0  0  0  0  0  0  0
    4.8000    0.0001    0.0000 C   0  0  0  0  0  0  0  0  0  0  0  0
    5.6000   -1.3856    0.0000 H   0  0  0  0  0  0  0  0  0  0  0  0
    5.6000    1.3856    0.0000 C   0  0  0  0  0  0  0  0  0  0  0  0
    7.2000    1.3856    0.0000 H   0  0  0  0  0  0  0  0  0  0  0  0
    4.8000    2.7712    0.0000 C   0  0  0  0  0  0  0  0  0  0  0  0
    5.6000    4.1569    0.0000 H   0  0  0  0  0  0  0  0  0  0  0  0
    3.2000    2.7712    0.0000 C   0  0  0  0  0  0  0  0  0  0  0  0
    2.4000    4.1569    0.0000 H   0  0  0  0  0  0  0  0  0  0  0  0
  1  2  1  0  0  0  0
  1  3  2  0  0  0  0
  3  4  1  0  0  0  0
  3  5  1  0  0  0  0
  5  6  1  0  0  0  0
  6  7  2  0  0  0  0
  7  8  1  0  0  0  0
  8  9  1  0  0  0  0
  8 10  2  0  0  0  0
 10 11  1  0  0  0  0
 10 12  1  0  0  0  0
 12  5  2  0  0  0  0
 12 13  1  0  0  0  0
  7 14  1  0  0  0  0
 14 15  1  0  0  0  0
 14 16  2  0  0  0  0
 16 17  1  0  0  0  0
 16 18  1  0  0  0  0
 18 19  2  0  0  0  0
 19  6  1  0  0  0  0
 19 20  1  0  0  0  0
 20  1  1  0  0  0  0
 20 21  2  0  0  0  0
 21 22  1  0  0  0  0
 22 23  2  0  0  0  0
 23 18  1  0  0  0  0
 23 24  1  0  0  0  0
 22 25  1  0  0  0  0
 25 26  1  0  0  0  0
 25 27  2  0  0  0  0
 27 28  1  0  0  0  0
 27 29  1  0  0  0  0
 29 30  1  0  0  0  0
 29 31  2  0  0  0  0
 31 21  1  0  0  0  0
 31 32  1  0  0  0  0
M  END
> <ChemID>
100002

> <source_casrn>
50-32-8

> <CAS>
50-32-8

> <SMILES>
c1c2ccccc2c2ccc3cccc4ccc1c2c34

> <NAME>
BENZO(A)PYRENE

> <preferred_name>
Benzo(a)pyrene

> <iupac>
benzo[pqr]tetraphene

> <MPID>
99279

> <dsstox_substance_id>
DTXSID2020139

> <Canonical_QSARr>
c1c2ccccc2c2ccc3cccc4ccc1c2c34

> <InChI_Code_QSARr>
InChI=1S/C20H12/c1-2-7-17-15(4-1)12-16-9-8-13-5-3-6-14-10-11-18(17)20(16)19(13)14/h1-12H

> <InChI Key_QSARr>
FMMWHPNWAFZXNH-UHFFFAOYSA-N

> <LogKOC>
5.95

$$$$
100003
  -INDIGO-08031722282D

 29 30  0  0  0  0  0  0  0  0999 V2000
   -2.4001    1.3856    0.0000 O   0  0  0  0  0  0  0  0  0  0  0  0
   -1.6001    0.0000    0.0000 C   0  0  0  0  0  0  0  0  0  0  0  0
    0.0000    0.0000    0.0000 C   0  0  0  0  0  0  0  0  0  0  0  0
    0.8000   -1.3856    0.0000 C   0  0  0  0  0  0  0  0  0  0  0  0
    0.0000   -2.7713    0.0000 O   0  0  0  0  0  0  0  0  0  0  0  0
    0.8000   -4.1569    0.0000 H   0  0  0  0  0  0  0  0  0  0  0  0
    2.4001   -1.3856    0.0000 C   0  0  0  0  0  0  0  0  0  0  0  0
    3.1999   -2.7713    0.0000 H   0  0  0  0  0  0  0  0  0  0  0  0
    3.1999    0.0000    0.0000 C   0  0  0  0  0  0  0  0  0  0  0  0
    4.8000    0.0000    0.0000 H   0  0  0  0  0  0  0  0  0  0  0  0
    2.4001    1.3856    0.0000 C   0  0  0  0  0  0  0  0  0  0  0  0
    3.1999    2.7713    0.0000 Cl  0  0  0  0  0  0  0  0  0  0  0  0
    0.8000    1.3856    0.0000 C   0  0  0  0  0  0  0  0  0  0  0  0
    0.0000    2.7713    0.0000 H   0  0  0  0  0  0  0  0  0  0  0  0
   -2.4001   -1.3856    0.0000 N   0  0  0  0  0  0  0  0  0  0  0  0
   -1.6001   -2.7713    0.0000 H   0  0  0  0  0  0  0  0  0  0  0  0
   -4.0000   -1.3856    0.0000 C   0  0  0  0  0  0  0  0  0  0  0  0
   -4.8000    0.0000    0.0000 C   0  0  0  0  0  0  0  0  0  0  0  0
   -4.0000    1.3856    0.0000 H   0  0  0  0  0  0  0  0  0  0  0  0
   -6.4001    0.0000    0.0000 C   0  0  0  0  0  0  0  0  0  0  0  0
   -7.1999    1.3856    0.0000 H   0  0  0  0  0  0  0  0  0  0  0  0
   -7.1999   -1.3856    0.0000 C   0  0  0  0  0  0  0  0  0  0  0  0
   -8.8000   -1.3856    0.0000 N   0  0  0  0  0  0  0  0  0  0  0  0
   -9.6000   -2.7713    0.0000 O   0  0  0  0  0  0  0  0  0  0  0  0
   -9.6000    0.0000    0.0000 O   0  0  0  0  0  0  0  0  0  0  0  0
   -6.4001   -2.7713    0.0000 C   0  0  0  0  0  0  0  0  0  0  0  0
   -7.1999   -4.1569    0.0000 H   0  0  0  0  0  0  0  0  0  0  0  0
   -4.8000   -2.7713    0.0000 C   0  0  0  0  0  0  0  0  0  0  0  0
   -4.0000   -4.1569    0.0000 Cl  0  0  0  0  0  0  0  0  0  0  0  0
  1  2  2  0  0  0  0
  2  3  1  0  0  0  0
  3  4  1  0  0  0  0
  4  5  1  0  0  0  0
  5  6  1  0  0  0  0
  4  7  2  0  0  0  0
  7  8  1  0  0  0  0
  7  9  1  0  0  0  0
  9 10  1  0  0  0  0
  9 11  2  0  0  0  0
 11 12  1  0  0  0  0
 11 13  1  0  0  0  0
 13  3  2  0  0  0  0
 13 14  1  0  0  0  0
  2 15  1  0  0  0  0
 15 16  1  0  0  0  0
 15 17  1  0  0  0  0
 17 18  1  0  0  0  0
 18 19  1  0  0  0  0
 18 20  2  0  0  0  0
 20 21  1  0  0  0  0
 20 22  1  0  0  0  0
 22 23  1  0  0  0  0
 23 24  2  0  0  0  0
 23 25  1  0  0  0  0
 22 26  2  0  0  0  0
 26 27  1  0  0  0  0
 26 28  1  0  0  0  0
 28 17  2  0  0  0  0
 28 29  1  0  0  0  0
M  CHG  2  23   1  25  -1
M  END
> <ChemID>
100003

> <source_casrn>
50-65-7

> <CAS>
50-65-7

> <SMILES>
[O-][N+](=O)c1cc(Cl)c(cc1)NC(=O)c1cc(Cl)ccc1O

> <NAME>
NICLOSAMIDE

> <preferred_name>
Niclosamide

> <iupac>
5-chloro-N-(2-chloro-4-nitrophenyl)-2-hydroxybenzamide

> <MPID>
99280

> <dsstox_substance_id>
DTXSID7040362

> <Canonical_QSARr>
[O-][N+](=O)c1cc(Cl)c(cc1)NC(=O)c1cc(Cl)ccc1O

> <InChI_Code_QSARr>
InChI=1S/C13H8Cl2N2O4/c14-7-1-4-12(18)9(5-7)13(19)16-11-3-2-8(17(20)21)6-10(11)15/h1-6,18H,(H,16,19)

> <InChI Key_QSARr>
RJMUSRYZPJIFPJ-UHFFFAOYSA-N

> <LogKOC>
3.35

$$$$
100005
  -INDIGO-08031722282D

 20 19  0  0  0  0  0  0  0  0999 V2000
    0.0000    0.0000    0.0000 P   0  0  0  0  0  0  0  0  0  0  0  0
    1.6000    0.0000    0.0000 C   0  0  0  0  0  0  0  0  0  0  0  0
    1.6000    1.6000    0.0000 H   0  0  0  0  0  0  0  0  0  0  0  0
    3.2001    0.0000    0.0000 C   0  0  0  0  0  0  0  0  0  0  0  0
    4.8000    0.0000    0.0000 Cl  0  0  0  0  0  0  0  0  0  0  0  0
    4.0000    1.3856    0.0000 Cl  0  0  0  0  0  0  0  0  0  0  0  0
    4.0000   -1.3856    0.0000 Cl  0  0  0  0  0  0  0  0  0  0  0  0
    1.6000   -1.6000    0.0000 O   0  0  0  0  0  0  0  0  0  0  0  0
    2.9856   -2.4000    0.0000 H   0  0  0  0  0  0  0  0  0  0  0  0
   -0.8000   -1.3856    0.0000 O   0  0  0  0  0  0  0  0  0  0  0  0
   -1.6000    0.0000    0.0000 O   0  0  0  0  0  0  0  0  0  0  0  0
   -2.4001   -1.3856    0.0000 C   0  0  0  0  0  0  0  0  0  0  0  0
   -3.2000   -2.7713    0.0000 H   0  0  0  0  0  0  0  0  0  0  0  0
   -4.0000   -1.3856    0.0000 H   0  0  0  0  0  0  0  0  0  0  0  0
   -1.6000   -2.7713    0.0000 H   0  0  0  0  0  0  0  0  0  0  0  0
   -0.8000    1.3856    0.0000 O   0  0  0  0  0  0  0  0  0  0  0  0
    0.0000    2.7713    0.0000 C   0  0  0  0  0  0  0  0  0  0  0  0
   -0.8000    4.1569    0.0000 H   0  0  0  0  0  0  0  0  0  0  0  0
    0.8000    4.1569    0.0000 H   0  0  0  0  0  0  0  0  0  0  0  0
   -1.6000    2.7713    0.0000 H   0  0  0  0  0  0  0  0  0  0  0  0
  1  2  1  0  0  0  0
  2  3  1  0  0  0  0
  2  4  1  0  0  0  0
  4  5  1  0  0  0  0
  4  6  1  0  0  0  0
  4  7  1  0  0  0  0
  2  8  1  0  0  0  0
  8  9  1  0  0  0  0
  1 10  2  0  0  0  0
  1 11  1  0  0  0  0
 11 12  1  0  0  0  0
 12 13  1  0  0  0  0
 12 14  1  0  0  0  0
 12 15  1  0  0  0  0
  1 16  1  0  0  0  0
 16 17  1  0  0  0  0
 17 18  1  0  0  0  0
 17 19  1  0  0  0  0
 17 20  1  0  0  0  0
M  END
> <ChemID>
100005

> <source_casrn>
52-68-6

> <CAS>
52-68-6

> <SMILES>
COP(=O)(OC)C(O)C(Cl)(Cl)Cl

> <NAME>
TRICHLORFON

> <preferred_name>
Trichlorfon

> <iupac>
dimethyl (2,2,2-trichloro-1-hydroxyethyl)phosphonate

> <MPID>
99282

> <dsstox_substance_id>
DTXSID0021389

> <Canonical_QSARr>
COP(=O)(OC)C(O)C(Cl)(Cl)Cl

> <InChI_Code_QSARr>
InChI=1S/C4H8Cl3O4P/c1-10-12(9,11-2)3(8)4(5,6)7/h3,8H,1-2H3

> <InChI Key_QSARr>
NFACJZMKEDPNKN-UHFFFAOYSA-N

> <LogKOC>
1.9

$$$$
100006
  -INDIGO-08031722282D

 36 40  0  0  0  0  0  0  0  0999 V2000
   -0.8001    1.3856    0.0000 C   0  0  0  0  0  0  0  0  0  0  0  0
    0.0000    2.7713    0.0000 H   0  0  0  0  0  0  0  0  0  0  0  0
   -2.3999    1.3856    0.0000 C   0  0  0  0  0  0  0  0  0  0  0  0
   -3.2000    0.0001    0.0000 C   0  0  0  0  0  0  0  0  0  0  0  0
   -4.8001    0.0001    0.0000 C   0  0  0  0  0  0  0  0  0  0  0  0
   -5.5999    1.3856    0.0000 C   0  0  0  0  0  0  0  0  0  0  0  0
   -4.8001    2.7712    0.0000 C   0  0  0  0  0  0  0  0  0  0  0  0
   -5.5999    4.1569    0.0000 H   0  0  0  0  0  0  0  0  0  0  0  0
   -3.2000    2.7713    0.0000 C   0  0  0  0  0  0  0  0  0  0  0  0
   -2.3999    4.1569    0.0000 H   0  0  0  0  0  0  0  0  0  0  0  0
   -7.2001    1.3856    0.0000 C   0  0  0  0  0  0  0  0  0  0  0  0
   -7.9999    2.7713    0.0000 H   0  0  0  0  0  0  0  0  0  0  0  0
   -7.9999    0.0001    0.0000 C   0  0  0  0  0  0  0  0  0  0  0  0
   -9.6000    0.0001    0.0000 H   0  0  0  0  0  0  0  0  0  0  0  0
   -7.2001   -1.3856    0.0000 C   0  0  0  0  0  0  0  0  0  0  0  0
   -8.0001   -2.7712    0.0000 H   0  0  0  0  0  0  0  0  0  0  0  0
   -5.5999   -1.3856    0.0000 C   0  0  0  0  0  0  0  0  0  0  0  0
   -4.8001   -2.7712    0.0000 H   0  0  0  0  0  0  0  0  0  0  0  0
   -2.3999   -1.3856    0.0000 C   0  0  0  0  0  0  0  0  0  0  0  0
   -3.2000   -2.7713    0.0000 H   0  0  0  0  0  0  0  0  0  0  0  0
   -0.8001   -1.3856    0.0000 C   0  0  0  0  0  0  0  0  0  0  0  0
    0.0000    0.0001    0.0000 C   0  0  0  0  0  0  0  0  0  0  0  0
    1.6001   -0.0001    0.0000 C   0  0  0  0  0  0  0  0  0  0  0  0
    2.3999   -1.3856    0.0000 C   0  0  0  0  0  0  0  0  0  0  0  0
    1.6001   -2.7712    0.0000 C   0  0  0  0  0  0  0  0  0  0  0  0
    2.3999   -4.1569    0.0000 H   0  0  0  0  0  0  0  0  0  0  0  0
    0.0000   -2.7712    0.0000 C   0  0  0  0  0  0  0  0  0  0  0  0
   -0.8001   -4.1569    0.0000 H   0  0  0  0  0  0  0  0  0  0  0  0
    4.0001   -1.3856    0.0000 C   0  0  0  0  0  0  0  0  0  0  0  0
    4.8001   -2.7713    0.0000 H   0  0  0  0  0  0  0  0  0  0  0  0
    4.8001   -0.0001    0.0000 C   0  0  0  0  0  0  0  0  0  0  0  0
    6.4000   -0.0001    0.0000 H   0  0  0  0  0  0  0  0  0  0  0  0
    4.0001    1.3856    0.0000 C   0  0  0  0  0  0  0  0  0  0  0  0
    4.8001    2.7712    0.0000 H   0  0  0  0  0  0  0  0  0  0  0  0
    2.3999    1.3856    0.0000 C   0  0  0  0  0  0  0  0  0  0  0  0
    1.6001    2.7712    0.0000 H   0  0  0  0  0  0  0  0  0  0  0  0
  1  2  1  0  0  0  0
  1  3  1  0  0  0  0
  3  4  1  0  0  0  0
  4  5  2  0  0  0  0
  5  6  1  0  0  0  0
  6  7  2  0  0  0  0
  7  8  1  0  0  0  0
  7  9  1  0  0  0  0
  9  3  2  0  0  0  0
  9 10  1  0  0  0  0
  6 11  1  0  0  0  0
 11 12  1  0  0  0  0
 11 13  2  0  0  0  0
 13 14  1  0  0  0  0
 13 15  1  0  0  0  0
 15 16  1  0  0  0  0
 15 17  2  0  0  0  0
 17  5  1  0  0  0  0
 17 18  1  0  0  0  0
  4 19  1  0  0  0  0
 19 20  1  0  0  0  0
 19 21  2  0  0  0  0
 21 22  1  0  0  0  0
 22  1  2  0  0  0  0
 22 23  1  0  0  0  0
 23 24  1  0  0  0  0
 24 25  1  0  0  0  0
 25 26  1  0  0  0  0
 25 27  2  0  0  0  0
 27 21  1  0  0  0  0
 27 28  1  0  0  0  0
 24 29  2  0  0  0  0
 29 30  1  0  0  0  0
 29 31  1  0  0  0  0
 31 32  1  0  0  0  0
 31 33  2  0  0  0  0
 33 34  1  0  0  0  0
 33 35  1  0  0  0  0
 35 23  2  0  0  0  0
 35 36  1  0  0  0  0
M  END
> <ChemID>
100006

> <source_casrn>
53-70-3

> <CAS>
53-70-3

> <SMILES>
c1c2c3ccccc3ccc2cc2c3ccccc3ccc21

> <NAME>
DIBENZ(A,H)ANTHRACENE

> <preferred_name>
Dibenz(a,h)anthracene

> <iupac>
benzo[k]tetraphene

> <MPID>
99283

> <dsstox_substance_id>
DTXSID9020409

> <Canonical_QSARr>
c1c2c3ccccc3ccc2cc2c3ccccc3ccc21

> <InChI_Code_QSARr>
InChI=1S/C22H14/c1-3-7-19-15(5-1)9-11-17-14-22-18(13-21(17)19)12-10-16-6-2-4-8-20(16)22/h1-14H

> <InChI Key_QSARr>
LHRCREOYAASXPZ-UHFFFAOYSA-N

> <LogKOC>
6.22

$$$$
100007
  -INDIGO-08031722282D

 30 32  0  0  0  0  0  0  0  0999 V2000
    0.8001   -1.3856    0.0000 C   0  0  0  0  0  0  0  0  0  0  0  0
    2.3650   -1.0529    0.0000 C   0  0  0  0  0  0  0  0  0  0  0  0
    2.5322    0.5383    0.0000 C   0  0  0  0  0  0  0  0  0  0  0  0
    3.9941    1.1891    0.0000 C   0  0  0  0  0  0  0  0  0  0  0  0
    4.1613    2.7803    0.0000 H   0  0  0  0  0  0  0  0  0  0  0  0
    5.2884    0.2485    0.0000 C   0  0  0  0  0  0  0  0  0  0  0  0
    6.7501    0.8993    0.0000 H   0  0  0  0  0  0  0  0  0  0  0  0
    5.1212   -1.3427    0.0000 C   0  0  0  0  0  0  0  0  0  0  0  0
    6.4156   -2.2831    0.0000 H   0  0  0  0  0  0  0  0  0  0  0  0
    3.6594   -1.9935    0.0000 C   0  0  0  0  0  0  0  0  0  0  0  0
    3.4921   -3.5847    0.0000 H   0  0  0  0  0  0  0  0  0  0  0  0
    1.0706    1.1891    0.0000 C   0  0  0  0  0  0  0  0  0  0  0  0
    1.8705    2.5747    0.0000 H   0  0  0  0  0  0  0  0  0  0  0  0
   -0.2238    2.1295    0.0000 H   0  0  0  0  0  0  0  0  0  0  0  0
   -0.0001    0.0000    0.0000 C   0  0  0  0  0  0  0  0  0  0  0  0
   -1.6001    0.0000    0.0000 C   0  0  0  0  0  0  0  0  0  0  0  0
   -2.4000    1.3856    0.0000 H   0  0  0  0  0  0  0  0  0  0  0  0
   -2.4000   -1.3856    0.0000 C   0  0  0  0  0  0  0  0  0  0  0  0
   -4.0000   -1.3856    0.0000 N   0  0  0  0  0  0  0  0  0  0  0  0
   -4.7999    0.0000    0.0000 H   0  0  0  0  0  0  0  0  0  0  0  0
   -4.7999   -2.7713    0.0000 C   0  0  0  0  0  0  0  0  0  0  0  0
   -6.4000   -2.7713    0.0000 C   0  0  0  0  0  0  0  0  0  0  0  0
   -8.0000   -2.7713    0.0000 H   0  0  0  0  0  0  0  0  0  0  0  0
   -7.2001   -4.1569    0.0000 H   0  0  0  0  0  0  0  0  0  0  0  0
   -7.2001   -1.3856    0.0000 H   0  0  0  0  0  0  0  0  0  0  0  0
   -4.0000   -4.1569    0.0000 O   0  0  0  0  0  0  0  0  0  0  0  0
   -1.6001   -2.7713    0.0000 C   0  0  0  0  0  0  0  0  0  0  0  0
   -2.4000   -4.1569    0.0000 H   0  0  0  0  0  0  0  0  0  0  0  0
   -0.0001   -2.7713    0.0000 C   0  0  0  0  0  0  0  0  0  0  0  0
    0.8001   -4.1569    0.0000 H   0  0  0  0  0  0  0  0  0  0  0  0
  1  2  1  0  0  0  0
  2  3  1  0  0  0  0
  3  4  2  0  0  0  0
  4  5  1  0  0  0  0
  4  6  1  0  0  0  0
  6  7  1  0  0  0  0
  6  8  2  0  0  0  0
  8  9  1  0  0  0  0
  8 10  1  0  0  0  0
 10  2  2  0  0  0  0
 10 11  1  0  0  0  0
  3 12  1  0  0  0  0
 12 13  1  0  0  0  0
 12 14  1  0  0  0  0
 12 15  1  0  0  0  0
 15  1  1  0  0  0  0
 15 16  2  0  0  0  0
 16 17  1  0  0  0  0
 16 18  1  0  0  0  0
 18 19  1  0  0  0  0
 19 20  1  0  0  0  0
 19 21  1  0  0  0  0
 21 22  1  0  0  0  0
 22 23  1  0  0  0  0
 22 24  1  0  0  0  0
 22 25  1  0  0  0  0
 21 26  2  0  0  0  0
 18 27  2  0  0  0  0
 27 28  1  0  0  0  0
 27 29  1  0  0  0  0
 29  1  2  0  0  0  0
 29 30  1  0  0  0  0
M  END
> <ChemID>
100007

> <source_casrn>
53-96-3

> <CAS>
53-96-3

> <SMILES>
CC(=O)Nc1cc2Cc3ccccc3-c2cc1

> <NAME>
N-2-FLUORENYLACETAMIDE

> <preferred_name>
2-Acetylaminofluorene

> <iupac>
N-(9H-fluoren-2-yl)acetamide

> <MPID>
99284

> <dsstox_substance_id>
DTXSID0039227

> <Canonical_QSARr>
CC(=O)Nc1cc2Cc3ccccc3-c2cc1

> <InChI_Code_QSARr>
InChI=1S/C15H13NO/c1-10(17)16-13-6-7-15-12(9-13)8-11-4-2-3-5-14(11)15/h2-7,9H,8H2,1H3,(H,16,17)

> <InChI Key_QSARr>
CZIHNRWJTSTCEX-UHFFFAOYSA-N

> <LogKOC>
3.14

$$$$
100009
  -INDIGO-08031722282D

 16 16  0  0  0  0  0  0  0  0999 V2000
   -0.8000    1.3856    0.0000 C   0  0  0  0  0  0  0  0  0  0  0  0
   -0.0000    2.7713    0.0000 H   0  0  0  0  0  0  0  0  0  0  0  0
   -2.4000    1.3856    0.0000 C   0  0  0  0  0  0  0  0  0  0  0  0
   -3.2001    2.7713    0.0000 H   0  0  0  0  0  0  0  0  0  0  0  0
   -3.2001    0.0000    0.0000 C   0  0  0  0  0  0  0  0  0  0  0  0
   -4.8000    0.0000    0.0000 H   0  0  0  0  0  0  0  0  0  0  0  0
   -2.4000   -1.3856    0.0000 C   0  0  0  0  0  0  0  0  0  0  0  0
   -3.2001   -2.7713    0.0000 H   0  0  0  0  0  0  0  0  0  0  0  0
   -0.8000   -1.3856    0.0000 C   0  0  0  0  0  0  0  0  0  0  0  0
   -0.0000   -2.7713    0.0000 H   0  0  0  0  0  0  0  0  0  0  0  0
   -0.0000   -0.0000    0.0000 C   0  0  0  0  0  0  0  0  0  0  0  0
    1.6000    0.0000    0.0000 C   0  0  0  0  0  0  0  0  0  0  0  0
    2.4001    1.3856    0.0000 O   0  0  0  0  0  0  0  0  0  0  0  0
    2.4001   -1.3856    0.0000 N   0  0  0  0  0  0  0  0  0  0  0  0
    4.0000   -1.3856    0.0000 H   0  0  0  0  0  0  0  0  0  0  0  0
    1.6000   -2.7713    0.0000 H   0  0  0  0  0  0  0  0  0  0  0  0
  1  2  1  0  0  0  0
  1  3  1  0  0  0  0
  3  4  1  0  0  0  0
  3  5  2  0  0  0  0
  5  6  1  0  0  0  0
  5  7  1  0  0  0  0
  7  8  1  0  0  0  0
  7  9  2  0  0  0  0
  9 10  1  0  0  0  0
  9 11  1  0  0  0  0
 11  1  2  0  0  0  0
 11 12  1  0  0  0  0
 12 13  2  0  0  0  0
 12 14  1  0  0  0  0
 14 15  1  0  0  0  0
 14 16  1  0  0  0  0
M  END
> <ChemID>
100009

> <source_casrn>
55-21-0

> <CAS>
55-21-0

> <SMILES>
NC(=O)c1ccccc1

> <NAME>
BENZAMIDE

> <preferred_name>
Benzamide

> <iupac>
benzamide

> <MPID>
99286

> <dsstox_substance_id>
DTXSID0021709

> <Canonical_QSARr>
NC(=O)c1ccccc1

> <InChI_Code_QSARr>
InChI=1S/C7H7NO/c8-7(9)6-4-2-1-3-5-6/h1-5H,(H2,8,9)

> <InChI Key_QSARr>
KXDAEFPNCMNJSK-UHFFFAOYSA-N

> <LogKOC>
1.46

$$$$
100010
  -INDIGO-08031722282D

 31 31  0  0  0  0  0  0  0  0999 V2000
   -5.5426    1.5999    0.0000 S   0  0  0  0  0  0  0  0  0  0  0  0
   -5.5426   -0.0001    0.0000 P   0  0  0  0  0  0  0  0  0  0  0  0
   -4.1569    0.8000    0.0000 O   0  0  0  0  0  0  0  0  0  0  0  0
   -2.7713    0.0001    0.0000 C   0  0  0  0  0  0  0  0  0  0  0  0
   -1.3856    0.8000    0.0000 C   0  0  0  0  0  0  0  0  0  0  0  0
   -1.3856    2.4000    0.0000 H   0  0  0  0  0  0  0  0  0  0  0  0
    0.0001    0.0001    0.0000 C   0  0  0  0  0  0  0  0  0  0  0  0
    1.3856    0.8000    0.0000 C   0  0  0  0  0  0  0  0  0  0  0  0
    2.7713    1.6001    0.0000 H   0  0  0  0  0  0  0  0  0  0  0  0
    1.3856    2.4000    0.0000 H   0  0  0  0  0  0  0  0  0  0  0  0
    2.7713    0.0001    0.0000 H   0  0  0  0  0  0  0  0  0  0  0  0
    0.0001   -1.5999    0.0000 C   0  0  0  0  0  0  0  0  0  0  0  0
    1.3856   -2.4000    0.0000 S   0  0  0  0  0  0  0  0  0  0  0  0
    1.3856   -4.0000    0.0000 C   0  0  0  0  0  0  0  0  0  0  0  0
    2.7713   -4.7999    0.0000 H   0  0  0  0  0  0  0  0  0  0  0  0
    1.3856   -5.6000    0.0000 H   0  0  0  0  0  0  0  0  0  0  0  0
    2.7713   -3.2001    0.0000 H   0  0  0  0  0  0  0  0  0  0  0  0
   -1.3856   -2.4000    0.0000 C   0  0  0  0  0  0  0  0  0  0  0  0
   -1.3856   -4.0000    0.0000 H   0  0  0  0  0  0  0  0  0  0  0  0
   -2.7713   -1.6001    0.0000 C   0  0  0  0  0  0  0  0  0  0  0  0
   -4.1569   -2.4000    0.0000 H   0  0  0  0  0  0  0  0  0  0  0  0
   -6.9283    0.8000    0.0000 O   0  0  0  0  0  0  0  0  0  0  0  0
   -8.3138   -0.0001    0.0000 C   0  0  0  0  0  0  0  0  0  0  0  0
   -9.6995    0.8000    0.0000 H   0  0  0  0  0  0  0  0  0  0  0  0
   -9.6995   -0.8000    0.0000 H   0  0  0  0  0  0  0  0  0  0  0  0
   -8.3138    1.5999    0.0000 H   0  0  0  0  0  0  0  0  0  0  0  0
   -6.9283   -0.8000    0.0000 O   0  0  0  0  0  0  0  0  0  0  0  0
   -6.9283   -2.4000    0.0000 C   0  0  0  0  0  0  0  0  0  0  0  0
   -6.9283   -4.0000    0.0000 H   0  0  0  0  0  0  0  0  0  0  0  0
   -8.3138   -3.2001    0.0000 H   0  0  0  0  0  0  0  0  0  0  0  0
   -5.5426   -3.2001    0.0000 H   0  0  0  0  0  0  0  0  0  0  0  0
  1  2  2  0  0  0  0
  2  3  1  0  0  0  0
  3  4  1  0  0  0  0
  4  5  1  0  0  0  0
  5  6  1  0  0  0  0
  5  7  2  0  0  0  0
  7  8  1  0  0  0  0
  8  9  1  0  0  0  0
  8 10  1  0  0  0  0
  8 11  1  0  0  0  0
  7 12  1  0  0  0  0
 12 13  1  0  0  0  0
 13 14  1  0  0  0  0
 14 15  1  0  0  0  0
 14 16  1  0  0  0  0
 14 17  1  0  0  0  0
 12 18  2  0  0  0  0
 18 19  1  0  0  0  0
 18 20  1  0  0  0  0
 20  4  2  0  0  0  0
 20 21  1  0  0  0  0
  2 22  1  0  0  0  0
 22 23  1  0  0  0  0
 23 24  1  0  0  0  0
 23 25  1  0  0  0  0
 23 26  1  0  0  0  0
  2 27  1  0  0  0  0
 27 28  1  0  0  0  0
 28 29  1  0  0  0  0
 28 30  1  0  0  0  0
 28 31  1  0  0  0  0
M  END
> <ChemID>
100010

> <source_casrn>
55-38-9

> <CAS>
55-38-9

> <SMILES>
Cc1cc(ccc1SC)OP(=S)(OC)OC

> <NAME>
FENTHION

> <preferred_name>
Fenthion

> <iupac>
O,O-dimethyl O-[3-methyl-4-(methylsulfanyl)phenyl] phosphorothioate

> <MPID>
99287

> <dsstox_substance_id>
DTXSID8020620

> <Canonical_QSARr>
Cc1cc(ccc1SC)OP(=S)(OC)OC

> <InChI_Code_QSARr>
InChI=1S/C10H15O3PS2/c1-8-7-9(5-6-10(8)16-4)13-14(15,11-2)12-3/h5-7H,1-4H3

> <InChI Key_QSARr>
PNVJTZOFSHSLTO-UHFFFAOYSA-N

> <LogKOC>
3.18

$$$$
100011
  -INDIGO-08031722282D

 15 15  0  0  0  0  0  0  0  0999 V2000
    1.6000   -0.0000    0.0000 C   0  0  0  0  0  0  0  0  0  0  0  0
    3.2000   -0.0000    0.0000 H   0  0  0  0  0  0  0  0  0  0  0  0
    2.4001   -1.3856    0.0000 H   0  0  0  0  0  0  0  0  0  0  0  0
    2.4001    1.3856    0.0000 H   0  0  0  0  0  0  0  0  0  0  0  0
    0.0000   -0.0000    0.0000 C   0  0  0  0  0  0  0  0  0  0  0  0
   -0.7999    1.3856    0.0000 C   0  0  0  0  0  0  0  0  0  0  0  0
    0.0000    2.7713    0.0000 H   0  0  0  0  0  0  0  0  0  0  0  0
   -2.4001    1.3856    0.0000 C   0  0  0  0  0  0  0  0  0  0  0  0
   -3.2000    2.7713    0.0000 O   0  0  0  0  0  0  0  0  0  0  0  0
   -3.2000   -0.0000    0.0000 N   0  0  0  0  0  0  0  0  0  0  0  0
   -4.8000   -0.0000    0.0000 H   0  0  0  0  0  0  0  0  0  0  0  0
   -2.4001   -1.3856    0.0000 C   0  0  0  0  0  0  0  0  0  0  0  0
   -3.2000   -2.7713    0.0000 S   0  0  0  0  0  0  0  0  0  0  0  0
   -0.8001   -1.3856    0.0000 N   0  0  0  0  0  0  0  0  0  0  0  0
    0.0000   -2.7713    0.0000 H   0  0  0  0  0  0  0  0  0  0  0  0
  1  2  1  0  0  0  0
  1  3  1  0  0  0  0
  1  4  1  0  0  0  0
  1  5  1  0  0  0  0
  5  6  2  0  0  0  0
  6  7  1  0  0  0  0
  6  8  1  0  0  0  0
  8  9  2  0  0  0  0
  8 10  1  0  0  0  0
 10 11  1  0  0  0  0
 10 12  1  0  0  0  0
 12 13  2  0  0  0  0
 12 14  1  0  0  0  0
 14  5  1  0  0  0  0
 14 15  1  0  0  0  0
M  END
> <ChemID>
100011

> <source_casrn>
56-04-2

> <CAS>
56-04-2

> <SMILES>
CC1=CC(=O)NC(=S)N1

> <NAME>
METACIL

> <preferred_name>
6-Methyl-2-thiouracil

> <iupac>
6-methyl-2-thioxo-2,3-dihydropyrimidin-4(1H)-one

> <MPID>
99288

> <dsstox_substance_id>
DTXSID2020890

> <Canonical_QSARr>
CC1=CC(=O)NC(=S)N1

> <InChI_Code_QSARr>
InChI=1S/C5H6N2OS/c1-3-2-4(8)7-5(9)6-3/h2H,1H3,(H2,6,7,8,9)

> <InChI Key_QSARr>
HWGBHCRJGXAGEU-UHFFFAOYSA-N

> <LogKOC>
2.14

$$$$
100013
  -INDIGO-08031722282D

 32 32  0  0  0  0  0  0  0  0999 V2000
    0.0000    1.6000    0.0000 S   0  0  0  0  0  0  0  0  0  0  0  0
    0.0000    0.0000    0.0000 P   0  0  0  0  0  0  0  0  0  0  0  0
    1.3857    0.8000    0.0000 O   0  0  0  0  0  0  0  0  0  0  0  0
    2.7713    0.0000    0.0000 C   0  0  0  0  0  0  0  0  0  0  0  0
    2.7713   -1.6000    0.0000 C   0  0  0  0  0  0  0  0  0  0  0  0
    1.3857   -2.4000    0.0000 H   0  0  0  0  0  0  0  0  0  0  0  0
    4.1570   -2.4000    0.0000 C   0  0  0  0  0  0  0  0  0  0  0  0
    4.1570   -4.0000    0.0000 H   0  0  0  0  0  0  0  0  0  0  0  0
    5.5426   -1.6000    0.0000 C   0  0  0  0  0  0  0  0  0  0  0  0
    6.9283   -2.4000    0.0000 N   0  0  0  0  0  0  0  0  0  0  0  0
    8.3138   -1.6000    0.0000 O   0  0  0  0  0  0  0  0  0  0  0  0
    6.9283   -4.0000    0.0000 O   0  0  0  0  0  0  0  0  0  0  0  0
    5.5426    0.0000    0.0000 C   0  0  0  0  0  0  0  0  0  0  0  0
    6.9283    0.8000    0.0000 H   0  0  0  0  0  0  0  0  0  0  0  0
    4.1570    0.8000    0.0000 C   0  0  0  0  0  0  0  0  0  0  0  0
    4.1570    2.4000    0.0000 H   0  0  0  0  0  0  0  0  0  0  0  0
   -1.3855    0.8000    0.0000 O   0  0  0  0  0  0  0  0  0  0  0  0
   -2.7713    0.0000    0.0000 C   0  0  0  0  0  0  0  0  0  0  0  0
   -2.1590   -1.4782    0.0000 H   0  0  0  0  0  0  0  0  0  0  0  0
   -3.3836   -1.4782    0.0000 H   0  0  0  0  0  0  0  0  0  0  0  0
   -4.1568    0.8000    0.0000 C   0  0  0  0  0  0  0  0  0  0  0  0
   -5.5426    1.6000    0.0000 H   0  0  0  0  0  0  0  0  0  0  0  0
   -5.5426    0.0000    0.0000 H   0  0  0  0  0  0  0  0  0  0  0  0
   -4.1568    2.4000    0.0000 H   0  0  0  0  0  0  0  0  0  0  0  0
   -1.3855   -0.8000    0.0000 O   0  0  0  0  0  0  0  0  0  0  0  0
   -1.3855   -2.4000    0.0000 C   0  0  0  0  0  0  0  0  0  0  0  0
    0.2007   -2.6089    0.0000 H   0  0  0  0  0  0  0  0  0  0  0  0
   -0.4117   -3.6694    0.0000 H   0  0  0  0  0  0  0  0  0  0  0  0
   -2.7713   -3.2000    0.0000 C   0  0  0  0  0  0  0  0  0  0  0  0
   -4.1568   -4.0000    0.0000 H   0  0  0  0  0  0  0  0  0  0  0  0
   -2.7713   -4.8000    0.0000 H   0  0  0  0  0  0  0  0  0  0  0  0
   -4.1568   -2.4000    0.0000 H   0  0  0  0  0  0  0  0  0  0  0  0
  1  2  2  0  0  0  0
  2  3  1  0  0  0  0
  3  4  1  0  0  0  0
  4  5  1  0  0  0  0
  5  6  1  0  0  0  0
  5  7  2  0  0  0  0
  7  8  1  0  0  0  0
  7  9  1  0  0  0  0
  9 10  1  0  0  0  0
 10 11  2  0  0  0  0
 10 12  1  0  0  0  0
  9 13  2  0  0  0  0
 13 14  1  0  0  0  0
 13 15  1  0  0  0  0
 15  4  2  0  0  0  0
 15 16  1  0  0  0  0
  2 17  1  0  0  0  0
 17 18  1  0  0  0  0
 18 19  1  0  0  0  0
 18 20  1  0  0  0  0
 18 21  1  0  0  0  0
 21 22  1  0  0  0  0
 21 23  1  0  0  0  0
 21 24  1  0  0  0  0
  2 25  1  0  0  0  0
 25 26  1  0  0  0  0
 26 27  1  0  0  0  0
 26 28  1  0  0  0  0
 26 29  1  0  0  0  0
 29 30  1  0  0  0  0
 29 31  1  0  0  0  0
 29 32  1  0  0  0  0
M  CHG  2  10   1  12  -1
M  END
> <ChemID>
100013

> <source_casrn>
56-38-2

> <CAS>
56-38-2

> <SMILES>
CCOP(=S)(Oc1ccc(cc1)[N+]([O-])=O)OCC

> <NAME>
PARATHION

> <preferred_name>
Parathion

> <iupac>
O,O-diethyl O-(4-nitrophenyl) phosphorothioate

> <MPID>
99290

> <dsstox_substance_id>
DTXSID7021100

> <Canonical_QSARr>
CCOP(=S)(Oc1ccc(cc1)[N+]([O-])=O)OCC

> <InChI_Code_QSARr>
InChI=1S/C10H14NO5PS/c1-3-14-17(18,15-4-2)16-10-7-5-9(6-8-10)11(12)13/h5-8H,3-4H2,1-2H3

> <InChI Key_QSARr>
LCCNCVORNKJIRZ-UHFFFAOYSA-N

> <LogKOC>
3.2

$$$$
100014
  -INDIGO-08031722282D

 37 41  0  0  0  0  0  0  0  0999 V2000
    4.8001    2.7713    0.0000 C   0  0  0  0  0  0  0  0  0  0  0  0
    6.4000    2.7713    0.0000 H   0  0  0  0  0  0  0  0  0  0  0  0
    5.6000    4.1570    0.0000 H   0  0  0  0  0  0  0  0  0  0  0  0
    5.6000    1.3857    0.0000 H   0  0  0  0  0  0  0  0  0  0  0  0
    3.2000    2.7713    0.0000 C   0  0  0  0  0  0  0  0  0  0  0  0
    2.4000    1.3857    0.0000 C   0  0  0  0  0  0  0  0  0  0  0  0
    0.8001    1.3856    0.0000 C   0  0  0  0  0  0  0  0  0  0  0  0
   -0.0001    0.0000    0.0000 C   0  0  0  0  0  0  0  0  0  0  0  0
    1.2517   -0.9966    0.0000 C   0  0  0  0  0  0  0  0  0  0  0  0
    0.1068   -2.1144    0.0000 H   0  0  0  0  0  0  0  0  0  0  0  0
    2.2182   -2.2718    0.0000 H   0  0  0  0  0  0  0  0  0  0  0  0
    2.6373   -0.1966    0.0000 C   0  0  0  0  0  0  0  0  0  0  0  0
    3.2584   -1.6711    0.0000 H   0  0  0  0  0  0  0  0  0  0  0  0
    4.1778    0.2360    0.0000 H   0  0  0  0  0  0  0  0  0  0  0  0
   -1.6000    0.0000    0.0000 C   0  0  0  0  0  0  0  0  0  0  0  0
   -2.3999    1.3856    0.0000 C   0  0  0  0  0  0  0  0  0  0  0  0
   -1.6000    2.7713    0.0000 C   0  0  0  0  0  0  0  0  0  0  0  0
   -2.3999    4.1570    0.0000 H   0  0  0  0  0  0  0  0  0  0  0  0
   -0.0001    2.7713    0.0000 C   0  0  0  0  0  0  0  0  0  0  0  0
    0.8001    4.1569    0.0000 C   0  0  0  0  0  0  0  0  0  0  0  0
   -0.0001    5.5426    0.0000 H   0  0  0  0  0  0  0  0  0  0  0  0
    2.4000    4.1569    0.0000 C   0  0  0  0  0  0  0  0  0  0  0  0
    3.2000    5.5426    0.0000 H   0  0  0  0  0  0  0  0  0  0  0  0
   -4.0001    1.3856    0.0000 C   0  0  0  0  0  0  0  0  0  0  0  0
   -4.8000    0.0000    0.0000 C   0  0  0  0  0  0  0  0  0  0  0  0
   -6.3999    0.0000    0.0000 C   0  0  0  0  0  0  0  0  0  0  0  0
   -7.2001   -1.3857    0.0000 H   0  0  0  0  0  0  0  0  0  0  0  0
   -7.2001    1.3856    0.0000 C   0  0  0  0  0  0  0  0  0  0  0  0
   -8.8000    1.3856    0.0000 H   0  0  0  0  0  0  0  0  0  0  0  0
   -6.3999    2.7713    0.0000 C   0  0  0  0  0  0  0  0  0  0  0  0
   -7.2001    4.1569    0.0000 H   0  0  0  0  0  0  0  0  0  0  0  0
   -4.8000    2.7713    0.0000 C   0  0  0  0  0  0  0  0  0  0  0  0
   -4.0001    4.1569    0.0000 H   0  0  0  0  0  0  0  0  0  0  0  0
   -4.0001   -1.3856    0.0000 C   0  0  0  0  0  0  0  0  0  0  0  0
   -4.8000   -2.7713    0.0000 H   0  0  0  0  0  0  0  0  0  0  0  0
   -2.3999   -1.3856    0.0000 C   0  0  0  0  0  0  0  0  0  0  0  0
   -1.6000   -2.7713    0.0000 H   0  0  0  0  0  0  0  0  0  0  0  0
  1  2  1  0  0  0  0
  1  3  1  0  0  0  0
  1  4  1  0  0  0  0
  1  5  1  0  0  0  0
  5  6  2  0  0  0  0
  6  7  1  0  0  0  0
  7  8  1  0  0  0  0
  8  9  1  0  0  0  0
  9 10  1  0  0  0  0
  9 11  1  0  0  0  0
  9 12  1  0  0  0  0
 12  6  1  0  0  0  0
 12 13  1  0  0  0  0
 12 14  1  0  0  0  0
  8 15  2  0  0  0  0
 15 16  1  0  0  0  0
 16 17  2  0  0  0  0
 17 18  1  0  0  0  0
 17 19  1  0  0  0  0
 19  7  2  0  0  0  0
 19 20  1  0  0  0  0
 20 21  1  0  0  0  0
 20 22  2  0  0  0  0
 22  5  1  0  0  0  0
 22 23  1  0  0  0  0
 16 24  1  0  0  0  0
 24 25  1  0  0  0  0
 25 26  2  0  0  0  0
 26 27  1  0  0  0  0
 26 28  1  0  0  0  0
 28 29  1  0  0  0  0
 28 30  2  0  0  0  0
 30 31  1  0  0  0  0
 30 32  1  0  0  0  0
 32 24  2  0  0  0  0
 32 33  1  0  0  0  0
 25 34  1  0  0  0  0
 34 35  1  0  0  0  0
 34 36  2  0  0  0  0
 36 15  1  0  0  0  0
 36 37  1  0  0  0  0
M  END
> <ChemID>
100014

> <source_casrn>
56-49-5

> <CAS>
56-49-5

> <SMILES>
Cc1ccc2cc3c(ccc4ccccc43)c3CCc1c32

> <NAME>
3-METHYLCHOLANTHRENE

> <preferred_name>
3-Methylcholanthrene

> <iupac>
3-methyl-1,2-dihydrocyclopenta[ij]tetraphene

> <MPID>
99291

> <dsstox_substance_id>
DTXSID0020862

> <Canonical_QSARr>
Cc1ccc2cc3c(ccc4ccccc43)c3CCc1c32

> <InChI_Code_QSARr>
InChI=1S/C21H16/c1-13-6-7-15-12-20-17-5-3-2-4-14(17)8-9-18(20)19-11-10-16(13)21(15)19/h2-9,12H,10-11H2,1H3

> <InChI Key_QSARr>
PPQNQXQZIWHJRB-UHFFFAOYSA-N

> <LogKOC>
6.1

$$$$
100015
  -INDIGO-08031722282D

 40 41  0  0  0  0  0  0  0  0999 V2000
    0.0000   -0.0000    0.0000 C   0  0  0  0  0  0  0  0  0  0  0  0
    1.5035   -0.5472    0.0000 C   0  0  0  0  0  0  0  0  0  0  0  0
    2.7292    0.4812    0.0000 C   0  0  0  0  0  0  0  0  0  0  0  0
    4.1149   -0.3188    0.0000 C   0  0  0  0  0  0  0  0  0  0  0  0
    4.1149   -1.9188    0.0000 H   0  0  0  0  0  0  0  0  0  0  0  0
    5.5004    0.4812    0.0000 C   0  0  0  0  0  0  0  0  0  0  0  0
    6.8860   -0.3188    0.0000 H   0  0  0  0  0  0  0  0  0  0  0  0
    5.5004    2.0813    0.0000 C   0  0  0  0  0  0  0  0  0  0  0  0
    6.8860    2.8813    0.0000 O   0  0  0  0  0  0  0  0  0  0  0  0
    8.2717    2.0813    0.0000 H   0  0  0  0  0  0  0  0  0  0  0  0
    4.1149    2.8813    0.0000 C   0  0  0  0  0  0  0  0  0  0  0  0
    4.1149    4.4812    0.0000 H   0  0  0  0  0  0  0  0  0  0  0  0
    2.7292    2.0813    0.0000 C   0  0  0  0  0  0  0  0  0  0  0  0
    1.5035    3.1097    0.0000 H   0  0  0  0  0  0  0  0  0  0  0  0
    1.7814   -2.1230    0.0000 C   0  0  0  0  0  0  0  0  0  0  0  0
    1.0426   -3.5421    0.0000 H   0  0  0  0  0  0  0  0  0  0  0  0
    0.2555   -2.6040    0.0000 H   0  0  0  0  0  0  0  0  0  0  0  0
    3.2848   -2.6702    0.0000 C   0  0  0  0  0  0  0  0  0  0  0  0
    3.5627   -4.2459    0.0000 H   0  0  0  0  0  0  0  0  0  0  0  0
    4.7885   -3.2174    0.0000 H   0  0  0  0  0  0  0  0  0  0  0  0
    2.0591   -3.6987    0.0000 H   0  0  0  0  0  0  0  0  0  0  0  0
   -1.2257   -1.0284    0.0000 C   0  0  0  0  0  0  0  0  0  0  0  0
   -2.6114   -0.2284    0.0000 C   0  0  0  0  0  0  0  0  0  0  0  0
   -2.6114    1.3716    0.0000 H   0  0  0  0  0  0  0  0  0  0  0  0
   -3.9968   -1.0284    0.0000 C   0  0  0  0  0  0  0  0  0  0  0  0
   -5.3825   -0.2284    0.0000 H   0  0  0  0  0  0  0  0  0  0  0  0
   -3.9968   -2.6285    0.0000 C   0  0  0  0  0  0  0  0  0  0  0  0
   -5.3825   -3.4285    0.0000 O   0  0  0  0  0  0  0  0  0  0  0  0
   -6.7682   -2.6285    0.0000 H   0  0  0  0  0  0  0  0  0  0  0  0
   -2.6114   -3.4285    0.0000 C   0  0  0  0  0  0  0  0  0  0  0  0
   -2.6114   -5.0285    0.0000 H   0  0  0  0  0  0  0  0  0  0  0  0
   -1.2257   -2.6285    0.0000 C   0  0  0  0  0  0  0  0  0  0  0  0
    0.0000   -3.6569    0.0000 H   0  0  0  0  0  0  0  0  0  0  0  0
   -0.2779    1.5757    0.0000 C   0  0  0  0  0  0  0  0  0  0  0  0
    1.2480    2.0568    0.0000 H   0  0  0  0  0  0  0  0  0  0  0  0
    0.4609    2.9949    0.0000 H   0  0  0  0  0  0  0  0  0  0  0  0
   -1.7813    2.1229    0.0000 C   0  0  0  0  0  0  0  0  0  0  0  0
   -2.0592    3.6987    0.0000 H   0  0  0  0  0  0  0  0  0  0  0  0
   -0.5556    3.1515    0.0000 H   0  0  0  0  0  0  0  0  0  0  0  0
   -3.2850    2.6701    0.0000 H   0  0  0  0  0  0  0  0  0  0  0  0
  1  2  2  0  0  0  0
  2  3  1  0  0  0  0
  3  4  1  0  0  0  0
  4  5  1  0  0  0  0
  4  6  2  0  0  0  0
  6  7  1  0  0  0  0
  6  8  1  0  0  0  0
  8  9  1  0  0  0  0
  9 10  1  0  0  0  0
  8 11  2  0  0  0  0
 11 12  1  0  0  0  0
 11 13  1  0  0  0  0
 13  3  2  0  0  0  0
 13 14  1  0  0  0  0
  2 15  1  0  0  0  0
 15 16  1  0  0  0  0
 15 17  1  0  0  0  0
 15 18  1  0  0  0  0
 18 19  1  0  0  0  0
 18 20  1  0  0  0  0
 18 21  1  0  0  0  0
  1 22  1  0  0  0  0
 22 23  1  0  0  0  0
 23 24  1  0  0  0  0
 23 25  2  0  0  0  0
 25 26  1  0  0  0  0
 25 27  1  0  0  0  0
 27 28  1  0  0  0  0
 28 29  1  0  0  0  0
 27 30  2  0  0  0  0
 30 31  1  0  0  0  0
 30 32  1  0  0  0  0
 32 22  2  0  0  0  0
 32 33  1  0  0  0  0
  1 34  1  0  0  0  0
 34 35  1  0  0  0  0
 34 36  1  0  0  0  0
 34 37  1  0  0  0  0
 37 38  1  0  0  0  0
 37 39  1  0  0  0  0
 37 40  1  0  0  0  0
M  END
> <ChemID>
100015

> <source_casrn>
56-53-1

> <CAS>
56-53-1

> <SMILES>
CC/C(/c1ccc(O)cc1)=C(/CC)\c1ccc(O)cc1

> <NAME>
DES

> <preferred_name>
Diethylstilbestrol

> <iupac>
4,4'-(3E)-hex-3-ene-3,4-diyldiphenol

> <MPID>
99292

> <dsstox_substance_id>
DTXSID3020465

> <Canonical_QSARr>
CCC(c1ccc(O)cc1)=C(CC)c1ccc(O)cc1

> <InChI_Code_QSARr>
InChI=1S/C18H20O2/c1-3-17(13-5-9-15(19)10-6-13)18(4-2)14-7-11-16(20)12-8-14/h5-12,19-20H,3-4H2,1-2H3/b18-17+

> <InChI Key_QSARr>
RGLYKWWBQGJZGM-ISLYRVAYSA-N

> <LogKOC>
4.14

$$$$
100017
  -INDIGO-08031722282D

  8  7  0  0  0  0  0  0  0  0999 V2000
    0.0000    0.0000    0.0000 C   0  0  0  0  0  0  0  0  0  0  0  0
    1.3856    0.8000    0.0000 N   0  0  0  0  0  0  0  0  0  0  0  0
    2.7713    0.0000    0.0000 H   0  0  0  0  0  0  0  0  0  0  0  0
    1.3856    2.4000    0.0000 H   0  0  0  0  0  0  0  0  0  0  0  0
   -1.3856    0.8000    0.0000 N   0  0  0  0  0  0  0  0  0  0  0  0
   -2.7713    0.0000    0.0000 H   0  0  0  0  0  0  0  0  0  0  0  0
   -1.3856    2.4000    0.0000 H   0  0  0  0  0  0  0  0  0  0  0  0
   -0.0000   -1.6000    0.0000 O   0  0  0  0  0  0  0  0  0  0  0  0
  1  2  1  0  0  0  0
  2  3  1  0  0  0  0
  2  4  1  0  0  0  0
  1  5  1  0  0  0  0
  5  6  1  0  0  0  0
  5  7  1  0  0  0  0
  1  8  2  0  0  0  0
M  END
> <ChemID>
100017

> <source_casrn>
57-13-6

> <CAS>
57-13-6

> <SMILES>
NC(N)=O

> <NAME>
UREA

> <preferred_name>
Urea

> <iupac>
urea

> <MPID>
99294

> <dsstox_substance_id>
DTXSID4021426

> <Canonical_QSARr>
NC(N)=O

> <InChI_Code_QSARr>
InChI=1S/CH4N2O/c2-1(3)4/h(H4,2,3,4)

> <InChI Key_QSARr>
XSQUKJJJFZCRTK-UHFFFAOYSA-N

> <LogKOC>
0.15

$$$$
100018
  -INDIGO-08031722282D

 13 12  0  0  0  0  0  0  0  0999 V2000
    1.6000    0.0000    0.0000 C   0  0  0  0  0  0  0  0  0  0  0  0
    3.2000    0.0000    0.0000 H   0  0  0  0  0  0  0  0  0  0  0  0
    2.4000    1.3856    0.0000 H   0  0  0  0  0  0  0  0  0  0  0  0
    2.4000   -1.3856    0.0000 H   0  0  0  0  0  0  0  0  0  0  0  0
   -0.0000    0.0000    0.0000 C   0  0  0  0  0  0  0  0  0  0  0  0
   -0.0000   -1.6000    0.0000 H   0  0  0  0  0  0  0  0  0  0  0  0
   -1.6000    0.0000    0.0000 C   0  0  0  0  0  0  0  0  0  0  0  0
   -1.8089    1.5863    0.0000 H   0  0  0  0  0  0  0  0  0  0  0  0
   -2.8694    0.9740    0.0000 H   0  0  0  0  0  0  0  0  0  0  0  0
   -2.4000   -1.3856    0.0000 O   0  0  0  0  0  0  0  0  0  0  0  0
   -4.0000   -1.3856    0.0000 H   0  0  0  0  0  0  0  0  0  0  0  0
   -0.0000    1.6000    0.0000 O   0  0  0  0  0  0  0  0  0  0  0  0
    1.3857    2.4000    0.0000 H   0  0  0  0  0  0  0  0  0  0  0  0
  1  2  1  0  0  0  0
  1  3  1  0  0  0  0
  1  4  1  0  0  0  0
  1  5  1  0  0  0  0
  5  6  1  0  0  0  0
  5  7  1  0  0  0  0
  7  8  1  0  0  0  0
  7  9  1  0  0  0  0
  7 10  1  0  0  0  0
 10 11  1  0  0  0  0
  5 12  1  0  0  0  0
 12 13  1  0  0  0  0
M  END
> <ChemID>
100018

> <source_casrn>
57-55-6

> <CAS>
57-55-6

> <SMILES>
CC(O)CO

> <NAME>
1,2-PROPANEDIOL

> <preferred_name>
1,2-Propylene glycol

> <iupac>
propane-1,2-diol

> <MPID>
99295

> <dsstox_substance_id>
DTXSID0021206

> <Canonical_QSARr>
CC(O)CO

> <InChI_Code_QSARr>
InChI=1S/C3H8O2/c1-3(5)2-4/h3-5H,2H2,1H3

> <InChI Key_QSARr>
DNIAPMSPPWPWGF-UHFFFAOYSA-N

> <LogKOC>
0.36

$$$$
100019
  -INDIGO-08031722282D

 24 26  0  0  0  0  0  0  0  0999 V2000
    2.2420   -1.2944    0.0000 C   0  0  0  0  0  0  0  0  0  0  0  0
    3.6277   -0.4944    0.0000 H   0  0  0  0  0  0  0  0  0  0  0  0
    1.0530   -2.3650    0.0000 C   0  0  0  0  0  0  0  0  0  0  0  0
    2.2420   -3.4356    0.0000 H   0  0  0  0  0  0  0  0  0  0  0  0
    0.1125   -3.6595    0.0000 H   0  0  0  0  0  0  0  0  0  0  0  0
   -0.3327   -1.5651    0.0000 C   0  0  0  0  0  0  0  0  0  0  0  0
   -0.6653   -3.1301    0.0000 H   0  0  0  0  0  0  0  0  0  0  0  0
    0.0000    0.0000    0.0000 C   0  0  0  0  0  0  0  0  0  0  0  0
    0.3327    1.5651    0.0000 H   0  0  0  0  0  0  0  0  0  0  0  0
   -1.3856    0.8000    0.0000 C   0  0  0  0  0  0  0  0  0  0  0  0
   -2.9769    0.6327    0.0000 C   0  0  0  0  0  0  0  0  0  0  0  0
   -4.0475    1.8218    0.0000 Cl  0  0  0  0  0  0  0  0  0  0  0  0
   -3.3096   -0.9322    0.0000 C   0  0  0  0  0  0  0  0  0  0  0  0
   -4.7712   -1.5831    0.0000 Cl  0  0  0  0  0  0  0  0  0  0  0  0
   -1.9239   -1.7323    0.0000 C   0  0  0  0  0  0  0  0  0  0  0  0
   -2.2566   -3.2974    0.0000 Cl  0  0  0  0  0  0  0  0  0  0  0  0
   -2.5747   -0.2706    0.0000 C   0  0  0  0  0  0  0  0  0  0  0  0
   -4.1504   -0.5484    0.0000 Cl  0  0  0  0  0  0  0  0  0  0  0  0
   -3.9011    0.6241    0.0000 Cl  0  0  0  0  0  0  0  0  0  0  0  0
   -1.0529    2.3650    0.0000 Cl  0  0  0  0  0  0  0  0  0  0  0  0
    1.5912    0.1672    0.0000 C   0  0  0  0  0  0  0  0  0  0  0  0
    1.2585    1.7323    0.0000 H   0  0  0  0  0  0  0  0  0  0  0  0
    3.1130    0.6617    0.0000 Cl  0  0  0  0  0  0  0  0  0  0  0  0
    3.1824   -2.5889    0.0000 Cl  0  0  0  0  0  0  0  0  0  0  0  0
  1  2  1  0  0  0  0
  1  3  1  0  0  0  0
  3  4  1  0  0  0  0
  3  5  1  0  0  0  0
  3  6  1  0  0  0  0
  6  7  1  0  0  0  0
  6  8  1  0  0  0  0
  8  9  1  0  0  0  0
  8 10  1  0  0  0  0
 10 11  1  0  0  0  0
 11 12  1  0  0  0  0
 11 13  2  0  0  0  0
 13 14  1  0  0  0  0
 13 15  1  0  0  0  0
 15  6  1  0  0  0  0
 15 16  1  0  0  0  0
 15 17  1  0  0  0  0
 17 10  1  0  0  0  0
 17 18  1  0  0  0  0
 17 19  1  0  0  0  0
 10 20  1  0  0  0  0
  8 21  1  0  0  0  0
 21  1  1  0  0  0  0
 21 22  1  0  0  0  0
 21 23  1  0  0  0  0
  1 24  1  0  0  0  0
M  END
> <ChemID>
100019

> <source_casrn>
57-74-9

> <CAS>
57-74-9

> <SMILES>
ClC1(Cl)C2(Cl)C3CC(Cl)C(Cl)C3C1(Cl)C(Cl)=C2Cl

> <NAME>
CHLORDANE

> <preferred_name>
Chlordane

> <iupac>
C10H6Cl8

> <MPID>
99296

> <dsstox_substance_id>
DTXSID7020267

> <Canonical_QSARr>
ClC1(Cl)C2(Cl)C3CC(Cl)C(Cl)C3C1(Cl)C(Cl)=C2Cl

> <InChI_Code_QSARr>
InChI=1S/C10H6Cl8/c11-3-1-2-4(5(3)12)9(16)7(14)6(13)8(2,15)10(9,17)18/h2-5H,1H2

> <InChI Key_QSARr>
BIWJNBZANLAXMG-UHFFFAOYSA-N

> <LogKOC>
4.78

$$$$
100021
  -INDIGO-08031722282D

 18 18  0  0  0  0  0  0  0  0999 V2000
    0.0000    0.0000    0.0000 C   0  0  0  0  0  0  0  0  0  0  0  0
    1.5757   -0.2778    0.0000 H   0  0  0  0  0  0  0  0  0  0  0  0
   -1.3856    0.8000    0.0000 C   0  0  0  0  0  0  0  0  0  0  0  0
   -0.3571    2.0257    0.0000 H   0  0  0  0  0  0  0  0  0  0  0  0
   -2.4141    2.0257    0.0000 Cl  0  0  0  0  0  0  0  0  0  0  0  0
   -2.7713    0.0000    0.0000 C   0  0  0  0  0  0  0  0  0  0  0  0
   -3.3185    1.5035    0.0000 H   0  0  0  0  0  0  0  0  0  0  0  0
   -4.3470   -0.2778    0.0000 Cl  0  0  0  0  0  0  0  0  0  0  0  0
   -2.7713   -1.6000    0.0000 C   0  0  0  0  0  0  0  0  0  0  0  0
   -4.3470   -1.3222    0.0000 H   0  0  0  0  0  0  0  0  0  0  0  0
   -3.3185   -3.1035    0.0000 Cl  0  0  0  0  0  0  0  0  0  0  0  0
   -1.3856   -2.4000    0.0000 C   0  0  0  0  0  0  0  0  0  0  0  0
   -2.4141   -3.6257    0.0000 H   0  0  0  0  0  0  0  0  0  0  0  0
   -0.3571   -3.6257    0.0000 Cl  0  0  0  0  0  0  0  0  0  0  0  0
    0.0000   -1.6000    0.0000 C   0  0  0  0  0  0  0  0  0  0  0  0
    0.5472   -3.1035    0.0000 H   0  0  0  0  0  0  0  0  0  0  0  0
    1.5757   -1.3222    0.0000 Cl  0  0  0  0  0  0  0  0  0  0  0  0
    0.5472    1.5035    0.0000 Cl  0  0  0  0  0  0  0  0  0  0  0  0
  1  2  1  0  0  0  0
  1  3  1  0  0  0  0
  3  4  1  0  0  0  0
  3  5  1  0  0  0  0
  3  6  1  0  0  0  0
  6  7  1  0  0  0  0
  6  8  1  0  0  0  0
  6  9  1  0  0  0  0
  9 10  1  0  0  0  0
  9 11  1  0  0  0  0
  9 12  1  0  0  0  0
 12 13  1  0  0  0  0
 12 14  1  0  0  0  0
 12 15  1  0  0  0  0
 15  1  1  0  0  0  0
 15 16  1  0  0  0  0
 15 17  1  0  0  0  0
  1 18  1  0  0  0  0
M  END
> <ChemID>
100021

> <source_casrn>
58-89-9|319-84-6

> <CAS>
58-89-9|319-84-6

> <SMILES>
Cl[C@@H]1[C@@H](Cl)[C@H](Cl)[C@H](Cl)[C@@H](Cl)[C@@H]1Cl |&1:1,2,4,6,8,10|

> <NAME>
GAMMA-HEXACHLOROCYCLOHEXANE, ALPHA-HEXACHLOROCYCLOHEXANE

> <preferred_name>
Lindane

> <iupac>


> <MPID>
99298|99585

> <dsstox_substance_id>
DTXSID2020686|DTXSID2020684

> <Canonical_QSARr>
ClC1C(Cl)C(Cl)C(Cl)C(Cl)C1Cl

> <InChI_Code_QSARr>
InChI=1S/C6H6Cl6/c7-1-2(8)4(10)6(12)5(11)3(1)9/h1-6H

> <InChI Key_QSARr>
JLYXXMFPNIAWKQ-UHFFFAOYSA-N

> <LogKOC>
3.17

$$$$
100022
  -INDIGO-08031722282D

 13 13  0  0  0  0  0  0  0  0999 V2000
    0.8000    1.3856    0.0000 O   0  0  0  0  0  0  0  0  0  0  0  0
    2.4000    1.3856    0.0000 H   0  0  0  0  0  0  0  0  0  0  0  0
   -0.0000   -0.0000    0.0000 C   0  0  0  0  0  0  0  0  0  0  0  0
    0.8000   -1.3857    0.0000 C   0  0  0  0  0  0  0  0  0  0  0  0
    2.4000   -1.3857    0.0000 Cl  0  0  0  0  0  0  0  0  0  0  0  0
   -0.0000   -2.7713    0.0000 C   0  0  0  0  0  0  0  0  0  0  0  0
    0.8000   -4.1569    0.0000 Cl  0  0  0  0  0  0  0  0  0  0  0  0
   -1.6000   -2.7713    0.0000 C   0  0  0  0  0  0  0  0  0  0  0  0
   -2.4000   -4.1569    0.0000 Cl  0  0  0  0  0  0  0  0  0  0  0  0
   -2.4000   -1.3856    0.0000 C   0  0  0  0  0  0  0  0  0  0  0  0
   -4.0000   -1.3856    0.0000 H   0  0  0  0  0  0  0  0  0  0  0  0
   -1.6000   -0.0000    0.0000 C   0  0  0  0  0  0  0  0  0  0  0  0
   -2.4000    1.3856    0.0000 Cl  0  0  0  0  0  0  0  0  0  0  0  0
  1  2  1  0  0  0  0
  1  3  1  0  0  0  0
  3  4  1  0  0  0  0
  4  5  1  0  0  0  0
  4  6  2  0  0  0  0
  6  7  1  0  0  0  0
  6  8  1  0  0  0  0
  8  9  1  0  0  0  0
  8 10  2  0  0  0  0
 10 11  1  0  0  0  0
 10 12  1  0  0  0  0
 12  3  2  0  0  0  0
 12 13  1  0  0  0  0
M  END
> <ChemID>
100022

> <source_casrn>
58-90-2

> <CAS>
58-90-2

> <SMILES>
Oc1c(Cl)cc(Cl)c(Cl)c1Cl

> <NAME>
2,3,4,6-TETRACHLOROPHENOL

> <preferred_name>
2,3,4,6-Tetrachlorophenol

> <iupac>
2,3,4,6-tetrachlorophenol

> <MPID>
99299

> <dsstox_substance_id>
DTXSID9021716

> <Canonical_QSARr>
Oc1c(Cl)cc(Cl)c(Cl)c1Cl

> <InChI_Code_QSARr>
InChI=1S/C6H2Cl4O/c7-2-1-3(8)6(11)5(10)4(2)9/h1,11H

> <InChI Key_QSARr>
VGVRPFIJEJYOFN-UHFFFAOYSA-N

> <LogKOC>
3.35

$$$$
100023
  -INDIGO-08031722282D

 26 27  0  0  0  0  0  0  0  0999 V2000
    4.8001    0.0000    0.0000 N   0  0  0  0  0  0  0  0  0  0  0  0
    5.5999    1.3856    0.0000 N   0  0  0  0  0  0  0  0  0  0  0  0
    7.2000    1.3856    0.0000 C   0  0  0  0  0  0  0  0  0  0  0  0
    8.0000    0.0000    0.0000 C   0  0  0  0  0  0  0  0  0  0  0  0
    7.2000   -1.3856    0.0000 H   0  0  0  0  0  0  0  0  0  0  0  0
    9.6001    0.0000    0.0000 C   0  0  0  0  0  0  0  0  0  0  0  0
   10.3999   -1.3856    0.0000 H   0  0  0  0  0  0  0  0  0  0  0  0
   10.3999    1.3856    0.0000 C   0  0  0  0  0  0  0  0  0  0  0  0
   12.0000    1.3856    0.0000 H   0  0  0  0  0  0  0  0  0  0  0  0
    9.6001    2.7713    0.0000 C   0  0  0  0  0  0  0  0  0  0  0  0
   10.3999    4.1569    0.0000 H   0  0  0  0  0  0  0  0  0  0  0  0
    8.0000    2.7713    0.0000 C   0  0  0  0  0  0  0  0  0  0  0  0
    7.2000    4.1569    0.0000 H   0  0  0  0  0  0  0  0  0  0  0  0
    3.2000    0.0000    0.0000 C   0  0  0  0  0  0  0  0  0  0  0  0
    2.4000    1.3856    0.0000 C   0  0  0  0  0  0  0  0  0  0  0  0
    3.2000    2.7713    0.0000 H   0  0  0  0  0  0  0  0  0  0  0  0
    0.7999    1.3856    0.0000 C   0  0  0  0  0  0  0  0  0  0  0  0
    0.0001    2.7713    0.0000 H   0  0  0  0  0  0  0  0  0  0  0  0
    0.0001    0.0000    0.0000 C   0  0  0  0  0  0  0  0  0  0  0  0
   -1.6000    0.0000    0.0000 N   0  0  0  0  0  0  0  0  0  0  0  0
   -2.4000   -1.3856    0.0000 H   0  0  0  0  0  0  0  0  0  0  0  0
   -2.4000    1.3856    0.0000 H   0  0  0  0  0  0  0  0  0  0  0  0
    0.7999   -1.3856    0.0000 C   0  0  0  0  0  0  0  0  0  0  0  0
    0.0001   -2.7713    0.0000 H   0  0  0  0  0  0  0  0  0  0  0  0
    2.4000   -1.3856    0.0000 C   0  0  0  0  0  0  0  0  0  0  0  0
    3.2000   -2.7713    0.0000 H   0  0  0  0  0  0  0  0  0  0  0  0
  1  2  2  0  0  0  0
  2  3  1  0  0  0  0
  3  4  1  0  0  0  0
  4  5  1  0  0  0  0
  4  6  2  0  0  0  0
  6  7  1  0  0  0  0
  6  8  1  0  0  0  0
  8  9  1  0  0  0  0
  8 10  2  0  0  0  0
 10 11  1  0  0  0  0
 10 12  1  0  0  0  0
 12  3  2  0  0  0  0
 12 13  1  0  0  0  0
  1 14  1  0  0  0  0
 14 15  1  0  0  0  0
 15 16  1  0  0  0  0
 15 17  2  0  0  0  0
 17 18  1  0  0  0  0
 17 19  1  0  0  0  0
 19 20  1  0  0  0  0
 20 21  1  0  0  0  0
 20 22  1  0  0  0  0
 19 23  2  0  0  0  0
 23 24  1  0  0  0  0
 23 25  1  0  0  0  0
 25 14  2  0  0  0  0
 25 26  1  0  0  0  0
M  END
> <ChemID>
100023

> <source_casrn>
60-09-3

> <CAS>
60-09-3

> <SMILES>
Nc1ccc(cc1)/N=N/c1ccccc1

> <NAME>
P-PHENYLAZOANILINE

> <preferred_name>
4-Aminoazobenzene

> <iupac>
4-[(E)-phenyldiazenyl]aniline

> <MPID>
99300

> <dsstox_substance_id>
DTXSID6024460

> <Canonical_QSARr>
Nc1ccc(cc1)N=Nc1ccccc1

> <InChI_Code_QSARr>
InChI=1S/C12H11N3/c13-10-6-8-12(9-7-10)15-14-11-4-2-1-3-5-11/h1-9H,13H2/b15-14+

> <InChI Key_QSARr>
QPQKUYVSJWQSDY-CCEZHUSRSA-N

> <LogKOC>
2.79

$$$$
100025
  -INDIGO-08031722282D

 19 19  0  0  0  0  0  0  0  0999 V2000
   -1.3857   -0.8000    0.0000 C   0  0  0  0  0  0  0  0  0  0  0  0
   -1.3857   -2.4000    0.0000 C   0  0  0  0  0  0  0  0  0  0  0  0
    0.0001   -3.2000    0.0000 H   0  0  0  0  0  0  0  0  0  0  0  0
   -2.7713   -3.2000    0.0000 C   0  0  0  0  0  0  0  0  0  0  0  0
   -2.7713   -4.8000    0.0000 H   0  0  0  0  0  0  0  0  0  0  0  0
   -4.1569   -2.4000    0.0000 C   0  0  0  0  0  0  0  0  0  0  0  0
   -5.5426   -3.2000    0.0000 H   0  0  0  0  0  0  0  0  0  0  0  0
   -4.1569   -0.8000    0.0000 C   0  0  0  0  0  0  0  0  0  0  0  0
   -5.5426   -0.0000    0.0000 H   0  0  0  0  0  0  0  0  0  0  0  0
   -2.7713   -0.0000    0.0000 C   0  0  0  0  0  0  0  0  0  0  0  0
   -2.7713    1.6000    0.0000 H   0  0  0  0  0  0  0  0  0  0  0  0
    0.0001   -0.0000    0.0000 C   0  0  0  0  0  0  0  0  0  0  0  0
    0.6124    1.4782    0.0000 H   0  0  0  0  0  0  0  0  0  0  0  0
   -0.6122    1.4782    0.0000 H   0  0  0  0  0  0  0  0  0  0  0  0
    1.3857   -0.8000    0.0000 C   0  0  0  0  0  0  0  0  0  0  0  0
    0.7734   -2.2782    0.0000 H   0  0  0  0  0  0  0  0  0  0  0  0
    1.9980   -2.2782    0.0000 H   0  0  0  0  0  0  0  0  0  0  0  0
    2.7713   -0.0000    0.0000 O   0  0  0  0  0  0  0  0  0  0  0  0
    4.1569   -0.8000    0.0000 H   0  0  0  0  0  0  0  0  0  0  0  0
  1  2  1  0  0  0  0
  2  3  1  0  0  0  0
  2  4  2  0  0  0  0
  4  5  1  0  0  0  0
  4  6  1  0  0  0  0
  6  7  1  0  0  0  0
  6  8  2  0  0  0  0
  8  9  1  0  0  0  0
  8 10  1  0  0  0  0
 10  1  2  0  0  0  0
 10 11  1  0  0  0  0
  1 12  1  0  0  0  0
 12 13  1  0  0  0  0
 12 14  1  0  0  0  0
 12 15  1  0  0  0  0
 15 16  1  0  0  0  0
 15 17  1  0  0  0  0
 15 18  1  0  0  0  0
 18 19  1  0  0  0  0
M  END
> <ChemID>
100025

> <source_casrn>
60-12-8

> <CAS>
60-12-8

> <SMILES>
OCCc1ccccc1

> <NAME>
2-PHENYLETHANOL

> <preferred_name>
2-Phenylethanol

> <iupac>
2-phenylethanol

> <MPID>
99302

> <dsstox_substance_id>
DTXSID9026342

> <Canonical_QSARr>
OCCc1ccccc1

> <InChI_Code_QSARr>
InChI=1S/C8H10O/c9-7-6-8-4-2-1-3-5-8/h1-5,9H,6-7H2

> <InChI Key_QSARr>
WRMNZCZEMHIOCP-UHFFFAOYSA-N

> <LogKOC>
1.5

$$$$
100026
  -INDIGO-08031722282D

  9  8  0  0  0  0  0  0  0  0999 V2000
   -0.0000    0.0000    0.0000 C   0  0  0  0  0  0  0  0  0  0  0  0
    1.3856    0.8000    0.0000 H   0  0  0  0  0  0  0  0  0  0  0  0
   -0.0000    1.6000    0.0000 H   0  0  0  0  0  0  0  0  0  0  0  0
    1.3856   -0.8000    0.0000 H   0  0  0  0  0  0  0  0  0  0  0  0
   -1.3856   -0.8000    0.0000 C   0  0  0  0  0  0  0  0  0  0  0  0
   -1.3856   -2.4000    0.0000 O   0  0  0  0  0  0  0  0  0  0  0  0
   -2.7713    0.0000    0.0000 N   0  0  0  0  0  0  0  0  0  0  0  0
   -4.1569   -0.8000    0.0000 H   0  0  0  0  0  0  0  0  0  0  0  0
   -2.7713    1.6000    0.0000 H   0  0  0  0  0  0  0  0  0  0  0  0
  1  2  1  0  0  0  0
  1  3  1  0  0  0  0
  1  4  1  0  0  0  0
  1  5  1  0  0  0  0
  5  6  2  0  0  0  0
  5  7  1  0  0  0  0
  7  8  1  0  0  0  0
  7  9  1  0  0  0  0
M  END
> <ChemID>
100026

> <source_casrn>
60-35-5

> <CAS>
60-35-5

> <SMILES>
CC(N)=O

> <NAME>
ACETAMIDE

> <preferred_name>
Acetamide

> <iupac>
acetamide

> <MPID>
99303

> <dsstox_substance_id>
DTXSID7020005

> <Canonical_QSARr>
CC(N)=O

> <InChI_Code_QSARr>
InChI=1S/C2H5NO/c1-2(3)4/h1H3,(H2,3,4)

> <InChI Key_QSARr>
DLFVBJFMPXGRIB-UHFFFAOYSA-N

> <LogKOC>
0.7

$$$$
100027
  -INDIGO-08031722282D

 24 23  0  0  0  0  0  0  0  0999 V2000
    0.0000   -1.5999    0.0000 S   0  0  0  0  0  0  0  0  0  0  0  0
    0.0000    0.0001    0.0000 P   0  0  0  0  0  0  0  0  0  0  0  0
    1.3857    0.8000    0.0000 S   0  0  0  0  0  0  0  0  0  0  0  0
    2.7714    0.0001    0.0000 C   0  0  0  0  0  0  0  0  0  0  0  0
    3.3835   -1.4782    0.0000 H   0  0  0  0  0  0  0  0  0  0  0  0
    2.1590   -1.4782    0.0000 H   0  0  0  0  0  0  0  0  0  0  0  0
    4.1569    0.8000    0.0000 C   0  0  0  0  0  0  0  0  0  0  0  0
    4.1569    2.4000    0.0000 O   0  0  0  0  0  0  0  0  0  0  0  0
    5.5425    0.0001    0.0000 N   0  0  0  0  0  0  0  0  0  0  0  0
    5.5425   -1.5999    0.0000 H   0  0  0  0  0  0  0  0  0  0  0  0
    6.9282    0.8000    0.0000 C   0  0  0  0  0  0  0  0  0  0  0  0
    8.3138    1.6001    0.0000 H   0  0  0  0  0  0  0  0  0  0  0  0
    8.3138    0.0001    0.0000 H   0  0  0  0  0  0  0  0  0  0  0  0
    6.9282    2.4000    0.0000 H   0  0  0  0  0  0  0  0  0  0  0  0
   -1.3856   -0.8000    0.0000 O   0  0  0  0  0  0  0  0  0  0  0  0
   -1.3856   -2.4000    0.0000 C   0  0  0  0  0  0  0  0  0  0  0  0
   -1.3856   -4.0000    0.0000 H   0  0  0  0  0  0  0  0  0  0  0  0
   -2.7713   -3.2001    0.0000 H   0  0  0  0  0  0  0  0  0  0  0  0
    0.0000   -3.2001    0.0000 H   0  0  0  0  0  0  0  0  0  0  0  0
   -1.3856    0.8000    0.0000 O   0  0  0  0  0  0  0  0  0  0  0  0
   -1.3856    2.4000    0.0000 C   0  0  0  0  0  0  0  0  0  0  0  0
   -1.3856    4.0000    0.0000 H   0  0  0  0  0  0  0  0  0  0  0  0
   -2.7713    3.2001    0.0000 H   0  0  0  0  0  0  0  0  0  0  0  0
    0.0000    3.2001    0.0000 H   0  0  0  0  0  0  0  0  0  0  0  0
  1  2  2  0  0  0  0
  2  3  1  0  0  0  0
  3  4  1  0  0  0  0
  4  5  1  0  0  0  0
  4  6  1  0  0  0  0
  4  7  1  0  0  0  0
  7  8  2  0  0  0  0
  7  9  1  0  0  0  0
  9 10  1  0  0  0  0
  9 11  1  0  0  0  0
 11 12  1  0  0  0  0
 11 13  1  0  0  0  0
 11 14  1  0  0  0  0
  2 15  1  0  0  0  0
 15 16  1  0  0  0  0
 16 17  1  0  0  0  0
 16 18  1  0  0  0  0
 16 19  1  0  0  0  0
  2 20  1  0  0  0  0
 20 21  1  0  0  0  0
 21 22  1  0  0  0  0
 21 23  1  0  0  0  0
 21 24  1  0  0  0  0
M  END
> <ChemID>
100027

> <source_casrn>
60-51-5

> <CAS>
60-51-5

> <SMILES>
CNC(=O)CSP(=S)(OC)OC

> <NAME>
DIMETHOATE

> <preferred_name>
Dimethoate

> <iupac>
O,O-dimethyl S-[2-(methylamino)-2-oxoethyl] phosphorodithioate

> <MPID>
99304

> <dsstox_substance_id>
DTXSID7020479

> <Canonical_QSARr>
CNC(=O)CSP(=S)(OC)OC

> <InChI_Code_QSARr>
InChI=1S/C5H12NO3PS2/c1-6-5(7)4-12-10(11,8-2)9-3/h4H2,1-3H3,(H,6,7)

> <InChI Key_QSARr>
MCWXGJITAZMZEV-UHFFFAOYSA-N

> <LogKOC>
1.2

$$$$
100029
  -INDIGO-08031722282D

 10 10  0  0  0  0  0  0  0  0999 V2000
    0.0000    0.0000    0.0000 C   0  0  0  0  0  0  0  0  0  0  0  0
    1.0706    1.1890    0.0000 N   0  0  0  0  0  0  0  0  0  0  0  0
    2.5322    0.5382    0.0000 C   0  0  0  0  0  0  0  0  0  0  0  0
    3.9179    1.3383    0.0000 H   0  0  0  0  0  0  0  0  0  0  0  0
    2.3650   -1.0530    0.0000 N   0  0  0  0  0  0  0  0  0  0  0  0
    3.5541   -2.1236    0.0000 H   0  0  0  0  0  0  0  0  0  0  0  0
    0.8000   -1.3856    0.0000 N   0  0  0  0  0  0  0  0  0  0  0  0
   -1.5912    0.1673    0.0000 N   0  0  0  0  0  0  0  0  0  0  0  0
   -2.5317   -1.1272    0.0000 H   0  0  0  0  0  0  0  0  0  0  0  0
   -2.2421    1.6289    0.0000 H   0  0  0  0  0  0  0  0  0  0  0  0
  1  2  1  0  0  0  0
  2  3  2  0  0  0  0
  3  4  1  0  0  0  0
  3  5  1  0  0  0  0
  5  6  1  0  0  0  0
  5  7  1  0  0  0  0
  7  1  2  0  0  0  0
  1  8  1  0  0  0  0
  8  9  1  0  0  0  0
  8 10  1  0  0  0  0
M  END
> <ChemID>
100029

> <source_casrn>
61-82-5

> <CAS>
61-82-5

> <SMILES>
Nc1[n]c[nH][n]1

> <NAME>
AMITROLE

> <preferred_name>
Amitrole

> <iupac>
1H-1,2,4-triazol-3-amine

> <MPID>
99306

> <dsstox_substance_id>
DTXSID0020076

> <Canonical_QSARr>
Nc1[n]c[nH][n]1

> <InChI_Code_QSARr>
InChI=1S/C2H4N4/c3-2-4-1-5-6-2/h1H,(H3,3,4,5,6)

> <InChI Key_QSARr>
KLSJWNVTNUYHDU-UHFFFAOYSA-N

> <LogKOC>
1.25

$$$$
100030
  -INDIGO-08031722282D

 14 14  0  0  0  0  0  0  0  0999 V2000
    1.6000   -0.0000    0.0000 N   0  0  0  0  0  0  0  0  0  0  0  0
    2.4000    1.3856    0.0000 H   0  0  0  0  0  0  0  0  0  0  0  0
    2.4000   -1.3856    0.0000 H   0  0  0  0  0  0  0  0  0  0  0  0
    0.0000   -0.0000    0.0000 C   0  0  0  0  0  0  0  0  0  0  0  0
   -0.8000    1.3856    0.0000 C   0  0  0  0  0  0  0  0  0  0  0  0
    0.0000    2.7713    0.0000 H   0  0  0  0  0  0  0  0  0  0  0  0
   -2.4000    1.3856    0.0000 C   0  0  0  0  0  0  0  0  0  0  0  0
   -3.2000    2.7713    0.0000 H   0  0  0  0  0  0  0  0  0  0  0  0
   -3.2000   -0.0000    0.0000 C   0  0  0  0  0  0  0  0  0  0  0  0
   -4.8000   -0.0000    0.0000 H   0  0  0  0  0  0  0  0  0  0  0  0
   -2.4000   -1.3856    0.0000 C   0  0  0  0  0  0  0  0  0  0  0  0
   -3.2000   -2.7713    0.0000 H   0  0  0  0  0  0  0  0  0  0  0  0
   -0.8000   -1.3856    0.0000 C   0  0  0  0  0  0  0  0  0  0  0  0
    0.0000   -2.7713    0.0000 H   0  0  0  0  0  0  0  0  0  0  0  0
  1  2  1  0  0  0  0
  1  3  1  0  0  0  0
  1  4  1  0  0  0  0
  4  5  1  0  0  0  0
  5  6  1  0  0  0  0
  5  7  2  0  0  0  0
  7  8  1  0  0  0  0
  7  9  1  0  0  0  0
  9 10  1  0  0  0  0
  9 11  2  0  0  0  0
 11 12  1  0  0  0  0
 11 13  1  0  0  0  0
 13  4  2  0  0  0  0
 13 14  1  0  0  0  0
M  END
> <ChemID>
100030

> <source_casrn>
62-53-3

> <CAS>
62-53-3

> <SMILES>
Nc1ccccc1

> <NAME>
ANILINE

> <preferred_name>
Aniline

> <iupac>
aniline

> <MPID>
99307

> <dsstox_substance_id>
DTXSID8020090

> <Canonical_QSARr>
Nc1ccccc1

> <InChI_Code_QSARr>
InChI=1S/C6H7N/c7-6-4-2-1-3-5-6/h1-5H,7H2

> <InChI Key_QSARr>
PAYRUJLWNCNPSJ-UHFFFAOYSA-N

> <LogKOC>
1.6

$$$$
100031
  -INDIGO-08031722282D

  9  8  0  0  0  0  0  0  0  0999 V2000
   -0.0000    0.0000    0.0000 C   0  0  0  0  0  0  0  0  0  0  0  0
    1.3856    0.8000    0.0000 H   0  0  0  0  0  0  0  0  0  0  0  0
   -0.0000    1.6000    0.0000 H   0  0  0  0  0  0  0  0  0  0  0  0
    1.3856   -0.8000    0.0000 H   0  0  0  0  0  0  0  0  0  0  0  0
   -1.3856   -0.8000    0.0000 C   0  0  0  0  0  0  0  0  0  0  0  0
   -1.3856   -2.4000    0.0000 S   0  0  0  0  0  0  0  0  0  0  0  0
   -2.7713    0.0000    0.0000 N   0  0  0  0  0  0  0  0  0  0  0  0
   -4.1569   -0.8000    0.0000 H   0  0  0  0  0  0  0  0  0  0  0  0
   -2.7713    1.6000    0.0000 H   0  0  0  0  0  0  0  0  0  0  0  0
  1  2  1  0  0  0  0
  1  3  1  0  0  0  0
  1  4  1  0  0  0  0
  1  5  1  0  0  0  0
  5  6  2  0  0  0  0
  5  7  1  0  0  0  0
  7  8  1  0  0  0  0
  7  9  1  0  0  0  0
M  END
> <ChemID>
100031

> <source_casrn>
62-55-5

> <CAS>
62-55-5

> <SMILES>
CC(N)=S

> <NAME>
THIOACETAMIDE

> <preferred_name>
Thioacetamide

> <iupac>
ethanethioamide

> <MPID>
99308

> <dsstox_substance_id>
DTXSID9021340

> <Canonical_QSARr>
CC(N)=S

> <InChI_Code_QSARr>
InChI=1S/C2H5NS/c1-2(3)4/h1H3,(H2,3,4)

> <InChI Key_QSARr>
YUKQRDCYNOVPGJ-UHFFFAOYSA-N

> <LogKOC>
0.78

$$$$
100033
  -INDIGO-08031722282D

 18 17  0  0  0  0  0  0  0  0999 V2000
   -0.8000    1.3856    0.0000 O   0  0  0  0  0  0  0  0  0  0  0  0
    0.0000    0.0000    0.0000 P   0  0  0  0  0  0  0  0  0  0  0  0
    1.6000    0.0000    0.0000 O   0  0  0  0  0  0  0  0  0  0  0  0
    2.4000   -1.3856    0.0000 C   0  0  0  0  0  0  0  0  0  0  0  0
    1.6000   -2.7713    0.0000 H   0  0  0  0  0  0  0  0  0  0  0  0
    4.0000   -1.3856    0.0000 C   0  0  0  0  0  0  0  0  0  0  0  0
    4.8000   -2.7713    0.0000 Cl  0  0  0  0  0  0  0  0  0  0  0  0
    4.8000    0.0000    0.0000 Cl  0  0  0  0  0  0  0  0  0  0  0  0
    0.8000    1.3856    0.0000 O   0  0  0  0  0  0  0  0  0  0  0  0
    0.0000    2.7713    0.0000 C   0  0  0  0  0  0  0  0  0  0  0  0
    0.8000    4.1569    0.0000 H   0  0  0  0  0  0  0  0  0  0  0  0
   -0.8000    4.1569    0.0000 H   0  0  0  0  0  0  0  0  0  0  0  0
   -1.6000    2.7713    0.0000 H   0  0  0  0  0  0  0  0  0  0  0  0
   -0.8000   -1.3856    0.0000 O   0  0  0  0  0  0  0  0  0  0  0  0
   -2.4001   -1.3856    0.0000 C   0  0  0  0  0  0  0  0  0  0  0  0
   -4.0000   -1.3856    0.0000 H   0  0  0  0  0  0  0  0  0  0  0  0
   -3.2000   -2.7713    0.0000 H   0  0  0  0  0  0  0  0  0  0  0  0
   -3.2000    0.0000    0.0000 H   0  0  0  0  0  0  0  0  0  0  0  0
  1  2  2  0  0  0  0
  2  3  1  0  0  0  0
  3  4  1  0  0  0  0
  4  5  1  0  0  0  0
  4  6  2  0  0  0  0
  6  7  1  0  0  0  0
  6  8  1  0  0  0  0
  2  9  1  0  0  0  0
  9 10  1  0  0  0  0
 10 11  1  0  0  0  0
 10 12  1  0  0  0  0
 10 13  1  0  0  0  0
  2 14  1  0  0  0  0
 14 15  1  0  0  0  0
 15 16  1  0  0  0  0
 15 17  1  0  0  0  0
 15 18  1  0  0  0  0
M  END
> <ChemID>
100033

> <source_casrn>
62-73-7

> <CAS>
62-73-7

> <SMILES>
COP(=O)(OC=C(Cl)Cl)OC

> <NAME>
DICHLORVOS

> <preferred_name>
Dichlorvos

> <iupac>
2,2-dichloroethenyl dimethyl phosphate

> <MPID>
99310

> <dsstox_substance_id>
DTXSID5020449

> <Canonical_QSARr>
COP(=O)(OC=C(Cl)Cl)OC

> <InChI_Code_QSARr>
InChI=1S/C4H7Cl2O4P/c1-8-11(7,9-2)10-3-4(5)6/h3H,1-2H3

> <InChI Key_QSARr>
OEBRKCOSUFCWJD-UHFFFAOYSA-N

> <LogKOC>
1.67

$$$$
100034
  -INDIGO-08031722282D

 26 27  0  0  0  0  0  0  0  0999 V2000
   -4.8000    0.0001    0.0000 O   0  0  0  0  0  0  0  0  0  0  0  0
   -3.9999    1.3856    0.0000 C   0  0  0  0  0  0  0  0  0  0  0  0
   -2.3999    1.3856    0.0000 O   0  0  0  0  0  0  0  0  0  0  0  0
   -1.5999    0.0001    0.0000 C   0  0  0  0  0  0  0  0  0  0  0  0
   -0.0001    0.0001    0.0000 C   0  0  0  0  0  0  0  0  0  0  0  0
    0.7999   -1.3856    0.0000 C   0  0  0  0  0  0  0  0  0  0  0  0
    2.4000   -1.3856    0.0000 C   0  0  0  0  0  0  0  0  0  0  0  0
    3.2000   -2.7712    0.0000 H   0  0  0  0  0  0  0  0  0  0  0  0
    3.2000    0.0001    0.0000 C   0  0  0  0  0  0  0  0  0  0  0  0
    4.8000    0.0001    0.0000 H   0  0  0  0  0  0  0  0  0  0  0  0
    2.4000    1.3856    0.0000 C   0  0  0  0  0  0  0  0  0  0  0  0
    3.2000    2.7712    0.0000 H   0  0  0  0  0  0  0  0  0  0  0  0
    0.7999    1.3856    0.0000 C   0  0  0  0  0  0  0  0  0  0  0  0
   -0.0001    2.7713    0.0000 H   0  0  0  0  0  0  0  0  0  0  0  0
   -0.0001   -2.7712    0.0000 C   0  0  0  0  0  0  0  0  0  0  0  0
    0.7999   -4.1569    0.0000 H   0  0  0  0  0  0  0  0  0  0  0  0
   -1.5999   -2.7712    0.0000 C   0  0  0  0  0  0  0  0  0  0  0  0
   -2.3999   -4.1569    0.0000 H   0  0  0  0  0  0  0  0  0  0  0  0
   -2.3999   -1.3856    0.0000 C   0  0  0  0  0  0  0  0  0  0  0  0
   -3.9999   -1.3856    0.0000 H   0  0  0  0  0  0  0  0  0  0  0  0
   -4.8000    2.7713    0.0000 N   0  0  0  0  0  0  0  0  0  0  0  0
   -3.9999    4.1569    0.0000 H   0  0  0  0  0  0  0  0  0  0  0  0
   -6.4000    2.7713    0.0000 C   0  0  0  0  0  0  0  0  0  0  0  0
   -8.0000    2.7713    0.0000 H   0  0  0  0  0  0  0  0  0  0  0  0
   -7.2000    4.1569    0.0000 H   0  0  0  0  0  0  0  0  0  0  0  0
   -7.2000    1.3856    0.0000 H   0  0  0  0  0  0  0  0  0  0  0  0
  1  2  2  0  0  0  0
  2  3  1  0  0  0  0
  3  4  1  0  0  0  0
  4  5  1  0  0  0  0
  5  6  1  0  0  0  0
  6  7  2  0  0  0  0
  7  8  1  0  0  0  0
  7  9  1  0  0  0  0
  9 10  1  0  0  0  0
  9 11  2  0  0  0  0
 11 12  1  0  0  0  0
 11 13  1  0  0  0  0
 13  5  2  0  0  0  0
 13 14  1  0  0  0  0
  6 15  1  0  0  0  0
 15 16  1  0  0  0  0
 15 17  2  0  0  0  0
 17 18  1  0  0  0  0
 17 19  1  0  0  0  0
 19  4  2  0  0  0  0
 19 20  1  0  0  0  0
  2 21  1  0  0  0  0
 21 22  1  0  0  0  0
 21 23  1  0  0  0  0
 23 24  1  0  0  0  0
 23 25  1  0  0  0  0
 23 26  1  0  0  0  0
M  END
> <ChemID>
100034

> <source_casrn>
63-25-2

> <CAS>
63-25-2

> <SMILES>
O=C(Oc(c(c(ccc1)cc2)c1)c2)NC

> <NAME>
1-NAPHTHYL-N-METHYLCARBAMATE

> <preferred_name>
Carbaryl

> <iupac>
naphthalen-1-yl methylcarbamate

> <MPID>
99311

> <dsstox_substance_id>
DTXSID9020247

> <Canonical_QSARr>
CNC(=O)Oc1cccc2ccccc21

> <InChI_Code_QSARr>
InChI=1S/C12H11NO2/c1-13-12(14)15-11-8-4-6-9-5-2-3-7-10(9)11/h2-8H,1H3,(H,13,14)

> <InChI Key_QSARr>
CVXBEEMKQHEXEN-UHFFFAOYSA-N

> <LogKOC>
2.4

$$$$
100035
  -INDIGO-08031722282D

 21 21  0  0  0  0  0  0  0  0999 V2000
   -2.7712   -0.0000    0.0000 C   0  0  0  0  0  0  0  0  0  0  0  0
   -1.3857    0.8000    0.0000 C   0  0  0  0  0  0  0  0  0  0  0  0
   -1.3857    2.4000    0.0000 H   0  0  0  0  0  0  0  0  0  0  0  0
   -0.0000   -0.0000    0.0000 C   0  0  0  0  0  0  0  0  0  0  0  0
    1.3856    0.8000    0.0000 C   0  0  0  0  0  0  0  0  0  0  0  0
    2.7713    1.6000    0.0000 H   0  0  0  0  0  0  0  0  0  0  0  0
    2.7713   -0.0000    0.0000 H   0  0  0  0  0  0  0  0  0  0  0  0
    1.3856    2.4000    0.0000 H   0  0  0  0  0  0  0  0  0  0  0  0
   -0.0000   -1.6000    0.0000 C   0  0  0  0  0  0  0  0  0  0  0  0
    1.3856   -2.4000    0.0000 H   0  0  0  0  0  0  0  0  0  0  0  0
   -1.3857   -2.4000    0.0000 C   0  0  0  0  0  0  0  0  0  0  0  0
   -1.3857   -4.0000    0.0000 H   0  0  0  0  0  0  0  0  0  0  0  0
   -2.7712   -1.6000    0.0000 C   0  0  0  0  0  0  0  0  0  0  0  0
   -4.1569   -2.4000    0.0000 H   0  0  0  0  0  0  0  0  0  0  0  0
   -4.1569    0.8000    0.0000 N   0  0  0  0  0  0  0  0  0  0  0  0
   -4.1569    2.4000    0.0000 H   0  0  0  0  0  0  0  0  0  0  0  0
   -5.5425   -0.0000    0.0000 C   0  0  0  0  0  0  0  0  0  0  0  0
   -6.9282    0.8000    0.0000 N   0  0  0  0  0  0  0  0  0  0  0  0
   -8.3138   -0.0000    0.0000 H   0  0  0  0  0  0  0  0  0  0  0  0
   -6.9282    2.4000    0.0000 H   0  0  0  0  0  0  0  0  0  0  0  0
   -5.5425   -1.6000    0.0000 O   0  0  0  0  0  0  0  0  0  0  0  0
  1  2  1  0  0  0  0
  2  3  1  0  0  0  0
  2  4  2  0  0  0  0
  4  5  1  0  0  0  0
  5  6  1  0  0  0  0
  5  7  1  0  0  0  0
  5  8  1  0  0  0  0
  4  9  1  0  0  0  0
  9 10  1  0  0  0  0
  9 11  2  0  0  0  0
 11 12  1  0  0  0  0
 11 13  1  0  0  0  0
 13  1  2  0  0  0  0
 13 14  1  0  0  0  0
  1 15  1  0  0  0  0
 15 16  1  0  0  0  0
 15 17  1  0  0  0  0
 17 18  1  0  0  0  0
 18 19  1  0  0  0  0
 18 20  1  0  0  0  0
 17 21  2  0  0  0  0
M  END
> <ChemID>
100035

> <source_casrn>
63-99-0

> <CAS>
63-99-0

> <SMILES>
Cc1cc(ccc1)NC(N)=O

> <NAME>
M-TOLYLUREA

> <preferred_name>
Urea, (3-methylphenyl)-

> <iupac>
(3-Methylphenyl)urea

> <MPID>
99312

> <dsstox_substance_id>
DTXSID1075351

> <Canonical_QSARr>
Cc1cc(ccc1)NC(N)=O

> <InChI_Code_QSARr>
InChI=1S/C8H10N2O/c1-6-3-2-4-7(5-6)10-8(9)11/h2-5H,1H3,(H3,9,10,11)

> <InChI Key_QSARr>
UVQVMNIYFXZXCI-UHFFFAOYSA-N

> <LogKOC>
1.56

$$$$
100037
  -INDIGO-08031722282D

  9  8  0  0  0  0  0  0  0  0999 V2000
    1.6000    0.0000    0.0000 C   0  0  0  0  0  0  0  0  0  0  0  0
    3.2000    0.0000    0.0000 H   0  0  0  0  0  0  0  0  0  0  0  0
    2.4000   -1.3856    0.0000 H   0  0  0  0  0  0  0  0  0  0  0  0
    2.4000    1.3856    0.0000 H   0  0  0  0  0  0  0  0  0  0  0  0
   -0.0000    0.0000    0.0000 C   0  0  0  0  0  0  0  0  0  0  0  0
   -0.2089   -1.5863    0.0000 H   0  0  0  0  0  0  0  0  0  0  0  0
   -1.2694   -0.9740    0.0000 H   0  0  0  0  0  0  0  0  0  0  0  0
   -0.8000    1.3856    0.0000 O   0  0  0  0  0  0  0  0  0  0  0  0
   -2.4000    1.3856    0.0000 H   0  0  0  0  0  0  0  0  0  0  0  0
  1  2  1  0  0  0  0
  1  3  1  0  0  0  0
  1  4  1  0  0  0  0
  1  5  1  0  0  0  0
  5  6  1  0  0  0  0
  5  7  1  0  0  0  0
  5  8  1  0  0  0  0
  8  9  1  0  0  0  0
M  END
> <ChemID>
100037

> <source_casrn>
64-17-5

> <CAS>
64-17-5

> <SMILES>
CCO

> <NAME>
ETHANOL

> <preferred_name>
Ethanol

> <iupac>
ethanol

> <MPID>
99314

> <dsstox_substance_id>
DTXSID9020584

> <Canonical_QSARr>
CCO

> <InChI_Code_QSARr>
InChI=1S/C2H6O/c1-2-3/h3H,2H2,1H3

> <InChI Key_QSARr>
LFQSCWFLJHTTHZ-UHFFFAOYSA-N

> <LogKOC>
0.2

$$$$
100038
  -INDIGO-08031722282D

  8  7  0  0  0  0  0  0  0  0999 V2000
   -1.6000    0.0000    0.0000 C   0  0  0  0  0  0  0  0  0  0  0  0
    0.0000    0.0000    0.0000 C   0  0  0  0  0  0  0  0  0  0  0  0
    1.6000    0.0000    0.0000 H   0  0  0  0  0  0  0  0  0  0  0  0
    0.8000    1.3856    0.0000 H   0  0  0  0  0  0  0  0  0  0  0  0
    0.8000   -1.3856    0.0000 H   0  0  0  0  0  0  0  0  0  0  0  0
   -2.4000   -1.3856    0.0000 O   0  0  0  0  0  0  0  0  0  0  0  0
   -2.4000    1.3856    0.0000 O   0  0  0  0  0  0  0  0  0  0  0  0
   -4.0000    1.3856    0.0000 H   0  0  0  0  0  0  0  0  0  0  0  0
  1  2  1  0  0  0  0
  2  3  1  0  0  0  0
  2  4  1  0  0  0  0
  2  5  1  0  0  0  0
  1  6  2  0  0  0  0
  1  7  1  0  0  0  0
  7  8  1  0  0  0  0
M  END
> <ChemID>
100038

> <source_casrn>
64-19-7

> <CAS>
64-19-7

> <SMILES>
CC(O)=O

> <NAME>
ACETIC ACID

> <preferred_name>
Acetic acid

> <iupac>
acetic acid

> <MPID>
99315

> <dsstox_substance_id>
DTXSID5024394

> <Canonical_QSARr>
CC(O)=O

> <InChI_Code_QSARr>
InChI=1S/C2H4O2/c1-2(3)4/h1H3,(H,3,4)

> <InChI Key_QSARr>
QTBSBXVTEAMEQO-UHFFFAOYSA-N

> <LogKOC>
0.0

$$$$
100039
  -INDIGO-08031722282D

 15 15  0  0  0  0  0  0  0  0999 V2000
    2.7713   -0.0000    0.0000 O   0  0  0  0  0  0  0  0  0  0  0  0
    4.1569    0.8000    0.0000 H   0  0  0  0  0  0  0  0  0  0  0  0
    1.3856    0.8000    0.0000 C   0  0  0  0  0  0  0  0  0  0  0  0
    1.3856    2.4000    0.0000 O   0  0  0  0  0  0  0  0  0  0  0  0
    0.0001   -0.0000    0.0000 C   0  0  0  0  0  0  0  0  0  0  0  0
    0.0001   -1.6000    0.0000 C   0  0  0  0  0  0  0  0  0  0  0  0
    1.3856   -2.4000    0.0000 H   0  0  0  0  0  0  0  0  0  0  0  0
   -1.3856   -2.4000    0.0000 C   0  0  0  0  0  0  0  0  0  0  0  0
   -1.3856   -4.0000    0.0000 H   0  0  0  0  0  0  0  0  0  0  0  0
   -2.7712   -1.6000    0.0000 C   0  0  0  0  0  0  0  0  0  0  0  0
   -4.1569   -2.4000    0.0000 H   0  0  0  0  0  0  0  0  0  0  0  0
   -2.7712   -0.0000    0.0000 C   0  0  0  0  0  0  0  0  0  0  0  0
   -4.1569    0.8000    0.0000 H   0  0  0  0  0  0  0  0  0  0  0  0
   -1.3856    0.8000    0.0000 C   0  0  0  0  0  0  0  0  0  0  0  0
   -1.3856    2.4000    0.0000 H   0  0  0  0  0  0  0  0  0  0  0  0
  1  2  1  0  0  0  0
  1  3  1  0  0  0  0
  3  4  2  0  0  0  0
  3  5  1  0  0  0  0
  5  6  1  0  0  0  0
  6  7  1  0  0  0  0
  6  8  2  0  0  0  0
  8  9  1  0  0  0  0
  8 10  1  0  0  0  0
 10 11  1  0  0  0  0
 10 12  2  0  0  0  0
 12 13  1  0  0  0  0
 12 14  1  0  0  0  0
 14  5  2  0  0  0  0
 14 15  1  0  0  0  0
M  END
> <ChemID>
100039

> <source_casrn>
65-85-0

> <CAS>
65-85-0

> <SMILES>
OC(=O)c1ccccc1

> <NAME>
BENZOIC ACID

> <preferred_name>
Benzoic acid

> <iupac>
benzoic acid

> <MPID>
99316

> <dsstox_substance_id>
DTXSID6020143

> <Canonical_QSARr>
OC(=O)c1ccccc1

> <InChI_Code_QSARr>
InChI=1S/C7H6O2/c8-7(9)6-4-2-1-3-5-6/h1-5H,(H,8,9)

> <InChI Key_QSARr>
WPYMKLBDIGXBTP-UHFFFAOYSA-N

> <LogKOC>
1.5

$$$$
100041
  -INDIGO-08031722282D

  6  5  0  0  0  0  0  0  0  0999 V2000
    0.0000    0.0000    0.0000 C   0  0  0  0  0  0  0  0  0  0  0  0
    1.3856    0.8000    0.0000 H   0  0  0  0  0  0  0  0  0  0  0  0
    0.0000    1.6000    0.0000 H   0  0  0  0  0  0  0  0  0  0  0  0
    1.3856   -0.8000    0.0000 H   0  0  0  0  0  0  0  0  0  0  0  0
   -1.3856   -0.8000    0.0000 O   0  0  0  0  0  0  0  0  0  0  0  0
   -2.7713    0.0000    0.0000 H   0  0  0  0  0  0  0  0  0  0  0  0
  1  2  1  0  0  0  0
  1  3  1  0  0  0  0
  1  4  1  0  0  0  0
  1  5  1  0  0  0  0
  5  6  1  0  0  0  0
M  END
> <ChemID>
100041

> <source_casrn>
67-56-1

> <CAS>
67-56-1

> <SMILES>
CO

> <NAME>
METHANOL

> <preferred_name>
Methanol

> <iupac>
methanol

> <MPID>
99318

> <dsstox_substance_id>
DTXSID2021731

> <Canonical_QSARr>
CO

> <InChI_Code_QSARr>
InChI=1S/CH4O/c1-2/h2H,1H3

> <InChI Key_QSARr>
OKKJLVBELUTLKV-UHFFFAOYSA-N

> <LogKOC>
0.44

$$$$
100042
  -INDIGO-08031722282D

  5  4  0  0  0  0  0  0  0  0999 V2000
   -0.8000   -1.3856    0.0000 Cl  0  0  0  0  0  0  0  0  0  0  0  0
    0.0000    0.0000    0.0000 C   0  0  0  0  0  0  0  0  0  0  0  0
    0.8000    1.3856    0.0000 H   0  0  0  0  0  0  0  0  0  0  0  0
   -1.3856    0.8000    0.0000 Cl  0  0  0  0  0  0  0  0  0  0  0  0
    1.3856   -0.8000    0.0000 Cl  0  0  0  0  0  0  0  0  0  0  0  0
  1  2  1  0  0  0  0
  2  3  1  0  0  0  0
  2  4  1  0  0  0  0
  2  5  1  0  0  0  0
M  END
> <ChemID>
100042

> <source_casrn>
67-66-3

> <CAS>
67-66-3

> <SMILES>
ClC(Cl)Cl

> <NAME>
CHLOROFORM

> <preferred_name>
Chloroform

> <iupac>
trichloromethane

> <MPID>
99319

> <dsstox_substance_id>
DTXSID1020306

> <Canonical_QSARr>
ClC(Cl)Cl

> <InChI_Code_QSARr>
InChI=1S/CHCl3/c2-1(3)4/h1H

> <InChI Key_QSARr>
HEDRZPFGACZZDS-UHFFFAOYSA-N

> <LogKOC>
1.6

$$$$
100043
  -INDIGO-08031722282D

 12 11  0  0  0  0  0  0  0  0999 V2000
    2.7713    0.0000    0.0000 O   0  0  0  0  0  0  0  0  0  0  0  0
    4.1569    0.8000    0.0000 H   0  0  0  0  0  0  0  0  0  0  0  0
    1.3856    0.8000    0.0000 C   0  0  0  0  0  0  0  0  0  0  0  0
    0.7733    2.2782    0.0000 H   0  0  0  0  0  0  0  0  0  0  0  0
    1.9980    2.2782    0.0000 H   0  0  0  0  0  0  0  0  0  0  0  0
    0.0000    0.0000    0.0000 C   0  0  0  0  0  0  0  0  0  0  0  0
    0.6123   -1.4782    0.0000 H   0  0  0  0  0  0  0  0  0  0  0  0
   -0.6123   -1.4782    0.0000 H   0  0  0  0  0  0  0  0  0  0  0  0
   -1.3856    0.8000    0.0000 C   0  0  0  0  0  0  0  0  0  0  0  0
   -2.7713    1.6000    0.0000 H   0  0  0  0  0  0  0  0  0  0  0  0
   -2.7713    0.0000    0.0000 H   0  0  0  0  0  0  0  0  0  0  0  0
   -1.3856    2.4000    0.0000 H   0  0  0  0  0  0  0  0  0  0  0  0
  1  2  1  0  0  0  0
  1  3  1  0  0  0  0
  3  4  1  0  0  0  0
  3  5  1  0  0  0  0
  3  6  1  0  0  0  0
  6  7  1  0  0  0  0
  6  8  1  0  0  0  0
  6  9  1  0  0  0  0
  9 10  1  0  0  0  0
  9 11  1  0  0  0  0
  9 12  1  0  0  0  0
M  END
> <ChemID>
100043

> <source_casrn>
71-23-8

> <CAS>
71-23-8

> <SMILES>
CCCO

> <NAME>
1-PROPANOL

> <preferred_name>
1-Propanol

> <iupac>
propan-1-ol

> <MPID>
99320

> <dsstox_substance_id>
DTXSID2021739

> <Canonical_QSARr>
CCCO

> <InChI_Code_QSARr>
InChI=1S/C3H8O/c1-2-3-4/h4H,2-3H2,1H3

> <InChI Key_QSARr>
BDERNNFJNOPAEC-UHFFFAOYSA-N

> <LogKOC>
0.48

$$$$
100045
  -INDIGO-08031722282D

 18 17  0  0  0  0  0  0  0  0999 V2000
    2.7713   -0.0000    0.0000 C   0  0  0  0  0  0  0  0  0  0  0  0
    4.1569   -0.8000    0.0000 H   0  0  0  0  0  0  0  0  0  0  0  0
    4.1569    0.8000    0.0000 H   0  0  0  0  0  0  0  0  0  0  0  0
    2.7713   -1.6000    0.0000 H   0  0  0  0  0  0  0  0  0  0  0  0
    1.3857    0.8000    0.0000 C   0  0  0  0  0  0  0  0  0  0  0  0
    1.9980    2.2782    0.0000 H   0  0  0  0  0  0  0  0  0  0  0  0
    0.7734    2.2782    0.0000 H   0  0  0  0  0  0  0  0  0  0  0  0
    0.0001   -0.0000    0.0000 C   0  0  0  0  0  0  0  0  0  0  0  0
   -0.6122   -1.4782    0.0000 H   0  0  0  0  0  0  0  0  0  0  0  0
    0.6124   -1.4782    0.0000 H   0  0  0  0  0  0  0  0  0  0  0  0
   -1.3857    0.8000    0.0000 C   0  0  0  0  0  0  0  0  0  0  0  0
   -0.7734    2.2782    0.0000 H   0  0  0  0  0  0  0  0  0  0  0  0
   -1.9980    2.2782    0.0000 H   0  0  0  0  0  0  0  0  0  0  0  0
   -2.7713   -0.0000    0.0000 C   0  0  0  0  0  0  0  0  0  0  0  0
   -3.3836   -1.4782    0.0000 H   0  0  0  0  0  0  0  0  0  0  0  0
   -2.1590   -1.4782    0.0000 H   0  0  0  0  0  0  0  0  0  0  0  0
   -4.1569    0.8000    0.0000 O   0  0  0  0  0  0  0  0  0  0  0  0
   -5.5426   -0.0000    0.0000 H   0  0  0  0  0  0  0  0  0  0  0  0
  1  2  1  0  0  0  0
  1  3  1  0  0  0  0
  1  4  1  0  0  0  0
  1  5  1  0  0  0  0
  5  6  1  0  0  0  0
  5  7  1  0  0  0  0
  5  8  1  0  0  0  0
  8  9  1  0  0  0  0
  8 10  1  0  0  0  0
  8 11  1  0  0  0  0
 11 12  1  0  0  0  0
 11 13  1  0  0  0  0
 11 14  1  0  0  0  0
 14 15  1  0  0  0  0
 14 16  1  0  0  0  0
 14 17  1  0  0  0  0
 17 18  1  0  0  0  0
M  END
> <ChemID>
100045

> <source_casrn>
71-41-0

> <CAS>
71-41-0

> <SMILES>
CCCCCO

> <NAME>
1-PENTANOL

> <preferred_name>
1-Pentanol

> <iupac>
pentan-1-ol

> <MPID>
99322

> <dsstox_substance_id>
DTXSID6021741

> <Canonical_QSARr>
CCCCCO

> <InChI_Code_QSARr>
InChI=1S/C5H12O/c1-2-3-4-5-6/h6H,2-5H2,1H3

> <InChI Key_QSARr>
AMQJEAYHLZJPGS-UHFFFAOYSA-N

> <LogKOC>
0.7

$$$$
100046
  -INDIGO-08031722282D

 12 12  0  0  0  0  0  0  0  0999 V2000
   -0.0000   -0.0000    0.0000 C   0  0  0  0  0  0  0  0  0  0  0  0
    0.8000    1.3856    0.0000 H   0  0  0  0  0  0  0  0  0  0  0  0
    0.8000   -1.3857    0.0000 C   0  0  0  0  0  0  0  0  0  0  0  0
    2.4000   -1.3857    0.0000 H   0  0  0  0  0  0  0  0  0  0  0  0
   -0.0000   -2.7713    0.0000 C   0  0  0  0  0  0  0  0  0  0  0  0
    0.8000   -4.1569    0.0000 H   0  0  0  0  0  0  0  0  0  0  0  0
   -1.6000   -2.7713    0.0000 C   0  0  0  0  0  0  0  0  0  0  0  0
   -2.4000   -4.1569    0.0000 H   0  0  0  0  0  0  0  0  0  0  0  0
   -2.4000   -1.3856    0.0000 C   0  0  0  0  0  0  0  0  0  0  0  0
   -4.0000   -1.3856    0.0000 H   0  0  0  0  0  0  0  0  0  0  0  0
   -1.6000   -0.0000    0.0000 C   0  0  0  0  0  0  0  0  0  0  0  0
   -2.4000    1.3856    0.0000 H   0  0  0  0  0  0  0  0  0  0  0  0
  1  2  1  0  0  0  0
  1  3  1  0  0  0  0
  3  4  1  0  0  0  0
  3  5  2  0  0  0  0
  5  6  1  0  0  0  0
  5  7  1  0  0  0  0
  7  8  1  0  0  0  0
  7  9  2  0  0  0  0
  9 10  1  0  0  0  0
  9 11  1  0  0  0  0
 11  1  2  0  0  0  0
 11 12  1  0  0  0  0
M  END
> <ChemID>
100046

> <source_casrn>
71-43-2

> <CAS>
71-43-2

> <SMILES>
c1ccccc1

> <NAME>
BENZENE

> <preferred_name>
Benzene

> <iupac>
benzene

> <MPID>
99323

> <dsstox_substance_id>
DTXSID3039242

> <Canonical_QSARr>
c1ccccc1

> <InChI_Code_QSARr>
InChI=1S/C6H6/c1-2-4-6-5-3-1/h1-6H

> <InChI Key_QSARr>
UHOVQNZJYSORNB-UHFFFAOYSA-N

> <LogKOC>
1.75

$$$$
100047
  -INDIGO-08031722282D

  8  7  0  0  0  0  0  0  0  0999 V2000
    0.0000    0.0000    0.0000 C   0  0  0  0  0  0  0  0  0  0  0  0
    1.6000   -0.0000    0.0000 H   0  0  0  0  0  0  0  0  0  0  0  0
    0.8000   -1.3856    0.0000 H   0  0  0  0  0  0  0  0  0  0  0  0
    0.8000    1.3856    0.0000 H   0  0  0  0  0  0  0  0  0  0  0  0
   -1.6000    0.0000    0.0000 C   0  0  0  0  0  0  0  0  0  0  0  0
   -3.2000    0.0000    0.0000 Cl  0  0  0  0  0  0  0  0  0  0  0  0
   -2.4000   -1.3856    0.0000 Cl  0  0  0  0  0  0  0  0  0  0  0  0
   -2.4000    1.3856    0.0000 Cl  0  0  0  0  0  0  0  0  0  0  0  0
  1  2  1  0  0  0  0
  1  3  1  0  0  0  0
  1  4  1  0  0  0  0
  1  5  1  0  0  0  0
  5  6  1  0  0  0  0
  5  7  1  0  0  0  0
  5  8  1  0  0  0  0
M  END
> <ChemID>
100047

> <source_casrn>
71-55-6

> <CAS>
71-55-6

> <SMILES>
CC(Cl)(Cl)Cl

> <NAME>
1,1,1-TRICHLOROETHANE

> <preferred_name>
1,1,1-Trichloroethane

> <iupac>
1,1,1-trichloroethane

> <MPID>
99324

> <dsstox_substance_id>
DTXSID0021381

> <Canonical_QSARr>
CC(Cl)(Cl)Cl

> <InChI_Code_QSARr>
InChI=1S/C2H3Cl3/c1-2(3,4)5/h1H3

> <InChI Key_QSARr>
UOCLXMDMGBRAIB-UHFFFAOYSA-N

> <LogKOC>
1.95

$$$$
100050
  -INDIGO-08031722282D

 28 29  0  0  0  0  0  0  0  0999 V2000
   -1.3856    0.8000    0.0000 Cl  0  0  0  0  0  0  0  0  0  0  0  0
    0.0001    1.6001    0.0000 C   0  0  0  0  0  0  0  0  0  0  0  0
    0.0001    3.2000    0.0000 H   0  0  0  0  0  0  0  0  0  0  0  0
    0.0001    0.0000    0.0000 C   0  0  0  0  0  0  0  0  0  0  0  0
    0.0001   -1.6000    0.0000 H   0  0  0  0  0  0  0  0  0  0  0  0
   -1.5034   -0.5472    0.0000 C   0  0  0  0  0  0  0  0  0  0  0  0
   -2.7292    0.4813    0.0000 C   0  0  0  0  0  0  0  0  0  0  0  0
   -2.4513    2.0569    0.0000 H   0  0  0  0  0  0  0  0  0  0  0  0
   -4.2327   -0.0660    0.0000 C   0  0  0  0  0  0  0  0  0  0  0  0
   -5.4584    0.9624    0.0000 H   0  0  0  0  0  0  0  0  0  0  0  0
   -4.5106   -1.6416    0.0000 C   0  0  0  0  0  0  0  0  0  0  0  0
   -6.0140   -2.1889    0.0000 Cl  0  0  0  0  0  0  0  0  0  0  0  0
   -3.2848   -2.6701    0.0000 C   0  0  0  0  0  0  0  0  0  0  0  0
   -3.5627   -4.2459    0.0000 H   0  0  0  0  0  0  0  0  0  0  0  0
   -1.7813   -2.1229    0.0000 C   0  0  0  0  0  0  0  0  0  0  0  0
   -0.5557   -3.1514    0.0000 H   0  0  0  0  0  0  0  0  0  0  0  0
    1.5999    0.0000    0.0000 C   0  0  0  0  0  0  0  0  0  0  0  0
    2.4001    1.3857    0.0000 C   0  0  0  0  0  0  0  0  0  0  0  0
    1.5999    2.7713    0.0000 H   0  0  0  0  0  0  0  0  0  0  0  0
    4.0000    1.3857    0.0000 C   0  0  0  0  0  0  0  0  0  0  0  0
    4.7999    2.7713    0.0000 H   0  0  0  0  0  0  0  0  0  0  0  0
    4.7999    0.0000    0.0000 C   0  0  0  0  0  0  0  0  0  0  0  0
    6.4000    0.0000    0.0000 Cl  0  0  0  0  0  0  0  0  0  0  0  0
    4.0000   -1.3857    0.0000 C   0  0  0  0  0  0  0  0  0  0  0  0
    4.7999   -2.7712    0.0000 H   0  0  0  0  0  0  0  0  0  0  0  0
    2.4001   -1.3857    0.0000 C   0  0  0  0  0  0  0  0  0  0  0  0
    1.5999   -2.7712    0.0000 H   0  0  0  0  0  0  0  0  0  0  0  0
   -1.3856    2.4000    0.0000 Cl  0  0  0  0  0  0  0  0  0  0  0  0
  1  2  1  0  0  0  0
  2  3  1  0  0  0  0
  2  4  1  0  0  0  0
  4  5  1  0  0  0  0
  4  6  1  0  0  0  0
  6  7  1  0  0  0  0
  7  8  1  0  0  0  0
  7  9  2  0  0  0  0
  9 10  1  0  0  0  0
  9 11  1  0  0  0  0
 11 12  1  0  0  0  0
 11 13  2  0  0  0  0
 13 14  1  0  0  0  0
 13 15  1  0  0  0  0
 15  6  2  0  0  0  0
 15 16  1  0  0  0  0
  4 17  1  0  0  0  0
 17 18  1  0  0  0  0
 18 19  1  0  0  0  0
 18 20  2  0  0  0  0
 20 21  1  0  0  0  0
 20 22  1  0  0  0  0
 22 23  1  0  0  0  0
 22 24  2  0  0  0  0
 24 25  1  0  0  0  0
 24 26  1  0  0  0  0
 26 17  2  0  0  0  0
 26 27  1  0  0  0  0
  2 28  1  0  0  0  0
M  END
> <ChemID>
100050

> <source_casrn>
72-54-8

> <CAS>
72-54-8

> <SMILES>
ClC(Cl)C(c1ccc(Cl)cc1)c1ccc(Cl)cc1

> <NAME>
P,P'-DDD

> <preferred_name>
p,p'-DDD

> <iupac>
1,1'-(2,2-dichloroethane-1,1-diyl)bis(4-chlorobenzene)

> <MPID>
99327

> <dsstox_substance_id>
DTXSID4020373

> <Canonical_QSARr>
ClC(Cl)C(c1ccc(Cl)cc1)c1ccc(Cl)cc1

> <InChI_Code_QSARr>
InChI=1S/C14H10Cl4/c15-11-5-1-9(2-6-11)13(14(17)18)10-3-7-12(16)8-4-10/h1-8,13-14H

> <InChI Key_QSARr>
AHJKRLASYNVKDZ-UHFFFAOYSA-N

> <LogKOC>
4.21

$$$$
100051
  -INDIGO-08031722282D

 26 27  0  0  0  0  0  0  0  0999 V2000
   -1.7814    2.1230    0.0000 Cl  0  0  0  0  0  0  0  0  0  0  0  0
   -0.2779    1.5757    0.0000 C   0  0  0  0  0  0  0  0  0  0  0  0
    0.0001   -0.0000    0.0000 C   0  0  0  0  0  0  0  0  0  0  0  0
    1.5757   -0.2779    0.0000 C   0  0  0  0  0  0  0  0  0  0  0  0
    2.1230   -1.7814    0.0000 C   0  0  0  0  0  0  0  0  0  0  0  0
    1.0945   -3.0070    0.0000 H   0  0  0  0  0  0  0  0  0  0  0  0
    3.6986   -2.0592    0.0000 C   0  0  0  0  0  0  0  0  0  0  0  0
    4.2459   -3.5626    0.0000 H   0  0  0  0  0  0  0  0  0  0  0  0
    4.7270   -0.8335    0.0000 C   0  0  0  0  0  0  0  0  0  0  0  0
    6.3028   -1.1113    0.0000 Cl  0  0  0  0  0  0  0  0  0  0  0  0
    4.1799    0.6700    0.0000 C   0  0  0  0  0  0  0  0  0  0  0  0
    5.2083    1.8957    0.0000 H   0  0  0  0  0  0  0  0  0  0  0  0
    2.6041    0.9479    0.0000 C   0  0  0  0  0  0  0  0  0  0  0  0
    2.0570    2.4513    0.0000 H   0  0  0  0  0  0  0  0  0  0  0  0
   -1.3857   -0.8001    0.0000 C   0  0  0  0  0  0  0  0  0  0  0  0
   -1.3857   -2.4000    0.0000 C   0  0  0  0  0  0  0  0  0  0  0  0
    0.0001   -3.2000    0.0000 H   0  0  0  0  0  0  0  0  0  0  0  0
   -2.7713   -3.2000    0.0000 C   0  0  0  0  0  0  0  0  0  0  0  0
   -2.7713   -4.8000    0.0000 H   0  0  0  0  0  0  0  0  0  0  0  0
   -4.1569   -2.4000    0.0000 C   0  0  0  0  0  0  0  0  0  0  0  0
   -5.5426   -3.2000    0.0000 Cl  0  0  0  0  0  0  0  0  0  0  0  0
   -4.1569   -0.8001    0.0000 C   0  0  0  0  0  0  0  0  0  0  0  0
   -5.5426   -0.0000    0.0000 H   0  0  0  0  0  0  0  0  0  0  0  0
   -2.7713   -0.0000    0.0000 C   0  0  0  0  0  0  0  0  0  0  0  0
   -2.7713    1.6000    0.0000 H   0  0  0  0  0  0  0  0  0  0  0  0
    0.9477    2.6042    0.0000 Cl  0  0  0  0  0  0  0  0  0  0  0  0
  1  2  1  0  0  0  0
  2  3  2  0  0  0  0
  3  4  1  0  0  0  0
  4  5  1  0  0  0  0
  5  6  1  0  0  0  0
  5  7  2  0  0  0  0
  7  8  1  0  0  0  0
  7  9  1  0  0  0  0
  9 10  1  0  0  0  0
  9 11  2  0  0  0  0
 11 12  1  0  0  0  0
 11 13  1  0  0  0  0
 13  4  2  0  0  0  0
 13 14  1  0  0  0  0
  3 15  1  0  0  0  0
 15 16  1  0  0  0  0
 16 17  1  0  0  0  0
 16 18  2  0  0  0  0
 18 19  1  0  0  0  0
 18 20  1  0  0  0  0
 20 21  1  0  0  0  0
 20 22  2  0  0  0  0
 22 23  1  0  0  0  0
 22 24  1  0  0  0  0
 24 15  2  0  0  0  0
 24 25  1  0  0  0  0
  2 26  1  0  0  0  0
M  END
> <ChemID>
100051

> <source_casrn>
72-55-9

> <CAS>
72-55-9

> <SMILES>
ClC(Cl)=C(c1ccc(Cl)cc1)c1ccc(Cl)cc1

> <NAME>
P,P'-DDE

> <preferred_name>
p,p'-DDE

> <iupac>
1,1'-(2,2-dichloroethene-1,1-diyl)bis(4-chlorobenzene)

> <MPID>
99328

> <dsstox_substance_id>
DTXSID9020374

> <Canonical_QSARr>
ClC(Cl)=C(c1ccc(Cl)cc1)c1ccc(Cl)cc1

> <InChI_Code_QSARr>
InChI=1S/C14H8Cl4/c15-11-5-1-9(2-6-11)13(14(17)18)10-3-7-12(16)8-4-10/h1-8H

> <InChI Key_QSARr>
UCNVFOCBFJOQAL-UHFFFAOYSA-N

> <LogKOC>
4.82

$$$$
100052
  -INDIGO-08031722282D

  5  4  0  0  0  0  0  0  0  0999 V2000
    0.0000    0.0000    0.0000 C   0  0  0  0  0  0  0  0  0  0  0  0
    0.8000    1.3856    0.0000 H   0  0  0  0  0  0  0  0  0  0  0  0
   -1.3856    0.8000    0.0000 H   0  0  0  0  0  0  0  0  0  0  0  0
    1.3856   -0.8000    0.0000 H   0  0  0  0  0  0  0  0  0  0  0  0
   -0.8000   -1.3856    0.0000 Br  0  0  0  0  0  0  0  0  0  0  0  0
  1  2  1  0  0  0  0
  1  3  1  0  0  0  0
  1  4  1  0  0  0  0
  1  5  1  0  0  0  0
M  END
> <ChemID>
100052

> <source_casrn>
74-83-9

> <CAS>
74-83-9

> <SMILES>
CBr

> <NAME>
METHYL BROMIDE

> <preferred_name>
Methyl bromide

> <iupac>
bromomethane

> <MPID>
99329

> <dsstox_substance_id>
DTXSID8020832

> <Canonical_QSARr>
CBr

> <InChI_Code_QSARr>
InChI=1S/CH3Br/c1-2/h1H3

> <InChI Key_QSARr>
GZUXJHMPEANEGY-UHFFFAOYSA-N

> <LogKOC>
1.34

$$$$
100054
  -INDIGO-08031722282D

  3  2  0  0  0  0  0  0  0  0999 V2000
    0.0000    0.0000    0.0000 C   0  0  0  0  0  0  0  0  0  0  0  0
    1.6000    0.0000    0.0000 S   0  0  0  0  0  0  0  0  0  0  0  0
   -1.6000    0.0000    0.0000 S   0  0  0  0  0  0  0  0  0  0  0  0
  1  2  2  0  0  0  0
  1  3  2  0  0  0  0
M  END
> <ChemID>
100054

> <source_casrn>
75-15-0

> <CAS>
75-15-0

> <SMILES>
S=C=S

> <NAME>
CARBON DISULFIDE

> <preferred_name>
Carbon disulfide

> <iupac>
methanedithione

> <MPID>
99331

> <dsstox_substance_id>
DTXSID6023947

> <Canonical_QSARr>
S=C=S

> <InChI_Code_QSARr>
InChI=1S/CS2/c2-1-3

> <InChI Key_QSARr>
QGJOPFRUJISHPQ-UHFFFAOYSA-N

> <LogKOC>
2.34

$$$$
100055
  -INDIGO-08031722282D

  5  4  0  0  0  0  0  0  0  0999 V2000
    0.0000    0.0000    0.0000 C   0  0  0  0  0  0  0  0  0  0  0  0
    0.8000    1.3856    0.0000 H   0  0  0  0  0  0  0  0  0  0  0  0
   -1.3856    0.8000    0.0000 Br  0  0  0  0  0  0  0  0  0  0  0  0
    1.3856   -0.8000    0.0000 Br  0  0  0  0  0  0  0  0  0  0  0  0
   -0.8000   -1.3856    0.0000 Br  0  0  0  0  0  0  0  0  0  0  0  0
  1  2  1  0  0  0  0
  1  3  1  0  0  0  0
  1  4  1  0  0  0  0
  1  5  1  0  0  0  0
M  END
> <ChemID>
100055

> <source_casrn>
75-25-2

> <CAS>
75-25-2

> <SMILES>
BrC(Br)Br

> <NAME>
BROMOFORM

> <preferred_name>
Bromoform

> <iupac>
tribromomethane

> <MPID>
99332

> <dsstox_substance_id>
DTXSID1021374

> <Canonical_QSARr>
BrC(Br)Br

> <InChI_Code_QSARr>
InChI=1S/CHBr3/c2-1(3)4/h1H

> <InChI Key_QSARr>
DIKBFYAXUHHXCS-UHFFFAOYSA-N

> <LogKOC>
2.06

$$$$
100056
  -INDIGO-08031722282D

  5  4  0  0  0  0  0  0  0  0999 V2000
   -0.8000   -1.3856    0.0000 Cl  0  0  0  0  0  0  0  0  0  0  0  0
    0.0000    0.0000    0.0000 C   0  0  0  0  0  0  0  0  0  0  0  0
    0.8000    1.3856    0.0000 H   0  0  0  0  0  0  0  0  0  0  0  0
   -1.3856    0.8000    0.0000 Cl  0  0  0  0  0  0  0  0  0  0  0  0
    1.3856   -0.8000    0.0000 Br  0  0  0  0  0  0  0  0  0  0  0  0
  1  2  1  0  0  0  0
  2  3  1  0  0  0  0
  2  4  1  0  0  0  0
  2  5  1  0  0  0  0
M  END
> <ChemID>
100056

> <source_casrn>
75-27-4

> <CAS>
75-27-4

> <SMILES>
ClC(Cl)Br

> <NAME>
BROMODICHLOROMETHANE

> <preferred_name>
Bromodichloromethane

> <iupac>
bromo(dichloro)methane

> <MPID>
99333

> <dsstox_substance_id>
DTXSID1020198

> <Canonical_QSARr>
ClC(Cl)Br

> <InChI_Code_QSARr>
InChI=1S/CHBrCl2/c2-1(3)4/h1H

> <InChI Key_QSARr>
FMWLUWPQPKEARP-UHFFFAOYSA-N

> <LogKOC>
1.78

$$$$
100058
  -INDIGO-08031722282D

  6  5  0  0  0  0  0  0  0  0999 V2000
   -0.0000    0.0000    0.0000 C   0  0  0  0  0  0  0  0  0  0  0  0
    0.8000    1.3856    0.0000 H   0  0  0  0  0  0  0  0  0  0  0  0
    0.8000   -1.3856    0.0000 H   0  0  0  0  0  0  0  0  0  0  0  0
   -1.6000    0.0000    0.0000 C   0  0  0  0  0  0  0  0  0  0  0  0
   -2.4000    1.3856    0.0000 Cl  0  0  0  0  0  0  0  0  0  0  0  0
   -2.4000   -1.3856    0.0000 Cl  0  0  0  0  0  0  0  0  0  0  0  0
  1  2  1  0  0  0  0
  1  3  1  0  0  0  0
  1  4  2  0  0  0  0
  4  5  1  0  0  0  0
  4  6  1  0  0  0  0
M  END
> <ChemID>
100058

> <source_casrn>
75-35-4

> <CAS>
75-35-4

> <SMILES>
C=C(Cl)Cl

> <NAME>
1,1-DICHLOROETHENE

> <preferred_name>
1,1-Dichloroethylene

> <iupac>
1,1-dichloroethene

> <MPID>
99335

> <dsstox_substance_id>
DTXSID8021438

> <Canonical_QSARr>
C=C(Cl)Cl

> <InChI_Code_QSARr>
InChI=1S/C2H2Cl2/c1-2(3)4/h1H2

> <InChI Key_QSARr>
LGXVIGDEPROXKC-UHFFFAOYSA-N

> <LogKOC>
1.81

$$$$
100059
  -INDIGO-08031722282D

 12 11  0  0  0  0  0  0  0  0999 V2000
    1.6000    0.0000    0.0000 C   0  0  0  0  0  0  0  0  0  0  0  0
    3.2000    0.0000    0.0000 H   0  0  0  0  0  0  0  0  0  0  0  0
    2.4000   -1.3856    0.0000 H   0  0  0  0  0  0  0  0  0  0  0  0
    2.4000    1.3856    0.0000 H   0  0  0  0  0  0  0  0  0  0  0  0
    0.0000    0.0000    0.0000 As  0  0  0  0  0  0  0  0  0  0  0  0
    0.0000   -1.6000    0.0000 O   0  0  0  0  0  0  0  0  0  0  0  0
   -1.6000    0.0000    0.0000 C   0  0  0  0  0  0  0  0  0  0  0  0
   -3.2000    0.0000    0.0000 H   0  0  0  0  0  0  0  0  0  0  0  0
   -2.4000   -1.3856    0.0000 H   0  0  0  0  0  0  0  0  0  0  0  0
   -2.4000    1.3856    0.0000 H   0  0  0  0  0  0  0  0  0  0  0  0
    0.0000    1.6000    0.0000 O   0  0  0  0  0  0  0  0  0  0  0  0
    1.3856    2.4000    0.0000 H   0  0  0  0  0  0  0  0  0  0  0  0
  1  2  1  0  0  0  0
  1  3  1  0  0  0  0
  1  4  1  0  0  0  0
  1  5  1  0  0  0  0
  5  6  2  0  0  0  0
  5  7  1  0  0  0  0
  7  8  1  0  0  0  0
  7  9  1  0  0  0  0
  7 10  1  0  0  0  0
  5 11  1  0  0  0  0
 11 12  1  0  0  0  0
M  END
> <ChemID>
100059

> <source_casrn>
75-60-5

> <CAS>
75-60-5

> <SMILES>
C[As](C)(O)=O

> <NAME>
CACODYLIC ACID

> <preferred_name>
Dimethylarsinic acid

> <iupac>
dimethylarsinic acid

> <MPID>
99336

> <dsstox_substance_id>
DTXSID7020508

> <Canonical_QSARr>
C[As](C)(O)=O

> <InChI_Code_QSARr>
InChI=1S/C2H7AsO2/c1-3(2,4)5/h1-2H3,(H,4,5)

> <InChI Key_QSARr>
OGGXGZAMXPVRFZ-UHFFFAOYSA-N

> <LogKOC>
3.0

$$$$
100060
  -INDIGO-08031722282D

 11 10  0  0  0  0  0  0  0  0999 V2000
    1.3856    0.8000    0.0000 C   0  0  0  0  0  0  0  0  0  0  0  0
    2.7713    1.6000    0.0000 H   0  0  0  0  0  0  0  0  0  0  0  0
    2.7713    0.0000    0.0000 H   0  0  0  0  0  0  0  0  0  0  0  0
    1.3856    2.4000    0.0000 H   0  0  0  0  0  0  0  0  0  0  0  0
    0.0000    0.0000    0.0000 C   0  0  0  0  0  0  0  0  0  0  0  0
    0.6123   -1.4782    0.0000 Cl  0  0  0  0  0  0  0  0  0  0  0  0
   -0.6123   -1.4782    0.0000 Cl  0  0  0  0  0  0  0  0  0  0  0  0
   -1.3856    0.8000    0.0000 C   0  0  0  0  0  0  0  0  0  0  0  0
   -2.7713    0.0000    0.0000 O   0  0  0  0  0  0  0  0  0  0  0  0
   -4.1569    0.8000    0.0000 H   0  0  0  0  0  0  0  0  0  0  0  0
   -1.3856    2.4000    0.0000 O   0  0  0  0  0  0  0  0  0  0  0  0
  1  2  1  0  0  0  0
  1  3  1  0  0  0  0
  1  4  1  0  0  0  0
  1  5  1  0  0  0  0
  5  6  1  0  0  0  0
  5  7  1  0  0  0  0
  5  8  1  0  0  0  0
  8  9  1  0  0  0  0
  9 10  1  0  0  0  0
  8 11  2  0  0  0  0
M  END
> <ChemID>
100060

> <source_casrn>
75-99-0

> <CAS>
75-99-0

> <SMILES>
CC(Cl)(Cl)C(O)=O

> <NAME>
DALAPON

> <preferred_name>
Dalapon

> <iupac>
2,2-dichloropropanoic acid

> <MPID>
99337

> <dsstox_substance_id>
DTXSID2021575

> <Canonical_QSARr>
CC(Cl)(Cl)C(O)=O

> <InChI_Code_QSARr>
InChI=1S/C3H4Cl2O2/c1-3(4,5)2(6)7/h1H3,(H,6,7)

> <InChI Key_QSARr>
NDUPDOJHUQKPAG-UHFFFAOYSA-N

> <LogKOC>
0.4

$$$$
100062
  -INDIGO-08031722282D

  7  6  0  0  0  0  0  0  0  0999 V2000
   -0.8000   -1.3856    0.0000 Cl  0  0  0  0  0  0  0  0  0  0  0  0
    0.0000    0.0000    0.0000 C   0  0  0  0  0  0  0  0  0  0  0  0
    1.6000    0.0000    0.0000 N   0  0  0  0  0  0  0  0  0  0  0  0
    2.4000    1.3856    0.0000 O   0  0  0  0  0  0  0  0  0  0  0  0
    2.4000   -1.3856    0.0000 O   0  0  0  0  0  0  0  0  0  0  0  0
   -1.6000    0.0000    0.0000 Cl  0  0  0  0  0  0  0  0  0  0  0  0
   -0.8000    1.3856    0.0000 Cl  0  0  0  0  0  0  0  0  0  0  0  0
  1  2  1  0  0  0  0
  2  3  1  0  0  0  0
  3  4  2  0  0  0  0
  3  5  1  0  0  0  0
  2  6  1  0  0  0  0
  2  7  1  0  0  0  0
M  CHG  2   3   1   5  -1
M  END
> <ChemID>
100062

> <source_casrn>
76-06-2

> <CAS>
76-06-2

> <SMILES>
[O-][N+](=O)C(Cl)(Cl)Cl

> <NAME>
TRICHLORONITROMETHANE

> <preferred_name>
Chloropicrin

> <iupac>
trichloro(nitro)methane

> <MPID>
99339

> <dsstox_substance_id>
DTXSID0020315

> <Canonical_QSARr>
[O-][N+](=O)C(Cl)(Cl)Cl

> <InChI_Code_QSARr>
InChI=1S/CCl3NO2/c2-1(3,4)5(6)7

> <InChI Key_QSARr>
LFHISGNCFUNFFM-UHFFFAOYSA-N

> <LogKOC>
1.79

$$$$
100063
  -INDIGO-08031722282D

 22 24  0  0  0  0  0  0  0  0999 V2000
   -1.6000    0.0000    0.0000 C   0  0  0  0  0  0  0  0  0  0  0  0
   -2.0945   -1.5217    0.0000 C   0  0  0  0  0  0  0  0  0  0  0  0
   -3.6905   -1.4101    0.0000 Cl  0  0  0  0  0  0  0  0  0  0  0  0
   -3.3201   -2.5502    0.0000 Cl  0  0  0  0  0  0  0  0  0  0  0  0
   -0.8000   -2.4621    0.0000 C   0  0  0  0  0  0  0  0  0  0  0  0
   -0.3056   -3.9838    0.0000 Cl  0  0  0  0  0  0  0  0  0  0  0  0
   -2.4000   -2.4621    0.0000 C   0  0  0  0  0  0  0  0  0  0  0  0
   -2.8944   -0.9405    0.0000 C   0  0  0  0  0  0  0  0  0  0  0  0
   -4.4161   -0.4461    0.0000 Cl  0  0  0  0  0  0  0  0  0  0  0  0
   -3.3405   -3.7566    0.0000 Cl  0  0  0  0  0  0  0  0  0  0  0  0
    0.4944   -1.5217    0.0000 C   0  0  0  0  0  0  0  0  0  0  0  0
    0.9889   -3.0434    0.0000 H   0  0  0  0  0  0  0  0  0  0  0  0
    0.0000    0.0000    0.0000 C   0  0  0  0  0  0  0  0  0  0  0  0
   -0.4944    1.5217    0.0000 H   0  0  0  0  0  0  0  0  0  0  0  0
    1.2945    0.9405    0.0000 C   0  0  0  0  0  0  0  0  0  0  0  0
    2.3650    2.1295    0.0000 H   0  0  0  0  0  0  0  0  0  0  0  0
    2.5888    0.0000    0.0000 C   0  0  0  0  0  0  0  0  0  0  0  0
    4.1105    0.4944    0.0000 H   0  0  0  0  0  0  0  0  0  0  0  0
    2.0944   -1.5217    0.0000 C   0  0  0  0  0  0  0  0  0  0  0  0
    3.0349   -2.8161    0.0000 H   0  0  0  0  0  0  0  0  0  0  0  0
    0.2238    2.1295    0.0000 Cl  0  0  0  0  0  0  0  0  0  0  0  0
   -2.0945    1.5217    0.0000 Cl  0  0  0  0  0  0  0  0  0  0  0  0
  1  2  1  0  0  0  0
  2  3  1  0  0  0  0
  2  4  1  0  0  0  0
  2  5  1  0  0  0  0
  5  6  1  0  0  0  0
  5  7  1  0  0  0  0
  7  8  2  0  0  0  0
  8  1  1  0  0  0  0
  8  9  1  0  0  0  0
  7 10  1  0  0  0  0
  5 11  1  0  0  0  0
 11 12  1  0  0  0  0
 11 13  1  0  0  0  0
 13  1  1  0  0  0  0
 13 14  1  0  0  0  0
 13 15  1  0  0  0  0
 15 16  1  0  0  0  0
 15 17  1  0  0  0  0
 17 18  1  0  0  0  0
 17 19  2  0  0  0  0
 19 11  1  0  0  0  0
 19 20  1  0  0  0  0
 15 21  1  0  0  0  0
  1 22  1  0  0  0  0
M  END
> <ChemID>
100063

> <source_casrn>
76-44-8

> <CAS>
76-44-8

> <SMILES>
ClC1(Cl)C2(Cl)C3C=CC(Cl)C3C1(Cl)C(Cl)=C2Cl

> <NAME>
HEPTACHLOR

> <preferred_name>
Heptachlor

> <iupac>
1,4,5,6,7,8,8-heptachloro-3a,4,7,7a-tetrahydro-1H-4,7-methanoindene

> <MPID>
99340

> <dsstox_substance_id>
DTXSID3020679

> <Canonical_QSARr>
ClC1(Cl)C2(Cl)C3C=CC(Cl)C3C1(Cl)C(Cl)=C2Cl

> <InChI_Code_QSARr>
InChI=1S/C10H5Cl7/c11-4-2-1-3-5(4)9(15)7(13)6(12)8(3,14)10(9,16)17/h1-5H

> <InChI Key_QSARr>
FRCCEHPWNOQAEU-UHFFFAOYSA-N

> <LogKOC>
4.38

$$$$
100064
  -INDIGO-08031722282D

 44 43  0  0  0  0  0  0  0  0999 V2000
    4.0001   -1.3857    0.0000 P   0  0  0  0  0  0  0  0  0  0  0  0
    5.6000   -1.3857    0.0000 S   0  0  0  0  0  0  0  0  0  0  0  0
    6.4001   -0.0001    0.0000 C   0  0  0  0  0  0  0  0  0  0  0  0
    6.1911    1.5864    0.0000 H   0  0  0  0  0  0  0  0  0  0  0  0
    5.1308    0.9740    0.0000 H   0  0  0  0  0  0  0  0  0  0  0  0
    7.9999   -0.0001    0.0000 C   0  0  0  0  0  0  0  0  0  0  0  0
    8.2089   -1.5864    0.0000 H   0  0  0  0  0  0  0  0  0  0  0  0
    9.2692   -0.9740    0.0000 H   0  0  0  0  0  0  0  0  0  0  0  0
    8.8000    1.3857    0.0000 C   0  0  0  0  0  0  0  0  0  0  0  0
    8.5913    2.9720    0.0000 H   0  0  0  0  0  0  0  0  0  0  0  0
    7.5307    2.3596    0.0000 H   0  0  0  0  0  0  0  0  0  0  0  0
   10.4001    1.3857    0.0000 C   0  0  0  0  0  0  0  0  0  0  0  0
   12.0000    1.3857    0.0000 H   0  0  0  0  0  0  0  0  0  0  0  0
   11.1999    2.7713    0.0000 H   0  0  0  0  0  0  0  0  0  0  0  0
   11.1999   -0.0001    0.0000 H   0  0  0  0  0  0  0  0  0  0  0  0
    4.7999   -2.7712    0.0000 S   0  0  0  0  0  0  0  0  0  0  0  0
    3.9999   -4.1570    0.0000 C   0  0  0  0  0  0  0  0  0  0  0  0
    2.5218   -3.5446    0.0000 H   0  0  0  0  0  0  0  0  0  0  0  0
    2.5218   -4.7692    0.0000 H   0  0  0  0  0  0  0  0  0  0  0  0
    4.7999   -5.5426    0.0000 C   0  0  0  0  0  0  0  0  0  0  0  0
    6.2782   -6.1549    0.0000 H   0  0  0  0  0  0  0  0  0  0  0  0
    6.2782   -4.9302    0.0000 H   0  0  0  0  0  0  0  0  0  0  0  0
    3.9999   -6.9281    0.0000 C   0  0  0  0  0  0  0  0  0  0  0  0
    2.5218   -6.3160    0.0000 H   0  0  0  0  0  0  0  0  0  0  0  0
    2.5218   -7.5405    0.0000 H   0  0  0  0  0  0  0  0  0  0  0  0
    4.7999   -8.3139    0.0000 C   0  0  0  0  0  0  0  0  0  0  0  0
    5.6000   -9.6995    0.0000 H   0  0  0  0  0  0  0  0  0  0  0  0
    3.9999   -9.6995    0.0000 H   0  0  0  0  0  0  0  0  0  0  0  0
    6.4001   -8.3139    0.0000 H   0  0  0  0  0  0  0  0  0  0  0  0
    2.4000   -1.3857    0.0000 S   0  0  0  0  0  0  0  0  0  0  0  0
    1.5999   -0.0001    0.0000 C   0  0  0  0  0  0  0  0  0  0  0  0
    2.8692    0.9740    0.0000 H   0  0  0  0  0  0  0  0  0  0  0  0
    1.8089    1.5864    0.0000 H   0  0  0  0  0  0  0  0  0  0  0  0
    0.0001   -0.0001    0.0000 C   0  0  0  0  0  0  0  0  0  0  0  0
   -1.2692   -0.9740    0.0000 H   0  0  0  0  0  0  0  0  0  0  0  0
   -0.2089   -1.5864    0.0000 H   0  0  0  0  0  0  0  0  0  0  0  0
   -0.8000    1.3857    0.0000 C   0  0  0  0  0  0  0  0  0  0  0  0
    0.4693    2.3596    0.0000 H   0  0  0  0  0  0  0  0  0  0  0  0
   -0.5913    2.9720    0.0000 H   0  0  0  0  0  0  0  0  0  0  0  0
   -2.4001    1.3857    0.0000 C   0  0  0  0  0  0  0  0  0  0  0  0
   -4.0000    1.3857    0.0000 H   0  0  0  0  0  0  0  0  0  0  0  0
   -3.1999    2.7713    0.0000 H   0  0  0  0  0  0  0  0  0  0  0  0
   -3.1999   -0.0001    0.0000 H   0  0  0  0  0  0  0  0  0  0  0  0
    4.7999   -0.0001    0.0000 O   0  0  0  0  0  0  0  0  0  0  0  0
  1  2  1  0  0  0  0
  2  3  1  0  0  0  0
  3  4  1  0  0  0  0
  3  5  1  0  0  0  0
  3  6  1  0  0  0  0
  6  7  1  0  0  0  0
  6  8  1  0  0  0  0
  6  9  1  0  0  0  0
  9 10  1  0  0  0  0
  9 11  1  0  0  0  0
  9 12  1  0  0  0  0
 12 13  1  0  0  0  0
 12 14  1  0  0  0  0
 12 15  1  0  0  0  0
  1 16  1  0  0  0  0
 16 17  1  0  0  0  0
 17 18  1  0  0  0  0
 17 19  1  0  0  0  0
 17 20  1  0  0  0  0
 20 21  1  0  0  0  0
 20 22  1  0  0  0  0
 20 23  1  0  0  0  0
 23 24  1  0  0  0  0
 23 25  1  0  0  0  0
 23 26  1  0  0  0  0
 26 27  1  0  0  0  0
 26 28  1  0  0  0  0
 26 29  1  0  0  0  0
  1 30  1  0  0  0  0
 30 31  1  0  0  0  0
 31 32  1  0  0  0  0
 31 33  1  0  0  0  0
 31 34  1  0  0  0  0
 34 35  1  0  0  0  0
 34 36  1  0  0  0  0
 34 37  1  0  0  0  0
 37 38  1  0  0  0  0
 37 39  1  0  0  0  0
 37 40  1  0  0  0  0
 40 41  1  0  0  0  0
 40 42  1  0  0  0  0
 40 43  1  0  0  0  0
  1 44  2  0  0  0  0
M  END
> <ChemID>
100064

> <source_casrn>
78-48-8

> <CAS>
78-48-8

> <SMILES>
CCCCSP(=O)(SCCCC)SCCCC

> <NAME>
TRIBUFOS

> <preferred_name>
Tribufos

> <iupac>
S,S,S-tributyl phosphorotrithioate

> <MPID>
99341

> <dsstox_substance_id>
DTXSID1024174

> <Canonical_QSARr>
CCCCSP(=O)(SCCCC)SCCCC

> <InChI_Code_QSARr>
InChI=1S/C12H27OPS3/c1-4-7-10-15-14(13,16-11-8-5-2)17-12-9-6-3/h4-12H2,1-3H3

> <InChI Key_QSARr>
ZOKXUAHZSKEQSS-UHFFFAOYSA-N

> <LogKOC>
3.7

$$$$
100066
  -INDIGO-08031722282D

 11 10  0  0  0  0  0  0  0  0999 V2000
    1.3856    0.8000    0.0000 C   0  0  0  0  0  0  0  0  0  0  0  0
    2.7713    1.6000    0.0000 H   0  0  0  0  0  0  0  0  0  0  0  0
    2.7713    0.0000    0.0000 H   0  0  0  0  0  0  0  0  0  0  0  0
    1.3856    2.4000    0.0000 H   0  0  0  0  0  0  0  0  0  0  0  0
    0.0000    0.0000    0.0000 C   0  0  0  0  0  0  0  0  0  0  0  0
    0.6123   -1.4782    0.0000 H   0  0  0  0  0  0  0  0  0  0  0  0
   -1.3856    0.8000    0.0000 C   0  0  0  0  0  0  0  0  0  0  0  0
   -2.7713    1.6000    0.0000 H   0  0  0  0  0  0  0  0  0  0  0  0
   -2.7713    0.0000    0.0000 H   0  0  0  0  0  0  0  0  0  0  0  0
   -1.3856    2.4000    0.0000 Cl  0  0  0  0  0  0  0  0  0  0  0  0
   -0.6123   -1.4782    0.0000 Cl  0  0  0  0  0  0  0  0  0  0  0  0
  1  2  1  0  0  0  0
  1  3  1  0  0  0  0
  1  4  1  0  0  0  0
  1  5  1  0  0  0  0
  5  6  1  0  0  0  0
  5  7  1  0  0  0  0
  7  8  1  0  0  0  0
  7  9  1  0  0  0  0
  7 10  1  0  0  0  0
  5 11  1  0  0  0  0
M  END
> <ChemID>
100066

> <source_casrn>
78-87-5

> <CAS>
78-87-5

> <SMILES>
CC(Cl)CCl

> <NAME>
1,2-DICHLOROPROPANE

> <preferred_name>
1,2-Dichloropropane

> <iupac>
1,2-dichloropropane

> <MPID>
99343

> <dsstox_substance_id>
DTXSID0020448

> <Canonical_QSARr>
CC(Cl)CCl

> <InChI_Code_QSARr>
InChI=1S/C3H6Cl2/c1-3(5)2-4/h3H,2H2,1H3

> <InChI Key_QSARr>
KNKRKFALVUDBJE-UHFFFAOYSA-N

> <LogKOC>
1.67

$$$$
100067
  -INDIGO-08031722282D

  8  7  0  0  0  0  0  0  0  0999 V2000
    0.8000    1.3856    0.0000 Cl  0  0  0  0  0  0  0  0  0  0  0  0
    0.0000    0.0000    0.0000 C   0  0  0  0  0  0  0  0  0  0  0  0
    1.6000   -0.0000    0.0000 H   0  0  0  0  0  0  0  0  0  0  0  0
   -1.6000    0.0000    0.0000 C   0  0  0  0  0  0  0  0  0  0  0  0
   -3.2000    0.0000    0.0000 H   0  0  0  0  0  0  0  0  0  0  0  0
   -2.4000   -1.3856    0.0000 H   0  0  0  0  0  0  0  0  0  0  0  0
   -2.4000    1.3856    0.0000 Cl  0  0  0  0  0  0  0  0  0  0  0  0
    0.8000   -1.3856    0.0000 Cl  0  0  0  0  0  0  0  0  0  0  0  0
  1  2  1  0  0  0  0
  2  3  1  0  0  0  0
  2  4  1  0  0  0  0
  4  5  1  0  0  0  0
  4  6  1  0  0  0  0
  4  7  1  0  0  0  0
  2  8  1  0  0  0  0
M  END
> <ChemID>
100067

> <source_casrn>
79-00-5

> <CAS>
79-00-5

> <SMILES>
ClCC(Cl)Cl

> <NAME>
1,1,2-TRICHLOROETHANE

> <preferred_name>
1,1,2-Trichloroethane

> <iupac>
1,1,2-trichloroethane

> <MPID>
99344

> <dsstox_substance_id>
DTXSID5021380

> <Canonical_QSARr>
ClCC(Cl)Cl

> <InChI_Code_QSARr>
InChI=1S/C2H3Cl3/c3-1-2(4)5/h2H,1H2

> <InChI Key_QSARr>
UBOXGVDOUJQMTN-UHFFFAOYSA-N

> <LogKOC>
1.89

$$$$
100068
  -INDIGO-08031722282D

  6  5  0  0  0  0  0  0  0  0999 V2000
   -0.8000   -1.3856    0.0000 Cl  0  0  0  0  0  0  0  0  0  0  0  0
    0.0000    0.0000    0.0000 C   0  0  0  0  0  0  0  0  0  0  0  0
    1.6000    0.0000    0.0000 C   0  0  0  0  0  0  0  0  0  0  0  0
    2.4000    1.3856    0.0000 H   0  0  0  0  0  0  0  0  0  0  0  0
    2.4000   -1.3856    0.0000 Cl  0  0  0  0  0  0  0  0  0  0  0  0
   -0.8000    1.3856    0.0000 Cl  0  0  0  0  0  0  0  0  0  0  0  0
  1  2  1  0  0  0  0
  2  3  2  0  0  0  0
  3  4  1  0  0  0  0
  3  5  1  0  0  0  0
  2  6  1  0  0  0  0
M  END
> <ChemID>
100068

> <source_casrn>
79-01-6

> <CAS>
79-01-6

> <SMILES>
ClC=C(Cl)Cl

> <NAME>
TRICHLOROETHENE

> <preferred_name>
Trichloroethylene

> <iupac>
1,1,2-trichloroethene

> <MPID>
99345

> <dsstox_substance_id>
DTXSID0021383

> <Canonical_QSARr>
ClC=C(Cl)Cl

> <InChI_Code_QSARr>
InChI=1S/C2HCl3/c3-1-2(4)5/h1H

> <InChI Key_QSARr>
XSTXAVWGXDQKEL-UHFFFAOYSA-N

> <LogKOC>
2.0

$$$$
100070
  -INDIGO-08031722282D

  8  7  0  0  0  0  0  0  0  0999 V2000
    0.8000    1.3856    0.0000 Cl  0  0  0  0  0  0  0  0  0  0  0  0
    0.0000    0.0000    0.0000 C   0  0  0  0  0  0  0  0  0  0  0  0
    1.6000   -0.0000    0.0000 H   0  0  0  0  0  0  0  0  0  0  0  0
   -1.6000    0.0000    0.0000 C   0  0  0  0  0  0  0  0  0  0  0  0
   -3.2000    0.0000    0.0000 H   0  0  0  0  0  0  0  0  0  0  0  0
   -2.4000   -1.3856    0.0000 Cl  0  0  0  0  0  0  0  0  0  0  0  0
   -2.4000    1.3856    0.0000 Cl  0  0  0  0  0  0  0  0  0  0  0  0
    0.8000   -1.3856    0.0000 Cl  0  0  0  0  0  0  0  0  0  0  0  0
  1  2  1  0  0  0  0
  2  3  1  0  0  0  0
  2  4  1  0  0  0  0
  4  5  1  0  0  0  0
  4  6  1  0  0  0  0
  4  7  1  0  0  0  0
  2  8  1  0  0  0  0
M  END
> <ChemID>
100070

> <source_casrn>
79-34-5

> <CAS>
79-34-5

> <SMILES>
ClC(Cl)C(Cl)Cl

> <NAME>
1,1,2,2-TETRACHLOROETHANE

> <preferred_name>
1,1,2,2-Tetrachloroethane

> <iupac>
1,1,2,2-tetrachloroethane

> <MPID>
99347

> <dsstox_substance_id>
DTXSID7021318

> <Canonical_QSARr>
ClC(Cl)C(Cl)Cl

> <InChI_Code_QSARr>
InChI=1S/C2H2Cl4/c3-1(4)2(5)6/h1-2H

> <InChI Key_QSARr>
QPFMBZIOSGYJDE-UHFFFAOYSA-N

> <LogKOC>
1.9

$$$$
100071
  -INDIGO-08031722282D

 39 41  0  0  0  0  0  0  0  0999 V2000
    7.2000    1.3856    0.0000 C   0  0  0  0  0  0  0  0  0  0  0  0
    8.8000    1.3856    0.0000 H   0  0  0  0  0  0  0  0  0  0  0  0
    6.3999    2.7713    0.0000 C   0  0  0  0  0  0  0  0  0  0  0  0
    7.2000    4.1569    0.0000 H   0  0  0  0  0  0  0  0  0  0  0  0
    4.7999    2.7713    0.0000 C   0  0  0  0  0  0  0  0  0  0  0  0
    4.0001    4.1569    0.0000 H   0  0  0  0  0  0  0  0  0  0  0  0
    4.0001    1.3856    0.0000 C   0  0  0  0  0  0  0  0  0  0  0  0
    4.7999    0.0000    0.0000 C   0  0  0  0  0  0  0  0  0  0  0  0
    4.0001   -1.3857    0.0000 O   0  0  0  0  0  0  0  0  0  0  0  0
    2.4001   -1.3857    0.0000 C   0  0  0  0  0  0  0  0  0  0  0  0
    2.3451   -2.2337    0.0000 O   0  0  0  0  0  0  0  0  0  0  0  0
    1.6001    0.0000    0.0000 C   0  0  0  0  0  0  0  0  0  0  0  0
    0.0000    0.0000    0.0000 C   0  0  0  0  0  0  0  0  0  0  0  0
    0.2778    1.5757    0.0000 H   0  0  0  0  0  0  0  0  0  0  0  0
   -0.2778   -1.5756    0.0000 C   0  0  0  0  0  0  0  0  0  0  0  0
   -1.8762   -1.5060    0.0000 H   0  0  0  0  0  0  0  0  0  0  0  0
   -1.4574   -2.6566    0.0000 H   0  0  0  0  0  0  0  0  0  0  0  0
    0.7505   -2.8014    0.0000 C   0  0  0  0  0  0  0  0  0  0  0  0
    0.2033   -4.3048    0.0000 C   0  0  0  0  0  0  0  0  0  0  0  0
   -0.3439   -5.8084    0.0000 H   0  0  0  0  0  0  0  0  0  0  0  0
    1.2318   -5.5306    0.0000 H   0  0  0  0  0  0  0  0  0  0  0  0
   -1.3722   -4.5828    0.0000 H   0  0  0  0  0  0  0  0  0  0  0  0
    1.6001   -2.7713    0.0000 O   0  0  0  0  0  0  0  0  0  0  0  0
   -1.5757    0.2779    0.0000 C   0  0  0  0  0  0  0  0  0  0  0  0
   -2.8014   -0.7507    0.0000 C   0  0  0  0  0  0  0  0  0  0  0  0
   -2.5236   -2.3263    0.0000 H   0  0  0  0  0  0  0  0  0  0  0  0
   -4.3049   -0.2034    0.0000 C   0  0  0  0  0  0  0  0  0  0  0  0
   -5.5306   -1.2318    0.0000 H   0  0  0  0  0  0  0  0  0  0  0  0
   -4.5827    1.3722    0.0000 C   0  0  0  0  0  0  0  0  0  0  0  0
   -6.0862    1.9195    0.0000 H   0  0  0  0  0  0  0  0  0  0  0  0
   -3.3570    2.4008    0.0000 C   0  0  0  0  0  0  0  0  0  0  0  0
   -3.6348    3.9764    0.0000 H   0  0  0  0  0  0  0  0  0  0  0  0
   -1.8535    1.8535    0.0000 C   0  0  0  0  0  0  0  0  0  0  0  0
   -0.6278    2.8820    0.0000 H   0  0  0  0  0  0  0  0  0  0  0  0
    2.4001    1.3856    0.0000 C   0  0  0  0  0  0  0  0  0  0  0  0
    1.6001    2.7713    0.0000 O   0  0  0  0  0  0  0  0  0  0  0  0
    2.4001    4.1569    0.0000 H   0  0  0  0  0  0  0  0  0  0  0  0
    6.3999    0.0000    0.0000 C   0  0  0  0  0  0  0  0  0  0  0  0
    7.2000   -1.3857    0.0000 H   0  0  0  0  0  0  0  0  0  0  0  0
  1  2  1  0  0  0  0
  1  3  1  0  0  0  0
  3  4  1  0  0  0  0
  3  5  2  0  0  0  0
  5  6  1  0  0  0  0
  5  7  1  0  0  0  0
  7  8  2  0  0  0  0
  8  9  1  0  0  0  0
  9 10  1  0  0  0  0
 10 11  2  0  0  0  0
 10 12  1  0  0  0  0
 12 13  1  0  0  0  0
 13 14  1  0  0  0  0
 13 15  1  0  0  0  0
 15 16  1  0  0  0  0
 15 17  1  0  0  0  0
 15 18  1  0  0  0  0
 18 19  1  0  0  0  0
 19 20  1  0  0  0  0
 19 21  1  0  0  0  0
 19 22  1  0  0  0  0
 18 23  2  0  0  0  0
 13 24  1  0  0  0  0
 24 25  1  0  0  0  0
 25 26  1  0  0  0  0
 25 27  2  0  0  0  0
 27 28  1  0  0  0  0
 27 29  1  0  0  0  0
 29 30  1  0  0  0  0
 29 31  2  0  0  0  0
 31 32  1  0  0  0  0
 31 33  1  0  0  0  0
 33 24  2  0  0  0  0
 33 34  1  0  0  0  0
 12 35  2  0  0  0  0
 35  7  1  0  0  0  0
 35 36  1  0  0  0  0
 36 37  1  0  0  0  0
  8 38  1  0  0  0  0
 38  1  2  0  0  0  0
 38 39  1  0  0  0  0
M  END
> <ChemID>
100071

> <source_casrn>
81-81-2

> <CAS>
81-81-2

> <SMILES>
CC(=O)CC(C1=C(O)c2ccccc2OC1=O)c1ccccc1

> <NAME>
WARFARIN

> <preferred_name>
Warfarin

> <iupac>
4-hydroxy-3-(3-oxo-1-phenylbutyl)-2H-chromen-2-one

> <MPID>
99348

> <dsstox_substance_id>
DTXSID5023742

> <Canonical_QSARr>
CC(=O)CC(C1=C(O)c2ccccc2OC1=O)c1ccccc1

> <InChI_Code_QSARr>
InChI=1S/C19H16O4/c1-12(20)11-15(13-7-3-2-4-8-13)17-18(21)14-9-5-6-10-16(14)23-19(17)22/h2-10,15,21H,11H2,1H3

> <InChI Key_QSARr>
PJVWKTKQMONHTI-UHFFFAOYSA-N

> <LogKOC>
2.96

$$$$
100072
  -INDIGO-08031722282D

 29 31  0  0  0  0  0  0  0  0999 V2000
    1.3856    2.4000    0.0000 O   0  0  0  0  0  0  0  0  0  0  0  0
    1.3856    0.8000    0.0000 C   0  0  0  0  0  0  0  0  0  0  0  0
    0.0001   -0.0000    0.0000 C   0  0  0  0  0  0  0  0  0  0  0  0
    0.0001   -1.6000    0.0000 C   0  0  0  0  0  0  0  0  0  0  0  0
   -1.3856   -2.4000    0.0000 C   0  0  0  0  0  0  0  0  0  0  0  0
   -1.3856   -4.0000    0.0000 H   0  0  0  0  0  0  0  0  0  0  0  0
   -2.7713   -1.6000    0.0000 C   0  0  0  0  0  0  0  0  0  0  0  0
   -4.1569   -2.4000    0.0000 H   0  0  0  0  0  0  0  0  0  0  0  0
   -2.7713   -0.0000    0.0000 C   0  0  0  0  0  0  0  0  0  0  0  0
   -1.3856    0.8000    0.0000 C   0  0  0  0  0  0  0  0  0  0  0  0
   -1.3856    2.4000    0.0000 N   0  0  0  0  0  0  0  0  0  0  0  0
   -2.7713    3.2000    0.0000 H   0  0  0  0  0  0  0  0  0  0  0  0
    0.0001    3.2000    0.0000 H   0  0  0  0  0  0  0  0  0  0  0  0
   -4.1569    0.8000    0.0000 C   0  0  0  0  0  0  0  0  0  0  0  0
   -5.5426    1.6000    0.0000 H   0  0  0  0  0  0  0  0  0  0  0  0
   -5.5426   -0.0000    0.0000 H   0  0  0  0  0  0  0  0  0  0  0  0
   -4.1569    2.4000    0.0000 H   0  0  0  0  0  0  0  0  0  0  0  0
    1.3856   -2.4000    0.0000 C   0  0  0  0  0  0  0  0  0  0  0  0
    1.3856   -4.0000    0.0000 O   0  0  0  0  0  0  0  0  0  0  0  0
    2.7713   -1.6000    0.0000 C   0  0  0  0  0  0  0  0  0  0  0  0
    2.7713   -0.0000    0.0000 C   0  0  0  0  0  0  0  0  0  0  0  0
    4.1570    0.8000    0.0000 C   0  0  0  0  0  0  0  0  0  0  0  0
    4.1570    2.4000    0.0000 H   0  0  0  0  0  0  0  0  0  0  0  0
    5.5425   -0.0000    0.0000 C   0  0  0  0  0  0  0  0  0  0  0  0
    6.9282    0.8000    0.0000 H   0  0  0  0  0  0  0  0  0  0  0  0
    5.5425   -1.6000    0.0000 C   0  0  0  0  0  0  0  0  0  0  0  0
    6.9282   -2.4000    0.0000 H   0  0  0  0  0  0  0  0  0  0  0  0
    4.1570   -2.4000    0.0000 C   0  0  0  0  0  0  0  0  0  0  0  0
    4.1570   -4.0000    0.0000 H   0  0  0  0  0  0  0  0  0  0  0  0
  1  2  2  0  0  0  0
  2  3  1  0  0  0  0
  3  4  1  0  0  0  0
  4  5  2  0  0  0  0
  5  6  1  0  0  0  0
  5  7  1  0  0  0  0
  7  8  1  0  0  0  0
  7  9  2  0  0  0  0
  9 10  1  0  0  0  0
 10  3  2  0  0  0  0
 10 11  1  0  0  0  0
 11 12  1  0  0  0  0
 11 13  1  0  0  0  0
  9 14  1  0  0  0  0
 14 15  1  0  0  0  0
 14 16  1  0  0  0  0
 14 17  1  0  0  0  0
  4 18  1  0  0  0  0
 18 19  2  0  0  0  0
 18 20  1  0  0  0  0
 20 21  1  0  0  0  0
 21  2  1  0  0  0  0
 21 22  2  0  0  0  0
 22 23  1  0  0  0  0
 22 24  1  0  0  0  0
 24 25  1  0  0  0  0
 24 26  2  0  0  0  0
 26 27  1  0  0  0  0
 26 28  1  0  0  0  0
 28 20  2  0  0  0  0
 28 29  1  0  0  0  0
M  END
> <ChemID>
100072

> <source_casrn>
82-28-0

> <CAS>
82-28-0

> <SMILES>
Cc1ccc2c(c1N)C(=O)c1ccccc1C2=O

> <NAME>
1-AMINO-2-METHYL-9,10-ANTHRACENEDIONE

> <preferred_name>
1-Amino-2-methylanthraquinone

> <iupac>
1-amino-2-methylanthracene-9,10-dione

> <MPID>
99349

> <dsstox_substance_id>
DTXSID7020057

> <Canonical_QSARr>
Cc1ccc2c(c1N)C(=O)c1ccccc1C2=O

> <InChI_Code_QSARr>
InChI=1S/C15H11NO2/c1-8-6-7-11-12(13(8)16)15(18)10-5-3-2-4-9(10)14(11)17/h2-7H,16H2,1H3

> <InChI Key_QSARr>
ZLCUIOWQYBYEBG-UHFFFAOYSA-N

> <LogKOC>
3.9

$$$$
100074
  -INDIGO-08031722282D

 22 24  0  0  0  0  0  0  0  0999 V2000
    2.4000    1.3856    0.0000 C   0  0  0  0  0  0  0  0  0  0  0  0
    3.2001    2.7713    0.0000 H   0  0  0  0  0  0  0  0  0  0  0  0
    3.2001    0.0000    0.0000 C   0  0  0  0  0  0  0  0  0  0  0  0
    4.8000    0.0000    0.0000 H   0  0  0  0  0  0  0  0  0  0  0  0
    2.4000   -1.3857    0.0000 C   0  0  0  0  0  0  0  0  0  0  0  0
    3.2001   -2.7712    0.0000 H   0  0  0  0  0  0  0  0  0  0  0  0
    0.8000   -1.3857    0.0000 C   0  0  0  0  0  0  0  0  0  0  0  0
    0.0000   -2.7712    0.0000 C   0  0  0  0  0  0  0  0  0  0  0  0
    0.8000   -4.1569    0.0000 H   0  0  0  0  0  0  0  0  0  0  0  0
   -1.6000   -2.7712    0.0000 C   0  0  0  0  0  0  0  0  0  0  0  0
   -2.4001   -4.1569    0.0000 H   0  0  0  0  0  0  0  0  0  0  0  0
   -2.4001   -1.3857    0.0000 C   0  0  0  0  0  0  0  0  0  0  0  0
   -4.0000   -1.3857    0.0000 H   0  0  0  0  0  0  0  0  0  0  0  0
   -1.6000    0.0000    0.0000 C   0  0  0  0  0  0  0  0  0  0  0  0
    0.0000    0.0000    0.0000 C   0  0  0  0  0  0  0  0  0  0  0  0
    0.8000    1.3856    0.0000 C   0  0  0  0  0  0  0  0  0  0  0  0
   -0.4517    2.3823    0.0000 C   0  0  0  0  0  0  0  0  0  0  0  0
   -1.4181    3.6575    0.0000 H   0  0  0  0  0  0  0  0  0  0  0  0
    0.6932    3.5001    0.0000 H   0  0  0  0  0  0  0  0  0  0  0  0
   -1.8373    1.5823    0.0000 C   0  0  0  0  0  0  0  0  0  0  0  0
   -3.3777    1.1497    0.0000 H   0  0  0  0  0  0  0  0  0  0  0  0
   -2.4585    3.0569    0.0000 H   0  0  0  0  0  0  0  0  0  0  0  0
  1  2  1  0  0  0  0
  1  3  1  0  0  0  0
  3  4  1  0  0  0  0
  3  5  2  0  0  0  0
  5  6  1  0  0  0  0
  5  7  1  0  0  0  0
  7  8  2  0  0  0  0
  8  9  1  0  0  0  0
  8 10  1  0  0  0  0
 10 11  1  0  0  0  0
 10 12  2  0  0  0  0
 12 13  1  0  0  0  0
 12 14  1  0  0  0  0
 14 15  2  0  0  0  0
 15  7  1  0  0  0  0
 15 16  1  0  0  0  0
 16  1  2  0  0  0  0
 16 17  1  0  0  0  0
 17 18  1  0  0  0  0
 17 19  1  0  0  0  0
 17 20  1  0  0  0  0
 20 14  1  0  0  0  0
 20 21  1  0  0  0  0
 20 22  1  0  0  0  0
M  END
> <ChemID>
100074

> <source_casrn>
83-32-9

> <CAS>
83-32-9

> <SMILES>
C1Cc2cccc3cccc1c23

> <NAME>
ACENAPHTHENE

> <preferred_name>
Acenaphthene

> <iupac>
1,2-dihydroacenaphthylene

> <MPID>
99351

> <dsstox_substance_id>
DTXSID3021774

> <Canonical_QSARr>
C1Cc2cccc3cccc1c23

> <InChI_Code_QSARr>
InChI=1S/C12H10/c1-3-9-4-2-6-11-8-7-10(5-1)12(9)11/h1-6H,7-8H2

> <InChI Key_QSARr>
CWRYPZZKDGJXCA-UHFFFAOYSA-N

> <LogKOC>
3.59

$$$$
100075
  -INDIGO-08031722282D

 51 55  0  0  0  0  0  0  0  0999 V2000
   -3.2000    0.0000    0.0000 C   0  0  0  0  0  0  0  0  0  0  0  0
   -4.8000    0.0000    0.0000 C   0  0  0  0  0  0  0  0  0  0  0  0
   -5.6002    1.3856    0.0000 C   0  0  0  0  0  0  0  0  0  0  0  0
   -7.1651    1.0530    0.0000 O   0  0  0  0  0  0  0  0  0  0  0  0
   -7.3323   -0.5382    0.0000 C   0  0  0  0  0  0  0  0  0  0  0  0
   -7.8266   -2.0599    0.0000 H   0  0  0  0  0  0  0  0  0  0  0  0
   -5.8707   -1.1890    0.0000 C   0  0  0  0  0  0  0  0  0  0  0  0
   -4.5763   -2.1295    0.0000 H   0  0  0  0  0  0  0  0  0  0  0  0
   -6.6706   -2.5747    0.0000 H   0  0  0  0  0  0  0  0  0  0  0  0
   -8.8973   -0.2056    0.0000 C   0  0  0  0  0  0  0  0  0  0  0  0
   -9.3919    1.3161    0.0000 C   0  0  0  0  0  0  0  0  0  0  0  0
  -10.9568    1.6488    0.0000 H   0  0  0  0  0  0  0  0  0  0  0  0
   -8.3211    2.5052    0.0000 H   0  0  0  0  0  0  0  0  0  0  0  0
   -9.9680   -1.3946    0.0000 C   0  0  0  0  0  0  0  0  0  0  0  0
  -11.0384   -2.5836    0.0000 H   0  0  0  0  0  0  0  0  0  0  0  0
  -11.5330   -1.0619    0.0000 H   0  0  0  0  0  0  0  0  0  0  0  0
   -9.4735   -2.9164    0.0000 H   0  0  0  0  0  0  0  0  0  0  0  0
   -4.8000    2.7713    0.0000 C   0  0  0  0  0  0  0  0  0  0  0  0
   -5.6002    4.1569    0.0000 H   0  0  0  0  0  0  0  0  0  0  0  0
   -3.2000    2.7713    0.0000 C   0  0  0  0  0  0  0  0  0  0  0  0
   -2.4001    4.1569    0.0000 H   0  0  0  0  0  0  0  0  0  0  0  0
   -2.4001    1.3856    0.0000 C   0  0  0  0  0  0  0  0  0  0  0  0
   -0.8001    1.3856    0.0000 C   0  0  0  0  0  0  0  0  0  0  0  0
    0.0001    2.7713    0.0000 O   0  0  0  0  0  0  0  0  0  0  0  0
    0.0001    0.0000    0.0000 C   0  0  0  0  0  0  0  0  0  0  0  0
    0.7999    1.3856    0.0000 H   0  0  0  0  0  0  0  0  0  0  0  0
   -0.8001   -1.3857    0.0000 C   0  0  0  0  0  0  0  0  0  0  0  0
   -1.6000   -2.7713    0.0000 H   0  0  0  0  0  0  0  0  0  0  0  0
    0.0001   -2.7713    0.0000 C   0  0  0  0  0  0  0  0  0  0  0  0
    0.2777   -4.3470    0.0000 H   0  0  0  0  0  0  0  0  0  0  0  0
   -1.2258   -3.7998    0.0000 H   0  0  0  0  0  0  0  0  0  0  0  0
    1.6001   -2.7713    0.0000 O   0  0  0  0  0  0  0  0  0  0  0  0
    2.3999   -1.3857    0.0000 C   0  0  0  0  0  0  0  0  0  0  0  0
    1.6001    0.0000    0.0000 C   0  0  0  0  0  0  0  0  0  0  0  0
    2.3999    1.3856    0.0000 C   0  0  0  0  0  0  0  0  0  0  0  0
    1.6001    2.7713    0.0000 H   0  0  0  0  0  0  0  0  0  0  0  0
    4.0000    1.3856    0.0000 C   0  0  0  0  0  0  0  0  0  0  0  0
    4.8001    2.7713    0.0000 O   0  0  0  0  0  0  0  0  0  0  0  0
    6.4001    2.7713    0.0000 C   0  0  0  0  0  0  0  0  0  0  0  0
    7.2000    4.1569    0.0000 H   0  0  0  0  0  0  0  0  0  0  0  0
    8.0001    2.7713    0.0000 H   0  0  0  0  0  0  0  0  0  0  0  0
    5.6000    4.1569    0.0000 H   0  0  0  0  0  0  0  0  0  0  0  0
    4.8001    0.0000    0.0000 C   0  0  0  0  0  0  0  0  0  0  0  0
    6.4001    0.0000    0.0000 O   0  0  0  0  0  0  0  0  0  0  0  0
    7.2000   -1.3857    0.0000 C   0  0  0  0  0  0  0  0  0  0  0  0
    8.8000   -1.3857    0.0000 H   0  0  0  0  0  0  0  0  0  0  0  0
    8.0001   -2.7713    0.0000 H   0  0  0  0  0  0  0  0  0  0  0  0
    8.0001    0.0000    0.0000 H   0  0  0  0  0  0  0  0  0  0  0  0
    4.0000   -1.3857    0.0000 C   0  0  0  0  0  0  0  0  0  0  0  0
    4.8001   -2.7713    0.0000 H   0  0  0  0  0  0  0  0  0  0  0  0
   -2.4001   -1.3857    0.0000 O   0  0  0  0  0  0  0  0  0  0  0  0
  1  2  1  0  0  0  0
  2  3  2  0  0  0  0
  3  4  1  0  0  0  0
  4  5  1  0  0  0  0
  5  6  1  0  0  0  0
  5  7  1  0  0  0  0
  7  2  1  0  0  0  0
  7  8  1  0  0  0  0
  7  9  1  0  0  0  0
  5 10  1  0  0  0  0
 10 11  2  0  0  0  0
 11 12  1  0  0  0  0
 11 13  1  0  0  0  0
 10 14  1  0  0  0  0
 14 15  1  0  0  0  0
 14 16  1  0  0  0  0
 14 17  1  0  0  0  0
  3 18  1  0  0  0  0
 18 19  1  0  0  0  0
 18 20  2  0  0  0  0
 20 21  1  0  0  0  0
 20 22  1  0  0  0  0
 22  1  2  0  0  0  0
 22 23  1  0  0  0  0
 23 24  2  0  0  0  0
 23 25  1  0  0  0  0
 25 26  1  0  0  0  0
 25 27  1  0  0  0  0
 27 28  1  0  0  0  0
 27 29  1  0  0  0  0
 29 30  1  0  0  0  0
 29 31  1  0  0  0  0
 29 32  1  0  0  0  0
 32 33  1  0  0  0  0
 33 34  1  0  0  0  0
 34 25  1  0  0  0  0
 34 35  2  0  0  0  0
 35 36  1  0  0  0  0
 35 37  1  0  0  0  0
 37 38  1  0  0  0  0
 38 39  1  0  0  0  0
 39 40  1  0  0  0  0
 39 41  1  0  0  0  0
 39 42  1  0  0  0  0
 37 43  2  0  0  0  0
 43 44  1  0  0  0  0
 44 45  1  0  0  0  0
 45 46  1  0  0  0  0
 45 47  1  0  0  0  0
 45 48  1  0  0  0  0
 43 49  1  0  0  0  0
 49 33  2  0  0  0  0
 49 50  1  0  0  0  0
 27 51  1  0  0  0  0
 51  1  1  0  0  0  0
M  END
> <ChemID>
100075

> <source_casrn>
83-79-4

> <CAS>
83-79-4

> <SMILES>
CC(=C)[C@H]1Cc2c3O[C@@H]4COc5cc(OC)c(cc5[C@@H]4C(=O)c3ccc2O1)OC

> <NAME>
ROTENONE

> <preferred_name>
Rotenone

> <iupac>
(2R,6aS,12aS)-8,9-dimethoxy-2-(prop-1-en-2-yl)-1,2,12,12a-tetrahydrochromeno[3,4-b]furo[2,3-h]chromen-6(6aH)-one

> <MPID>
99352

> <dsstox_substance_id>
DTXSID6021248

> <Canonical_QSARr>
CC(=C)C1Cc2c3OC4COc5cc(OC)c(cc5C4C(=O)c3ccc2O1)OC

> <InChI_Code_QSARr>
InChI=1S/C23H22O6/c1-11(2)16-8-14-15(28-16)6-5-12-22(24)21-13-7-18(25-3)19(26-4)9-17(13)27-10-20(21)29-23(12)14/h5-7,9,16,20-21H,1,8,10H2,2-4H3

> <InChI Key_QSARr>
JUVIOZPCNVVQFO-UHFFFAOYSA-N

> <LogKOC>
4.0

$$$$
100076
  -INDIGO-08031722282D

 24 26  0  0  0  0  0  0  0  0999 V2000
   -1.3856    2.4000    0.0000 O   0  0  0  0  0  0  0  0  0  0  0  0
   -1.3856    0.8000    0.0000 C   0  0  0  0  0  0  0  0  0  0  0  0
   -2.7712   -0.0000    0.0000 C   0  0  0  0  0  0  0  0  0  0  0  0
   -2.7712   -1.6000    0.0000 C   0  0  0  0  0  0  0  0  0  0  0  0
   -4.1569   -2.4000    0.0000 C   0  0  0  0  0  0  0  0  0  0  0  0
   -4.1569   -4.0000    0.0000 H   0  0  0  0  0  0  0  0  0  0  0  0
   -5.5425   -1.6000    0.0000 C   0  0  0  0  0  0  0  0  0  0  0  0
   -6.9282   -2.4000    0.0000 H   0  0  0  0  0  0  0  0  0  0  0  0
   -5.5425   -0.0000    0.0000 C   0  0  0  0  0  0  0  0  0  0  0  0
   -6.9282    0.8000    0.0000 H   0  0  0  0  0  0  0  0  0  0  0  0
   -4.1569    0.8000    0.0000 C   0  0  0  0  0  0  0  0  0  0  0  0
   -4.1569    2.4000    0.0000 H   0  0  0  0  0  0  0  0  0  0  0  0
   -1.3856   -2.4000    0.0000 C   0  0  0  0  0  0  0  0  0  0  0  0
   -1.3856   -4.0000    0.0000 O   0  0  0  0  0  0  0  0  0  0  0  0
   -0.0001   -1.6000    0.0000 C   0  0  0  0  0  0  0  0  0  0  0  0
   -0.0001   -0.0000    0.0000 C   0  0  0  0  0  0  0  0  0  0  0  0
    1.3856    0.8000    0.0000 C   0  0  0  0  0  0  0  0  0  0  0  0
    1.3856    2.4000    0.0000 H   0  0  0  0  0  0  0  0  0  0  0  0
    2.7713   -0.0000    0.0000 C   0  0  0  0  0  0  0  0  0  0  0  0
    4.1569    0.8000    0.0000 H   0  0  0  0  0  0  0  0  0  0  0  0
    2.7713   -1.6000    0.0000 C   0  0  0  0  0  0  0  0  0  0  0  0
    4.1569   -2.4000    0.0000 H   0  0  0  0  0  0  0  0  0  0  0  0
    1.3856   -2.4000    0.0000 C   0  0  0  0  0  0  0  0  0  0  0  0
    1.3856   -4.0000    0.0000 H   0  0  0  0  0  0  0  0  0  0  0  0
  1  2  2  0  0  0  0
  2  3  1  0  0  0  0
  3  4  1  0  0  0  0
  4  5  2  0  0  0  0
  5  6  1  0  0  0  0
  5  7  1  0  0  0  0
  7  8  1  0  0  0  0
  7  9  2  0  0  0  0
  9 10  1  0  0  0  0
  9 11  1  0  0  0  0
 11  3  2  0  0  0  0
 11 12  1  0  0  0  0
  4 13  1  0  0  0  0
 13 14  2  0  0  0  0
 13 15  1  0  0  0  0
 15 16  1  0  0  0  0
 16  2  1  0  0  0  0
 16 17  2  0  0  0  0
 17 18  1  0  0  0  0
 17 19  1  0  0  0  0
 19 20  1  0  0  0  0
 19 21  2  0  0  0  0
 21 22  1  0  0  0  0
 21 23  1  0  0  0  0
 23 15  2  0  0  0  0
 23 24  1  0  0  0  0
M  END
> <ChemID>
100076

> <source_casrn>
84-65-1

> <CAS>
84-65-1

> <SMILES>
O=C1c2ccccc2C(=O)c2ccccc12

> <NAME>
ANTHRAQUINONE

> <preferred_name>
Anthraquinone

> <iupac>
anthracene-9,10-dione

> <MPID>
99353

> <dsstox_substance_id>
DTXSID3020095

> <Canonical_QSARr>
O=C1c2ccccc2C(=O)c2ccccc12

> <InChI_Code_QSARr>
InChI=1S/C14H8O2/c15-13-9-5-1-2-6-10(9)14(16)12-8-4-3-7-11(12)13/h1-8H

> <InChI Key_QSARr>
RZVHIXYEVGDQDX-UHFFFAOYSA-N

> <LogKOC>
3.57

$$$$
100078
  -INDIGO-08031722282D

 42 42  0  0  0  0  0  0  0  0999 V2000
    4.8000   -2.7713    0.0000 C   0  0  0  0  0  0  0  0  0  0  0  0
    6.4000   -2.7713    0.0000 C   0  0  0  0  0  0  0  0  0  0  0  0
    7.1999   -1.3857    0.0000 C   0  0  0  0  0  0  0  0  0  0  0  0
    8.8000   -1.3857    0.0000 O   0  0  0  0  0  0  0  0  0  0  0  0
    9.6001   -0.0001    0.0000 C   0  0  0  0  0  0  0  0  0  0  0  0
    9.3913    1.5863    0.0000 H   0  0  0  0  0  0  0  0  0  0  0  0
    8.3307    0.9740    0.0000 H   0  0  0  0  0  0  0  0  0  0  0  0
   11.1999   -0.0001    0.0000 C   0  0  0  0  0  0  0  0  0  0  0  0
   10.9221   -1.5756    0.0000 H   0  0  0  0  0  0  0  0  0  0  0  0
   12.7756   -0.2778    0.0000 C   0  0  0  0  0  0  0  0  0  0  0  0
   14.3514   -0.5556    0.0000 H   0  0  0  0  0  0  0  0  0  0  0  0
   13.8041    0.9478    0.0000 H   0  0  0  0  0  0  0  0  0  0  0  0
   13.3229   -1.7813    0.0000 H   0  0  0  0  0  0  0  0  0  0  0  0
   11.4779    1.5757    0.0000 C   0  0  0  0  0  0  0  0  0  0  0  0
   11.7557    3.1514    0.0000 H   0  0  0  0  0  0  0  0  0  0  0  0
   10.2520    2.6041    0.0000 H   0  0  0  0  0  0  0  0  0  0  0  0
   12.9813    2.1229    0.0000 H   0  0  0  0  0  0  0  0  0  0  0  0
    6.4000   -0.0001    0.0000 O   0  0  0  0  0  0  0  0  0  0  0  0
    7.1999   -4.1570    0.0000 C   0  0  0  0  0  0  0  0  0  0  0  0
    8.8000   -4.1570    0.0000 H   0  0  0  0  0  0  0  0  0  0  0  0
    6.4000   -5.5426    0.0000 C   0  0  0  0  0  0  0  0  0  0  0  0
    7.1999   -6.9282    0.0000 H   0  0  0  0  0  0  0  0  0  0  0  0
    4.8000   -5.5426    0.0000 C   0  0  0  0  0  0  0  0  0  0  0  0
    4.0001   -6.9282    0.0000 H   0  0  0  0  0  0  0  0  0  0  0  0
    4.0001   -4.1570    0.0000 C   0  0  0  0  0  0  0  0  0  0  0  0
    2.4000   -4.1570    0.0000 H   0  0  0  0  0  0  0  0  0  0  0  0
    4.0001   -1.3857    0.0000 C   0  0  0  0  0  0  0  0  0  0  0  0
    2.4000   -1.3857    0.0000 O   0  0  0  0  0  0  0  0  0  0  0  0
    1.5999   -0.0001    0.0000 C   0  0  0  0  0  0  0  0  0  0  0  0
    2.8693    0.9740    0.0000 H   0  0  0  0  0  0  0  0  0  0  0  0
    1.8087    1.5863    0.0000 H   0  0  0  0  0  0  0  0  0  0  0  0
    0.0001   -0.0001    0.0000 C   0  0  0  0  0  0  0  0  0  0  0  0
    0.2779   -1.5756    0.0000 H   0  0  0  0  0  0  0  0  0  0  0  0
   -1.5756   -0.2778    0.0000 C   0  0  0  0  0  0  0  0  0  0  0  0
   -3.1514   -0.5556    0.0000 H   0  0  0  0  0  0  0  0  0  0  0  0
   -2.6041    0.9478    0.0000 H   0  0  0  0  0  0  0  0  0  0  0  0
   -2.1229   -1.7813    0.0000 H   0  0  0  0  0  0  0  0  0  0  0  0
   -0.2779    1.5757    0.0000 C   0  0  0  0  0  0  0  0  0  0  0  0
   -0.5557    3.1514    0.0000 H   0  0  0  0  0  0  0  0  0  0  0  0
    0.9480    2.6041    0.0000 H   0  0  0  0  0  0  0  0  0  0  0  0
   -1.7813    2.1229    0.0000 H   0  0  0  0  0  0  0  0  0  0  0  0
    4.8000   -0.0001    0.0000 O   0  0  0  0  0  0  0  0  0  0  0  0
  1  2  1  0  0  0  0
  2  3  1  0  0  0  0
  3  4  1  0  0  0  0
  4  5  1  0  0  0  0
  5  6  1  0  0  0  0
  5  7  1  0  0  0  0
  5  8  1  0  0  0  0
  8  9  1  0  0  0  0
  8 10  1  0  0  0  0
 10 11  1  0  0  0  0
 10 12  1  0  0  0  0
 10 13  1  0  0  0  0
  8 14  1  0  0  0  0
 14 15  1  0  0  0  0
 14 16  1  0  0  0  0
 14 17  1  0  0  0  0
  3 18  2  0  0  0  0
  2 19  2  0  0  0  0
 19 20  1  0  0  0  0
 19 21  1  0  0  0  0
 21 22  1  0  0  0  0
 21 23  2  0  0  0  0
 23 24  1  0  0  0  0
 23 25  1  0  0  0  0
 25  1  2  0  0  0  0
 25 26  1  0  0  0  0
  1 27  1  0  0  0  0
 27 28  1  0  0  0  0
 28 29  1  0  0  0  0
 29 30  1  0  0  0  0
 29 31  1  0  0  0  0
 29 32  1  0  0  0  0
 32 33  1  0  0  0  0
 32 34  1  0  0  0  0
 34 35  1  0  0  0  0
 34 36  1  0  0  0  0
 34 37  1  0  0  0  0
 32 38  1  0  0  0  0
 38 39  1  0  0  0  0
 38 40  1  0  0  0  0
 38 41  1  0  0  0  0
 27 42  2  0  0  0  0
M  END
> <ChemID>
100078

> <source_casrn>
84-69-5

> <CAS>
84-69-5

> <SMILES>
O=C(OCC(C)C)c(c(ccc1)C(=O)OCC(C)C)c1

> <NAME>
DI-ISOBUTYLPHTHALATE

> <preferred_name>
Diisobutyl phthalate

> <iupac>
bis(2-methylpropyl) benzene-1,2-dicarboxylate

> <MPID>
99355

> <dsstox_substance_id>
DTXSID9022522

> <Canonical_QSARr>
CC(C)COC(=O)c1ccccc1C(=O)OCC(C)C

> <InChI_Code_QSARr>
InChI=1S/C16H22O4/c1-11(2)9-19-15(17)13-7-5-6-8-14(13)16(18)20-10-12(3)4/h5-8,11-12H,9-10H2,1-4H3

> <InChI Key_QSARr>
MGWAVDBGNNKXQV-UHFFFAOYSA-N

> <LogKOC>
3.14

$$$$
100079
  -INDIGO-08031722282D

 36 36  0  0  0  0  0  0  0  0999 V2000
    8.7999    4.1569    0.0000 C   0  0  0  0  0  0  0  0  0  0  0  0
    9.0088    2.5706    0.0000 H   0  0  0  0  0  0  0  0  0  0  0  0
   10.0694    3.1829    0.0000 H   0  0  0  0  0  0  0  0  0  0  0  0
    7.2001    4.1569    0.0000 O   0  0  0  0  0  0  0  0  0  0  0  0
    6.4000    2.7712    0.0000 C   0  0  0  0  0  0  0  0  0  0  0  0
    7.2001    1.3857    0.0000 O   0  0  0  0  0  0  0  0  0  0  0  0
    4.8000    2.7712    0.0000 C   0  0  0  0  0  0  0  0  0  0  0  0
    4.5910    4.3577    0.0000 H   0  0  0  0  0  0  0  0  0  0  0  0
    3.5308    3.7453    0.0000 H   0  0  0  0  0  0  0  0  0  0  0  0
    3.9999    1.3857    0.0000 O   0  0  0  0  0  0  0  0  0  0  0  0
    2.3999    1.3857    0.0000 C   0  0  0  0  0  0  0  0  0  0  0  0
    1.6001    2.7712    0.0000 O   0  0  0  0  0  0  0  0  0  0  0  0
    1.6001    0.0001    0.0000 C   0  0  0  0  0  0  0  0  0  0  0  0
    2.4001   -1.3856    0.0000 C   0  0  0  0  0  0  0  0  0  0  0  0
    3.9999   -1.3856    0.0000 H   0  0  0  0  0  0  0  0  0  0  0  0
    1.6001   -2.7713    0.0000 C   0  0  0  0  0  0  0  0  0  0  0  0
    2.4001   -4.1569    0.0000 H   0  0  0  0  0  0  0  0  0  0  0  0
    0.0000   -2.7713    0.0000 C   0  0  0  0  0  0  0  0  0  0  0  0
   -0.8000   -4.1569    0.0000 H   0  0  0  0  0  0  0  0  0  0  0  0
   -0.8000   -1.3856    0.0000 C   0  0  0  0  0  0  0  0  0  0  0  0
   -2.4001   -1.3856    0.0000 H   0  0  0  0  0  0  0  0  0  0  0  0
    0.0000    0.0001    0.0000 C   0  0  0  0  0  0  0  0  0  0  0  0
   -0.8000    1.3857    0.0000 C   0  0  0  0  0  0  0  0  0  0  0  0
    0.0000    2.7712    0.0000 O   0  0  0  0  0  0  0  0  0  0  0  0
   -2.4001    1.3857    0.0000 O   0  0  0  0  0  0  0  0  0  0  0  0
   -3.2001    2.7712    0.0000 C   0  0  0  0  0  0  0  0  0  0  0  0
   -1.9306    3.7453    0.0000 H   0  0  0  0  0  0  0  0  0  0  0  0
   -2.9912    4.3577    0.0000 H   0  0  0  0  0  0  0  0  0  0  0  0
   -4.7999    2.7712    0.0000 C   0  0  0  0  0  0  0  0  0  0  0  0
   -6.4000    2.7712    0.0000 H   0  0  0  0  0  0  0  0  0  0  0  0
   -5.6000    4.1569    0.0000 H   0  0  0  0  0  0  0  0  0  0  0  0
   -5.6000    1.3857    0.0000 H   0  0  0  0  0  0  0  0  0  0  0  0
    9.5999    5.5425    0.0000 C   0  0  0  0  0  0  0  0  0  0  0  0
   10.4000    6.9282    0.0000 H   0  0  0  0  0  0  0  0  0  0  0  0
   11.2000    5.5425    0.0000 H   0  0  0  0  0  0  0  0  0  0  0  0
    8.7999    6.9282    0.0000 H   0  0  0  0  0  0  0  0  0  0  0  0
  1  2  1  0  0  0  0
  1  3  1  0  0  0  0
  1  4  1  0  0  0  0
  4  5  1  0  0  0  0
  5  6  2  0  0  0  0
  5  7  1  0  0  0  0
  7  8  1  0  0  0  0
  7  9  1  0  0  0  0
  7 10  1  0  0  0  0
 10 11  1  0  0  0  0
 11 12  2  0  0  0  0
 11 13  1  0  0  0  0
 13 14  1  0  0  0  0
 14 15  1  0  0  0  0
 14 16  2  0  0  0  0
 16 17  1  0  0  0  0
 16 18  1  0  0  0  0
 18 19  1  0  0  0  0
 18 20  2  0  0  0  0
 20 21  1  0  0  0  0
 20 22  1  0  0  0  0
 22 13  2  0  0  0  0
 22 23  1  0  0  0  0
 23 24  2  0  0  0  0
 23 25  1  0  0  0  0
 25 26  1  0  0  0  0
 26 27  1  0  0  0  0
 26 28  1  0  0  0  0
 26 29  1  0  0  0  0
 29 30  1  0  0  0  0
 29 31  1  0  0  0  0
 29 32  1  0  0  0  0
  1 33  1  0  0  0  0
 33 34  1  0  0  0  0
 33 35  1  0  0  0  0
 33 36  1  0  0  0  0
M  END
> <ChemID>
100079

> <source_casrn>
84-72-0

> <CAS>
84-72-0

> <SMILES>
CCOC(=O)COC(=O)c1ccccc1C(=O)OCC

> <NAME>
ETHYL CARBETHOXYMETHYL PHTHALATE

> <preferred_name>
Ethyl phthalyl ethyl glycolate

> <iupac>
2-ethoxy-2-oxoethyl ethyl benzene-1,2-dicarboxylate

> <MPID>
99356

> <dsstox_substance_id>
DTXSID3024100

> <Canonical_QSARr>
CCOC(=O)COC(=O)c1ccccc1C(=O)OCC

> <InChI_Code_QSARr>
InChI=1S/C14H16O6/c1-3-18-12(15)9-20-14(17)11-8-6-5-7-10(11)13(16)19-4-2/h5-8H,3-4,9H2,1-2H3

> <InChI Key_QSARr>
PZBLUWVMZMXIKZ-UHFFFAOYSA-N

> <LogKOC>
2.54

$$$$
100080
  -INDIGO-08031722282D

 42 42  0  0  0  0  0  0  0  0999 V2000
   -4.8000    5.5426    0.0000 C   0  0  0  0  0  0  0  0  0  0  0  0
   -3.9999    6.9282    0.0000 H   0  0  0  0  0  0  0  0  0  0  0  0
   -6.4000    5.5426    0.0000 C   0  0  0  0  0  0  0  0  0  0  0  0
   -7.2001    6.9282    0.0000 H   0  0  0  0  0  0  0  0  0  0  0  0
   -7.2001    4.1569    0.0000 C   0  0  0  0  0  0  0  0  0  0  0  0
   -8.8000    4.1569    0.0000 H   0  0  0  0  0  0  0  0  0  0  0  0
   -6.4000    2.7713    0.0000 C   0  0  0  0  0  0  0  0  0  0  0  0
   -7.2001    1.3856    0.0000 C   0  0  0  0  0  0  0  0  0  0  0  0
   -6.4000   -0.0000    0.0000 O   0  0  0  0  0  0  0  0  0  0  0  0
   -8.8000    1.3856    0.0000 O   0  0  0  0  0  0  0  0  0  0  0  0
   -9.6001   -0.0000    0.0000 C   0  0  0  0  0  0  0  0  0  0  0  0
   -8.3307   -0.9739    0.0000 H   0  0  0  0  0  0  0  0  0  0  0  0
   -9.3912   -1.5864    0.0000 H   0  0  0  0  0  0  0  0  0  0  0  0
  -11.2000   -0.0000    0.0000 C   0  0  0  0  0  0  0  0  0  0  0  0
  -12.4695    0.9741    0.0000 H   0  0  0  0  0  0  0  0  0  0  0  0
  -11.4089    1.5863    0.0000 H   0  0  0  0  0  0  0  0  0  0  0  0
  -12.0001   -1.3856    0.0000 C   0  0  0  0  0  0  0  0  0  0  0  0
  -10.7307   -2.3597    0.0000 H   0  0  0  0  0  0  0  0  0  0  0  0
  -11.7913   -2.9720    0.0000 H   0  0  0  0  0  0  0  0  0  0  0  0
  -13.6001   -1.3856    0.0000 C   0  0  0  0  0  0  0  0  0  0  0  0
  -15.2000   -1.3856    0.0000 H   0  0  0  0  0  0  0  0  0  0  0  0
  -14.3999   -2.7713    0.0000 H   0  0  0  0  0  0  0  0  0  0  0  0
  -14.3999   -0.0000    0.0000 H   0  0  0  0  0  0  0  0  0  0  0  0
   -4.8000    2.7713    0.0000 C   0  0  0  0  0  0  0  0  0  0  0  0
   -3.9999    1.3856    0.0000 C   0  0  0  0  0  0  0  0  0  0  0  0
   -4.8000   -0.0000    0.0000 O   0  0  0  0  0  0  0  0  0  0  0  0
   -2.4000    1.3856    0.0000 O   0  0  0  0  0  0  0  0  0  0  0  0
   -1.5999   -0.0000    0.0000 C   0  0  0  0  0  0  0  0  0  0  0  0
   -1.8088   -1.5864    0.0000 H   0  0  0  0  0  0  0  0  0  0  0  0
   -2.8693   -0.9739    0.0000 H   0  0  0  0  0  0  0  0  0  0  0  0
    0.0000   -0.0000    0.0000 C   0  0  0  0  0  0  0  0  0  0  0  0
    0.2089    1.5863    0.0000 H   0  0  0  0  0  0  0  0  0  0  0  0
    1.2695    0.9741    0.0000 H   0  0  0  0  0  0  0  0  0  0  0  0
    0.8001   -1.3856    0.0000 C   0  0  0  0  0  0  0  0  0  0  0  0
    0.5913   -2.9720    0.0000 H   0  0  0  0  0  0  0  0  0  0  0  0
   -0.4693   -2.3597    0.0000 H   0  0  0  0  0  0  0  0  0  0  0  0
    2.4001   -1.3856    0.0000 C   0  0  0  0  0  0  0  0  0  0  0  0
    4.0000   -1.3856    0.0000 H   0  0  0  0  0  0  0  0  0  0  0  0
    3.1999   -2.7713    0.0000 H   0  0  0  0  0  0  0  0  0  0  0  0
    3.1999   -0.0000    0.0000 H   0  0  0  0  0  0  0  0  0  0  0  0
   -3.9999    4.1569    0.0000 C   0  0  0  0  0  0  0  0  0  0  0  0
   -2.4000    4.1569    0.0000 H   0  0  0  0  0  0  0  0  0  0  0  0
  1  2  1  0  0  0  0
  1  3  1  0  0  0  0
  3  4  1  0  0  0  0
  3  5  2  0  0  0  0
  5  6  1  0  0  0  0
  5  7  1  0  0  0  0
  7  8  1  0  0  0  0
  8  9  2  0  0  0  0
  8 10  1  0  0  0  0
 10 11  1  0  0  0  0
 11 12  1  0  0  0  0
 11 13  1  0  0  0  0
 11 14  1  0  0  0  0
 14 15  1  0  0  0  0
 14 16  1  0  0  0  0
 14 17  1  0  0  0  0
 17 18  1  0  0  0  0
 17 19  1  0  0  0  0
 17 20  1  0  0  0  0
 20 21  1  0  0  0  0
 20 22  1  0  0  0  0
 20 23  1  0  0  0  0
  7 24  2  0  0  0  0
 24 25  1  0  0  0  0
 25 26  2  0  0  0  0
 25 27  1  0  0  0  0
 27 28  1  0  0  0  0
 28 29  1  0  0  0  0
 28 30  1  0  0  0  0
 28 31  1  0  0  0  0
 31 32  1  0  0  0  0
 31 33  1  0  0  0  0
 31 34  1  0  0  0  0
 34 35  1  0  0  0  0
 34 36  1  0  0  0  0
 34 37  1  0  0  0  0
 37 38  1  0  0  0  0
 37 39  1  0  0  0  0
 37 40  1  0  0  0  0
 24 41  1  0  0  0  0
 41  1  2  0  0  0  0
 41 42  1  0  0  0  0
M  END
> <ChemID>
100080

> <source_casrn>
84-74-2

> <CAS>
84-74-2

> <SMILES>
CCCCOC(=O)c1ccccc1C(=O)OCCCC

> <NAME>
DIBUTYL PHTHALATE

> <preferred_name>
Dibutyl phthalate

> <iupac>
dibutyl benzene-1,2-dicarboxylate

> <MPID>
99357

> <dsstox_substance_id>
DTXSID2021781

> <Canonical_QSARr>
CCCCOC(=O)c1ccccc1C(=O)OCCCC

> <InChI_Code_QSARr>
InChI=1S/C16H22O4/c1-3-5-11-19-15(17)13-9-7-8-10-14(13)16(18)20-12-6-4-2/h7-10H,3-6,11-12H2,1-2H3

> <InChI Key_QSARr>
DOIRQSBPFJWKBE-UHFFFAOYSA-N

> <LogKOC>
3.14

$$$$
100082
  -INDIGO-08031722282D

 14 16  0  0  0  0  0  0  0  0999 V2000
    1.6000    2.7713    0.0000 C   0  0  0  0  0  0  0  0  0  0  0  0
    2.4001    1.3856    0.0000 N   0  0  0  0  0  0  0  0  0  0  0  0
    1.6000    0.0000    0.0000 C   0  0  0  0  0  0  0  0  0  0  0  0
    2.4001   -1.3856    0.0000 C   0  0  0  0  0  0  0  0  0  0  0  0
    4.0001   -1.3856    0.0000 C   0  0  0  0  0  0  0  0  0  0  0  0
    4.8000    0.0000    0.0000 C   0  0  0  0  0  0  0  0  0  0  0  0
    4.0001    1.3856    0.0000 C   0  0  0  0  0  0  0  0  0  0  0  0
    0.0000    0.0000    0.0000 C   0  0  0  0  0  0  0  0  0  0  0  0
   -0.8001    1.3856    0.0000 N   0  0  0  0  0  0  0  0  0  0  0  0
   -2.4001    1.3856    0.0000 C   0  0  0  0  0  0  0  0  0  0  0  0
   -3.2000    0.0000    0.0000 C   0  0  0  0  0  0  0  0  0  0  0  0
   -2.4001   -1.3856    0.0000 C   0  0  0  0  0  0  0  0  0  0  0  0
   -0.8001   -1.3856    0.0000 C   0  0  0  0  0  0  0  0  0  0  0  0
    0.0000    2.7713    0.0000 C   0  0  0  0  0  0  0  0  0  0  0  0
  1  2  1  0  0  0  0
  2  3  1  0  0  0  0
  3  4  2  0  0  0  0
  4  5  1  0  0  0  0
  5  6  2  0  0  0  0
  6  7  1  0  0  0  0
  7  2  2  0  0  0  0
  3  8  1  0  0  0  0
  8  9  1  0  0  0  0
  9 10  2  0  0  0  0
 10 11  1  0  0  0  0
 11 12  2  0  0  0  0
 12 13  1  0  0  0  0
 13  8  2  0  0  0  0
  9 14  1  0  0  0  0
 14  1  1  0  0  0  0
M  CHG  2   2   1   9   1
M  END
> <ChemID>
100082

> <source_casrn>
85-00-7

> <CAS>
85-00-7

> <SMILES>
[Br-].[Br-].C1C[n+]2ccccc2-c2cccc[n+]21

> <NAME>
DIQUAT DIBROMIDE

> <preferred_name>
Diquat dibromide

> <iupac>
6,7-dihydrodipyrido[1,2-a:2',1'-c]pyrazinediium dibromide

> <MPID>
99359

> <dsstox_substance_id>
DTXSID3024075

> <Canonical_QSARr>
C1C[n+]2ccccc2-c2cccc[n+]21

> <InChI_Code_QSARr>
InChI=1S/C12H12N2/c1-3-7-13-9-10-14-8-4-2-6-12(14)11(13)5-1/h1-8H,9-10H2/q+2

> <InChI Key_QSARr>
SYJFEGQWDCRVNX-UHFFFAOYSA-N

> <LogKOC>
2.7

$$$$
100083
  -INDIGO-08031722282D

 24 26  0  0  0  0  0  0  0  0999 V2000
   -0.0001    0.0000    0.0000 C   0  0  0  0  0  0  0  0  0  0  0  0
    1.6001    0.0000    0.0000 C   0  0  0  0  0  0  0  0  0  0  0  0
    2.4001   -1.3856    0.0000 C   0  0  0  0  0  0  0  0  0  0  0  0
    4.0000   -1.3856    0.0000 C   0  0  0  0  0  0  0  0  0  0  0  0
    4.8000   -2.7713    0.0000 H   0  0  0  0  0  0  0  0  0  0  0  0
    4.8000    0.0000    0.0000 C   0  0  0  0  0  0  0  0  0  0  0  0
    6.4000    0.0000    0.0000 H   0  0  0  0  0  0  0  0  0  0  0  0
    4.0000    1.3856    0.0000 C   0  0  0  0  0  0  0  0  0  0  0  0
    4.8000    2.7713    0.0000 H   0  0  0  0  0  0  0  0  0  0  0  0
    2.4001    1.3856    0.0000 C   0  0  0  0  0  0  0  0  0  0  0  0
    1.6001    2.7713    0.0000 H   0  0  0  0  0  0  0  0  0  0  0  0
    1.6001   -2.7713    0.0000 C   0  0  0  0  0  0  0  0  0  0  0  0
    2.4001   -4.1569    0.0000 H   0  0  0  0  0  0  0  0  0  0  0  0
   -0.0001   -2.7713    0.0000 C   0  0  0  0  0  0  0  0  0  0  0  0
   -0.8001   -4.1569    0.0000 H   0  0  0  0  0  0  0  0  0  0  0  0
   -0.8001   -1.3856    0.0000 C   0  0  0  0  0  0  0  0  0  0  0  0
   -2.4000   -1.3856    0.0000 C   0  0  0  0  0  0  0  0  0  0  0  0
   -3.2000   -2.7713    0.0000 H   0  0  0  0  0  0  0  0  0  0  0  0
   -3.2000    0.0000    0.0000 C   0  0  0  0  0  0  0  0  0  0  0  0
   -4.8000    0.0000    0.0000 H   0  0  0  0  0  0  0  0  0  0  0  0
   -2.4000    1.3856    0.0000 C   0  0  0  0  0  0  0  0  0  0  0  0
   -3.2000    2.7713    0.0000 H   0  0  0  0  0  0  0  0  0  0  0  0
   -0.8001    1.3856    0.0000 C   0  0  0  0  0  0  0  0  0  0  0  0
   -0.0001    2.7713    0.0000 H   0  0  0  0  0  0  0  0  0  0  0  0
  1  2  1  0  0  0  0
  2  3  1  0  0  0  0
  3  4  2  0  0  0  0
  4  5  1  0  0  0  0
  4  6  1  0  0  0  0
  6  7  1  0  0  0  0
  6  8  2  0  0  0  0
  8  9  1  0  0  0  0
  8 10  1  0  0  0  0
 10  2  2  0  0  0  0
 10 11  1  0  0  0  0
  3 12  1  0  0  0  0
 12 13  1  0  0  0  0
 12 14  2  0  0  0  0
 14 15  1  0  0  0  0
 14 16  1  0  0  0  0
 16  1  1  0  0  0  0
 16 17  2  0  0  0  0
 17 18  1  0  0  0  0
 17 19  1  0  0  0  0
 19 20  1  0  0  0  0
 19 21  2  0  0  0  0
 21 22  1  0  0  0  0
 21 23  1  0  0  0  0
 23  1  2  0  0  0  0
 23 24  1  0  0  0  0
M  END
> <ChemID>
100083

> <source_casrn>
85-01-8

> <CAS>
85-01-8

> <SMILES>
c1cc2ccccc2c2ccccc21

> <NAME>
PHENANTHRENE

> <preferred_name>
Phenanthrene

> <iupac>
phenanthrenato

> <MPID>
99360

> <dsstox_substance_id>
DTXSID6024254

> <Canonical_QSARr>
c1cc2ccccc2c2ccccc21

> <InChI_Code_QSARr>
InChI=1S/C14H10/c1-3-7-13-11(5-1)9-10-12-6-2-4-8-14(12)13/h1-10H

> <InChI Key_QSARr>
YNPNZTXNASCQKK-UHFFFAOYSA-N

> <LogKOC>
4.35

$$$$
100084
  -INDIGO-08031722282D

 23 25  0  0  0  0  0  0  0  0999 V2000
   -0.0001    0.0000    0.0000 C   0  0  0  0  0  0  0  0  0  0  0  0
   -0.8001    1.3856    0.0000 C   0  0  0  0  0  0  0  0  0  0  0  0
   -0.0001    2.7713    0.0000 H   0  0  0  0  0  0  0  0  0  0  0  0
   -2.4000    1.3856    0.0000 C   0  0  0  0  0  0  0  0  0  0  0  0
   -3.2000    2.7713    0.0000 H   0  0  0  0  0  0  0  0  0  0  0  0
   -3.2000    0.0000    0.0000 C   0  0  0  0  0  0  0  0  0  0  0  0
   -4.8000    0.0000    0.0000 H   0  0  0  0  0  0  0  0  0  0  0  0
   -2.4000   -1.3856    0.0000 C   0  0  0  0  0  0  0  0  0  0  0  0
   -3.2000   -2.7713    0.0000 H   0  0  0  0  0  0  0  0  0  0  0  0
   -0.8001   -1.3856    0.0000 C   0  0  0  0  0  0  0  0  0  0  0  0
   -0.0001   -2.7713    0.0000 C   0  0  0  0  0  0  0  0  0  0  0  0
   -0.8001   -4.1569    0.0000 H   0  0  0  0  0  0  0  0  0  0  0  0
    1.6001   -2.7713    0.0000 C   0  0  0  0  0  0  0  0  0  0  0  0
    2.4001   -4.1569    0.0000 H   0  0  0  0  0  0  0  0  0  0  0  0
    2.4001   -1.3856    0.0000 C   0  0  0  0  0  0  0  0  0  0  0  0
    1.6001    0.0000    0.0000 C   0  0  0  0  0  0  0  0  0  0  0  0
    2.4001    1.3856    0.0000 C   0  0  0  0  0  0  0  0  0  0  0  0
    1.6001    2.7713    0.0000 H   0  0  0  0  0  0  0  0  0  0  0  0
    4.0000    1.3856    0.0000 C   0  0  0  0  0  0  0  0  0  0  0  0
    4.8000    2.7713    0.0000 H   0  0  0  0  0  0  0  0  0  0  0  0
    4.8000    0.0000    0.0000 C   0  0  0  0  0  0  0  0  0  0  0  0
    6.4000    0.0000    0.0000 H   0  0  0  0  0  0  0  0  0  0  0  0
    4.0000   -1.3856    0.0000 N   0  0  0  0  0  0  0  0  0  0  0  0
  1  2  1  0  0  0  0
  2  3  1  0  0  0  0
  2  4  2  0  0  0  0
  4  5  1  0  0  0  0
  4  6  1  0  0  0  0
  6  7  1  0  0  0  0
  6  8  2  0  0  0  0
  8  9  1  0  0  0  0
  8 10  1  0  0  0  0
 10  1  1  0  0  0  0
 10 11  2  0  0  0  0
 11 12  1  0  0  0  0
 11 13  1  0  0  0  0
 13 14  1  0  0  0  0
 13 15  2  0  0  0  0
 15 16  1  0  0  0  0
 16  1  2  0  0  0  0
 16 17  1  0  0  0  0
 17 18  1  0  0  0  0
 17 19  2  0  0  0  0
 19 20  1  0  0  0  0
 19 21  1  0  0  0  0
 21 22  1  0  0  0  0
 21 23  2  0  0  0  0
 23 15  1  0  0  0  0
M  END
> <ChemID>
100084

> <source_casrn>
85-02-9

> <CAS>
85-02-9

> <SMILES>
c1cccc2c3ccc[n]c3ccc21

> <NAME>
BENZO(F)QUINOLINE

> <preferred_name>
Benzo(f)quinoline

> <iupac>
benzo[f]quinoline

> <MPID>
99361

> <dsstox_substance_id>
DTXSID2024585

> <Canonical_QSARr>
c1cccc2c3ccc[n]c3ccc21

> <InChI_Code_QSARr>
InChI=1S/C13H9N/c1-2-5-11-10(4-1)7-8-13-12(11)6-3-9-14-13/h1-9H

> <InChI Key_QSARr>
HCAUQPZEWLULFJ-UHFFFAOYSA-N

> <LogKOC>
4.64

$$$$
100085
  -INDIGO-08031722282D

 18 18  0  0  0  0  0  0  0  0999 V2000
    0.8001   -1.3856    0.0000 C   0  0  0  0  0  0  0  0  0  0  0  0
    2.4000   -1.3856    0.0000 H   0  0  0  0  0  0  0  0  0  0  0  0
    1.6000   -2.7713    0.0000 H   0  0  0  0  0  0  0  0  0  0  0  0
    1.6000   -0.0000    0.0000 H   0  0  0  0  0  0  0  0  0  0  0  0
    0.0000   -0.0000    0.0000 C   0  0  0  0  0  0  0  0  0  0  0  0
    0.2088    1.5863    0.0000 H   0  0  0  0  0  0  0  0  0  0  0  0
    1.2694    0.9740    0.0000 H   0  0  0  0  0  0  0  0  0  0  0  0
   -1.6000    0.0000    0.0000 C   0  0  0  0  0  0  0  0  0  0  0  0
   -2.4000    1.3856    0.0000 C   0  0  0  0  0  0  0  0  0  0  0  0
   -1.6000    2.7713    0.0000 Br  0  0  0  0  0  0  0  0  0  0  0  0
   -4.0000    1.3856    0.0000 C   0  0  0  0  0  0  0  0  0  0  0  0
   -4.8001    2.7713    0.0000 Br  0  0  0  0  0  0  0  0  0  0  0  0
   -4.8001    0.0000    0.0000 C   0  0  0  0  0  0  0  0  0  0  0  0
   -6.4000    0.0000    0.0000 Br  0  0  0  0  0  0  0  0  0  0  0  0
   -4.0000   -1.3856    0.0000 C   0  0  0  0  0  0  0  0  0  0  0  0
   -4.8001   -2.7713    0.0000 Br  0  0  0  0  0  0  0  0  0  0  0  0
   -2.4000   -1.3856    0.0000 C   0  0  0  0  0  0  0  0  0  0  0  0
   -1.6000   -2.7713    0.0000 Br  0  0  0  0  0  0  0  0  0  0  0  0
  1  2  1  0  0  0  0
  1  3  1  0  0  0  0
  1  4  1  0  0  0  0
  1  5  1  0  0  0  0
  5  6  1  0  0  0  0
  5  7  1  0  0  0  0
  5  8  1  0  0  0  0
  8  9  1  0  0  0  0
  9 10  1  0  0  0  0
  9 11  2  0  0  0  0
 11 12  1  0  0  0  0
 11 13  1  0  0  0  0
 13 14  1  0  0  0  0
 13 15  2  0  0  0  0
 15 16  1  0  0  0  0
 15 17  1  0  0  0  0
 17  8  2  0  0  0  0
 17 18  1  0  0  0  0
M  END
> <ChemID>
100085

> <source_casrn>
85-22-3

> <CAS>
85-22-3

> <SMILES>
c(c(c(c(c1Br)Br)Br)Br)(c1Br)CC

> <NAME>
PENTABROMOETHYLBENZENE

> <preferred_name>
2,3,4,5,6-Pentabromoethylbenzene

> <iupac>
1,2,3,4,5-pentabromo-6-ethylbenzene

> <MPID>
99362

> <dsstox_substance_id>
DTXSID7021782

> <Canonical_QSARr>
CCc1c(Br)c(Br)c(Br)c(Br)c1Br

> <InChI_Code_QSARr>
InChI=1S/C8H5Br5/c1-2-3-4(9)6(11)8(13)7(12)5(3)10/h2H2,1H3

> <InChI Key_QSARr>
FIAXCDIQXHJNIX-UHFFFAOYSA-N

> <LogKOC>
4.92

$$$$
100087
  -INDIGO-08031722282D

 15 16  0  0  0  0  0  0  0  0999 V2000
   -3.6161    2.0161    0.0000 O   0  0  0  0  0  0  0  0  0  0  0  0
   -2.0944    1.5217    0.0000 C   0  0  0  0  0  0  0  0  0  0  0  0
   -1.6000   -0.0000    0.0000 C   0  0  0  0  0  0  0  0  0  0  0  0
   -0.0000   -0.0000    0.0000 C   0  0  0  0  0  0  0  0  0  0  0  0
    0.8000   -1.3857    0.0000 C   0  0  0  0  0  0  0  0  0  0  0  0
    2.4000   -1.3857    0.0000 H   0  0  0  0  0  0  0  0  0  0  0  0
   -0.0000   -2.7713    0.0000 C   0  0  0  0  0  0  0  0  0  0  0  0
    0.8000   -4.1569    0.0000 H   0  0  0  0  0  0  0  0  0  0  0  0
   -1.6000   -2.7713    0.0000 C   0  0  0  0  0  0  0  0  0  0  0  0
   -2.4000   -4.1569    0.0000 H   0  0  0  0  0  0  0  0  0  0  0  0
   -2.4000   -1.3857    0.0000 C   0  0  0  0  0  0  0  0  0  0  0  0
   -4.0000   -1.3857    0.0000 H   0  0  0  0  0  0  0  0  0  0  0  0
    0.4944    1.5217    0.0000 C   0  0  0  0  0  0  0  0  0  0  0  0
    2.0161    2.0161    0.0000 O   0  0  0  0  0  0  0  0  0  0  0  0
   -0.8000    2.4621    0.0000 O   0  0  0  0  0  0  0  0  0  0  0  0
  1  2  2  0  0  0  0
  2  3  1  0  0  0  0
  3  4  1  0  0  0  0
  4  5  2  0  0  0  0
  5  6  1  0  0  0  0
  5  7  1  0  0  0  0
  7  8  1  0  0  0  0
  7  9  2  0  0  0  0
  9 10  1  0  0  0  0
  9 11  1  0  0  0  0
 11  3  2  0  0  0  0
 11 12  1  0  0  0  0
  4 13  1  0  0  0  0
 13 14  2  0  0  0  0
 13 15  1  0  0  0  0
 15  2  1  0  0  0  0
M  END
> <ChemID>
100087

> <source_casrn>
85-44-9

> <CAS>
85-44-9

> <SMILES>
O=C1OC(=O)c2ccccc12

> <NAME>
PHTHALIC ANHYDRIDE

> <preferred_name>
Phthalic anhydride

> <iupac>
2-benzofuran-1,3-dione

> <MPID>
99364

> <dsstox_substance_id>
DTXSID2021159

> <Canonical_QSARr>
O=C1OC(=O)c2ccccc12

> <InChI_Code_QSARr>
InChI=1S/C8H4O3/c9-7-5-3-1-2-4-6(5)8(10)11-7/h1-4H

> <InChI Key_QSARr>
LGRFSURHDFAFJT-UHFFFAOYSA-N

> <LogKOC>
1.56

$$$$
100088
  -INDIGO-08031722282D

 43 44  0  0  0  0  0  0  0  0999 V2000
   -4.7999   -2.7713    0.0000 C   0  0  0  0  0  0  0  0  0  0  0  0
   -4.0000   -1.3856    0.0000 C   0  0  0  0  0  0  0  0  0  0  0  0
   -2.3999   -1.3856    0.0000 O   0  0  0  0  0  0  0  0  0  0  0  0
   -1.6001    0.0000    0.0000 C   0  0  0  0  0  0  0  0  0  0  0  0
   -2.8693    0.9739    0.0000 H   0  0  0  0  0  0  0  0  0  0  0  0
   -1.8088    1.5864    0.0000 H   0  0  0  0  0  0  0  0  0  0  0  0
    0.0000    0.0000    0.0000 C   0  0  0  0  0  0  0  0  0  0  0  0
    1.2692   -0.9741    0.0000 H   0  0  0  0  0  0  0  0  0  0  0  0
    0.2087   -1.5863    0.0000 H   0  0  0  0  0  0  0  0  0  0  0  0
    0.7999    1.3856    0.0000 C   0  0  0  0  0  0  0  0  0  0  0  0
   -0.4694    2.3597    0.0000 H   0  0  0  0  0  0  0  0  0  0  0  0
    0.5911    2.9720    0.0000 H   0  0  0  0  0  0  0  0  0  0  0  0
    2.3999    1.3856    0.0000 C   0  0  0  0  0  0  0  0  0  0  0  0
    4.0000    1.3856    0.0000 H   0  0  0  0  0  0  0  0  0  0  0  0
    3.2001    2.7713    0.0000 H   0  0  0  0  0  0  0  0  0  0  0  0
    3.2001    0.0000    0.0000 H   0  0  0  0  0  0  0  0  0  0  0  0
   -4.7999    0.0000    0.0000 O   0  0  0  0  0  0  0  0  0  0  0  0
   -6.3999   -2.7713    0.0000 C   0  0  0  0  0  0  0  0  0  0  0  0
   -7.2001   -1.3856    0.0000 C   0  0  0  0  0  0  0  0  0  0  0  0
   -8.7999   -1.3856    0.0000 O   0  0  0  0  0  0  0  0  0  0  0  0
   -9.6001    0.0000    0.0000 C   0  0  0  0  0  0  0  0  0  0  0  0
   -9.3910    1.5864    0.0000 H   0  0  0  0  0  0  0  0  0  0  0  0
   -8.3305    0.9739    0.0000 H   0  0  0  0  0  0  0  0  0  0  0  0
  -11.2001    0.0000    0.0000 C   0  0  0  0  0  0  0  0  0  0  0  0
  -12.0000    1.3856    0.0000 C   0  0  0  0  0  0  0  0  0  0  0  0
  -11.2001    2.7713    0.0000 H   0  0  0  0  0  0  0  0  0  0  0  0
  -13.6001    1.3856    0.0000 C   0  0  0  0  0  0  0  0  0  0  0  0
  -14.3999    2.7713    0.0000 H   0  0  0  0  0  0  0  0  0  0  0  0
  -14.3999    0.0000    0.0000 C   0  0  0  0  0  0  0  0  0  0  0  0
  -16.0000    0.0000    0.0000 H   0  0  0  0  0  0  0  0  0  0  0  0
  -13.6001   -1.3856    0.0000 C   0  0  0  0  0  0  0  0  0  0  0  0
  -14.3999   -2.7713    0.0000 H   0  0  0  0  0  0  0  0  0  0  0  0
  -12.0000   -1.3856    0.0000 C   0  0  0  0  0  0  0  0  0  0  0  0
  -11.2001   -2.7713    0.0000 H   0  0  0  0  0  0  0  0  0  0  0  0
   -6.3999    0.0000    0.0000 O   0  0  0  0  0  0  0  0  0  0  0  0
   -7.2001   -4.1569    0.0000 C   0  0  0  0  0  0  0  0  0  0  0  0
   -8.7999   -4.1569    0.0000 H   0  0  0  0  0  0  0  0  0  0  0  0
   -6.3999   -5.5426    0.0000 C   0  0  0  0  0  0  0  0  0  0  0  0
   -7.2001   -6.9282    0.0000 H   0  0  0  0  0  0  0  0  0  0  0  0
   -4.7999   -5.5426    0.0000 C   0  0  0  0  0  0  0  0  0  0  0  0
   -4.0000   -6.9282    0.0000 H   0  0  0  0  0  0  0  0  0  0  0  0
   -4.0000   -4.1569    0.0000 C   0  0  0  0  0  0  0  0  0  0  0  0
   -2.3999   -4.1569    0.0000 H   0  0  0  0  0  0  0  0  0  0  0  0
  1  2  1  0  0  0  0
  2  3  1  0  0  0  0
  3  4  1  0  0  0  0
  4  5  1  0  0  0  0
  4  6  1  0  0  0  0
  4  7  1  0  0  0  0
  7  8  1  0  0  0  0
  7  9  1  0  0  0  0
  7 10  1  0  0  0  0
 10 11  1  0  0  0  0
 10 12  1  0  0  0  0
 10 13  1  0  0  0  0
 13 14  1  0  0  0  0
 13 15  1  0  0  0  0
 13 16  1  0  0  0  0
  2 17  2  0  0  0  0
  1 18  1  0  0  0  0
 18 19  1  0  0  0  0
 19 20  1  0  0  0  0
 20 21  1  0  0  0  0
 21 22  1  0  0  0  0
 21 23  1  0  0  0  0
 21 24  1  0  0  0  0
 24 25  1  0  0  0  0
 25 26  1  0  0  0  0
 25 27  2  0  0  0  0
 27 28  1  0  0  0  0
 27 29  1  0  0  0  0
 29 30  1  0  0  0  0
 29 31  2  0  0  0  0
 31 32  1  0  0  0  0
 31 33  1  0  0  0  0
 33 24  2  0  0  0  0
 33 34  1  0  0  0  0
 19 35  2  0  0  0  0
 18 36  2  0  0  0  0
 36 37  1  0  0  0  0
 36 38  1  0  0  0  0
 38 39  1  0  0  0  0
 38 40  2  0  0  0  0
 40 41  1  0  0  0  0
 40 42  1  0  0  0  0
 42  1  2  0  0  0  0
 42 43  1  0  0  0  0
M  END
> <ChemID>
100088

> <source_casrn>
85-68-7

> <CAS>
85-68-7

> <SMILES>
CCCCOC(=O)c1ccccc1C(=O)OCc1ccccc1

> <NAME>
BUTYL BENZYL PHTHALATE

> <preferred_name>
Butyl benzyl phthalate

> <iupac>
benzyl butyl benzene-1,2-dicarboxylate

> <MPID>
99365

> <dsstox_substance_id>
DTXSID3020205

> <Canonical_QSARr>
CCCCOC(=O)c1ccccc1C(=O)OCc1ccccc1

> <InChI_Code_QSARr>
InChI=1S/C19H20O4/c1-2-3-13-22-18(20)16-11-7-8-12-17(16)19(21)23-14-15-9-5-4-6-10-15/h4-12H,2-3,13-14H2,1H3

> <InChI Key_QSARr>
IRIAEXORFWYRCZ-UHFFFAOYSA-N

> <LogKOC>
3.72

$$$$
100089
  -INDIGO-08031722282D

 48 48  0  0  0  0  0  0  0  0999 V2000
   10.4001   -6.9283    0.0000 C   0  0  0  0  0  0  0  0  0  0  0  0
   12.0001   -6.9283    0.0000 H   0  0  0  0  0  0  0  0  0  0  0  0
    9.6000   -5.5426    0.0000 C   0  0  0  0  0  0  0  0  0  0  0  0
   10.4001   -4.1569    0.0000 C   0  0  0  0  0  0  0  0  0  0  0  0
   12.0001   -4.1569    0.0000 O   0  0  0  0  0  0  0  0  0  0  0  0
   12.7999   -2.7713    0.0000 C   0  0  0  0  0  0  0  0  0  0  0  0
   11.5308   -1.7972    0.0000 H   0  0  0  0  0  0  0  0  0  0  0  0
   12.5911   -1.1849    0.0000 H   0  0  0  0  0  0  0  0  0  0  0  0
   14.3999   -2.7713    0.0000 C   0  0  0  0  0  0  0  0  0  0  0  0
   15.6693   -3.7453    0.0000 H   0  0  0  0  0  0  0  0  0  0  0  0
   14.6087   -4.3576    0.0000 H   0  0  0  0  0  0  0  0  0  0  0  0
   15.2000   -1.3856    0.0000 C   0  0  0  0  0  0  0  0  0  0  0  0
   13.9306   -0.4115    0.0000 H   0  0  0  0  0  0  0  0  0  0  0  0
   14.9912    0.2006    0.0000 H   0  0  0  0  0  0  0  0  0  0  0  0
   16.8000   -1.3856    0.0000 C   0  0  0  0  0  0  0  0  0  0  0  0
   18.4000   -1.3856    0.0000 H   0  0  0  0  0  0  0  0  0  0  0  0
   17.5998    0.0001    0.0000 H   0  0  0  0  0  0  0  0  0  0  0  0
   17.5998   -2.7713    0.0000 H   0  0  0  0  0  0  0  0  0  0  0  0
    9.6000   -2.7713    0.0000 O   0  0  0  0  0  0  0  0  0  0  0  0
    8.0000   -5.5426    0.0000 C   0  0  0  0  0  0  0  0  0  0  0  0
    7.2002   -4.1569    0.0000 C   0  0  0  0  0  0  0  0  0  0  0  0
    5.5999   -4.1569    0.0000 O   0  0  0  0  0  0  0  0  0  0  0  0
    4.8000   -2.7713    0.0000 C   0  0  0  0  0  0  0  0  0  0  0  0
    5.0089   -1.1849    0.0000 H   0  0  0  0  0  0  0  0  0  0  0  0
    6.0695   -1.7972    0.0000 H   0  0  0  0  0  0  0  0  0  0  0  0
    3.2001   -2.7713    0.0000 C   0  0  0  0  0  0  0  0  0  0  0  0
    2.3999   -1.3856    0.0000 O   0  0  0  0  0  0  0  0  0  0  0  0
    0.7999   -1.3856    0.0000 C   0  0  0  0  0  0  0  0  0  0  0  0
    0.5911   -2.9719    0.0000 H   0  0  0  0  0  0  0  0  0  0  0  0
   -0.4695   -2.3597    0.0000 H   0  0  0  0  0  0  0  0  0  0  0  0
    0.0001    0.0001    0.0000 C   0  0  0  0  0  0  0  0  0  0  0  0
    0.2090    1.5863    0.0000 H   0  0  0  0  0  0  0  0  0  0  0  0
    1.2692    0.9740    0.0000 H   0  0  0  0  0  0  0  0  0  0  0  0
   -1.5999    0.0001    0.0000 C   0  0  0  0  0  0  0  0  0  0  0  0
   -1.8087   -1.5864    0.0000 H   0  0  0  0  0  0  0  0  0  0  0  0
   -2.8693   -0.9740    0.0000 H   0  0  0  0  0  0  0  0  0  0  0  0
   -2.4000    1.3856    0.0000 C   0  0  0  0  0  0  0  0  0  0  0  0
   -3.1998    2.7713    0.0000 H   0  0  0  0  0  0  0  0  0  0  0  0
   -4.0000    1.3856    0.0000 H   0  0  0  0  0  0  0  0  0  0  0  0
   -1.5999    2.7713    0.0000 H   0  0  0  0  0  0  0  0  0  0  0  0
    2.3999   -4.1569    0.0000 O   0  0  0  0  0  0  0  0  0  0  0  0
    8.0000   -2.7713    0.0000 O   0  0  0  0  0  0  0  0  0  0  0  0
    7.2002   -6.9283    0.0000 C   0  0  0  0  0  0  0  0  0  0  0  0
    5.5999   -6.9283    0.0000 H   0  0  0  0  0  0  0  0  0  0  0  0
    8.0000   -8.3138    0.0000 C   0  0  0  0  0  0  0  0  0  0  0  0
    7.2002   -9.6995    0.0000 H   0  0  0  0  0  0  0  0  0  0  0  0
    9.6000   -8.3138    0.0000 C   0  0  0  0  0  0  0  0  0  0  0  0
   10.4001   -9.6995    0.0000 H   0  0  0  0  0  0  0  0  0  0  0  0
  1  2  1  0  0  0  0
  1  3  1  0  0  0  0
  3  4  1  0  0  0  0
  4  5  1  0  0  0  0
  5  6  1  0  0  0  0
  6  7  1  0  0  0  0
  6  8  1  0  0  0  0
  6  9  1  0  0  0  0
  9 10  1  0  0  0  0
  9 11  1  0  0  0  0
  9 12  1  0  0  0  0
 12 13  1  0  0  0  0
 12 14  1  0  0  0  0
 12 15  1  0  0  0  0
 15 16  1  0  0  0  0
 15 17  1  0  0  0  0
 15 18  1  0  0  0  0
  4 19  2  0  0  0  0
  3 20  2  0  0  0  0
 20 21  1  0  0  0  0
 21 22  1  0  0  0  0
 22 23  1  0  0  0  0
 23 24  1  0  0  0  0
 23 25  1  0  0  0  0
 23 26  1  0  0  0  0
 26 27  1  0  0  0  0
 27 28  1  0  0  0  0
 28 29  1  0  0  0  0
 28 30  1  0  0  0  0
 28 31  1  0  0  0  0
 31 32  1  0  0  0  0
 31 33  1  0  0  0  0
 31 34  1  0  0  0  0
 34 35  1  0  0  0  0
 34 36  1  0  0  0  0
 34 37  1  0  0  0  0
 37 38  1  0  0  0  0
 37 39  1  0  0  0  0
 37 40  1  0  0  0  0
 26 41  2  0  0  0  0
 21 42  2  0  0  0  0
 20 43  1  0  0  0  0
 43 44  1  0  0  0  0
 43 45  2  0  0  0  0
 45 46  1  0  0  0  0
 45 47  1  0  0  0  0
 47  1  2  0  0  0  0
 47 48  1  0  0  0  0
M  END
> <ChemID>
100089

> <source_casrn>
85-70-1

> <CAS>
85-70-1

> <SMILES>
O=C(OCC(=O)OCCCC)c(c(ccc1)C(=O)OCCCC)c1

> <NAME>
BUTYLGLYCOLYL BUTYL PHTHALATE

> <preferred_name>
Butylphthalyl butylglycolate

> <iupac>
2-butoxy-2-oxoethyl butyl benzene-1,2-dicarboxylate

> <MPID>
99366

> <dsstox_substance_id>
DTXSID7023938

> <Canonical_QSARr>
CCCCOC(=O)COC(=O)c1ccccc1C(=O)OCCCC

> <InChI_Code_QSARr>
InChI=1S/C18H24O6/c1-3-5-11-22-16(19)13-24-18(21)15-10-8-7-9-14(15)17(20)23-12-6-4-2/h7-10H,3-6,11-13H2,1-2H3

> <InChI Key_QSARr>
GOJCZVPJCKEBQV-UHFFFAOYSA-N

> <LogKOC>
3.7

$$$$
100091
  -INDIGO-08031722282D

 31 32  0  0  0  0  0  0  0  0999 V2000
   -1.3857   -2.4000    0.0000 O   0  0  0  0  0  0  0  0  0  0  0  0
   -1.3857   -0.8000    0.0000 C   0  0  0  0  0  0  0  0  0  0  0  0
    0.0000    0.0000    0.0000 C   0  0  0  0  0  0  0  0  0  0  0  0
    0.0000    1.6000    0.0000 C   0  0  0  0  0  0  0  0  0  0  0  0
    1.3857    2.4000    0.0000 C   0  0  0  0  0  0  0  0  0  0  0  0
    1.3857    4.0000    0.0000 H   0  0  0  0  0  0  0  0  0  0  0  0
    2.7712    1.6000    0.0000 C   0  0  0  0  0  0  0  0  0  0  0  0
    4.1569    2.4000    0.0000 H   0  0  0  0  0  0  0  0  0  0  0  0
    2.7712    0.0000    0.0000 C   0  0  0  0  0  0  0  0  0  0  0  0
    4.1569   -0.8000    0.0000 H   0  0  0  0  0  0  0  0  0  0  0  0
    1.3857   -0.8000    0.0000 C   0  0  0  0  0  0  0  0  0  0  0  0
    1.3857   -2.4000    0.0000 H   0  0  0  0  0  0  0  0  0  0  0  0
   -1.3857    2.4000    0.0000 N   0  0  0  0  0  0  0  0  0  0  0  0
   -2.7714    1.6000    0.0000 N   0  0  0  0  0  0  0  0  0  0  0  0
   -2.7714    0.0000    0.0000 N   0  0  0  0  0  0  0  0  0  0  0  0
   -4.1568   -0.8000    0.0000 C   0  0  0  0  0  0  0  0  0  0  0  0
   -3.5447   -2.2782    0.0000 H   0  0  0  0  0  0  0  0  0  0  0  0
   -4.7692   -2.2782    0.0000 H   0  0  0  0  0  0  0  0  0  0  0  0
   -5.5425    0.0000    0.0000 S   0  0  0  0  0  0  0  0  0  0  0  0
   -6.9282   -0.8000    0.0000 P   0  0  0  0  0  0  0  0  0  0  0  0
   -6.9282   -2.4000    0.0000 S   0  0  0  0  0  0  0  0  0  0  0  0
   -8.3139   -1.6000    0.0000 O   0  0  0  0  0  0  0  0  0  0  0  0
   -9.6994   -0.8000    0.0000 C   0  0  0  0  0  0  0  0  0  0  0  0
  -11.0851   -1.6000    0.0000 H   0  0  0  0  0  0  0  0  0  0  0  0
  -11.0851    0.0000    0.0000 H   0  0  0  0  0  0  0  0  0  0  0  0
   -9.6994   -2.4000    0.0000 H   0  0  0  0  0  0  0  0  0  0  0  0
   -8.3139    0.0000    0.0000 O   0  0  0  0  0  0  0  0  0  0  0  0
   -8.3139    1.6000    0.0000 C   0  0  0  0  0  0  0  0  0  0  0  0
   -8.3139    3.2000    0.0000 H   0  0  0  0  0  0  0  0  0  0  0  0
   -9.6994    2.4000    0.0000 H   0  0  0  0  0  0  0  0  0  0  0  0
   -6.9282    2.4000    0.0000 H   0  0  0  0  0  0  0  0  0  0  0  0
  1  2  2  0  0  0  0
  2  3  1  0  0  0  0
  3  4  1  0  0  0  0
  4  5  2  0  0  0  0
  5  6  1  0  0  0  0
  5  7  1  0  0  0  0
  7  8  1  0  0  0  0
  7  9  2  0  0  0  0
  9 10  1  0  0  0  0
  9 11  1  0  0  0  0
 11  3  2  0  0  0  0
 11 12  1  0  0  0  0
  4 13  1  0  0  0  0
 13 14  2  0  0  0  0
 14 15  1  0  0  0  0
 15  2  1  0  0  0  0
 15 16  1  0  0  0  0
 16 17  1  0  0  0  0
 16 18  1  0  0  0  0
 16 19  1  0  0  0  0
 19 20  1  0  0  0  0
 20 21  2  0  0  0  0
 20 22  1  0  0  0  0
 22 23  1  0  0  0  0
 23 24  1  0  0  0  0
 23 25  1  0  0  0  0
 23 26  1  0  0  0  0
 20 27  1  0  0  0  0
 27 28  1  0  0  0  0
 28 29  1  0  0  0  0
 28 30  1  0  0  0  0
 28 31  1  0  0  0  0
M  END
> <ChemID>
100091

> <source_casrn>
86-50-0

> <CAS>
86-50-0

> <SMILES>
S=P(OC)(OC)SCN1N=Nc2ccccc2C1(=O)

> <NAME>
METHYL AZINPHOS

> <preferred_name>
Azinphos-methyl

> <iupac>
O,O-dimethyl S-[(4-oxo-1,2,3-benzotriazin-3(4H)-yl)methyl] phosphorodithioate

> <MPID>
99368

> <dsstox_substance_id>
DTXSID3020122

> <Canonical_QSARr>
COP(=S)(OC)SCN1N=Nc2ccccc2C1=O

> <InChI_Code_QSARr>
InChI=1S/C10H12N3O3PS2/c1-15-17(18,16-2)19-7-13-10(14)8-5-3-4-6-9(8)11-12-13/h3-6H,7H2,1-2H3

> <InChI Key_QSARr>
CJJOSEISRRTUQB-UHFFFAOYSA-N

> <LogKOC>
2.28

$$$$
100092
  -INDIGO-08031722282D

 23 25  0  0  0  0  0  0  0  0999 V2000
   -0.2706   -2.5747    0.0000 C   0  0  0  0  0  0  0  0  0  0  0  0
    1.2945   -2.2420    0.0000 C   0  0  0  0  0  0  0  0  0  0  0  0
    1.4616   -0.6508    0.0000 C   0  0  0  0  0  0  0  0  0  0  0  0
    2.9233    0.0000    0.0000 C   0  0  0  0  0  0  0  0  0  0  0  0
    3.0906    1.5912    0.0000 H   0  0  0  0  0  0  0  0  0  0  0  0
    4.2177   -0.9405    0.0000 C   0  0  0  0  0  0  0  0  0  0  0  0
    5.6794   -0.2897    0.0000 H   0  0  0  0  0  0  0  0  0  0  0  0
    4.0506   -2.5317    0.0000 C   0  0  0  0  0  0  0  0  0  0  0  0
    5.3450   -3.4721    0.0000 H   0  0  0  0  0  0  0  0  0  0  0  0
    2.5889   -3.1825    0.0000 C   0  0  0  0  0  0  0  0  0  0  0  0
    2.4215   -4.7737    0.0000 H   0  0  0  0  0  0  0  0  0  0  0  0
    0.0001    0.0000    0.0000 C   0  0  0  0  0  0  0  0  0  0  0  0
    0.8001    1.3857    0.0000 H   0  0  0  0  0  0  0  0  0  0  0  0
   -1.2944    0.9404    0.0000 H   0  0  0  0  0  0  0  0  0  0  0  0
   -1.0706   -1.1890    0.0000 C   0  0  0  0  0  0  0  0  0  0  0  0
   -2.6706   -1.1890    0.0000 C   0  0  0  0  0  0  0  0  0  0  0  0
   -3.4706    0.1966    0.0000 H   0  0  0  0  0  0  0  0  0  0  0  0
   -3.4706   -2.5747    0.0000 C   0  0  0  0  0  0  0  0  0  0  0  0
   -5.0706   -2.5747    0.0000 H   0  0  0  0  0  0  0  0  0  0  0  0
   -2.6706   -3.9603    0.0000 C   0  0  0  0  0  0  0  0  0  0  0  0
   -3.4706   -5.3460    0.0000 H   0  0  0  0  0  0  0  0  0  0  0  0
   -1.0706   -3.9603    0.0000 C   0  0  0  0  0  0  0  0  0  0  0  0
   -0.2706   -5.3460    0.0000 H   0  0  0  0  0  0  0  0  0  0  0  0
  1  2  1  0  0  0  0
  2  3  1  0  0  0  0
  3  4  2  0  0  0  0
  4  5  1  0  0  0  0
  4  6  1  0  0  0  0
  6  7  1  0  0  0  0
  6  8  2  0  0  0  0
  8  9  1  0  0  0  0
  8 10  1  0  0  0  0
 10  2  2  0  0  0  0
 10 11  1  0  0  0  0
  3 12  1  0  0  0  0
 12 13  1  0  0  0  0
 12 14  1  0  0  0  0
 12 15  1  0  0  0  0
 15  1  1  0  0  0  0
 15 16  2  0  0  0  0
 16 17  1  0  0  0  0
 16 18  1  0  0  0  0
 18 19  1  0  0  0  0
 18 20  2  0  0  0  0
 20 21  1  0  0  0  0
 20 22  1  0  0  0  0
 22  1  2  0  0  0  0
 22 23  1  0  0  0  0
M  END
> <ChemID>
100092

> <source_casrn>
86-73-7

> <CAS>
86-73-7

> <SMILES>
C1c2ccccc2-c2ccccc21

> <NAME>
9H-FLUORENE

> <preferred_name>
Fluorene

> <iupac>
9H-fluorene

> <MPID>
99369

> <dsstox_substance_id>
DTXSID8024105

> <Canonical_QSARr>
C1c2ccccc2-c2ccccc21

> <InChI_Code_QSARr>
InChI=1S/C13H10/c1-3-7-12-10(5-1)9-11-6-2-4-8-13(11)12/h1-8H,9H2

> <InChI Key_QSARr>
NIHNNTQXNPWCJQ-UHFFFAOYSA-N

> <LogKOC>
3.7

$$$$
100093
  -INDIGO-08031722282D

 22 24  0  0  0  0  0  0  0  0999 V2000
    0.0000    0.0000    0.0000 C   0  0  0  0  0  0  0  0  0  0  0  0
    1.5651    0.3327    0.0000 C   0  0  0  0  0  0  0  0  0  0  0  0
    1.7322    1.9239    0.0000 C   0  0  0  0  0  0  0  0  0  0  0  0
    3.1939    2.5747    0.0000 C   0  0  0  0  0  0  0  0  0  0  0  0
    3.3612    4.1659    0.0000 H   0  0  0  0  0  0  0  0  0  0  0  0
    4.4883    1.6342    0.0000 C   0  0  0  0  0  0  0  0  0  0  0  0
    5.9501    2.2850    0.0000 H   0  0  0  0  0  0  0  0  0  0  0  0
    4.3212    0.0430    0.0000 C   0  0  0  0  0  0  0  0  0  0  0  0
    5.6156   -0.8974    0.0000 H   0  0  0  0  0  0  0  0  0  0  0  0
    2.8595   -0.6078    0.0000 C   0  0  0  0  0  0  0  0  0  0  0  0
    2.6921   -2.1990    0.0000 H   0  0  0  0  0  0  0  0  0  0  0  0
    0.2707    2.5747    0.0000 N   0  0  0  0  0  0  0  0  0  0  0  0
   -0.0620    4.1398    0.0000 H   0  0  0  0  0  0  0  0  0  0  0  0
   -0.8000    1.3856    0.0000 C   0  0  0  0  0  0  0  0  0  0  0  0
   -2.4000    1.3856    0.0000 C   0  0  0  0  0  0  0  0  0  0  0  0
   -3.2000    2.7713    0.0000 H   0  0  0  0  0  0  0  0  0  0  0  0
   -3.2000    0.0000    0.0000 C   0  0  0  0  0  0  0  0  0  0  0  0
   -4.8000    0.0000    0.0000 H   0  0  0  0  0  0  0  0  0  0  0  0
   -2.4000   -1.3856    0.0000 C   0  0  0  0  0  0  0  0  0  0  0  0
   -3.2000   -2.7713    0.0000 H   0  0  0  0  0  0  0  0  0  0  0  0
   -0.8000   -1.3856    0.0000 C   0  0  0  0  0  0  0  0  0  0  0  0
    0.0000   -2.7713    0.0000 H   0  0  0  0  0  0  0  0  0  0  0  0
  1  2  1  0  0  0  0
  2  3  1  0  0  0  0
  3  4  2  0  0  0  0
  4  5  1  0  0  0  0
  4  6  1  0  0  0  0
  6  7  1  0  0  0  0
  6  8  2  0  0  0  0
  8  9  1  0  0  0  0
  8 10  1  0  0  0  0
 10  2  2  0  0  0  0
 10 11  1  0  0  0  0
  3 12  1  0  0  0  0
 12 13  1  0  0  0  0
 12 14  1  0  0  0  0
 14  1  1  0  0  0  0
 14 15  2  0  0  0  0
 15 16  1  0  0  0  0
 15 17  1  0  0  0  0
 17 18  1  0  0  0  0
 17 19  2  0  0  0  0
 19 20  1  0  0  0  0
 19 21  1  0  0  0  0
 21  1  2  0  0  0  0
 21 22  1  0  0  0  0
M  END
> <ChemID>
100093

> <source_casrn>
86-74-8

> <CAS>
86-74-8

> <SMILES>
c1cccc2[nH]c3ccccc3c21

> <NAME>
CARBAZOLE

> <preferred_name>
Carbazole

> <iupac>
9H-carbazole

> <MPID>
99370

> <dsstox_substance_id>
DTXSID4020248

> <Canonical_QSARr>
c1cccc2[nH]c3ccccc3c21

> <InChI_Code_QSARr>
InChI=1S/C12H9N/c1-3-7-11-9(5-1)10-6-2-4-8-12(10)13-11/h1-8,13H

> <InChI Key_QSARr>
UJOBWOGCFQCDNV-UHFFFAOYSA-N

> <LogKOC>
3.4

$$$$
100095
  -INDIGO-08031722282D

 24 25  0  0  0  0  0  0  0  0999 V2000
    4.8000    2.7713    0.0000 O   0  0  0  0  0  0  0  0  0  0  0  0
    6.4000    2.7713    0.0000 H   0  0  0  0  0  0  0  0  0  0  0  0
    4.0000    1.3856    0.0000 C   0  0  0  0  0  0  0  0  0  0  0  0
    4.8000   -0.0000    0.0000 O   0  0  0  0  0  0  0  0  0  0  0  0
    2.4001    1.3856    0.0000 C   0  0  0  0  0  0  0  0  0  0  0  0
    1.1306    2.3596    0.0000 H   0  0  0  0  0  0  0  0  0  0  0  0
    2.1912    2.9720    0.0000 H   0  0  0  0  0  0  0  0  0  0  0  0
    1.6001   -0.0000    0.0000 C   0  0  0  0  0  0  0  0  0  0  0  0
   -0.0001   -0.0000    0.0000 C   0  0  0  0  0  0  0  0  0  0  0  0
   -0.8001   -1.3857    0.0000 C   0  0  0  0  0  0  0  0  0  0  0  0
   -2.4000   -1.3857    0.0000 C   0  0  0  0  0  0  0  0  0  0  0  0
   -3.2000   -2.7713    0.0000 H   0  0  0  0  0  0  0  0  0  0  0  0
   -3.2000   -0.0000    0.0000 C   0  0  0  0  0  0  0  0  0  0  0  0
   -4.8000   -0.0000    0.0000 H   0  0  0  0  0  0  0  0  0  0  0  0
   -2.4000    1.3856    0.0000 C   0  0  0  0  0  0  0  0  0  0  0  0
   -3.2000    2.7713    0.0000 H   0  0  0  0  0  0  0  0  0  0  0  0
   -0.8001    1.3856    0.0000 C   0  0  0  0  0  0  0  0  0  0  0  0
   -0.0001    2.7713    0.0000 H   0  0  0  0  0  0  0  0  0  0  0  0
   -0.0001   -2.7713    0.0000 C   0  0  0  0  0  0  0  0  0  0  0  0
   -0.8001   -4.1569    0.0000 H   0  0  0  0  0  0  0  0  0  0  0  0
    1.6001   -2.7713    0.0000 C   0  0  0  0  0  0  0  0  0  0  0  0
    2.4001   -4.1569    0.0000 H   0  0  0  0  0  0  0  0  0  0  0  0
    2.4001   -1.3857    0.0000 C   0  0  0  0  0  0  0  0  0  0  0  0
    4.0000   -1.3857    0.0000 H   0  0  0  0  0  0  0  0  0  0  0  0
  1  2  1  0  0  0  0
  1  3  1  0  0  0  0
  3  4  2  0  0  0  0
  3  5  1  0  0  0  0
  5  6  1  0  0  0  0
  5  7  1  0  0  0  0
  5  8  1  0  0  0  0
  8  9  1  0  0  0  0
  9 10  1  0  0  0  0
 10 11  2  0  0  0  0
 11 12  1  0  0  0  0
 11 13  1  0  0  0  0
 13 14  1  0  0  0  0
 13 15  2  0  0  0  0
 15 16  1  0  0  0  0
 15 17  1  0  0  0  0
 17  9  2  0  0  0  0
 17 18  1  0  0  0  0
 10 19  1  0  0  0  0
 19 20  1  0  0  0  0
 19 21  2  0  0  0  0
 21 22  1  0  0  0  0
 21 23  1  0  0  0  0
 23  8  2  0  0  0  0
 23 24  1  0  0  0  0
M  END
> <ChemID>
100095

> <source_casrn>
86-87-3

> <CAS>
86-87-3

> <SMILES>
O=C(O)Cc(c(c(ccc1)cc2)c1)c2

> <NAME>
NAPHTHALENEACETIC ACID

> <preferred_name>
1-Naphthaleneacetic acid

> <iupac>
naphthalen-1-ylacetic acid

> <MPID>
99372

> <dsstox_substance_id>
DTXSID8020915

> <Canonical_QSARr>
OC(=O)Cc1cccc2ccccc21

> <InChI_Code_QSARr>
InChI=1S/C12H10O2/c13-12(14)8-10-6-3-5-9-4-1-2-7-11(9)10/h1-7H,8H2,(H,13,14)

> <InChI Key_QSARr>
PRPINYUDVPFIRX-UHFFFAOYSA-N

> <LogKOC>
2.2

$$$$
100096
  -INDIGO-08031722282D

 12 12  0  0  0  0  0  0  0  0999 V2000
    0.8000    1.3856    0.0000 Cl  0  0  0  0  0  0  0  0  0  0  0  0
   -0.0000   -0.0000    0.0000 C   0  0  0  0  0  0  0  0  0  0  0  0
    0.8000   -1.3857    0.0000 C   0  0  0  0  0  0  0  0  0  0  0  0
    2.4000   -1.3857    0.0000 Cl  0  0  0  0  0  0  0  0  0  0  0  0
   -0.0000   -2.7713    0.0000 C   0  0  0  0  0  0  0  0  0  0  0  0
    0.8000   -4.1569    0.0000 H   0  0  0  0  0  0  0  0  0  0  0  0
   -1.6000   -2.7713    0.0000 C   0  0  0  0  0  0  0  0  0  0  0  0
   -2.4000   -4.1569    0.0000 H   0  0  0  0  0  0  0  0  0  0  0  0
   -2.4000   -1.3856    0.0000 C   0  0  0  0  0  0  0  0  0  0  0  0
   -4.0000   -1.3856    0.0000 H   0  0  0  0  0  0  0  0  0  0  0  0
   -1.6000   -0.0000    0.0000 C   0  0  0  0  0  0  0  0  0  0  0  0
   -2.4000    1.3856    0.0000 Cl  0  0  0  0  0  0  0  0  0  0  0  0
  1  2  1  0  0  0  0
  2  3  1  0  0  0  0
  3  4  1  0  0  0  0
  3  5  2  0  0  0  0
  5  6  1  0  0  0  0
  5  7  1  0  0  0  0
  7  8  1  0  0  0  0
  7  9  2  0  0  0  0
  9 10  1  0  0  0  0
  9 11  1  0  0  0  0
 11  2  2  0  0  0  0
 11 12  1  0  0  0  0
M  END
> <ChemID>
100096

> <source_casrn>
87-61-6

> <CAS>
87-61-6

> <SMILES>
Clc1c(Cl)cccc1Cl

> <NAME>
1,2,3-TRICHLOROBENZENE

> <preferred_name>
1,2,3-Trichlorobenzene

> <iupac>
C6H3Cl3

> <MPID>
99373

> <dsstox_substance_id>
DTXSID8026193

> <Canonical_QSARr>
Clc1c(Cl)cccc1Cl

> <InChI_Code_QSARr>
InChI=1S/C6H3Cl3/c7-4-2-1-3-5(8)6(4)9/h1-3H

> <InChI Key_QSARr>
RELMFMZEBKVZJC-UHFFFAOYSA-N

> <LogKOC>
3.33

$$$$
100097
  -INDIGO-08031722282D

 13 13  0  0  0  0  0  0  0  0999 V2000
    0.8000    1.3856    0.0000 O   0  0  0  0  0  0  0  0  0  0  0  0
    2.4000    1.3856    0.0000 H   0  0  0  0  0  0  0  0  0  0  0  0
   -0.0000   -0.0000    0.0000 C   0  0  0  0  0  0  0  0  0  0  0  0
    0.8000   -1.3857    0.0000 C   0  0  0  0  0  0  0  0  0  0  0  0
    2.4000   -1.3857    0.0000 Cl  0  0  0  0  0  0  0  0  0  0  0  0
   -0.0000   -2.7713    0.0000 C   0  0  0  0  0  0  0  0  0  0  0  0
    0.8000   -4.1569    0.0000 Cl  0  0  0  0  0  0  0  0  0  0  0  0
   -1.6000   -2.7713    0.0000 C   0  0  0  0  0  0  0  0  0  0  0  0
   -2.4000   -4.1569    0.0000 Cl  0  0  0  0  0  0  0  0  0  0  0  0
   -2.4000   -1.3856    0.0000 C   0  0  0  0  0  0  0  0  0  0  0  0
   -4.0000   -1.3856    0.0000 Cl  0  0  0  0  0  0  0  0  0  0  0  0
   -1.6000   -0.0000    0.0000 C   0  0  0  0  0  0  0  0  0  0  0  0
   -2.4000    1.3856    0.0000 Cl  0  0  0  0  0  0  0  0  0  0  0  0
  1  2  1  0  0  0  0
  1  3  1  0  0  0  0
  3  4  1  0  0  0  0
  4  5  1  0  0  0  0
  4  6  2  0  0  0  0
  6  7  1  0  0  0  0
  6  8  1  0  0  0  0
  8  9  1  0  0  0  0
  8 10  2  0  0  0  0
 10 11  1  0  0  0  0
 10 12  1  0  0  0  0
 12  3  2  0  0  0  0
 12 13  1  0  0  0  0
M  END
> <ChemID>
100097

> <source_casrn>
87-86-5

> <CAS>
87-86-5

> <SMILES>
Oc1c(Cl)c(Cl)c(Cl)c(Cl)c1Cl

> <NAME>
PENTACHLOROPHENOL

> <preferred_name>
Pentachlorophenol

> <iupac>
pentachlorophenol

> <MPID>
99374

> <dsstox_substance_id>
DTXSID7021106

> <Canonical_QSARr>
Oc1c(Cl)c(Cl)c(Cl)c(Cl)c1Cl

> <InChI_Code_QSARr>
InChI=1S/C6HCl5O/c7-1-2(8)4(10)6(12)5(11)3(1)9/h12H

> <InChI Key_QSARr>
IZUPBVBPLAPZRR-UHFFFAOYSA-N

> <LogKOC>
4.3

$$$$
100099
  -INDIGO-08031722282D

 18 18  0  0  0  0  0  0  0  0999 V2000
    4.1570    0.8000    0.0000 O   0  0  0  0  0  0  0  0  0  0  0  0
    5.5426   -0.0000    0.0000 H   0  0  0  0  0  0  0  0  0  0  0  0
    2.7713   -0.0000    0.0000 C   0  0  0  0  0  0  0  0  0  0  0  0
    1.3856    0.8000    0.0000 C   0  0  0  0  0  0  0  0  0  0  0  0
    1.3856    2.4000    0.0000 H   0  0  0  0  0  0  0  0  0  0  0  0
    0.0000   -0.0000    0.0000 C   0  0  0  0  0  0  0  0  0  0  0  0
   -1.3857    0.8000    0.0000 C   0  0  0  0  0  0  0  0  0  0  0  0
   -2.7713    1.6000    0.0000 F   0  0  0  0  0  0  0  0  0  0  0  0
   -1.3857    2.4000    0.0000 F   0  0  0  0  0  0  0  0  0  0  0  0
   -2.7713   -0.0000    0.0000 F   0  0  0  0  0  0  0  0  0  0  0  0
    0.0000   -1.6000    0.0000 C   0  0  0  0  0  0  0  0  0  0  0  0
   -1.3856   -2.4000    0.0000 N   0  0  0  0  0  0  0  0  0  0  0  0
   -1.3856   -4.0000    0.0000 O   0  0  0  0  0  0  0  0  0  0  0  0
   -2.7713   -1.6000    0.0000 O   0  0  0  0  0  0  0  0  0  0  0  0
    1.3857   -2.4000    0.0000 C   0  0  0  0  0  0  0  0  0  0  0  0
    1.3857   -4.0000    0.0000 H   0  0  0  0  0  0  0  0  0  0  0  0
    2.7713   -1.6000    0.0000 C   0  0  0  0  0  0  0  0  0  0  0  0
    4.1570   -2.4000    0.0000 H   0  0  0  0  0  0  0  0  0  0  0  0
  1  2  1  0  0  0  0
  1  3  1  0  0  0  0
  3  4  1  0  0  0  0
  4  5  1  0  0  0  0
  4  6  2  0  0  0  0
  6  7  1  0  0  0  0
  7  8  1  0  0  0  0
  7  9  1  0  0  0  0
  7 10  1  0  0  0  0
  6 11  1  0  0  0  0
 11 12  1  0  0  0  0
 12 13  1  0  0  0  0
 12 14  2  0  0  0  0
 11 15  2  0  0  0  0
 15 16  1  0  0  0  0
 15 17  1  0  0  0  0
 17  3  2  0  0  0  0
 17 18  1  0  0  0  0
M  CHG  2  12   1  13  -1
M  END
> <ChemID>
100099

> <source_casrn>
88-30-2

> <CAS>
88-30-2

> <SMILES>
[O-][N+](=O)c1ccc(O)cc1C(F)(F)F

> <NAME>
3-TRIFLUOROMETHYL-4-NITROPHENOL

> <preferred_name>
3-Trifluoromethyl-4-nitrophenol

> <iupac>
4-nitro-3-(trifluoromethyl)phenol

> <MPID>
99376

> <dsstox_substance_id>
DTXSID7021788

> <Canonical_QSARr>
[O-][N+](=O)c1ccc(O)cc1C(F)(F)F

> <InChI_Code_QSARr>
InChI=1S/C7H4F3NO3/c8-7(9,10)5-3-4(12)1-2-6(5)11(13)14/h1-3,12H

> <InChI Key_QSARr>
ZEFMBAFMCSYJOO-UHFFFAOYSA-N

> <LogKOC>
2.11

$$$$
100100
  -INDIGO-08031722282D

 29 29  0  0  0  0  0  0  0  0999 V2000
    1.6000    2.7712    0.0000 O   0  0  0  0  0  0  0  0  0  0  0  0
    2.4000    4.1569    0.0000 H   0  0  0  0  0  0  0  0  0  0  0  0
    2.4000    1.3856    0.0000 C   0  0  0  0  0  0  0  0  0  0  0  0
    4.0001    1.3856    0.0000 C   0  0  0  0  0  0  0  0  0  0  0  0
    4.7999    2.7712    0.0000 N   0  0  0  0  0  0  0  0  0  0  0  0
    6.4000    2.7713    0.0000 O   0  0  0  0  0  0  0  0  0  0  0  0
    4.0001    4.1569    0.0000 O   0  0  0  0  0  0  0  0  0  0  0  0
    4.7999   -0.0001    0.0000 C   0  0  0  0  0  0  0  0  0  0  0  0
    6.4000    0.0001    0.0000 H   0  0  0  0  0  0  0  0  0  0  0  0
    4.0001   -1.3856    0.0000 C   0  0  0  0  0  0  0  0  0  0  0  0
    4.7999   -2.7713    0.0000 N   0  0  0  0  0  0  0  0  0  0  0  0
    6.4000   -2.7713    0.0000 O   0  0  0  0  0  0  0  0  0  0  0  0
    3.9999   -4.1569    0.0000 O   0  0  0  0  0  0  0  0  0  0  0  0
    2.4000   -1.3856    0.0000 C   0  0  0  0  0  0  0  0  0  0  0  0
    1.6000   -2.7712    0.0000 H   0  0  0  0  0  0  0  0  0  0  0  0
    1.6000   -0.0001    0.0000 C   0  0  0  0  0  0  0  0  0  0  0  0
   -0.0001    0.0001    0.0000 C   0  0  0  0  0  0  0  0  0  0  0  0
   -0.0001    1.6000    0.0000 H   0  0  0  0  0  0  0  0  0  0  0  0
   -1.5036    0.5472    0.0000 C   0  0  0  0  0  0  0  0  0  0  0  0
   -2.3631    1.8966    0.0000 H   0  0  0  0  0  0  0  0  0  0  0  0
   -1.1572    2.1093    0.0000 H   0  0  0  0  0  0  0  0  0  0  0  0
   -2.7292   -0.4812    0.0000 C   0  0  0  0  0  0  0  0  0  0  0  0
   -3.9549   -1.5097    0.0000 H   0  0  0  0  0  0  0  0  0  0  0  0
   -4.2327    0.0660    0.0000 H   0  0  0  0  0  0  0  0  0  0  0  0
   -2.4514   -2.0569    0.0000 H   0  0  0  0  0  0  0  0  0  0  0  0
   -0.0001   -1.6000    0.0000 C   0  0  0  0  0  0  0  0  0  0  0  0
   -1.3856   -2.4000    0.0000 H   0  0  0  0  0  0  0  0  0  0  0  0
   -0.0001   -3.2000    0.0000 H   0  0  0  0  0  0  0  0  0  0  0  0
   -1.3856   -0.8000    0.0000 H   0  0  0  0  0  0  0  0  0  0  0  0
  1  2  1  0  0  0  0
  1  3  1  0  0  0  0
  3  4  1  0  0  0  0
  4  5  1  0  0  0  0
  5  6  2  0  0  0  0
  5  7  1  0  0  0  0
  4  8  2  0  0  0  0
  8  9  1  0  0  0  0
  8 10  1  0  0  0  0
 10 11  1  0  0  0  0
 11 12  2  0  0  0  0
 11 13  1  0  0  0  0
 10 14  2  0  0  0  0
 14 15  1  0  0  0  0
 14 16  1  0  0  0  0
 16  3  2  0  0  0  0
 16 17  1  0  0  0  0
 17 18  1  0  0  0  0
 17 19  1  0  0  0  0
 19 20  1  0  0  0  0
 19 21  1  0  0  0  0
 19 22  1  0  0  0  0
 22 23  1  0  0  0  0
 22 24  1  0  0  0  0
 22 25  1  0  0  0  0
 17 26  1  0  0  0  0
 26 27  1  0  0  0  0
 26 28  1  0  0  0  0
 26 29  1  0  0  0  0
M  CHG  4   5   1   7  -1  11   1  13  -1
M  END
> <ChemID>
100100

> <source_casrn>
88-85-7

> <CAS>
88-85-7

> <SMILES>
CCC(C)c1cc(cc(c1O)[N+]([O-])=O)[N+]([O-])=O

> <NAME>
DINOSEB

> <preferred_name>
Dinoseb

> <iupac>
2-(butan-2-yl)-4,6-dinitrophenol

> <MPID>
99377

> <dsstox_substance_id>
DTXSID3020207

> <Canonical_QSARr>
CCC(C)c1cc(cc(c1O)[N+]([O-])=O)[N+]([O-])=O

> <InChI_Code_QSARr>
InChI=1S/C10H12N2O5/c1-3-6(2)8-4-7(11(14)15)5-9(10(8)13)12(16)17/h4-6,13H,3H2,1-2H3

> <InChI Key_QSARr>
OWZPCEFYPSAJFR-UHFFFAOYSA-N

> <LogKOC>
2.7

$$$$
100101
  -INDIGO-08031722282D

 18 18  0  0  0  0  0  0  0  0999 V2000
    2.4001    1.3856    0.0000 O   0  0  0  0  0  0  0  0  0  0  0  0
    3.2000    2.7713    0.0000 H   0  0  0  0  0  0  0  0  0  0  0  0
    0.8001    1.3856    0.0000 C   0  0  0  0  0  0  0  0  0  0  0  0
    0.0000    0.0000    0.0000 C   0  0  0  0  0  0  0  0  0  0  0  0
    0.8001   -1.3856    0.0000 C   0  0  0  0  0  0  0  0  0  0  0  0
    2.4001   -1.3856    0.0000 H   0  0  0  0  0  0  0  0  0  0  0  0
    0.0000   -2.7713    0.0000 C   0  0  0  0  0  0  0  0  0  0  0  0
    0.8001   -4.1569    0.0000 H   0  0  0  0  0  0  0  0  0  0  0  0
   -1.6000   -2.7713    0.0000 C   0  0  0  0  0  0  0  0  0  0  0  0
   -2.4001   -4.1569    0.0000 H   0  0  0  0  0  0  0  0  0  0  0  0
   -2.4001   -1.3856    0.0000 C   0  0  0  0  0  0  0  0  0  0  0  0
   -4.0001   -1.3856    0.0000 H   0  0  0  0  0  0  0  0  0  0  0  0
   -1.6000    0.0000    0.0000 C   0  0  0  0  0  0  0  0  0  0  0  0
   -2.3999    1.3856    0.0000 C   0  0  0  0  0  0  0  0  0  0  0  0
   -3.9999    1.3856    0.0000 O   0  0  0  0  0  0  0  0  0  0  0  0
   -4.8000    2.7713    0.0000 H   0  0  0  0  0  0  0  0  0  0  0  0
   -1.6000    2.7713    0.0000 O   0  0  0  0  0  0  0  0  0  0  0  0
    0.0000    2.7713    0.0000 O   0  0  0  0  0  0  0  0  0  0  0  0
  1  2  1  0  0  0  0
  1  3  1  0  0  0  0
  3  4  1  0  0  0  0
  4  5  1  0  0  0  0
  5  6  1  0  0  0  0
  5  7  2  0  0  0  0
  7  8  1  0  0  0  0
  7  9  1  0  0  0  0
  9 10  1  0  0  0  0
  9 11  2  0  0  0  0
 11 12  1  0  0  0  0
 11 13  1  0  0  0  0
 13  4  2  0  0  0  0
 13 14  1  0  0  0  0
 14 15  1  0  0  0  0
 15 16  1  0  0  0  0
 14 17  2  0  0  0  0
  3 18  2  0  0  0  0
M  END
> <ChemID>
100101

> <source_casrn>
88-99-3

> <CAS>
88-99-3

> <SMILES>
O=C(O)c(c(ccc1)C(=O)O)c1

> <NAME>
O-PHTHALIC ACID

> <preferred_name>
Phthalic acid

> <iupac>
benzene-1,2-dicarboxylic acid

> <MPID>
99378

> <dsstox_substance_id>
DTXSID8021484

> <Canonical_QSARr>
OC(=O)c1ccccc1C(O)=O

> <InChI_Code_QSARr>
InChI=1S/C8H6O4/c9-7(10)5-3-1-2-4-6(5)8(11)12/h1-4H,(H,9,10)(H,11,12)

> <InChI Key_QSARr>
XNGIFLGASWRNHJ-UHFFFAOYSA-N

> <LogKOC>
1.07

$$$$
100103
  -INDIGO-08031722282D

 21 22  0  0  0  0  0  0  0  0999 V2000
    2.4001    1.3856    0.0000 C   0  0  0  0  0  0  0  0  0  0  0  0
    3.2000    2.7713    0.0000 H   0  0  0  0  0  0  0  0  0  0  0  0
    4.0000    1.3856    0.0000 H   0  0  0  0  0  0  0  0  0  0  0  0
    1.6000    2.7713    0.0000 H   0  0  0  0  0  0  0  0  0  0  0  0
    1.6000    0.0000    0.0000 C   0  0  0  0  0  0  0  0  0  0  0  0
   -0.0000    0.0000    0.0000 C   0  0  0  0  0  0  0  0  0  0  0  0
   -0.8000   -1.3856    0.0000 C   0  0  0  0  0  0  0  0  0  0  0  0
   -2.4000   -1.3856    0.0000 C   0  0  0  0  0  0  0  0  0  0  0  0
   -3.2001   -2.7713    0.0000 H   0  0  0  0  0  0  0  0  0  0  0  0
   -3.2001    0.0000    0.0000 C   0  0  0  0  0  0  0  0  0  0  0  0
   -4.8000    0.0000    0.0000 H   0  0  0  0  0  0  0  0  0  0  0  0
   -2.4000    1.3856    0.0000 C   0  0  0  0  0  0  0  0  0  0  0  0
   -3.2001    2.7713    0.0000 H   0  0  0  0  0  0  0  0  0  0  0  0
   -0.8000    1.3856    0.0000 C   0  0  0  0  0  0  0  0  0  0  0  0
   -0.0000    2.7713    0.0000 H   0  0  0  0  0  0  0  0  0  0  0  0
   -0.0000   -2.7713    0.0000 C   0  0  0  0  0  0  0  0  0  0  0  0
   -0.8000   -4.1569    0.0000 H   0  0  0  0  0  0  0  0  0  0  0  0
    1.6000   -2.7713    0.0000 C   0  0  0  0  0  0  0  0  0  0  0  0
    2.4001   -4.1569    0.0000 H   0  0  0  0  0  0  0  0  0  0  0  0
    2.4001   -1.3856    0.0000 C   0  0  0  0  0  0  0  0  0  0  0  0
    4.0000   -1.3856    0.0000 H   0  0  0  0  0  0  0  0  0  0  0  0
  1  2  1  0  0  0  0
  1  3  1  0  0  0  0
  1  4  1  0  0  0  0
  1  5  1  0  0  0  0
  5  6  1  0  0  0  0
  6  7  1  0  0  0  0
  7  8  2  0  0  0  0
  8  9  1  0  0  0  0
  8 10  1  0  0  0  0
 10 11  1  0  0  0  0
 10 12  2  0  0  0  0
 12 13  1  0  0  0  0
 12 14  1  0  0  0  0
 14  6  2  0  0  0  0
 14 15  1  0  0  0  0
  7 16  1  0  0  0  0
 16 17  1  0  0  0  0
 16 18  2  0  0  0  0
 18 19  1  0  0  0  0
 18 20  1  0  0  0  0
 20  5  2  0  0  0  0
 20 21  1  0  0  0  0
M  END
> <ChemID>
100103

> <source_casrn>
90-12-0

> <CAS>
90-12-0

> <SMILES>
Cc1cccc2ccccc21

> <NAME>
1-METHYLNAPHTHALENE

> <preferred_name>
1-Methylnaphthalene

> <iupac>
1-methylnaphthalene

> <MPID>
99380

> <dsstox_substance_id>
DTXSID9020877

> <Canonical_QSARr>
Cc1cccc2ccccc21

> <InChI_Code_QSARr>
InChI=1S/C11H10/c1-9-5-4-7-10-6-2-3-8-11(9)10/h2-8H,1H3

> <InChI Key_QSARr>
QPUYECUOLPXSFR-UHFFFAOYSA-N

> <LogKOC>
3.36

$$$$
100104
  -INDIGO-08031722282D

 19 20  0  0  0  0  0  0  0  0999 V2000
    2.4001    1.3856    0.0000 O   0  0  0  0  0  0  0  0  0  0  0  0
    4.0000    1.3856    0.0000 H   0  0  0  0  0  0  0  0  0  0  0  0
    1.6000    0.0000    0.0000 C   0  0  0  0  0  0  0  0  0  0  0  0
    2.4001   -1.3856    0.0000 C   0  0  0  0  0  0  0  0  0  0  0  0
    4.0000   -1.3856    0.0000 H   0  0  0  0  0  0  0  0  0  0  0  0
    1.6000   -2.7713    0.0000 C   0  0  0  0  0  0  0  0  0  0  0  0
    2.4001   -4.1569    0.0000 H   0  0  0  0  0  0  0  0  0  0  0  0
   -0.0000   -2.7713    0.0000 C   0  0  0  0  0  0  0  0  0  0  0  0
   -0.8000   -4.1569    0.0000 H   0  0  0  0  0  0  0  0  0  0  0  0
   -0.8000   -1.3856    0.0000 C   0  0  0  0  0  0  0  0  0  0  0  0
   -0.0000    0.0000    0.0000 C   0  0  0  0  0  0  0  0  0  0  0  0
   -0.8000    1.3856    0.0000 C   0  0  0  0  0  0  0  0  0  0  0  0
   -0.0000    2.7713    0.0000 H   0  0  0  0  0  0  0  0  0  0  0  0
   -2.4000    1.3856    0.0000 C   0  0  0  0  0  0  0  0  0  0  0  0
   -3.2001    2.7713    0.0000 H   0  0  0  0  0  0  0  0  0  0  0  0
   -3.2001    0.0000    0.0000 C   0  0  0  0  0  0  0  0  0  0  0  0
   -4.8000    0.0000    0.0000 H   0  0  0  0  0  0  0  0  0  0  0  0
   -2.4000   -1.3856    0.0000 C   0  0  0  0  0  0  0  0  0  0  0  0
   -3.2001   -2.7713    0.0000 H   0  0  0  0  0  0  0  0  0  0  0  0
  1  2  1  0  0  0  0
  1  3  1  0  0  0  0
  3  4  1  0  0  0  0
  4  5  1  0  0  0  0
  4  6  2  0  0  0  0
  6  7  1  0  0  0  0
  6  8  1  0  0  0  0
  8  9  1  0  0  0  0
  8 10  2  0  0  0  0
 10 11  1  0  0  0  0
 11  3  2  0  0  0  0
 11 12  1  0  0  0  0
 12 13  1  0  0  0  0
 12 14  2  0  0  0  0
 14 15  1  0  0  0  0
 14 16  1  0  0  0  0
 16 17  1  0  0  0  0
 16 18  2  0  0  0  0
 18 10  1  0  0  0  0
 18 19  1  0  0  0  0
M  END
> <ChemID>
100104

> <source_casrn>
90-15-3

> <CAS>
90-15-3

> <SMILES>
Oc1cccc2ccccc21

> <NAME>
1-NAPHTHOL

> <preferred_name>
1-Naphthol

> <iupac>
naphthalen-1-ol

> <MPID>
99381

> <dsstox_substance_id>
DTXSID6021793

> <Canonical_QSARr>
Oc1cccc2ccccc21

> <InChI_Code_QSARr>
InChI=1S/C10H8O/c11-10-7-3-5-8-4-1-2-6-9(8)10/h1-7,11H

> <InChI Key_QSARr>
KJCVRFUGPWSIIH-UHFFFAOYSA-N

> <LogKOC>
2.72

$$$$
100105
  -INDIGO-08031722282D

 40 41  0  0  0  0  0  0  0  0999 V2000
    3.8792    3.9757    0.0000 O   0  0  0  0  0  0  0  0  0  0  0  0
    4.1569    2.4000    0.0000 C   0  0  0  0  0  0  0  0  0  0  0  0
    5.7325    2.1221    0.0000 C   0  0  0  0  0  0  0  0  0  0  0  0
    6.2799    0.6186    0.0000 C   0  0  0  0  0  0  0  0  0  0  0  0
    5.2514   -0.6070    0.0000 H   0  0  0  0  0  0  0  0  0  0  0  0
    7.8554    0.3408    0.0000 C   0  0  0  0  0  0  0  0  0  0  0  0
    8.4028   -1.1627    0.0000 H   0  0  0  0  0  0  0  0  0  0  0  0
    8.8839    1.5665    0.0000 C   0  0  0  0  0  0  0  0  0  0  0  0
   10.4598    1.2887    0.0000 N   0  0  0  0  0  0  0  0  0  0  0  0
   11.0069   -0.2149    0.0000 C   0  0  0  0  0  0  0  0  0  0  0  0
   11.5542   -1.7184    0.0000 H   0  0  0  0  0  0  0  0  0  0  0  0
   12.5827   -0.4927    0.0000 H   0  0  0  0  0  0  0  0  0  0  0  0
    9.9784   -1.4406    0.0000 H   0  0  0  0  0  0  0  0  0  0  0  0
   11.4883    2.5144    0.0000 C   0  0  0  0  0  0  0  0  0  0  0  0
   12.5165    3.7400    0.0000 H   0  0  0  0  0  0  0  0  0  0  0  0
   13.0638    2.2365    0.0000 H   0  0  0  0  0  0  0  0  0  0  0  0
   10.9409    4.0179    0.0000 H   0  0  0  0  0  0  0  0  0  0  0  0
    8.3368    3.0700    0.0000 C   0  0  0  0  0  0  0  0  0  0  0  0
    9.3653    4.2957    0.0000 H   0  0  0  0  0  0  0  0  0  0  0  0
    6.7610    3.3478    0.0000 C   0  0  0  0  0  0  0  0  0  0  0  0
    6.2139    4.8513    0.0000 H   0  0  0  0  0  0  0  0  0  0  0  0
    2.7713    1.6000    0.0000 C   0  0  0  0  0  0  0  0  0  0  0  0
    2.7713    0.0000    0.0000 C   0  0  0  0  0  0  0  0  0  0  0  0
    4.1569   -0.8000    0.0000 H   0  0  0  0  0  0  0  0  0  0  0  0
    1.3857   -0.8000    0.0000 C   0  0  0  0  0  0  0  0  0  0  0  0
    1.3857   -2.4000    0.0000 H   0  0  0  0  0  0  0  0  0  0  0  0
    0.0001    0.0000    0.0000 C   0  0  0  0  0  0  0  0  0  0  0  0
   -1.3857   -0.8000    0.0000 N   0  0  0  0  0  0  0  0  0  0  0  0
   -1.3857   -2.4000    0.0000 C   0  0  0  0  0  0  0  0  0  0  0  0
   -1.3857   -4.0000    0.0000 H   0  0  0  0  0  0  0  0  0  0  0  0
   -2.7713   -3.2000    0.0000 H   0  0  0  0  0  0  0  0  0  0  0  0
    0.0001   -3.2000    0.0000 H   0  0  0  0  0  0  0  0  0  0  0  0
   -2.7713    0.0000    0.0000 C   0  0  0  0  0  0  0  0  0  0  0  0
   -4.1569    0.8000    0.0000 H   0  0  0  0  0  0  0  0  0  0  0  0
   -4.1569   -0.8000    0.0000 H   0  0  0  0  0  0  0  0  0  0  0  0
   -2.7713    1.6000    0.0000 H   0  0  0  0  0  0  0  0  0  0  0  0
    0.0001    1.6000    0.0000 C   0  0  0  0  0  0  0  0  0  0  0  0
   -1.3857    2.4000    0.0000 H   0  0  0  0  0  0  0  0  0  0  0  0
    1.3857    2.4000    0.0000 C   0  0  0  0  0  0  0  0  0  0  0  0
    1.3857    4.0000    0.0000 H   0  0  0  0  0  0  0  0  0  0  0  0
  1  2  2  0  0  0  0
  2  3  1  0  0  0  0
  3  4  1  0  0  0  0
  4  5  1  0  0  0  0
  4  6  2  0  0  0  0
  6  7  1  0  0  0  0
  6  8  1  0  0  0  0
  8  9  1  0  0  0  0
  9 10  1  0  0  0  0
 10 11  1  0  0  0  0
 10 12  1  0  0  0  0
 10 13  1  0  0  0  0
  9 14  1  0  0  0  0
 14 15  1  0  0  0  0
 14 16  1  0  0  0  0
 14 17  1  0  0  0  0
  8 18  2  0  0  0  0
 18 19  1  0  0  0  0
 18 20  1  0  0  0  0
 20  3  2  0  0  0  0
 20 21  1  0  0  0  0
  2 22  1  0  0  0  0
 22 23  1  0  0  0  0
 23 24  1  0  0  0  0
 23 25  2  0  0  0  0
 25 26  1  0  0  0  0
 25 27  1  0  0  0  0
 27 28  1  0  0  0  0
 28 29  1  0  0  0  0
 29 30  1  0  0  0  0
 29 31  1  0  0  0  0
 29 32  1  0  0  0  0
 28 33  1  0  0  0  0
 33 34  1  0  0  0  0
 33 35  1  0  0  0  0
 33 36  1  0  0  0  0
 27 37  2  0  0  0  0
 37 38  1  0  0  0  0
 37 39  1  0  0  0  0
 39 22  2  0  0  0  0
 39 40  1  0  0  0  0
M  END
> <ChemID>
100105

> <source_casrn>
90-94-8

> <CAS>
90-94-8

> <SMILES>
O=C(c(ccc(N(C)C)c1)c1)c(ccc(N(C)C)c2)c2

> <NAME>
4,4-BIS(DIMETHYLAMINO)BENZOPHENONE

> <preferred_name>
Michler's ketone

> <iupac>
bis[4-(dimethylamino)phenyl]methanone

> <MPID>
99382

> <dsstox_substance_id>
DTXSID2020894

> <Canonical_QSARr>
CN(C)c1ccc(cc1)C(=O)c1ccc(cc1)N(C)C

> <InChI_Code_QSARr>
InChI=1S/C17H20N2O/c1-18(2)15-9-5-13(6-10-15)17(20)14-7-11-16(12-8-14)19(3)4/h5-12H,1-4H3

> <InChI Key_QSARr>
VVBLNCFGVYUYGU-UHFFFAOYSA-N

> <LogKOC>
2.21

$$$$
100107
  -INDIGO-08031722282D

 20 20  0  0  0  0  0  0  0  0999 V2000
    0.0000    0.0000    0.0000 C   0  0  0  0  0  0  0  0  0  0  0  0
    0.8000    1.3856    0.0000 O   0  0  0  0  0  0  0  0  0  0  0  0
    2.4001    1.3856    0.0000 C   0  0  0  0  0  0  0  0  0  0  0  0
    3.2000    2.7713    0.0000 H   0  0  0  0  0  0  0  0  0  0  0  0
    4.0000    1.3856    0.0000 H   0  0  0  0  0  0  0  0  0  0  0  0
    1.6000    2.7713    0.0000 H   0  0  0  0  0  0  0  0  0  0  0  0
   -1.6000    0.0000    0.0000 C   0  0  0  0  0  0  0  0  0  0  0  0
   -2.4000    1.3856    0.0000 O   0  0  0  0  0  0  0  0  0  0  0  0
   -4.0001    1.3856    0.0000 C   0  0  0  0  0  0  0  0  0  0  0  0
   -4.8000    2.7713    0.0000 H   0  0  0  0  0  0  0  0  0  0  0  0
   -5.6000    1.3856    0.0000 H   0  0  0  0  0  0  0  0  0  0  0  0
   -3.2000    2.7713    0.0000 H   0  0  0  0  0  0  0  0  0  0  0  0
   -2.4000   -1.3856    0.0000 C   0  0  0  0  0  0  0  0  0  0  0  0
   -3.9999   -1.3856    0.0000 H   0  0  0  0  0  0  0  0  0  0  0  0
   -1.6000   -2.7713    0.0000 C   0  0  0  0  0  0  0  0  0  0  0  0
   -2.4000   -4.1569    0.0000 H   0  0  0  0  0  0  0  0  0  0  0  0
    0.0000   -2.7713    0.0000 C   0  0  0  0  0  0  0  0  0  0  0  0
    0.8000   -4.1569    0.0000 H   0  0  0  0  0  0  0  0  0  0  0  0
    0.8000   -1.3856    0.0000 C   0  0  0  0  0  0  0  0  0  0  0  0
    2.4001   -1.3856    0.0000 H   0  0  0  0  0  0  0  0  0  0  0  0
  1  2  1  0  0  0  0
  2  3  1  0  0  0  0
  3  4  1  0  0  0  0
  3  5  1  0  0  0  0
  3  6  1  0  0  0  0
  1  7  1  0  0  0  0
  7  8  1  0  0  0  0
  8  9  1  0  0  0  0
  9 10  1  0  0  0  0
  9 11  1  0  0  0  0
  9 12  1  0  0  0  0
  7 13  2  0  0  0  0
 13 14  1  0  0  0  0
 13 15  1  0  0  0  0
 15 16  1  0  0  0  0
 15 17  2  0  0  0  0
 17 18  1  0  0  0  0
 17 19  1  0  0  0  0
 19  1  2  0  0  0  0
 19 20  1  0  0  0  0
M  END
> <ChemID>
100107

> <source_casrn>
91-16-7

> <CAS>
91-16-7

> <SMILES>
COc1ccccc1OC

> <NAME>
1,2-DIMETHOXYBENZENE

> <preferred_name>
1,2-Dimethoxybenzene

> <iupac>
1,2-dimethoxybenzene

> <MPID>
99384

> <dsstox_substance_id>
DTXSID7047065

> <Canonical_QSARr>
COc1ccccc1OC

> <InChI_Code_QSARr>
InChI=1S/C8H10O2/c1-9-7-5-3-4-6-8(7)10-2/h3-6H,1-2H3

> <InChI Key_QSARr>
ABDKAPXRBAPSQN-UHFFFAOYSA-N

> <LogKOC>
2.03

$$$$
100108
  -INDIGO-08031722282D

 28 29  0  0  0  0  0  0  0  0999 V2000
    0.0001    0.0000    0.0000 C   0  0  0  0  0  0  0  0  0  0  0  0
   -0.0001    1.6000    0.0000 H   0  0  0  0  0  0  0  0  0  0  0  0
   -1.3856    0.8000    0.0000 C   0  0  0  0  0  0  0  0  0  0  0  0
   -0.8384    2.3035    0.0000 H   0  0  0  0  0  0  0  0  0  0  0  0
   -2.4141    2.0257    0.0000 H   0  0  0  0  0  0  0  0  0  0  0  0
   -2.7712    0.0000    0.0000 C   0  0  0  0  0  0  0  0  0  0  0  0
   -3.3185    1.5035    0.0000 H   0  0  0  0  0  0  0  0  0  0  0  0
   -4.3470   -0.2778    0.0000 H   0  0  0  0  0  0  0  0  0  0  0  0
   -2.7712   -1.6000    0.0000 C   0  0  0  0  0  0  0  0  0  0  0  0
   -4.3470   -1.3222    0.0000 H   0  0  0  0  0  0  0  0  0  0  0  0
   -3.3185   -3.1035    0.0000 H   0  0  0  0  0  0  0  0  0  0  0  0
   -1.3856   -2.4000    0.0000 C   0  0  0  0  0  0  0  0  0  0  0  0
   -2.4141   -3.6257    0.0000 H   0  0  0  0  0  0  0  0  0  0  0  0
   -0.8384   -3.9035    0.0000 H   0  0  0  0  0  0  0  0  0  0  0  0
   -0.0001   -1.6000    0.0000 C   0  0  0  0  0  0  0  0  0  0  0  0
   -0.0001   -3.2000    0.0000 H   0  0  0  0  0  0  0  0  0  0  0  0
    1.3856   -2.4000    0.0000 C   0  0  0  0  0  0  0  0  0  0  0  0
    0.8384   -3.9035    0.0000 H   0  0  0  0  0  0  0  0  0  0  0  0
    2.4141   -3.6257    0.0000 H   0  0  0  0  0  0  0  0  0  0  0  0
    2.7712   -1.6000    0.0000 C   0  0  0  0  0  0  0  0  0  0  0  0
    3.3185   -3.1035    0.0000 H   0  0  0  0  0  0  0  0  0  0  0  0
    4.3470   -1.3222    0.0000 H   0  0  0  0  0  0  0  0  0  0  0  0
    2.7712    0.0000    0.0000 C   0  0  0  0  0  0  0  0  0  0  0  0
    4.3470   -0.2778    0.0000 H   0  0  0  0  0  0  0  0  0  0  0  0
    3.3185    1.5035    0.0000 H   0  0  0  0  0  0  0  0  0  0  0  0
    1.3856    0.8000    0.0000 C   0  0  0  0  0  0  0  0  0  0  0  0
    2.4141    2.0257    0.0000 H   0  0  0  0  0  0  0  0  0  0  0  0
    0.8384    2.3035    0.0000 H   0  0  0  0  0  0  0  0  0  0  0  0
  1  2  1  0  0  0  0
  1  3  1  0  0  0  0
  3  4  1  0  0  0  0
  3  5  1  0  0  0  0
  3  6  1  0  0  0  0
  6  7  1  0  0  0  0
  6  8  1  0  0  0  0
  6  9  1  0  0  0  0
  9 10  1  0  0  0  0
  9 11  1  0  0  0  0
  9 12  1  0  0  0  0
 12 13  1  0  0  0  0
 12 14  1  0  0  0  0
 12 15  1  0  0  0  0
 15  1  1  0  0  0  0
 15 16  1  0  0  0  0
 15 17  1  0  0  0  0
 17 18  1  0  0  0  0
 17 19  1  0  0  0  0
 17 20  1  0  0  0  0
 20 21  1  0  0  0  0
 20 22  1  0  0  0  0
 20 23  1  0  0  0  0
 23 24  1  0  0  0  0
 23 25  1  0  0  0  0
 23 26  1  0  0  0  0
 26  1  1  0  0  0  0
 26 27  1  0  0  0  0
 26 28  1  0  0  0  0
M  END
> <ChemID>
100108

> <source_casrn>
91-17-8

> <CAS>
91-17-8

> <SMILES>
C1CCCC2CCCCC21

> <NAME>
DECAHYDRONAPHTHALENE

> <preferred_name>
Decalin

> <iupac>
decahydronaphthalene

> <MPID>
99385

> <dsstox_substance_id>
DTXSID1024912

> <Canonical_QSARr>
C1CCCC2CCCCC21

> <InChI_Code_QSARr>
InChI=1S/C10H18/c1-2-6-10-8-4-3-7-9(10)5-1/h9-10H,1-8H2

> <InChI Key_QSARr>
NNBZCPXTIHJBJL-UHFFFAOYSA-N

> <LogKOC>
3.67

$$$$
100109
  -INDIGO-08031722282D

 18 19  0  0  0  0  0  0  0  0999 V2000
    1.3856    2.4000    0.0000 C   0  0  0  0  0  0  0  0  0  0  0  0
    1.3856    4.0000    0.0000 H   0  0  0  0  0  0  0  0  0  0  0  0
    0.0001    1.6000    0.0000 C   0  0  0  0  0  0  0  0  0  0  0  0
    0.0001    0.0000    0.0000 C   0  0  0  0  0  0  0  0  0  0  0  0
   -1.3856   -0.8000    0.0000 C   0  0  0  0  0  0  0  0  0  0  0  0
   -1.3856   -2.4000    0.0000 H   0  0  0  0  0  0  0  0  0  0  0  0
   -2.7712    0.0000    0.0000 C   0  0  0  0  0  0  0  0  0  0  0  0
   -4.1569   -0.8000    0.0000 H   0  0  0  0  0  0  0  0  0  0  0  0
   -2.7712    1.6000    0.0000 C   0  0  0  0  0  0  0  0  0  0  0  0
   -4.1569    2.4000    0.0000 H   0  0  0  0  0  0  0  0  0  0  0  0
   -1.3856    2.4000    0.0000 C   0  0  0  0  0  0  0  0  0  0  0  0
   -1.3856    4.0000    0.0000 H   0  0  0  0  0  0  0  0  0  0  0  0
    1.3856   -0.8000    0.0000 C   0  0  0  0  0  0  0  0  0  0  0  0
    1.3856   -2.4000    0.0000 H   0  0  0  0  0  0  0  0  0  0  0  0
    2.7713    0.0000    0.0000 C   0  0  0  0  0  0  0  0  0  0  0  0
    4.1569   -0.8000    0.0000 H   0  0  0  0  0  0  0  0  0  0  0  0
    2.7713    1.6000    0.0000 C   0  0  0  0  0  0  0  0  0  0  0  0
    4.1569    2.4000    0.0000 H   0  0  0  0  0  0  0  0  0  0  0  0
  1  2  1  0  0  0  0
  1  3  1  0  0  0  0
  3  4  1  0  0  0  0
  4  5  2  0  0  0  0
  5  6  1  0  0  0  0
  5  7  1  0  0  0  0
  7  8  1  0  0  0  0
  7  9  2  0  0  0  0
  9 10  1  0  0  0  0
  9 11  1  0  0  0  0
 11  3  2  0  0  0  0
 11 12  1  0  0  0  0
  4 13  1  0  0  0  0
 13 14  1  0  0  0  0
 13 15  2  0  0  0  0
 15 16  1  0  0  0  0
 15 17  1  0  0  0  0
 17  1  2  0  0  0  0
 17 18  1  0  0  0  0
M  END
> <ChemID>
100109

> <source_casrn>
91-20-3

> <CAS>
91-20-3

> <SMILES>
c1cccc2ccccc21

> <NAME>
NAPHTHALENE

> <preferred_name>
Naphthalene

> <iupac>
naphthalene

> <MPID>
99386

> <dsstox_substance_id>
DTXSID8020913

> <Canonical_QSARr>
c1cccc2ccccc21

> <InChI_Code_QSARr>
InChI=1S/C10H8/c1-2-6-10-8-4-3-7-9(10)5-1/h1-8H

> <InChI Key_QSARr>
UFWIBTONFRDIAS-UHFFFAOYSA-N

> <LogKOC>
2.96

$$$$
100111
  -INDIGO-08031722282D

 21 22  0  0  0  0  0  0  0  0999 V2000
    0.0001   -0.0000    0.0000 C   0  0  0  0  0  0  0  0  0  0  0  0
    1.3857    0.8000    0.0000 C   0  0  0  0  0  0  0  0  0  0  0  0
    1.3857    2.4000    0.0000 H   0  0  0  0  0  0  0  0  0  0  0  0
    2.7713   -0.0000    0.0000 C   0  0  0  0  0  0  0  0  0  0  0  0
    4.1569    0.8000    0.0000 H   0  0  0  0  0  0  0  0  0  0  0  0
    2.7713   -1.6000    0.0000 C   0  0  0  0  0  0  0  0  0  0  0  0
    4.1569   -2.4000    0.0000 H   0  0  0  0  0  0  0  0  0  0  0  0
    1.3857   -2.4000    0.0000 C   0  0  0  0  0  0  0  0  0  0  0  0
    1.3857   -4.0000    0.0000 H   0  0  0  0  0  0  0  0  0  0  0  0
    0.0001   -1.6000    0.0000 C   0  0  0  0  0  0  0  0  0  0  0  0
   -1.3857   -2.4000    0.0000 C   0  0  0  0  0  0  0  0  0  0  0  0
   -1.3857   -4.0000    0.0000 H   0  0  0  0  0  0  0  0  0  0  0  0
   -2.7713   -1.6000    0.0000 C   0  0  0  0  0  0  0  0  0  0  0  0
   -4.1569   -2.4000    0.0000 H   0  0  0  0  0  0  0  0  0  0  0  0
   -2.7713   -0.0000    0.0000 C   0  0  0  0  0  0  0  0  0  0  0  0
   -4.1569    0.8000    0.0000 C   0  0  0  0  0  0  0  0  0  0  0  0
   -5.5426    1.6000    0.0000 H   0  0  0  0  0  0  0  0  0  0  0  0
   -5.5426   -0.0000    0.0000 H   0  0  0  0  0  0  0  0  0  0  0  0
   -4.1569    2.4000    0.0000 H   0  0  0  0  0  0  0  0  0  0  0  0
   -1.3857    0.8000    0.0000 C   0  0  0  0  0  0  0  0  0  0  0  0
   -1.3857    2.4000    0.0000 H   0  0  0  0  0  0  0  0  0  0  0  0
  1  2  1  0  0  0  0
  2  3  1  0  0  0  0
  2  4  2  0  0  0  0
  4  5  1  0  0  0  0
  4  6  1  0  0  0  0
  6  7  1  0  0  0  0
  6  8  2  0  0  0  0
  8  9  1  0  0  0  0
  8 10  1  0  0  0  0
 10  1  1  0  0  0  0
 10 11  2  0  0  0  0
 11 12  1  0  0  0  0
 11 13  1  0  0  0  0
 13 14  1  0  0  0  0
 13 15  2  0  0  0  0
 15 16  1  0  0  0  0
 16 17  1  0  0  0  0
 16 18  1  0  0  0  0
 16 19  1  0  0  0  0
 15 20  1  0  0  0  0
 20  1  2  0  0  0  0
 20 21  1  0  0  0  0
M  END
> <ChemID>
100111

> <source_casrn>
91-57-6

> <CAS>
91-57-6

> <SMILES>
Cc1cc2ccccc2cc1

> <NAME>
2-METHYLNAPHTHALENE

> <preferred_name>
2-Methylnaphthalene

> <iupac>
2-methylnaphthalene

> <MPID>
99388

> <dsstox_substance_id>
DTXSID4020878

> <Canonical_QSARr>
Cc1cc2ccccc2cc1

> <InChI_Code_QSARr>
InChI=1S/C11H10/c1-9-6-7-10-4-2-3-5-11(10)8-9/h2-8H,1H3

> <InChI Key_QSARr>
QIMMUPPBPVKWKM-UHFFFAOYSA-N

> <LogKOC>
3.6

$$$$
100112
  -INDIGO-08031722282D

 26 26  0  0  0  0  0  0  0  0999 V2000
    2.4001    1.3856    0.0000 C   0  0  0  0  0  0  0  0  0  0  0  0
    3.2000    2.7712    0.0000 H   0  0  0  0  0  0  0  0  0  0  0  0
    4.0000    1.3856    0.0000 H   0  0  0  0  0  0  0  0  0  0  0  0
    1.6001    2.7712    0.0000 H   0  0  0  0  0  0  0  0  0  0  0  0
    0.7999    1.3856    0.0000 C   0  0  0  0  0  0  0  0  0  0  0  0
   -0.4693    2.3596    0.0000 H   0  0  0  0  0  0  0  0  0  0  0  0
    0.5911    2.9720    0.0000 H   0  0  0  0  0  0  0  0  0  0  0  0
   -0.0000    0.0000    0.0000 N   0  0  0  0  0  0  0  0  0  0  0  0
    0.7999   -1.3856    0.0000 C   0  0  0  0  0  0  0  0  0  0  0  0
    0.5911   -2.9720    0.0000 H   0  0  0  0  0  0  0  0  0  0  0  0
   -0.4693   -2.3596    0.0000 H   0  0  0  0  0  0  0  0  0  0  0  0
    2.4001   -1.3856    0.0000 C   0  0  0  0  0  0  0  0  0  0  0  0
    4.0000   -1.3856    0.0000 H   0  0  0  0  0  0  0  0  0  0  0  0
    3.2000   -2.7712    0.0000 H   0  0  0  0  0  0  0  0  0  0  0  0
    1.6001   -2.7712    0.0000 H   0  0  0  0  0  0  0  0  0  0  0  0
   -1.6000    0.0000    0.0000 C   0  0  0  0  0  0  0  0  0  0  0  0
   -2.4000    1.3856    0.0000 C   0  0  0  0  0  0  0  0  0  0  0  0
   -1.6000    2.7713    0.0000 H   0  0  0  0  0  0  0  0  0  0  0  0
   -4.0001    1.3856    0.0000 C   0  0  0  0  0  0  0  0  0  0  0  0
   -4.8000    2.7713    0.0000 H   0  0  0  0  0  0  0  0  0  0  0  0
   -4.8000    0.0000    0.0000 C   0  0  0  0  0  0  0  0  0  0  0  0
   -6.4000    0.0000    0.0000 H   0  0  0  0  0  0  0  0  0  0  0  0
   -4.0001   -1.3856    0.0000 C   0  0  0  0  0  0  0  0  0  0  0  0
   -4.8000   -2.7712    0.0000 H   0  0  0  0  0  0  0  0  0  0  0  0
   -2.4000   -1.3856    0.0000 C   0  0  0  0  0  0  0  0  0  0  0  0
   -1.6000   -2.7712    0.0000 H   0  0  0  0  0  0  0  0  0  0  0  0
  1  2  1  0  0  0  0
  1  3  1  0  0  0  0
  1  4  1  0  0  0  0
  1  5  1  0  0  0  0
  5  6  1  0  0  0  0
  5  7  1  0  0  0  0
  5  8  1  0  0  0  0
  8  9  1  0  0  0  0
  9 10  1  0  0  0  0
  9 11  1  0  0  0  0
  9 12  1  0  0  0  0
 12 13  1  0  0  0  0
 12 14  1  0  0  0  0
 12 15  1  0  0  0  0
  8 16  1  0  0  0  0
 16 17  1  0  0  0  0
 17 18  1  0  0  0  0
 17 19  2  0  0  0  0
 19 20  1  0  0  0  0
 19 21  1  0  0  0  0
 21 22  1  0  0  0  0
 21 23  2  0  0  0  0
 23 24  1  0  0  0  0
 23 25  1  0  0  0  0
 25 16  2  0  0  0  0
 25 26  1  0  0  0  0
M  END
> <ChemID>
100112

> <source_casrn>
91-66-7

> <CAS>
91-66-7

> <SMILES>
CCN(CC)c1ccccc1

> <NAME>
N,N-DIETHYLANILINE

> <preferred_name>
N,N-Diethylaniline

> <iupac>
N,N-diethylaniline

> <MPID>
99389

> <dsstox_substance_id>
DTXSID8021800

> <Canonical_QSARr>
CCN(CC)c1ccccc1

> <InChI_Code_QSARr>
InChI=1S/C10H15N/c1-3-11(4-2)10-8-6-5-7-9-10/h5-9H,3-4H2,1-2H3

> <InChI Key_QSARr>
GGSUCNLOZRCGPQ-UHFFFAOYSA-N

> <LogKOC>
2.08

$$$$
100113
  -INDIGO-08031722282D

 37 38  0  0  0  0  0  0  0  0999 V2000
    3.9912    1.5529    0.0000 C   0  0  0  0  0  0  0  0  0  0  0  0
    5.0619    0.3639    0.0000 H   0  0  0  0  0  0  0  0  0  0  0  0
    4.3239    3.1180    0.0000 C   0  0  0  0  0  0  0  0  0  0  0  0
    5.7856    3.7687    0.0000 H   0  0  0  0  0  0  0  0  0  0  0  0
    2.9383    3.9179    0.0000 C   0  0  0  0  0  0  0  0  0  0  0  0
    2.7709    5.5092    0.0000 H   0  0  0  0  0  0  0  0  0  0  0  0
    1.7492    2.8474    0.0000 S   0  0  0  0  0  0  0  0  0  0  0  0
    2.4000    1.3856    0.0000 C   0  0  0  0  0  0  0  0  0  0  0  0
    1.6001    0.0001    0.0000 C   0  0  0  0  0  0  0  0  0  0  0  0
    1.8089   -1.5864    0.0000 H   0  0  0  0  0  0  0  0  0  0  0  0
    2.8693   -0.9740    0.0000 H   0  0  0  0  0  0  0  0  0  0  0  0
    0.0000    0.0001    0.0000 N   0  0  0  0  0  0  0  0  0  0  0  0
   -0.8001    1.3856    0.0000 C   0  0  0  0  0  0  0  0  0  0  0  0
   -0.5912    2.9720    0.0000 H   0  0  0  0  0  0  0  0  0  0  0  0
    0.4694    2.3597    0.0000 H   0  0  0  0  0  0  0  0  0  0  0  0
   -2.4001    1.3856    0.0000 C   0  0  0  0  0  0  0  0  0  0  0  0
   -2.6089   -0.2007    0.0000 H   0  0  0  0  0  0  0  0  0  0  0  0
   -3.6693    0.4116    0.0000 H   0  0  0  0  0  0  0  0  0  0  0  0
   -3.2000    2.7712    0.0000 N   0  0  0  0  0  0  0  0  0  0  0  0
   -2.4001    4.1569    0.0000 C   0  0  0  0  0  0  0  0  0  0  0  0
   -1.6000    5.5426    0.0000 H   0  0  0  0  0  0  0  0  0  0  0  0
   -3.2000    5.5426    0.0000 H   0  0  0  0  0  0  0  0  0  0  0  0
   -0.8001    4.1569    0.0000 H   0  0  0  0  0  0  0  0  0  0  0  0
   -4.8000    2.7712    0.0000 C   0  0  0  0  0  0  0  0  0  0  0  0
   -6.4000    2.7712    0.0000 H   0  0  0  0  0  0  0  0  0  0  0  0
   -5.6001    4.1569    0.0000 H   0  0  0  0  0  0  0  0  0  0  0  0
   -5.6001    1.3856    0.0000 H   0  0  0  0  0  0  0  0  0  0  0  0
   -0.8001   -1.3856    0.0000 C   0  0  0  0  0  0  0  0  0  0  0  0
    0.0000   -2.7712    0.0000 C   0  0  0  0  0  0  0  0  0  0  0  0
    1.6001   -2.7712    0.0000 H   0  0  0  0  0  0  0  0  0  0  0  0
   -0.8001   -4.1569    0.0000 C   0  0  0  0  0  0  0  0  0  0  0  0
    0.0000   -5.5426    0.0000 H   0  0  0  0  0  0  0  0  0  0  0  0
   -2.4001   -4.1569    0.0000 C   0  0  0  0  0  0  0  0  0  0  0  0
   -3.2000   -5.5426    0.0000 H   0  0  0  0  0  0  0  0  0  0  0  0
   -3.2000   -2.7712    0.0000 C   0  0  0  0  0  0  0  0  0  0  0  0
   -4.8000   -2.7712    0.0000 H   0  0  0  0  0  0  0  0  0  0  0  0
   -2.4001   -1.3856    0.0000 N   0  0  0  0  0  0  0  0  0  0  0  0
  1  2  1  0  0  0  0
  1  3  1  0  0  0  0
  3  4  1  0  0  0  0
  3  5  2  0  0  0  0
  5  6  1  0  0  0  0
  5  7  1  0  0  0  0
  7  8  1  0  0  0  0
  8  1  2  0  0  0  0
  8  9  1  0  0  0  0
  9 10  1  0  0  0  0
  9 11  1  0  0  0  0
  9 12  1  0  0  0  0
 12 13  1  0  0  0  0
 13 14  1  0  0  0  0
 13 15  1  0  0  0  0
 13 16  1  0  0  0  0
 16 17  1  0  0  0  0
 16 18  1  0  0  0  0
 16 19  1  0  0  0  0
 19 20  1  0  0  0  0
 20 21  1  0  0  0  0
 20 22  1  0  0  0  0
 20 23  1  0  0  0  0
 19 24  1  0  0  0  0
 24 25  1  0  0  0  0
 24 26  1  0  0  0  0
 24 27  1  0  0  0  0
 12 28  1  0  0  0  0
 28 29  1  0  0  0  0
 29 30  1  0  0  0  0
 29 31  2  0  0  0  0
 31 32  1  0  0  0  0
 31 33  1  0  0  0  0
 33 34  1  0  0  0  0
 33 35  2  0  0  0  0
 35 36  1  0  0  0  0
 35 37  1  0  0  0  0
 37 28  2  0  0  0  0
M  END
> <ChemID>
100113

> <source_casrn>
91-80-5

> <CAS>
91-80-5

> <SMILES>
CN(C)CCN(Cc1ccc[s]1)c1cccc[n]1

> <NAME>
METHAPYRILENE

> <preferred_name>
Methapyrilene

> <iupac>
N,N-dimethyl-N'-(pyridin-2-yl)-N'-(thiophen-2-ylmethyl)ethane-1,2-diamine

> <MPID>
99390

> <dsstox_substance_id>
DTXSID2023278

> <Canonical_QSARr>
CN(C)CCN(Cc1ccc[s]1)c1cccc[n]1

> <InChI_Code_QSARr>
InChI=1S/C14H19N3S/c1-16(2)9-10-17(12-13-6-5-11-18-13)14-7-3-4-8-15-14/h3-8,11H,9-10,12H2,1-2H3

> <InChI Key_QSARr>
HNJJXZKZRAWDPF-UHFFFAOYSA-N

> <LogKOC>
2.87

$$$$
100115
  -INDIGO-08031722282D

 30 33  0  0  0  0  0  0  0  0999 V2000
   -0.0001   -0.0000    0.0000 C   0  0  0  0  0  0  0  0  0  0  0  0
    1.3856    0.8000    0.0000 C   0  0  0  0  0  0  0  0  0  0  0  0
    1.3856    2.4000    0.0000 H   0  0  0  0  0  0  0  0  0  0  0  0
    2.7714   -0.0000    0.0000 C   0  0  0  0  0  0  0  0  0  0  0  0
    4.1569    0.8000    0.0000 C   0  0  0  0  0  0  0  0  0  0  0  0
    4.1569    2.4000    0.0000 H   0  0  0  0  0  0  0  0  0  0  0  0
    5.5427   -0.0000    0.0000 C   0  0  0  0  0  0  0  0  0  0  0  0
    6.9282    0.8000    0.0000 H   0  0  0  0  0  0  0  0  0  0  0  0
    5.5427   -1.6000    0.0000 C   0  0  0  0  0  0  0  0  0  0  0  0
    6.9282   -2.4000    0.0000 H   0  0  0  0  0  0  0  0  0  0  0  0
    4.1569   -2.4000    0.0000 C   0  0  0  0  0  0  0  0  0  0  0  0
    4.1569   -4.0000    0.0000 H   0  0  0  0  0  0  0  0  0  0  0  0
    2.7714   -1.6000    0.0000 C   0  0  0  0  0  0  0  0  0  0  0  0
    1.3856   -2.4000    0.0000 C   0  0  0  0  0  0  0  0  0  0  0  0
    1.3856   -4.0000    0.0000 H   0  0  0  0  0  0  0  0  0  0  0  0
    0.0001   -1.6000    0.0000 C   0  0  0  0  0  0  0  0  0  0  0  0
   -1.3856   -2.4000    0.0000 C   0  0  0  0  0  0  0  0  0  0  0  0
   -1.3856   -4.0000    0.0000 H   0  0  0  0  0  0  0  0  0  0  0  0
   -2.7714   -1.6000    0.0000 C   0  0  0  0  0  0  0  0  0  0  0  0
   -4.1569   -2.4000    0.0000 C   0  0  0  0  0  0  0  0  0  0  0  0
   -4.1569   -4.0000    0.0000 H   0  0  0  0  0  0  0  0  0  0  0  0
   -5.5427   -1.6000    0.0000 C   0  0  0  0  0  0  0  0  0  0  0  0
   -6.9282   -2.4000    0.0000 H   0  0  0  0  0  0  0  0  0  0  0  0
   -5.5427   -0.0000    0.0000 C   0  0  0  0  0  0  0  0  0  0  0  0
   -6.9282    0.8000    0.0000 H   0  0  0  0  0  0  0  0  0  0  0  0
   -4.1569    0.8000    0.0000 C   0  0  0  0  0  0  0  0  0  0  0  0
   -4.1569    2.4000    0.0000 H   0  0  0  0  0  0  0  0  0  0  0  0
   -2.7714   -0.0000    0.0000 C   0  0  0  0  0  0  0  0  0  0  0  0
   -1.3856    0.8000    0.0000 C   0  0  0  0  0  0  0  0  0  0  0  0
   -1.3856    2.4000    0.0000 H   0  0  0  0  0  0  0  0  0  0  0  0
  1  2  2  0  0  0  0
  2  3  1  0  0  0  0
  2  4  1  0  0  0  0
  4  5  1  0  0  0  0
  5  6  1  0  0  0  0
  5  7  2  0  0  0  0
  7  8  1  0  0  0  0
  7  9  1  0  0  0  0
  9 10  1  0  0  0  0
  9 11  2  0  0  0  0
 11 12  1  0  0  0  0
 11 13  1  0  0  0  0
 13  4  2  0  0  0  0
 13 14  1  0  0  0  0
 14 15  1  0  0  0  0
 14 16  2  0  0  0  0
 16  1  1  0  0  0  0
 16 17  1  0  0  0  0
 17 18  1  0  0  0  0
 17 19  2  0  0  0  0
 19 20  1  0  0  0  0
 20 21  1  0  0  0  0
 20 22  2  0  0  0  0
 22 23  1  0  0  0  0
 22 24  1  0  0  0  0
 24 25  1  0  0  0  0
 24 26  2  0  0  0  0
 26 27  1  0  0  0  0
 26 28  1  0  0  0  0
 28 19  1  0  0  0  0
 28 29  2  0  0  0  0
 29  1  1  0  0  0  0
 29 30  1  0  0  0  0
M  END
> <ChemID>
100115

> <source_casrn>
92-24-0

> <CAS>
92-24-0

> <SMILES>
c1c2cc3ccccc3cc2cc2ccccc21

> <NAME>
TETRACENE

> <preferred_name>
Naphthacene

> <iupac>
TETRACENE

> <MPID>
99392

> <dsstox_substance_id>
DTXSID4059045

> <Canonical_QSARr>
c1c2cc3ccccc3cc2cc2ccccc21

> <InChI_Code_QSARr>
InChI=1S/C18H12/c1-2-6-14-10-18-12-16-8-4-3-7-15(16)11-17(18)9-13(14)5-1/h1-12H

> <InChI Key_QSARr>
IFLREYGFSNHWGE-UHFFFAOYSA-N

> <LogKOC>
5.81

$$$$
100116
  -INDIGO-08031722282D

 22 23  0  0  0  0  0  0  0  0999 V2000
   -0.8001    1.3856    0.0000 C   0  0  0  0  0  0  0  0  0  0  0  0
   -0.0001    2.7713    0.0000 H   0  0  0  0  0  0  0  0  0  0  0  0
   -0.0001   -0.0000    0.0000 C   0  0  0  0  0  0  0  0  0  0  0  0
    1.6001    0.0000    0.0000 C   0  0  0  0  0  0  0  0  0  0  0  0
    2.4001    1.3856    0.0000 C   0  0  0  0  0  0  0  0  0  0  0  0
    1.6001    2.7713    0.0000 H   0  0  0  0  0  0  0  0  0  0  0  0
    4.0000    1.3856    0.0000 C   0  0  0  0  0  0  0  0  0  0  0  0
    4.8000    2.7713    0.0000 H   0  0  0  0  0  0  0  0  0  0  0  0
    4.8000    0.0000    0.0000 C   0  0  0  0  0  0  0  0  0  0  0  0
    6.4000    0.0000    0.0000 H   0  0  0  0  0  0  0  0  0  0  0  0
    4.0000   -1.3856    0.0000 C   0  0  0  0  0  0  0  0  0  0  0  0
    4.8000   -2.7713    0.0000 H   0  0  0  0  0  0  0  0  0  0  0  0
    2.4001   -1.3856    0.0000 C   0  0  0  0  0  0  0  0  0  0  0  0
    1.6001   -2.7713    0.0000 H   0  0  0  0  0  0  0  0  0  0  0  0
   -0.8001   -1.3856    0.0000 C   0  0  0  0  0  0  0  0  0  0  0  0
   -0.0001   -2.7713    0.0000 H   0  0  0  0  0  0  0  0  0  0  0  0
   -2.4000   -1.3856    0.0000 C   0  0  0  0  0  0  0  0  0  0  0  0
   -3.2000   -2.7713    0.0000 H   0  0  0  0  0  0  0  0  0  0  0  0
   -3.2000   -0.0000    0.0000 C   0  0  0  0  0  0  0  0  0  0  0  0
   -4.8000   -0.0000    0.0000 H   0  0  0  0  0  0  0  0  0  0  0  0
   -2.4000    1.3856    0.0000 C   0  0  0  0  0  0  0  0  0  0  0  0
   -3.2000    2.7713    0.0000 H   0  0  0  0  0  0  0  0  0  0  0  0
  1  2  1  0  0  0  0
  1  3  1  0  0  0  0
  3  4  1  0  0  0  0
  4  5  1  0  0  0  0
  5  6  1  0  0  0  0
  5  7  2  0  0  0  0
  7  8  1  0  0  0  0
  7  9  1  0  0  0  0
  9 10  1  0  0  0  0
  9 11  2  0  0  0  0
 11 12  1  0  0  0  0
 11 13  1  0  0  0  0
 13  4  2  0  0  0  0
 13 14  1  0  0  0  0
  3 15  2  0  0  0  0
 15 16  1  0  0  0  0
 15 17  1  0  0  0  0
 17 18  1  0  0  0  0
 17 19  2  0  0  0  0
 19 20  1  0  0  0  0
 19 21  1  0  0  0  0
 21  1  2  0  0  0  0
 21 22  1  0  0  0  0
M  END
> <ChemID>
100116

> <source_casrn>
92-52-4

> <CAS>
92-52-4

> <SMILES>
c1ccccc1-c1ccccc1

> <NAME>
BIPHENYL

> <preferred_name>
Biphenyl

> <iupac>
biphenyl

> <MPID>
99393

> <dsstox_substance_id>
DTXSID4020161

> <Canonical_QSARr>
c1ccccc1-c1ccccc1

> <InChI_Code_QSARr>
InChI=1S/C12H10/c1-3-7-11(8-4-1)12-9-5-2-6-10-12/h1-10H

> <InChI Key_QSARr>
ZUOUZKKEUPVFJK-UHFFFAOYSA-N

> <LogKOC>
3.27

$$$$
100117
  -INDIGO-08031722282D

 22 24  0  0  0  0  0  0  0  0999 V2000
    0.0001   -0.0000    0.0000 C   0  0  0  0  0  0  0  0  0  0  0  0
    1.3857    0.8000    0.0000 N   0  0  0  0  0  0  0  0  0  0  0  0
    2.7712   -0.0000    0.0000 C   0  0  0  0  0  0  0  0  0  0  0  0
    4.1569    0.8000    0.0000 C   0  0  0  0  0  0  0  0  0  0  0  0
    4.1569    2.4000    0.0000 H   0  0  0  0  0  0  0  0  0  0  0  0
    5.5425   -0.0000    0.0000 C   0  0  0  0  0  0  0  0  0  0  0  0
    6.9282    0.8000    0.0000 H   0  0  0  0  0  0  0  0  0  0  0  0
    5.5425   -1.6000    0.0000 C   0  0  0  0  0  0  0  0  0  0  0  0
    6.9282   -2.4000    0.0000 H   0  0  0  0  0  0  0  0  0  0  0  0
    4.1569   -2.4000    0.0000 C   0  0  0  0  0  0  0  0  0  0  0  0
    4.1569   -4.0000    0.0000 H   0  0  0  0  0  0  0  0  0  0  0  0
    2.7712   -1.6000    0.0000 C   0  0  0  0  0  0  0  0  0  0  0  0
    1.3857   -2.4000    0.0000 N   0  0  0  0  0  0  0  0  0  0  0  0
    0.0001   -1.6000    0.0000 C   0  0  0  0  0  0  0  0  0  0  0  0
   -1.3856   -2.4000    0.0000 C   0  0  0  0  0  0  0  0  0  0  0  0
   -1.3856   -4.0000    0.0000 H   0  0  0  0  0  0  0  0  0  0  0  0
   -2.7713   -1.6000    0.0000 C   0  0  0  0  0  0  0  0  0  0  0  0
   -4.1569   -2.4000    0.0000 H   0  0  0  0  0  0  0  0  0  0  0  0
   -2.7713   -0.0000    0.0000 C   0  0  0  0  0  0  0  0  0  0  0  0
   -4.1569    0.8000    0.0000 H   0  0  0  0  0  0  0  0  0  0  0  0
   -1.3856    0.8000    0.0000 C   0  0  0  0  0  0  0  0  0  0  0  0
   -1.3856    2.4000    0.0000 H   0  0  0  0  0  0  0  0  0  0  0  0
  1  2  2  0  0  0  0
  2  3  1  0  0  0  0
  3  4  1  0  0  0  0
  4  5  1  0  0  0  0
  4  6  2  0  0  0  0
  6  7  1  0  0  0  0
  6  8  1  0  0  0  0
  8  9  1  0  0  0  0
  8 10  2  0  0  0  0
 10 11  1  0  0  0  0
 10 12  1  0  0  0  0
 12  3  2  0  0  0  0
 12 13  1  0  0  0  0
 13 14  2  0  0  0  0
 14  1  1  0  0  0  0
 14 15  1  0  0  0  0
 15 16  1  0  0  0  0
 15 17  2  0  0  0  0
 17 18  1  0  0  0  0
 17 19  1  0  0  0  0
 19 20  1  0  0  0  0
 19 21  2  0  0  0  0
 21  1  1  0  0  0  0
 21 22  1  0  0  0  0
M  END
> <ChemID>
100117

> <source_casrn>
92-82-0

> <CAS>
92-82-0

> <SMILES>
c1cccc2[n]c3ccccc3[n]c21

> <NAME>
PHENAZINE

> <preferred_name>
Phenazine

> <iupac>
Phenazine

> <MPID>
99394

> <dsstox_substance_id>
DTXSID2059069

> <Canonical_QSARr>
c1cccc2[n]c3ccccc3[n]c21

> <InChI_Code_QSARr>
InChI=1S/C12H8N2/c1-2-6-10-9(5-1)13-11-7-3-4-8-12(11)14-10/h1-8H

> <InChI Key_QSARr>
PCNDJXKNXGMECE-UHFFFAOYSA-N

> <LogKOC>
3.37

$$$$
100119
  -INDIGO-08031722282D

 27 28  0  0  0  0  0  0  0  0999 V2000
   -2.4000    1.3856    0.0000 C   0  0  0  0  0  0  0  0  0  0  0  0
   -1.6000    2.7713    0.0000 H   0  0  0  0  0  0  0  0  0  0  0  0
   -1.6000   -0.0000    0.0000 C   0  0  0  0  0  0  0  0  0  0  0  0
    0.0000    0.0000    0.0000 C   0  0  0  0  0  0  0  0  0  0  0  0
    0.8000    1.3856    0.0000 C   0  0  0  0  0  0  0  0  0  0  0  0
    0.0000    2.7713    0.0000 H   0  0  0  0  0  0  0  0  0  0  0  0
    2.4000    1.3856    0.0000 C   0  0  0  0  0  0  0  0  0  0  0  0
    3.2000    2.7713    0.0000 H   0  0  0  0  0  0  0  0  0  0  0  0
    3.2000    0.0000    0.0000 C   0  0  0  0  0  0  0  0  0  0  0  0
    4.8000   -0.0000    0.0000 C   0  0  0  0  0  0  0  0  0  0  0  0
    5.6000    1.3856    0.0000 C   0  0  0  0  0  0  0  0  0  0  0  0
    6.4000    2.7713    0.0000 H   0  0  0  0  0  0  0  0  0  0  0  0
    7.2000    1.3856    0.0000 H   0  0  0  0  0  0  0  0  0  0  0  0
    4.8000    2.7713    0.0000 H   0  0  0  0  0  0  0  0  0  0  0  0
    5.6000   -1.3856    0.0000 O   0  0  0  0  0  0  0  0  0  0  0  0
    2.4000   -1.3856    0.0000 C   0  0  0  0  0  0  0  0  0  0  0  0
    3.2000   -2.7713    0.0000 H   0  0  0  0  0  0  0  0  0  0  0  0
    0.8000   -1.3856    0.0000 C   0  0  0  0  0  0  0  0  0  0  0  0
    0.0000   -2.7713    0.0000 H   0  0  0  0  0  0  0  0  0  0  0  0
   -2.4000   -1.3856    0.0000 C   0  0  0  0  0  0  0  0  0  0  0  0
   -1.6000   -2.7713    0.0000 H   0  0  0  0  0  0  0  0  0  0  0  0
   -4.0000   -1.3856    0.0000 C   0  0  0  0  0  0  0  0  0  0  0  0
   -4.8000   -2.7713    0.0000 H   0  0  0  0  0  0  0  0  0  0  0  0
   -4.8000   -0.0000    0.0000 C   0  0  0  0  0  0  0  0  0  0  0  0
   -6.4000   -0.0000    0.0000 H   0  0  0  0  0  0  0  0  0  0  0  0
   -4.0000    1.3856    0.0000 C   0  0  0  0  0  0  0  0  0  0  0  0
   -4.8000    2.7713    0.0000 H   0  0  0  0  0  0  0  0  0  0  0  0
  1  2  1  0  0  0  0
  1  3  1  0  0  0  0
  3  4  1  0  0  0  0
  4  5  1  0  0  0  0
  5  6  1  0  0  0  0
  5  7  2  0  0  0  0
  7  8  1  0  0  0  0
  7  9  1  0  0  0  0
  9 10  1  0  0  0  0
 10 11  1  0  0  0  0
 11 12  1  0  0  0  0
 11 13  1  0  0  0  0
 11 14  1  0  0  0  0
 10 15  2  0  0  0  0
  9 16  2  0  0  0  0
 16 17  1  0  0  0  0
 16 18  1  0  0  0  0
 18  4  2  0  0  0  0
 18 19  1  0  0  0  0
  3 20  2  0  0  0  0
 20 21  1  0  0  0  0
 20 22  1  0  0  0  0
 22 23  1  0  0  0  0
 22 24  2  0  0  0  0
 24 25  1  0  0  0  0
 24 26  1  0  0  0  0
 26  1  2  0  0  0  0
 26 27  1  0  0  0  0
M  END
> <ChemID>
100119

> <source_casrn>
92-91-1

> <CAS>
92-91-1

> <SMILES>
CC(=O)c1ccc(cc1)-c1ccccc1

> <NAME>
4-ACETYLBIPHENYL

> <preferred_name>
4'-Acetylbiphenyl

> <iupac>
1-(biphenyl-4-yl)ethanone

> <MPID>
99396

> <dsstox_substance_id>
DTXSID6052619

> <Canonical_QSARr>
CC(=O)c1ccc(cc1)-c1ccccc1

> <InChI_Code_QSARr>
InChI=1S/C14H12O/c1-11(15)12-7-9-14(10-8-12)13-5-3-2-4-6-13/h2-10H,1H3

> <InChI Key_QSARr>
QCZZSANNLWPGEA-UHFFFAOYSA-N

> <LogKOC>
3.22

$$$$
100120
  -INDIGO-08031722282D

 23 24  0  0  0  0  0  0  0  0999 V2000
   -0.0001   -0.0000    0.0000 C   0  0  0  0  0  0  0  0  0  0  0  0
    1.3856    0.8000    0.0000 C   0  0  0  0  0  0  0  0  0  0  0  0
    1.3856    2.4000    0.0000 H   0  0  0  0  0  0  0  0  0  0  0  0
    2.7713   -0.0000    0.0000 C   0  0  0  0  0  0  0  0  0  0  0  0
    4.1569    0.8000    0.0000 H   0  0  0  0  0  0  0  0  0  0  0  0
    2.7713   -1.6000    0.0000 C   0  0  0  0  0  0  0  0  0  0  0  0
    4.1569   -2.4000    0.0000 H   0  0  0  0  0  0  0  0  0  0  0  0
    1.3856   -2.4000    0.0000 C   0  0  0  0  0  0  0  0  0  0  0  0
    1.3856   -4.0000    0.0000 H   0  0  0  0  0  0  0  0  0  0  0  0
   -0.0001   -1.6000    0.0000 C   0  0  0  0  0  0  0  0  0  0  0  0
   -1.3857   -2.4000    0.0000 C   0  0  0  0  0  0  0  0  0  0  0  0
   -1.3857   -4.0000    0.0000 H   0  0  0  0  0  0  0  0  0  0  0  0
   -2.7712   -1.6000    0.0000 C   0  0  0  0  0  0  0  0  0  0  0  0
   -4.1569   -2.4000    0.0000 H   0  0  0  0  0  0  0  0  0  0  0  0
   -2.7712   -0.0000    0.0000 C   0  0  0  0  0  0  0  0  0  0  0  0
   -4.1569    0.8000    0.0000 C   0  0  0  0  0  0  0  0  0  0  0  0
   -5.5425   -0.0000    0.0000 C   0  0  0  0  0  0  0  0  0  0  0  0
   -6.9282   -0.8000    0.0000 H   0  0  0  0  0  0  0  0  0  0  0  0
   -6.9282    0.8000    0.0000 H   0  0  0  0  0  0  0  0  0  0  0  0
   -5.5425   -1.6000    0.0000 H   0  0  0  0  0  0  0  0  0  0  0  0
   -4.1569    2.4000    0.0000 O   0  0  0  0  0  0  0  0  0  0  0  0
   -1.3857    0.8000    0.0000 C   0  0  0  0  0  0  0  0  0  0  0  0
   -1.3856    2.4000    0.0000 H   0  0  0  0  0  0  0  0  0  0  0  0
  1  2  1  0  0  0  0
  2  3  1  0  0  0  0
  2  4  2  0  0  0  0
  4  5  1  0  0  0  0
  4  6  1  0  0  0  0
  6  7  1  0  0  0  0
  6  8  2  0  0  0  0
  8  9  1  0  0  0  0
  8 10  1  0  0  0  0
 10  1  1  0  0  0  0
 10 11  2  0  0  0  0
 11 12  1  0  0  0  0
 11 13  1  0  0  0  0
 13 14  1  0  0  0  0
 13 15  2  0  0  0  0
 15 16  1  0  0  0  0
 16 17  1  0  0  0  0
 17 18  1  0  0  0  0
 17 19  1  0  0  0  0
 17 20  1  0  0  0  0
 16 21  2  0  0  0  0
 15 22  1  0  0  0  0
 22  1  2  0  0  0  0
 22 23  1  0  0  0  0
M  END
> <ChemID>
100120

> <source_casrn>
93-08-3

> <CAS>
93-08-3

> <SMILES>
CC(=O)c1cc2ccccc2cc1

> <NAME>
1-(2-NAPHTHALENYL)ETHANONE

> <preferred_name>
2'-Acetonaphthone

> <iupac>
1-(naphthalen-2-yl)ethanone

> <MPID>
99397

> <dsstox_substance_id>
DTXSID2041389

> <Canonical_QSARr>
CC(=O)c1cc2ccccc2cc1

> <InChI_Code_QSARr>
InChI=1S/C12H10O/c1-9(13)11-7-6-10-4-2-3-5-12(10)8-11/h2-8H,1H3

> <InChI Key_QSARr>
XSAYZAUNJMRRIR-UHFFFAOYSA-N

> <LogKOC>
2.93

$$$$
100121
  -INDIGO-08031722282D

 18 18  0  0  0  0  0  0  0  0999 V2000
   -1.3857    0.8000    0.0000 C   0  0  0  0  0  0  0  0  0  0  0  0
   -1.3857    2.4000    0.0000 O   0  0  0  0  0  0  0  0  0  0  0  0
   -2.7713   -0.0000    0.0000 O   0  0  0  0  0  0  0  0  0  0  0  0
   -4.1569    0.8000    0.0000 C   0  0  0  0  0  0  0  0  0  0  0  0
   -5.5426    1.6000    0.0000 H   0  0  0  0  0  0  0  0  0  0  0  0
   -5.5426   -0.0000    0.0000 H   0  0  0  0  0  0  0  0  0  0  0  0
   -4.1569    2.4000    0.0000 H   0  0  0  0  0  0  0  0  0  0  0  0
    0.0001   -0.0000    0.0000 C   0  0  0  0  0  0  0  0  0  0  0  0
    0.0001   -1.6000    0.0000 C   0  0  0  0  0  0  0  0  0  0  0  0
   -1.3857   -2.4000    0.0000 H   0  0  0  0  0  0  0  0  0  0  0  0
    1.3857   -2.4000    0.0000 C   0  0  0  0  0  0  0  0  0  0  0  0
    1.3857   -4.0000    0.0000 H   0  0  0  0  0  0  0  0  0  0  0  0
    2.7713   -1.6000    0.0000 C   0  0  0  0  0  0  0  0  0  0  0  0
    4.1569   -2.4000    0.0000 H   0  0  0  0  0  0  0  0  0  0  0  0
    2.7713   -0.0000    0.0000 C   0  0  0  0  0  0  0  0  0  0  0  0
    4.1569    0.8000    0.0000 H   0  0  0  0  0  0  0  0  0  0  0  0
    1.3857    0.8000    0.0000 C   0  0  0  0  0  0  0  0  0  0  0  0
    1.3857    2.4000    0.0000 H   0  0  0  0  0  0  0  0  0  0  0  0
  1  2  2  0  0  0  0
  1  3  1  0  0  0  0
  3  4  1  0  0  0  0
  4  5  1  0  0  0  0
  4  6  1  0  0  0  0
  4  7  1  0  0  0  0
  1  8  1  0  0  0  0
  8  9  1  0  0  0  0
  9 10  1  0  0  0  0
  9 11  2  0  0  0  0
 11 12  1  0  0  0  0
 11 13  1  0  0  0  0
 13 14  1  0  0  0  0
 13 15  2  0  0  0  0
 15 16  1  0  0  0  0
 15 17  1  0  0  0  0
 17  8  2  0  0  0  0
 17 18  1  0  0  0  0
M  END
> <ChemID>
100121

> <source_casrn>
93-58-3

> <CAS>
93-58-3

> <SMILES>
COC(=O)c1ccccc1

> <NAME>
BENZOIC ACID, METHYL ESTER

> <preferred_name>
Methyl benzoate

> <iupac>
methyl benzoate

> <MPID>
99398

> <dsstox_substance_id>
DTXSID5025572

> <Canonical_QSARr>
COC(=O)c1ccccc1

> <InChI_Code_QSARr>
InChI=1S/C8H8O2/c1-10-8(9)7-5-3-2-4-6-7/h2-6H,1H3

> <InChI Key_QSARr>
QPJVMBTYPHYUOC-UHFFFAOYSA-N

> <LogKOC>
2.1

$$$$
100123
  -INDIGO-08031722282D

 23 22  0  0  0  0  0  0  0  0999 V2000
    0.0001   -1.6000    0.0000 C   0  0  0  0  0  0  0  0  0  0  0  0
    0.0001   -0.0000    0.0000 N   0  0  0  0  0  0  0  0  0  0  0  0
    1.3856    0.8000    0.0000 C   0  0  0  0  0  0  0  0  0  0  0  0
    1.9979    2.2782    0.0000 H   0  0  0  0  0  0  0  0  0  0  0  0
    0.7734    2.2782    0.0000 H   0  0  0  0  0  0  0  0  0  0  0  0
    2.7712   -0.0000    0.0000 C   0  0  0  0  0  0  0  0  0  0  0  0
    2.7712   -1.6000    0.0000 H   0  0  0  0  0  0  0  0  0  0  0  0
    4.1569    0.8000    0.0000 C   0  0  0  0  0  0  0  0  0  0  0  0
    5.5426   -0.0000    0.0000 H   0  0  0  0  0  0  0  0  0  0  0  0
    4.1569    2.4000    0.0000 H   0  0  0  0  0  0  0  0  0  0  0  0
   -1.3856    0.8000    0.0000 C   0  0  0  0  0  0  0  0  0  0  0  0
   -0.7734    2.2782    0.0000 H   0  0  0  0  0  0  0  0  0  0  0  0
   -1.9979    2.2782    0.0000 H   0  0  0  0  0  0  0  0  0  0  0  0
   -2.7712   -0.0000    0.0000 C   0  0  0  0  0  0  0  0  0  0  0  0
   -2.7712   -1.6000    0.0000 H   0  0  0  0  0  0  0  0  0  0  0  0
   -4.1569    0.8000    0.0000 C   0  0  0  0  0  0  0  0  0  0  0  0
   -5.5426   -0.0000    0.0000 H   0  0  0  0  0  0  0  0  0  0  0  0
   -4.1569    2.4000    0.0000 H   0  0  0  0  0  0  0  0  0  0  0  0
   -1.3856   -2.4000    0.0000 O   0  0  0  0  0  0  0  0  0  0  0  0
    1.3856   -2.4000    0.0000 C   0  0  0  0  0  0  0  0  0  0  0  0
    1.3856   -4.0000    0.0000 H   0  0  0  0  0  0  0  0  0  0  0  0
    2.7712   -3.2000    0.0000 H   0  0  0  0  0  0  0  0  0  0  0  0
   -0.0001   -3.2000    0.0000 Cl  0  0  0  0  0  0  0  0  0  0  0  0
  1  2  1  0  0  0  0
  2  3  1  0  0  0  0
  3  4  1  0  0  0  0
  3  5  1  0  0  0  0
  3  6  1  0  0  0  0
  6  7  1  0  0  0  0
  6  8  2  0  0  0  0
  8  9  1  0  0  0  0
  8 10  1  0  0  0  0
  2 11  1  0  0  0  0
 11 12  1  0  0  0  0
 11 13  1  0  0  0  0
 11 14  1  0  0  0  0
 14 15  1  0  0  0  0
 14 16  2  0  0  0  0
 16 17  1  0  0  0  0
 16 18  1  0  0  0  0
  1 19  2  0  0  0  0
  1 20  1  0  0  0  0
 20 21  1  0  0  0  0
 20 22  1  0  0  0  0
 20 23  1  0  0  0  0
M  END
> <ChemID>
100123

> <source_casrn>
93-71-0

> <CAS>
93-71-0

> <SMILES>
C=CCN(CC=C)C(=O)CCl

> <NAME>
2-CHLORO-N,N-DIALLYLACETAMIDE

> <preferred_name>
Allidochlor

> <iupac>
2-chloro-N,N-di(prop-2-en-1-yl)acetamide

> <MPID>
99400

> <dsstox_substance_id>
DTXSID2041591

> <Canonical_QSARr>
C=CCN(CC=C)C(=O)CCl

> <InChI_Code_QSARr>
InChI=1S/C8H12ClNO/c1-3-5-10(6-4-2)8(11)7-9/h3-4H,1-2,5-7H2

> <InChI Key_QSARr>
MDBGGTQNNUOQRC-UHFFFAOYSA-N

> <LogKOC>
1.3

$$$$
100124
  -INDIGO-08031722282D

 22 22  0  0  0  0  0  0  0  0999 V2000
   -2.4001    1.3856    0.0000 Cl  0  0  0  0  0  0  0  0  0  0  0  0
   -3.2001    0.0000    0.0000 C   0  0  0  0  0  0  0  0  0  0  0  0
   -2.4001   -1.3856    0.0000 C   0  0  0  0  0  0  0  0  0  0  0  0
   -0.8000   -1.3856    0.0000 O   0  0  0  0  0  0  0  0  0  0  0  0
   -0.0000    0.0000    0.0000 C   0  0  0  0  0  0  0  0  0  0  0  0
   -1.3857    0.8000    0.0000 H   0  0  0  0  0  0  0  0  0  0  0  0
    1.3856   -0.8000    0.0000 C   0  0  0  0  0  0  0  0  0  0  0  0
    2.7713    0.0000    0.0000 O   0  0  0  0  0  0  0  0  0  0  0  0
    1.3856   -2.4000    0.0000 O   0  0  0  0  0  0  0  0  0  0  0  0
    2.7713   -3.2000    0.0000 H   0  0  0  0  0  0  0  0  0  0  0  0
    0.8000    1.3856    0.0000 C   0  0  0  0  0  0  0  0  0  0  0  0
    1.6000    2.7713    0.0000 H   0  0  0  0  0  0  0  0  0  0  0  0
    2.4000    1.3856    0.0000 H   0  0  0  0  0  0  0  0  0  0  0  0
   -0.0000    2.7713    0.0000 H   0  0  0  0  0  0  0  0  0  0  0  0
   -3.2001   -2.7713    0.0000 C   0  0  0  0  0  0  0  0  0  0  0  0
   -2.4001   -4.1569    0.0000 H   0  0  0  0  0  0  0  0  0  0  0  0
   -4.8000   -2.7713    0.0000 C   0  0  0  0  0  0  0  0  0  0  0  0
   -5.6000   -4.1569    0.0000 Cl  0  0  0  0  0  0  0  0  0  0  0  0
   -5.6000   -1.3856    0.0000 C   0  0  0  0  0  0  0  0  0  0  0  0
   -7.2000   -1.3856    0.0000 Cl  0  0  0  0  0  0  0  0  0  0  0  0
   -4.8000    0.0000    0.0000 C   0  0  0  0  0  0  0  0  0  0  0  0
   -5.6000    1.3856    0.0000 H   0  0  0  0  0  0  0  0  0  0  0  0
  1  2  1  0  0  0  0
  2  3  1  0  0  0  0
  3  4  1  0  0  0  0
  4  5  1  0  0  0  0
  5  6  1  0  0  0  0
  5  7  1  0  0  0  0
  7  8  2  0  0  0  0
  7  9  1  0  0  0  0
  9 10  1  0  0  0  0
  5 11  1  0  0  0  0
 11 12  1  0  0  0  0
 11 13  1  0  0  0  0
 11 14  1  0  0  0  0
  3 15  2  0  0  0  0
 15 16  1  0  0  0  0
 15 17  1  0  0  0  0
 17 18  1  0  0  0  0
 17 19  2  0  0  0  0
 19 20  1  0  0  0  0
 19 21  1  0  0  0  0
 21  2  2  0  0  0  0
 21 22  1  0  0  0  0
M  END
> <ChemID>
100124

> <source_casrn>
93-72-1

> <CAS>
93-72-1

> <SMILES>
CC(Oc1cc(Cl)c(Cl)cc1Cl)C(O)=O

> <NAME>
SILVEX

> <preferred_name>
2-(2,4,5-Trichlorophenoxy)propionic acid

> <iupac>
2-(2,4,5-trichlorophenoxy)propanoic acid

> <MPID>
99401

> <dsstox_substance_id>
DTXSID0021387

> <Canonical_QSARr>
CC(Oc1cc(Cl)c(Cl)cc1Cl)C(O)=O

> <InChI_Code_QSARr>
InChI=1S/C9H7Cl3O3/c1-4(9(13)14)15-8-3-6(11)5(10)2-7(8)12/h2-4H,1H3,(H,13,14)

> <InChI Key_QSARr>
ZLSWBLPERHFHIS-UHFFFAOYSA-N

> <LogKOC>
1.75

$$$$
100125
  -INDIGO-08031722282D

 19 19  0  0  0  0  0  0  0  0999 V2000
   -0.0001    2.7713    0.0000 Cl  0  0  0  0  0  0  0  0  0  0  0  0
   -0.8001    1.3857    0.0000 C   0  0  0  0  0  0  0  0  0  0  0  0
   -0.0001    0.0000    0.0000 C   0  0  0  0  0  0  0  0  0  0  0  0
    1.6001    0.0000    0.0000 O   0  0  0  0  0  0  0  0  0  0  0  0
    2.4001    1.3857    0.0000 C   0  0  0  0  0  0  0  0  0  0  0  0
    2.1912    2.9720    0.0000 H   0  0  0  0  0  0  0  0  0  0  0  0
    1.1306    2.3596    0.0000 H   0  0  0  0  0  0  0  0  0  0  0  0
    4.0000    1.3857    0.0000 C   0  0  0  0  0  0  0  0  0  0  0  0
    4.8000    0.0000    0.0000 O   0  0  0  0  0  0  0  0  0  0  0  0
    4.8000    2.7713    0.0000 O   0  0  0  0  0  0  0  0  0  0  0  0
    6.4000    2.7713    0.0000 H   0  0  0  0  0  0  0  0  0  0  0  0
   -0.8001   -1.3857    0.0000 C   0  0  0  0  0  0  0  0  0  0  0  0
   -0.0001   -2.7713    0.0000 H   0  0  0  0  0  0  0  0  0  0  0  0
   -2.4000   -1.3857    0.0000 C   0  0  0  0  0  0  0  0  0  0  0  0
   -3.2000   -2.7713    0.0000 Cl  0  0  0  0  0  0  0  0  0  0  0  0
   -3.2000    0.0000    0.0000 C   0  0  0  0  0  0  0  0  0  0  0  0
   -4.8000    0.0000    0.0000 Cl  0  0  0  0  0  0  0  0  0  0  0  0
   -2.4000    1.3857    0.0000 C   0  0  0  0  0  0  0  0  0  0  0  0
   -3.2000    2.7713    0.0000 H   0  0  0  0  0  0  0  0  0  0  0  0
  1  2  1  0  0  0  0
  2  3  1  0  0  0  0
  3  4  1  0  0  0  0
  4  5  1  0  0  0  0
  5  6  1  0  0  0  0
  5  7  1  0  0  0  0
  5  8  1  0  0  0  0
  8  9  2  0  0  0  0
  8 10  1  0  0  0  0
 10 11  1  0  0  0  0
  3 12  2  0  0  0  0
 12 13  1  0  0  0  0
 12 14  1  0  0  0  0
 14 15  1  0  0  0  0
 14 16  2  0  0  0  0
 16 17  1  0  0  0  0
 16 18  1  0  0  0  0
 18  2  2  0  0  0  0
 18 19  1  0  0  0  0
M  END
> <ChemID>
100125

> <source_casrn>
93-76-5

> <CAS>
93-76-5

> <SMILES>
OC(=O)COc1cc(Cl)c(Cl)cc1Cl

> <NAME>
2,4,5-TRICHLOROPHENOXYACETIC ACID

> <preferred_name>
2,4,5-Trichlorophenoxyacetic acid

> <iupac>
(2,4,5-trichlorophenoxy)acetic acid

> <MPID>
99402

> <dsstox_substance_id>
DTXSID5021388

> <Canonical_QSARr>
OC(=O)COc1cc(Cl)c(Cl)cc1Cl

> <InChI_Code_QSARr>
InChI=1S/C8H5Cl3O3/c9-4-1-6(11)7(2-5(4)10)14-3-8(12)13/h1-2H,3H2,(H,12,13)

> <InChI Key_QSARr>
SMYMJHWAQXWPDB-UHFFFAOYSA-N

> <LogKOC>
1.99

$$$$
100127
  -INDIGO-08031722282D

 25 26  0  0  0  0  0  0  0  0999 V2000
   -1.3857    0.8000    0.0000 C   0  0  0  0  0  0  0  0  0  0  0  0
   -1.3857    2.4000    0.0000 O   0  0  0  0  0  0  0  0  0  0  0  0
    0.0000    0.0000    0.0000 C   0  0  0  0  0  0  0  0  0  0  0  0
    0.0000   -1.6000    0.0000 C   0  0  0  0  0  0  0  0  0  0  0  0
   -1.3857   -2.4001    0.0000 H   0  0  0  0  0  0  0  0  0  0  0  0
    1.3857   -2.4001    0.0000 C   0  0  0  0  0  0  0  0  0  0  0  0
    1.3857   -4.0000    0.0000 H   0  0  0  0  0  0  0  0  0  0  0  0
    2.7712   -1.6000    0.0000 C   0  0  0  0  0  0  0  0  0  0  0  0
    4.1569   -2.4001    0.0000 H   0  0  0  0  0  0  0  0  0  0  0  0
    2.7712    0.0000    0.0000 C   0  0  0  0  0  0  0  0  0  0  0  0
    4.1569    0.8000    0.0000 H   0  0  0  0  0  0  0  0  0  0  0  0
    1.3857    0.8000    0.0000 C   0  0  0  0  0  0  0  0  0  0  0  0
    1.3857    2.4000    0.0000 H   0  0  0  0  0  0  0  0  0  0  0  0
   -2.7712    0.0000    0.0000 O   0  0  0  0  0  0  0  0  0  0  0  0
   -4.1569    0.8000    0.0000 C   0  0  0  0  0  0  0  0  0  0  0  0
   -4.1569    2.4000    0.0000 C   0  0  0  0  0  0  0  0  0  0  0  0
   -2.7712    3.2001    0.0000 H   0  0  0  0  0  0  0  0  0  0  0  0
   -5.5426    3.2001    0.0000 C   0  0  0  0  0  0  0  0  0  0  0  0
   -5.5426    4.8000    0.0000 H   0  0  0  0  0  0  0  0  0  0  0  0
   -6.9281    2.4000    0.0000 C   0  0  0  0  0  0  0  0  0  0  0  0
   -8.3138    3.2001    0.0000 H   0  0  0  0  0  0  0  0  0  0  0  0
   -6.9281    0.8000    0.0000 C   0  0  0  0  0  0  0  0  0  0  0  0
   -8.3138    0.0000    0.0000 H   0  0  0  0  0  0  0  0  0  0  0  0
   -5.5426    0.0000    0.0000 C   0  0  0  0  0  0  0  0  0  0  0  0
   -5.5426   -1.6000    0.0000 H   0  0  0  0  0  0  0  0  0  0  0  0
  1  2  2  0  0  0  0
  1  3  1  0  0  0  0
  3  4  1  0  0  0  0
  4  5  1  0  0  0  0
  4  6  2  0  0  0  0
  6  7  1  0  0  0  0
  6  8  1  0  0  0  0
  8  9  1  0  0  0  0
  8 10  2  0  0  0  0
 10 11  1  0  0  0  0
 10 12  1  0  0  0  0
 12  3  2  0  0  0  0
 12 13  1  0  0  0  0
  1 14  1  0  0  0  0
 14 15  1  0  0  0  0
 15 16  1  0  0  0  0
 16 17  1  0  0  0  0
 16 18  2  0  0  0  0
 18 19  1  0  0  0  0
 18 20  1  0  0  0  0
 20 21  1  0  0  0  0
 20 22  2  0  0  0  0
 22 23  1  0  0  0  0
 22 24  1  0  0  0  0
 24 15  2  0  0  0  0
 24 25  1  0  0  0  0
M  END
> <ChemID>
100127

> <source_casrn>
93-99-2

> <CAS>
93-99-2

> <SMILES>
O=C(Oc1ccccc1)c1ccccc1

> <NAME>
PHENYL BENZOATE

> <preferred_name>
Phenyl benzoate

> <iupac>
phenyl benzoate

> <MPID>
99404

> <dsstox_substance_id>
DTXSID0048210

> <Canonical_QSARr>
O=C(Oc1ccccc1)c1ccccc1

> <InChI_Code_QSARr>
InChI=1S/C13H10O2/c14-13(11-7-3-1-4-8-11)15-12-9-5-2-6-10-12/h1-10H

> <InChI Key_QSARr>
FCJSHPDYVMKCHI-UHFFFAOYSA-N

> <LogKOC>
3.16

$$$$
100128
  -INDIGO-08031722282D

 24 24  0  0  0  0  0  0  0  0999 V2000
   -4.1569    2.4000    0.0000 C   0  0  0  0  0  0  0  0  0  0  0  0
   -4.1569    4.0000    0.0000 O   0  0  0  0  0  0  0  0  0  0  0  0
   -2.7713    1.6000    0.0000 C   0  0  0  0  0  0  0  0  0  0  0  0
   -2.7713    0.0000    0.0000 C   0  0  0  0  0  0  0  0  0  0  0  0
   -4.1569   -0.8000    0.0000 H   0  0  0  0  0  0  0  0  0  0  0  0
   -1.3856   -0.8000    0.0000 C   0  0  0  0  0  0  0  0  0  0  0  0
   -1.3856   -2.4000    0.0000 H   0  0  0  0  0  0  0  0  0  0  0  0
    0.0001    0.0000    0.0000 C   0  0  0  0  0  0  0  0  0  0  0  0
    1.3856   -0.8000    0.0000 C   0  0  0  0  0  0  0  0  0  0  0  0
    2.7713   -1.6000    0.0000 H   0  0  0  0  0  0  0  0  0  0  0  0
    2.7713    0.0000    0.0000 H   0  0  0  0  0  0  0  0  0  0  0  0
    1.3856   -2.4000    0.0000 H   0  0  0  0  0  0  0  0  0  0  0  0
    0.0001    1.6000    0.0000 C   0  0  0  0  0  0  0  0  0  0  0  0
    1.3856    2.4000    0.0000 H   0  0  0  0  0  0  0  0  0  0  0  0
   -1.3856    2.4000    0.0000 C   0  0  0  0  0  0  0  0  0  0  0  0
   -1.3856    4.0000    0.0000 H   0  0  0  0  0  0  0  0  0  0  0  0
   -5.5426    1.6000    0.0000 O   0  0  0  0  0  0  0  0  0  0  0  0
   -6.9283    2.4000    0.0000 C   0  0  0  0  0  0  0  0  0  0  0  0
   -7.5404    3.8782    0.0000 H   0  0  0  0  0  0  0  0  0  0  0  0
   -6.3159    3.8782    0.0000 H   0  0  0  0  0  0  0  0  0  0  0  0
   -8.3138    1.6000    0.0000 C   0  0  0  0  0  0  0  0  0  0  0  0
   -9.6995    0.8000    0.0000 H   0  0  0  0  0  0  0  0  0  0  0  0
   -9.6995    2.4000    0.0000 H   0  0  0  0  0  0  0  0  0  0  0  0
   -8.3138    0.0000    0.0000 H   0  0  0  0  0  0  0  0  0  0  0  0
  1  2  2  0  0  0  0
  1  3  1  0  0  0  0
  3  4  1  0  0  0  0
  4  5  1  0  0  0  0
  4  6  2  0  0  0  0
  6  7  1  0  0  0  0
  6  8  1  0  0  0  0
  8  9  1  0  0  0  0
  9 10  1  0  0  0  0
  9 11  1  0  0  0  0
  9 12  1  0  0  0  0
  8 13  2  0  0  0  0
 13 14  1  0  0  0  0
 13 15  1  0  0  0  0
 15  3  2  0  0  0  0
 15 16  1  0  0  0  0
  1 17  1  0  0  0  0
 17 18  1  0  0  0  0
 18 19  1  0  0  0  0
 18 20  1  0  0  0  0
 18 21  1  0  0  0  0
 21 22  1  0  0  0  0
 21 23  1  0  0  0  0
 21 24  1  0  0  0  0
M  END
> <ChemID>
100128

> <source_casrn>
94-08-6

> <CAS>
94-08-6

> <SMILES>
Cc1ccc(cc1)C(=O)OCC

> <NAME>
4-Methylbenzoic acid ethyl ester

> <preferred_name>
Ethyl 4-methylbenzoate

> <iupac>
ethyl 4-methylbenzoate

> <MPID>
99405

> <dsstox_substance_id>
DTXSID5048211

> <Canonical_QSARr>
Cc1ccc(cc1)C(=O)OCC

> <InChI_Code_QSARr>
InChI=1S/C10H12O2/c1-3-12-10(11)9-6-4-8(2)5-7-9/h4-7H,3H2,1-2H3

> <InChI Key_QSARr>
NWPWRAWAUYIELB-UHFFFAOYSA-N

> <LogKOC>
2.59

$$$$
100129
  -INDIGO-08031722282D

 22 23  0  0  0  0  0  0  0  0999 V2000
    4.1570    0.8000    0.0000 C   0  0  0  0  0  0  0  0  0  0  0  0
    5.5426   -0.0000    0.0000 H   0  0  0  0  0  0  0  0  0  0  0  0
    4.1570    2.4000    0.0000 H   0  0  0  0  0  0  0  0  0  0  0  0
    2.7713   -0.0000    0.0000 C   0  0  0  0  0  0  0  0  0  0  0  0
    2.7713   -1.6000    0.0000 H   0  0  0  0  0  0  0  0  0  0  0  0
    1.3857    0.8000    0.0000 C   0  0  0  0  0  0  0  0  0  0  0  0
    1.9979    2.2782    0.0000 H   0  0  0  0  0  0  0  0  0  0  0  0
    0.7734    2.2782    0.0000 H   0  0  0  0  0  0  0  0  0  0  0  0
   -0.0000   -0.0000    0.0000 C   0  0  0  0  0  0  0  0  0  0  0  0
   -0.0000   -1.6000    0.0000 C   0  0  0  0  0  0  0  0  0  0  0  0
    1.3857   -2.4000    0.0000 H   0  0  0  0  0  0  0  0  0  0  0  0
   -1.3856   -2.4000    0.0000 C   0  0  0  0  0  0  0  0  0  0  0  0
   -1.3856   -4.0000    0.0000 H   0  0  0  0  0  0  0  0  0  0  0  0
   -2.7713   -1.6000    0.0000 C   0  0  0  0  0  0  0  0  0  0  0  0
   -2.7713   -0.0000    0.0000 C   0  0  0  0  0  0  0  0  0  0  0  0
   -4.2929    0.4944    0.0000 O   0  0  0  0  0  0  0  0  0  0  0  0
   -5.2334   -0.8000    0.0000 C   0  0  0  0  0  0  0  0  0  0  0  0
   -6.4225   -1.8706    0.0000 H   0  0  0  0  0  0  0  0  0  0  0  0
   -6.4225    0.2706    0.0000 H   0  0  0  0  0  0  0  0  0  0  0  0
   -4.2929   -2.0944    0.0000 O   0  0  0  0  0  0  0  0  0  0  0  0
   -1.3856    0.8000    0.0000 C   0  0  0  0  0  0  0  0  0  0  0  0
   -1.3856    2.4000    0.0000 H   0  0  0  0  0  0  0  0  0  0  0  0
  1  2  1  0  0  0  0
  1  3  1  0  0  0  0
  1  4  2  0  0  0  0
  4  5  1  0  0  0  0
  4  6  1  0  0  0  0
  6  7  1  0  0  0  0
  6  8  1  0  0  0  0
  6  9  1  0  0  0  0
  9 10  1  0  0  0  0
 10 11  1  0  0  0  0
 10 12  2  0  0  0  0
 12 13  1  0  0  0  0
 12 14  1  0  0  0  0
 14 15  2  0  0  0  0
 15 16  1  0  0  0  0
 16 17  1  0  0  0  0
 17 18  1  0  0  0  0
 17 19  1  0  0  0  0
 17 20  1  0  0  0  0
 20 14  1  0  0  0  0
 15 21  1  0  0  0  0
 21  9  2  0  0  0  0
 21 22  1  0  0  0  0
M  END
> <ChemID>
100129

> <source_casrn>
94-59-7

> <CAS>
94-59-7

> <SMILES>
C=CCc1ccc2OCOc2c1

> <NAME>
SAFROLE

> <preferred_name>
Safrole

> <iupac>
5-(prop-2-en-1-yl)-1,3-benzodioxole

> <MPID>
99406

> <dsstox_substance_id>
DTXSID0021254

> <Canonical_QSARr>
C=CCc1ccc2OCOc2c1

> <InChI_Code_QSARr>
InChI=1S/C10H10O2/c1-2-3-8-4-5-9-10(6-8)12-7-11-9/h2,4-6H,1,3,7H2

> <InChI Key_QSARr>
ZMQAAUBTXCXRIC-UHFFFAOYSA-N

> <LogKOC>
2.83

$$$$
100131
  -INDIGO-08031722282D

 19 19  0  0  0  0  0  0  0  0999 V2000
   -4.1569    0.8000    0.0000 C   0  0  0  0  0  0  0  0  0  0  0  0
   -4.1569    2.4000    0.0000 O   0  0  0  0  0  0  0  0  0  0  0  0
   -5.5425   -0.0000    0.0000 O   0  0  0  0  0  0  0  0  0  0  0  0
   -6.9282    0.8000    0.0000 H   0  0  0  0  0  0  0  0  0  0  0  0
   -2.7712   -0.0000    0.0000 C   0  0  0  0  0  0  0  0  0  0  0  0
   -2.1591   -1.4782    0.0000 H   0  0  0  0  0  0  0  0  0  0  0  0
   -3.3835   -1.4782    0.0000 H   0  0  0  0  0  0  0  0  0  0  0  0
   -1.3856    0.8000    0.0000 O   0  0  0  0  0  0  0  0  0  0  0  0
   -0.0001   -0.0000    0.0000 C   0  0  0  0  0  0  0  0  0  0  0  0
   -0.0001   -1.6000    0.0000 C   0  0  0  0  0  0  0  0  0  0  0  0
   -1.3857   -2.4000    0.0000 Cl  0  0  0  0  0  0  0  0  0  0  0  0
    1.3856   -2.4000    0.0000 C   0  0  0  0  0  0  0  0  0  0  0  0
    1.3856   -4.0000    0.0000 H   0  0  0  0  0  0  0  0  0  0  0  0
    2.7713   -1.6000    0.0000 C   0  0  0  0  0  0  0  0  0  0  0  0
    4.1569   -2.4000    0.0000 Cl  0  0  0  0  0  0  0  0  0  0  0  0
    2.7713   -0.0000    0.0000 C   0  0  0  0  0  0  0  0  0  0  0  0
    4.1569    0.8000    0.0000 H   0  0  0  0  0  0  0  0  0  0  0  0
    1.3856    0.8000    0.0000 C   0  0  0  0  0  0  0  0  0  0  0  0
    1.3856    2.4000    0.0000 H   0  0  0  0  0  0  0  0  0  0  0  0
  1  2  2  0  0  0  0
  1  3  1  0  0  0  0
  3  4  1  0  0  0  0
  1  5  1  0  0  0  0
  5  6  1  0  0  0  0
  5  7  1  0  0  0  0
  5  8  1  0  0  0  0
  8  9  1  0  0  0  0
  9 10  1  0  0  0  0
 10 11  1  0  0  0  0
 10 12  2  0  0  0  0
 12 13  1  0  0  0  0
 12 14  1  0  0  0  0
 14 15  1  0  0  0  0
 14 16  2  0  0  0  0
 16 17  1  0  0  0  0
 16 18  1  0  0  0  0
 18  9  2  0  0  0  0
 18 19  1  0  0  0  0
M  END
> <ChemID>
100131

> <source_casrn>
94-75-7

> <CAS>
94-75-7

> <SMILES>
OC(=O)COc1ccc(Cl)cc1Cl

> <NAME>
2,4-DICHLOROPHENOXYACETIC ACID

> <preferred_name>
2,4-Dichlorophenoxyacetic acid

> <iupac>
(2,4-dichlorophenoxy)acetic acid

> <MPID>
99408

> <dsstox_substance_id>
DTXSID0020442

> <Canonical_QSARr>
OC(=O)COc1ccc(Cl)cc1Cl

> <InChI_Code_QSARr>
InChI=1S/C8H6Cl2O3/c9-5-1-2-7(6(10)3-5)13-4-8(11)12/h1-3H,4H2,(H,11,12)

> <InChI Key_QSARr>
OVSKIKFHRZPJSS-UHFFFAOYSA-N

> <LogKOC>
1.66

$$$$
100132
  -INDIGO-08031722282D

 27 28  0  0  0  0  0  0  0  0999 V2000
   -0.0000    0.0001    0.0000 C   0  0  0  0  0  0  0  0  0  0  0  0
    0.8000    1.3856    0.0000 C   0  0  0  0  0  0  0  0  0  0  0  0
   -0.0000    2.7713    0.0000 N   0  0  0  0  0  0  0  0  0  0  0  0
    0.8000    4.1569    0.0000 H   0  0  0  0  0  0  0  0  0  0  0  0
   -1.5999    2.7713    0.0000 H   0  0  0  0  0  0  0  0  0  0  0  0
    2.4001    1.3856    0.0000 N   0  0  0  0  0  0  0  0  0  0  0  0
    3.2001    0.0001    0.0000 C   0  0  0  0  0  0  0  0  0  0  0  0
    4.8000    0.0001    0.0000 N   0  0  0  0  0  0  0  0  0  0  0  0
    5.6000    1.3856    0.0000 H   0  0  0  0  0  0  0  0  0  0  0  0
    5.6000   -1.3856    0.0000 H   0  0  0  0  0  0  0  0  0  0  0  0
    2.4001   -1.3856    0.0000 C   0  0  0  0  0  0  0  0  0  0  0  0
    3.2001   -2.7712    0.0000 H   0  0  0  0  0  0  0  0  0  0  0  0
    0.8000   -1.3856    0.0000 C   0  0  0  0  0  0  0  0  0  0  0  0
   -0.0000   -2.7712    0.0000 H   0  0  0  0  0  0  0  0  0  0  0  0
   -1.5999    0.0001    0.0000 N   0  0  0  0  0  0  0  0  0  0  0  0
   -2.3999   -1.3856    0.0000 N   0  0  0  0  0  0  0  0  0  0  0  0
   -4.0000   -1.3856    0.0000 C   0  0  0  0  0  0  0  0  0  0  0  0
   -4.8000   -2.7713    0.0000 C   0  0  0  0  0  0  0  0  0  0  0  0
   -4.0000   -4.1569    0.0000 H   0  0  0  0  0  0  0  0  0  0  0  0
   -6.4001   -2.7712    0.0000 C   0  0  0  0  0  0  0  0  0  0  0  0
   -7.1999   -4.1569    0.0000 H   0  0  0  0  0  0  0  0  0  0  0  0
   -7.1999   -1.3856    0.0000 C   0  0  0  0  0  0  0  0  0  0  0  0
   -8.8000   -1.3856    0.0000 H   0  0  0  0  0  0  0  0  0  0  0  0
   -6.3999    0.0001    0.0000 C   0  0  0  0  0  0  0  0  0  0  0  0
   -7.1999    1.3856    0.0000 H   0  0  0  0  0  0  0  0  0  0  0  0
   -4.8000    0.0001    0.0000 C   0  0  0  0  0  0  0  0  0  0  0  0
   -4.0000    1.3856    0.0000 H   0  0  0  0  0  0  0  0  0  0  0  0
  1  2  1  0  0  0  0
  2  3  1  0  0  0  0
  3  4  1  0  0  0  0
  3  5  1  0  0  0  0
  2  6  2  0  0  0  0
  6  7  1  0  0  0  0
  7  8  1  0  0  0  0
  8  9  1  0  0  0  0
  8 10  1  0  0  0  0
  7 11  2  0  0  0  0
 11 12  1  0  0  0  0
 11 13  1  0  0  0  0
 13  1  2  0  0  0  0
 13 14  1  0  0  0  0
  1 15  1  0  0  0  0
 15 16  2  0  0  0  0
 16 17  1  0  0  0  0
 17 18  1  0  0  0  0
 18 19  1  0  0  0  0
 18 20  2  0  0  0  0
 20 21  1  0  0  0  0
 20 22  1  0  0  0  0
 22 23  1  0  0  0  0
 22 24  2  0  0  0  0
 24 25  1  0  0  0  0
 24 26  1  0  0  0  0
 26 17  2  0  0  0  0
 26 27  1  0  0  0  0
M  END
> <ChemID>
100132

> <source_casrn>
94-78-0

> <CAS>
94-78-0

> <SMILES>
Nc1ccc(N=Nc2ccccc2)c(N)[n]1

> <NAME>
PHENAZOPYRIDINE

> <preferred_name>
Phenazopyridine

> <iupac>
3-(phenyldiazenyl)pyridine-2,6-diamine

> <MPID>
99409

> <dsstox_substance_id>
DTXSID1023445

> <Canonical_QSARr>
Nc1ccc(N=Nc2ccccc2)c(N)[n]1

> <InChI_Code_QSARr>
InChI=1S/C11H11N5/c12-10-7-6-9(11(13)14-10)16-15-8-4-2-1-3-5-8/h1-7H,(H4,12,13,14)/b16-15+

> <InChI Key_QSARr>
QPFYXYFORQJZEC-FOCLMDBBSA-N

> <LogKOC>
2.32

$$$$
100133
  -INDIGO-08031722282D

 28 28  0  0  0  0  0  0  0  0999 V2000
   -2.7713    0.0000    0.0000 C   0  0  0  0  0  0  0  0  0  0  0  0
   -1.3855   -0.8001    0.0000 C   0  0  0  0  0  0  0  0  0  0  0  0
   -1.9979   -2.2782    0.0000 H   0  0  0  0  0  0  0  0  0  0  0  0
   -0.7734   -2.2782    0.0000 H   0  0  0  0  0  0  0  0  0  0  0  0
    0.0000    0.0000    0.0000 C   0  0  0  0  0  0  0  0  0  0  0  0
    0.6123    1.4782    0.0000 H   0  0  0  0  0  0  0  0  0  0  0  0
   -0.6123    1.4782    0.0000 H   0  0  0  0  0  0  0  0  0  0  0  0
    1.3857   -0.8001    0.0000 C   0  0  0  0  0  0  0  0  0  0  0  0
    0.7734   -2.2782    0.0000 H   0  0  0  0  0  0  0  0  0  0  0  0
    1.9979   -2.2782    0.0000 H   0  0  0  0  0  0  0  0  0  0  0  0
    2.7713    0.0000    0.0000 O   0  0  0  0  0  0  0  0  0  0  0  0
    4.1570   -0.8001    0.0000 C   0  0  0  0  0  0  0  0  0  0  0  0
    5.5426    0.0000    0.0000 C   0  0  0  0  0  0  0  0  0  0  0  0
    5.5426    1.6000    0.0000 C   0  0  0  0  0  0  0  0  0  0  0  0
    5.5426    3.2000    0.0000 H   0  0  0  0  0  0  0  0  0  0  0  0
    6.9283    2.4001    0.0000 H   0  0  0  0  0  0  0  0  0  0  0  0
    4.1570    2.4001    0.0000 H   0  0  0  0  0  0  0  0  0  0  0  0
    6.9283   -0.7999    0.0000 C   0  0  0  0  0  0  0  0  0  0  0  0
    8.3138    0.0000    0.0000 H   0  0  0  0  0  0  0  0  0  0  0  0
    6.9283   -2.4001    0.0000 C   0  0  0  0  0  0  0  0  0  0  0  0
    8.3138   -3.2000    0.0000 Cl  0  0  0  0  0  0  0  0  0  0  0  0
    5.5426   -3.2000    0.0000 C   0  0  0  0  0  0  0  0  0  0  0  0
    5.5426   -4.8000    0.0000 H   0  0  0  0  0  0  0  0  0  0  0  0
    4.1570   -2.4001    0.0000 C   0  0  0  0  0  0  0  0  0  0  0  0
    2.7713   -3.2000    0.0000 H   0  0  0  0  0  0  0  0  0  0  0  0
   -4.1570   -0.8001    0.0000 O   0  0  0  0  0  0  0  0  0  0  0  0
   -5.5426    0.0000    0.0000 H   0  0  0  0  0  0  0  0  0  0  0  0
   -2.7713    1.6000    0.0000 O   0  0  0  0  0  0  0  0  0  0  0  0
  1  2  1  0  0  0  0
  2  3  1  0  0  0  0
  2  4  1  0  0  0  0
  2  5  1  0  0  0  0
  5  6  1  0  0  0  0
  5  7  1  0  0  0  0
  5  8  1  0  0  0  0
  8  9  1  0  0  0  0
  8 10  1  0  0  0  0
  8 11  1  0  0  0  0
 11 12  1  0  0  0  0
 12 13  1  0  0  0  0
 13 14  1  0  0  0  0
 14 15  1  0  0  0  0
 14 16  1  0  0  0  0
 14 17  1  0  0  0  0
 13 18  2  0  0  0  0
 18 19  1  0  0  0  0
 18 20  1  0  0  0  0
 20 21  1  0  0  0  0
 20 22  2  0  0  0  0
 22 23  1  0  0  0  0
 22 24  1  0  0  0  0
 24 12  2  0  0  0  0
 24 25  1  0  0  0  0
  1 26  1  0  0  0  0
 26 27  1  0  0  0  0
  1 28  2  0  0  0  0
M  END
> <ChemID>
100133

> <source_casrn>
94-81-5

> <CAS>
94-81-5

> <SMILES>
Cc1cc(Cl)ccc1OCCCC(O)=O

> <NAME>
MCPB

> <preferred_name>
MCPB

> <iupac>
4-(4-chloro-2-methylphenoxy)butanoic acid

> <MPID>
99410

> <dsstox_substance_id>
DTXSID4024193

> <Canonical_QSARr>
Cc1cc(Cl)ccc1OCCCC(O)=O

> <InChI_Code_QSARr>
InChI=1S/C11H13ClO3/c1-8-7-9(12)4-5-10(8)15-6-2-3-11(13)14/h4-5,7H,2-3,6H2,1H3,(H,13,14)

> <InChI Key_QSARr>
LLWADFLAOKUBDR-UHFFFAOYSA-N

> <LogKOC>
2.73

$$$$
100135
  -INDIGO-08031722282D

 15 16  0  0  0  0  0  0  0  0999 V2000
   -1.5217   -2.0944    0.0000 S   0  0  0  0  0  0  0  0  0  0  0  0
    0.0000   -1.6000    0.0000 C   0  0  0  0  0  0  0  0  0  0  0  0
    0.0000   -0.0000    0.0000 C   0  0  0  0  0  0  0  0  0  0  0  0
    1.3856    0.8000    0.0000 C   0  0  0  0  0  0  0  0  0  0  0  0
    1.3856    2.4000    0.0000 H   0  0  0  0  0  0  0  0  0  0  0  0
    2.7713   -0.0000    0.0000 C   0  0  0  0  0  0  0  0  0  0  0  0
    4.1569    0.8000    0.0000 H   0  0  0  0  0  0  0  0  0  0  0  0
    2.7713   -1.6000    0.0000 C   0  0  0  0  0  0  0  0  0  0  0  0
    4.1569   -2.4000    0.0000 H   0  0  0  0  0  0  0  0  0  0  0  0
    1.3856   -2.4000    0.0000 C   0  0  0  0  0  0  0  0  0  0  0  0
    1.3856   -4.0000    0.0000 H   0  0  0  0  0  0  0  0  0  0  0  0
   -1.5217    0.4944    0.0000 C   0  0  0  0  0  0  0  0  0  0  0  0
   -2.0161    2.0161    0.0000 H   0  0  0  0  0  0  0  0  0  0  0  0
   -2.4621   -0.8000    0.0000 C   0  0  0  0  0  0  0  0  0  0  0  0
   -4.0621   -0.8000    0.0000 H   0  0  0  0  0  0  0  0  0  0  0  0
  1  2  1  0  0  0  0
  2  3  1  0  0  0  0
  3  4  2  0  0  0  0
  4  5  1  0  0  0  0
  4  6  1  0  0  0  0
  6  7  1  0  0  0  0
  6  8  2  0  0  0  0
  8  9  1  0  0  0  0
  8 10  1  0  0  0  0
 10  2  2  0  0  0  0
 10 11  1  0  0  0  0
  3 12  1  0  0  0  0
 12 13  1  0  0  0  0
 12 14  2  0  0  0  0
 14  1  1  0  0  0  0
 14 15  1  0  0  0  0
M  END
> <ChemID>
100135

> <source_casrn>
95-15-8

> <CAS>
95-15-8

> <SMILES>
c1cccc2[s]ccc21

> <NAME>
BENZO(B)THIOPHENE

> <preferred_name>
Benzothiophene

> <iupac>
1-benzothiophene

> <MPID>
99412

> <dsstox_substance_id>
DTXSID2052736

> <Canonical_QSARr>
c1cccc2[s]ccc21

> <InChI_Code_QSARr>
InChI=1S/C8H6S/c1-2-4-8-7(3-1)5-6-9-8/h1-6H

> <InChI Key_QSARr>
FCEHBMOGCRZNNI-UHFFFAOYSA-N

> <LogKOC>
3.48

$$$$
100136
  -INDIGO-08031722282D

 18 18  0  0  0  0  0  0  0  0999 V2000
    1.3856    2.4000    0.0000 C   0  0  0  0  0  0  0  0  0  0  0  0
    1.3856    4.0000    0.0000 H   0  0  0  0  0  0  0  0  0  0  0  0
    0.0000    1.6000    0.0000 C   0  0  0  0  0  0  0  0  0  0  0  0
   -1.3856    2.4000    0.0000 C   0  0  0  0  0  0  0  0  0  0  0  0
   -2.7713    3.2000    0.0000 H   0  0  0  0  0  0  0  0  0  0  0  0
   -1.3856    4.0000    0.0000 H   0  0  0  0  0  0  0  0  0  0  0  0
   -2.7713    1.6000    0.0000 H   0  0  0  0  0  0  0  0  0  0  0  0
    0.0000    0.0000    0.0000 C   0  0  0  0  0  0  0  0  0  0  0  0
   -1.3856   -0.8000    0.0000 C   0  0  0  0  0  0  0  0  0  0  0  0
   -2.7713   -1.6000    0.0000 H   0  0  0  0  0  0  0  0  0  0  0  0
   -1.3856   -2.4000    0.0000 H   0  0  0  0  0  0  0  0  0  0  0  0
   -2.7713    0.0000    0.0000 H   0  0  0  0  0  0  0  0  0  0  0  0
    1.3856   -0.8000    0.0000 C   0  0  0  0  0  0  0  0  0  0  0  0
    1.3856   -2.4000    0.0000 H   0  0  0  0  0  0  0  0  0  0  0  0
    2.7713    0.0000    0.0000 C   0  0  0  0  0  0  0  0  0  0  0  0
    4.1569   -0.8000    0.0000 H   0  0  0  0  0  0  0  0  0  0  0  0
    2.7713    1.6000    0.0000 C   0  0  0  0  0  0  0  0  0  0  0  0
    4.1569    2.4000    0.0000 H   0  0  0  0  0  0  0  0  0  0  0  0
  1  2  1  0  0  0  0
  1  3  1  0  0  0  0
  3  4  1  0  0  0  0
  4  5  1  0  0  0  0
  4  6  1  0  0  0  0
  4  7  1  0  0  0  0
  3  8  2  0  0  0  0
  8  9  1  0  0  0  0
  9 10  1  0  0  0  0
  9 11  1  0  0  0  0
  9 12  1  0  0  0  0
  8 13  1  0  0  0  0
 13 14  1  0  0  0  0
 13 15  2  0  0  0  0
 15 16  1  0  0  0  0
 15 17  1  0  0  0  0
 17  1  2  0  0  0  0
 17 18  1  0  0  0  0
M  END
> <ChemID>
100136

> <source_casrn>
95-47-6

> <CAS>
95-47-6

> <SMILES>
Cc1ccccc1C

> <NAME>
O-XYLENE

> <preferred_name>
o-Xylene

> <iupac>
C8H10

> <MPID>
99413

> <dsstox_substance_id>
DTXSID3021807

> <Canonical_QSARr>
Cc1ccccc1C

> <InChI_Code_QSARr>
InChI=1S/C8H10/c1-7-5-3-4-6-8(7)2/h3-6H,1-2H3

> <InChI Key_QSARr>
CTQNGGLPUBDAKN-UHFFFAOYSA-N

> <LogKOC>
2.25

$$$$
100137
  -INDIGO-08031722282D

 12 12  0  0  0  0  0  0  0  0999 V2000
    0.8000    1.3856    0.0000 Cl  0  0  0  0  0  0  0  0  0  0  0  0
   -0.0000   -0.0000    0.0000 C   0  0  0  0  0  0  0  0  0  0  0  0
    0.8000   -1.3857    0.0000 C   0  0  0  0  0  0  0  0  0  0  0  0
    2.4000   -1.3857    0.0000 Cl  0  0  0  0  0  0  0  0  0  0  0  0
   -0.0000   -2.7713    0.0000 C   0  0  0  0  0  0  0  0  0  0  0  0
    0.8000   -4.1569    0.0000 H   0  0  0  0  0  0  0  0  0  0  0  0
   -1.6000   -2.7713    0.0000 C   0  0  0  0  0  0  0  0  0  0  0  0
   -2.4000   -4.1569    0.0000 H   0  0  0  0  0  0  0  0  0  0  0  0
   -2.4000   -1.3856    0.0000 C   0  0  0  0  0  0  0  0  0  0  0  0
   -4.0000   -1.3856    0.0000 H   0  0  0  0  0  0  0  0  0  0  0  0
   -1.6000   -0.0000    0.0000 C   0  0  0  0  0  0  0  0  0  0  0  0
   -2.4000    1.3856    0.0000 H   0  0  0  0  0  0  0  0  0  0  0  0
  1  2  1  0  0  0  0
  2  3  1  0  0  0  0
  3  4  1  0  0  0  0
  3  5  2  0  0  0  0
  5  6  1  0  0  0  0
  5  7  1  0  0  0  0
  7  8  1  0  0  0  0
  7  9  2  0  0  0  0
  9 10  1  0  0  0  0
  9 11  1  0  0  0  0
 11  2  2  0  0  0  0
 11 12  1  0  0  0  0
M  END
> <ChemID>
100137

> <source_casrn>
95-50-1

> <CAS>
95-50-1

> <SMILES>
Clc1ccccc1Cl

> <NAME>
1,2-DICHLOROBENZENE

> <preferred_name>
1,2-Dichlorobenzene

> <iupac>
1,2-dichlorobenzene

> <MPID>
99414

> <dsstox_substance_id>
DTXSID6020430

> <Canonical_QSARr>
Clc1ccccc1Cl

> <InChI_Code_QSARr>
InChI=1S/C6H4Cl2/c7-5-3-1-2-4-6(5)8/h1-4H

> <InChI Key_QSARr>
RFFLAFLAYFXFSW-UHFFFAOYSA-N

> <LogKOC>
2.56

$$$$
100139
  -INDIGO-08031722282D

 14 14  0  0  0  0  0  0  0  0999 V2000
    1.6000   -0.0000    0.0000 N   0  0  0  0  0  0  0  0  0  0  0  0
    2.4000    1.3856    0.0000 H   0  0  0  0  0  0  0  0  0  0  0  0
    2.4000   -1.3856    0.0000 H   0  0  0  0  0  0  0  0  0  0  0  0
    0.0000   -0.0000    0.0000 C   0  0  0  0  0  0  0  0  0  0  0  0
   -0.8000    1.3856    0.0000 C   0  0  0  0  0  0  0  0  0  0  0  0
    0.0000    2.7713    0.0000 H   0  0  0  0  0  0  0  0  0  0  0  0
   -2.4000    1.3856    0.0000 C   0  0  0  0  0  0  0  0  0  0  0  0
   -3.2000    2.7713    0.0000 Cl  0  0  0  0  0  0  0  0  0  0  0  0
   -3.2000   -0.0000    0.0000 C   0  0  0  0  0  0  0  0  0  0  0  0
   -4.8000   -0.0000    0.0000 Cl  0  0  0  0  0  0  0  0  0  0  0  0
   -2.4000   -1.3856    0.0000 C   0  0  0  0  0  0  0  0  0  0  0  0
   -3.2000   -2.7713    0.0000 H   0  0  0  0  0  0  0  0  0  0  0  0
   -0.8000   -1.3856    0.0000 C   0  0  0  0  0  0  0  0  0  0  0  0
    0.0000   -2.7713    0.0000 H   0  0  0  0  0  0  0  0  0  0  0  0
  1  2  1  0  0  0  0
  1  3  1  0  0  0  0
  1  4  1  0  0  0  0
  4  5  1  0  0  0  0
  5  6  1  0  0  0  0
  5  7  2  0  0  0  0
  7  8  1  0  0  0  0
  7  9  1  0  0  0  0
  9 10  1  0  0  0  0
  9 11  2  0  0  0  0
 11 12  1  0  0  0  0
 11 13  1  0  0  0  0
 13  4  2  0  0  0  0
 13 14  1  0  0  0  0
M  END
> <ChemID>
100139

> <source_casrn>
95-76-1

> <CAS>
95-76-1

> <SMILES>
Nc1cc(Cl)c(Cl)cc1

> <NAME>
3,4-DICHLOROANILINE

> <preferred_name>
3,4-Dichloroaniline

> <iupac>
3,4-dichloroaniline

> <MPID>
99416

> <dsstox_substance_id>
DTXSID7021815

> <Canonical_QSARr>
Nc1cc(Cl)c(Cl)cc1

> <InChI_Code_QSARr>
InChI=1S/C6H5Cl2N/c7-5-2-1-4(9)3-6(5)8/h1-3H,9H2

> <InChI Key_QSARr>
SDYWXFYBZPNOFX-UHFFFAOYSA-N

> <LogKOC>
2.29

$$$$
100140
  -INDIGO-08031722282D

 13 13  0  0  0  0  0  0  0  0999 V2000
   -4.0000   -1.3857    0.0000 Cl  0  0  0  0  0  0  0  0  0  0  0  0
   -2.4000   -1.3857    0.0000 C   0  0  0  0  0  0  0  0  0  0  0  0
   -1.6000   -0.0000    0.0000 C   0  0  0  0  0  0  0  0  0  0  0  0
   -2.4000    1.3856    0.0000 H   0  0  0  0  0  0  0  0  0  0  0  0
   -0.0000   -0.0000    0.0000 C   0  0  0  0  0  0  0  0  0  0  0  0
    0.8000    1.3856    0.0000 O   0  0  0  0  0  0  0  0  0  0  0  0
    2.4000    1.3856    0.0000 H   0  0  0  0  0  0  0  0  0  0  0  0
    0.8000   -1.3857    0.0000 C   0  0  0  0  0  0  0  0  0  0  0  0
    2.4000   -1.3857    0.0000 H   0  0  0  0  0  0  0  0  0  0  0  0
   -0.0000   -2.7713    0.0000 C   0  0  0  0  0  0  0  0  0  0  0  0
    0.8000   -4.1569    0.0000 H   0  0  0  0  0  0  0  0  0  0  0  0
   -1.6000   -2.7713    0.0000 C   0  0  0  0  0  0  0  0  0  0  0  0
   -2.4000   -4.1569    0.0000 Cl  0  0  0  0  0  0  0  0  0  0  0  0
  1  2  1  0  0  0  0
  2  3  1  0  0  0  0
  3  4  1  0  0  0  0
  3  5  2  0  0  0  0
  5  6  1  0  0  0  0
  6  7  1  0  0  0  0
  5  8  1  0  0  0  0
  8  9  1  0  0  0  0
  8 10  2  0  0  0  0
 10 11  1  0  0  0  0
 10 12  1  0  0  0  0
 12  2  2  0  0  0  0
 12 13  1  0  0  0  0
M  END
> <ChemID>
100140

> <source_casrn>
95-77-2

> <CAS>
95-77-2

> <SMILES>
Oc1cc(Cl)c(Cl)cc1

> <NAME>
3,4-DICHLOROPHENOL

> <preferred_name>
3,4-Dichlorophenol

> <iupac>
3,4-dichlorophenol

> <MPID>
99417

> <dsstox_substance_id>
DTXSID7025005

> <Canonical_QSARr>
Oc1cc(Cl)c(Cl)cc1

> <InChI_Code_QSARr>
InChI=1S/C6H4Cl2O/c7-5-2-1-4(9)3-6(5)8/h1-3,9H

> <InChI Key_QSARr>
WDNBURPWRNALGP-UHFFFAOYSA-N

> <LogKOC>
3.09

$$$$
100141
  -INDIGO-08031722282D

 24 24  0  0  0  0  0  0  0  0999 V2000
    0.0000   -0.0000    0.0000 C   0  0  0  0  0  0  0  0  0  0  0  0
    1.3857    0.8000    0.0000 C   0  0  0  0  0  0  0  0  0  0  0  0
    1.3857    2.4000    0.0000 H   0  0  0  0  0  0  0  0  0  0  0  0
    2.7713   -0.0000    0.0000 C   0  0  0  0  0  0  0  0  0  0  0  0
    4.1570    0.8000    0.0000 C   0  0  0  0  0  0  0  0  0  0  0  0
    5.5426    1.6000    0.0000 H   0  0  0  0  0  0  0  0  0  0  0  0
    4.1570    2.4000    0.0000 H   0  0  0  0  0  0  0  0  0  0  0  0
    5.5426   -0.0000    0.0000 H   0  0  0  0  0  0  0  0  0  0  0  0
    2.7713   -1.6000    0.0000 C   0  0  0  0  0  0  0  0  0  0  0  0
    4.1570   -2.4000    0.0000 C   0  0  0  0  0  0  0  0  0  0  0  0
    5.5426   -3.2000    0.0000 H   0  0  0  0  0  0  0  0  0  0  0  0
    4.1570   -4.0000    0.0000 H   0  0  0  0  0  0  0  0  0  0  0  0
    5.5426   -1.6000    0.0000 H   0  0  0  0  0  0  0  0  0  0  0  0
    1.3857   -2.4000    0.0000 C   0  0  0  0  0  0  0  0  0  0  0  0
    1.3857   -4.0000    0.0000 H   0  0  0  0  0  0  0  0  0  0  0  0
    0.0000   -1.6000    0.0000 C   0  0  0  0  0  0  0  0  0  0  0  0
   -1.3857   -2.4000    0.0000 C   0  0  0  0  0  0  0  0  0  0  0  0
   -2.7713   -3.2000    0.0000 H   0  0  0  0  0  0  0  0  0  0  0  0
   -2.7713   -1.6000    0.0000 H   0  0  0  0  0  0  0  0  0  0  0  0
   -1.3857   -4.0000    0.0000 H   0  0  0  0  0  0  0  0  0  0  0  0
   -1.3857    0.8000    0.0000 C   0  0  0  0  0  0  0  0  0  0  0  0
   -2.7713    1.6000    0.0000 H   0  0  0  0  0  0  0  0  0  0  0  0
   -1.3857    2.4000    0.0000 H   0  0  0  0  0  0  0  0  0  0  0  0
   -2.7713   -0.0000    0.0000 H   0  0  0  0  0  0  0  0  0  0  0  0
  1  2  1  0  0  0  0
  2  3  1  0  0  0  0
  2  4  2  0  0  0  0
  4  5  1  0  0  0  0
  5  6  1  0  0  0  0
  5  7  1  0  0  0  0
  5  8  1  0  0  0  0
  4  9  1  0  0  0  0
  9 10  1  0  0  0  0
 10 11  1  0  0  0  0
 10 12  1  0  0  0  0
 10 13  1  0  0  0  0
  9 14  2  0  0  0  0
 14 15  1  0  0  0  0
 14 16  1  0  0  0  0
 16  1  2  0  0  0  0
 16 17  1  0  0  0  0
 17 18  1  0  0  0  0
 17 19  1  0  0  0  0
 17 20  1  0  0  0  0
  1 21  1  0  0  0  0
 21 22  1  0  0  0  0
 21 23  1  0  0  0  0
 21 24  1  0  0  0  0
M  END
> <ChemID>
100141

> <source_casrn>
95-93-2

> <CAS>
95-93-2

> <SMILES>
Cc1cc(C)c(C)cc1C

> <NAME>
1,2,4,5-TETRAMETHYLBENZENE

> <preferred_name>
1,2,4,5-Tetramethylbenzene

> <iupac>
1,2,4,5-tetramethylbenzene

> <MPID>
99418

> <dsstox_substance_id>
DTXSID1029124

> <Canonical_QSARr>
Cc1cc(C)c(C)cc1C

> <InChI_Code_QSARr>
InChI=1S/C10H14/c1-7-5-9(3)10(4)6-8(7)2/h5-6H,1-4H3

> <InChI Key_QSARr>
SQNZJJAZBFDUTD-UHFFFAOYSA-N

> <LogKOC>
3.12

$$$$
100143
  -INDIGO-08031722282D

 13 13  0  0  0  0  0  0  0  0999 V2000
    0.0000    2.7713    0.0000 Cl  0  0  0  0  0  0  0  0  0  0  0  0
   -0.8000    1.3856    0.0000 C   0  0  0  0  0  0  0  0  0  0  0  0
    0.0000   -0.0000    0.0000 C   0  0  0  0  0  0  0  0  0  0  0  0
    1.6000   -0.0000    0.0000 O   0  0  0  0  0  0  0  0  0  0  0  0
    2.4000    1.3856    0.0000 H   0  0  0  0  0  0  0  0  0  0  0  0
   -0.8000   -1.3856    0.0000 C   0  0  0  0  0  0  0  0  0  0  0  0
    0.0000   -2.7713    0.0000 H   0  0  0  0  0  0  0  0  0  0  0  0
   -2.4000   -1.3856    0.0000 C   0  0  0  0  0  0  0  0  0  0  0  0
   -3.2000   -2.7713    0.0000 Cl  0  0  0  0  0  0  0  0  0  0  0  0
   -3.2000   -0.0000    0.0000 C   0  0  0  0  0  0  0  0  0  0  0  0
   -4.8000   -0.0000    0.0000 Cl  0  0  0  0  0  0  0  0  0  0  0  0
   -2.4000    1.3856    0.0000 C   0  0  0  0  0  0  0  0  0  0  0  0
   -3.2000    2.7713    0.0000 H   0  0  0  0  0  0  0  0  0  0  0  0
  1  2  1  0  0  0  0
  2  3  1  0  0  0  0
  3  4  1  0  0  0  0
  4  5  1  0  0  0  0
  3  6  2  0  0  0  0
  6  7  1  0  0  0  0
  6  8  1  0  0  0  0
  8  9  1  0  0  0  0
  8 10  2  0  0  0  0
 10 11  1  0  0  0  0
 10 12  1  0  0  0  0
 12  2  2  0  0  0  0
 12 13  1  0  0  0  0
M  END
> <ChemID>
100143

> <source_casrn>
95-95-4

> <CAS>
95-95-4

> <SMILES>
Oc1cc(Cl)c(Cl)cc1Cl

> <NAME>
2,4,5-TRICHLOROPHENOL

> <preferred_name>
2,4,5-Trichlorophenol

> <iupac>
C6H3Cl3O

> <MPID>
99420

> <dsstox_substance_id>
DTXSID4024359

> <Canonical_QSARr>
Oc1cc(Cl)c(Cl)cc1Cl

> <InChI_Code_QSARr>
InChI=1S/C6H3Cl3O/c7-3-1-5(9)6(10)2-4(3)8/h1-2,10H

> <InChI Key_QSARr>
LHJGJYXLEPZJPM-UHFFFAOYSA-N

> <LogKOC>
3.36

$$$$
100144
  -INDIGO-08031722282D

 11 10  0  0  0  0  0  0  0  0999 V2000
   -0.6123   -1.4782    0.0000 Br  0  0  0  0  0  0  0  0  0  0  0  0
    0.0000    0.0000    0.0000 C   0  0  0  0  0  0  0  0  0  0  0  0
    0.6123   -1.4782    0.0000 H   0  0  0  0  0  0  0  0  0  0  0  0
   -1.3856    0.8000    0.0000 C   0  0  0  0  0  0  0  0  0  0  0  0
   -2.7713    1.6000    0.0000 H   0  0  0  0  0  0  0  0  0  0  0  0
   -2.7713    0.0000    0.0000 H   0  0  0  0  0  0  0  0  0  0  0  0
   -1.3856    2.4000    0.0000 Cl  0  0  0  0  0  0  0  0  0  0  0  0
    1.3856    0.8000    0.0000 C   0  0  0  0  0  0  0  0  0  0  0  0
    2.7713    1.6000    0.0000 H   0  0  0  0  0  0  0  0  0  0  0  0
    2.7713    0.0000    0.0000 H   0  0  0  0  0  0  0  0  0  0  0  0
    1.3856    2.4000    0.0000 Br  0  0  0  0  0  0  0  0  0  0  0  0
  1  2  1  0  0  0  0
  2  3  1  0  0  0  0
  2  4  1  0  0  0  0
  4  5  1  0  0  0  0
  4  6  1  0  0  0  0
  4  7  1  0  0  0  0
  2  8  1  0  0  0  0
  8  9  1  0  0  0  0
  8 10  1  0  0  0  0
  8 11  1  0  0  0  0
M  END
> <ChemID>
100144

> <source_casrn>
96-12-8

> <CAS>
96-12-8

> <SMILES>
ClCC(Br)CBr

> <NAME>
1,2-DIBROMO-3-CHLOROPROPANE

> <preferred_name>
1,2-Dibromo-3-chloropropane

> <iupac>
1,2-dibromo-3-chloropropane

> <MPID>
99421

> <dsstox_substance_id>
DTXSID3020413

> <Canonical_QSARr>
ClCC(Br)CBr

> <InChI_Code_QSARr>
InChI=1S/C3H5Br2Cl/c4-1-3(5)2-6/h3H,1-2H2

> <InChI Key_QSARr>
WBEJYOJJBDISQU-UHFFFAOYSA-N

> <LogKOC>
1.85

$$$$
100145
  -INDIGO-08031722282D

 17 17  0  0  0  0  0  0  0  0999 V2000
    1.3857    2.4000    0.0000 F   0  0  0  0  0  0  0  0  0  0  0  0
    1.3857    0.8000    0.0000 C   0  0  0  0  0  0  0  0  0  0  0  0
    2.7713    1.6000    0.0000 F   0  0  0  0  0  0  0  0  0  0  0  0
    2.7713   -0.0000    0.0000 F   0  0  0  0  0  0  0  0  0  0  0  0
    0.0000   -0.0000    0.0000 C   0  0  0  0  0  0  0  0  0  0  0  0
    0.0000   -1.6000    0.0000 C   0  0  0  0  0  0  0  0  0  0  0  0
    1.3857   -2.4000    0.0000 H   0  0  0  0  0  0  0  0  0  0  0  0
   -1.3856   -2.4000    0.0000 C   0  0  0  0  0  0  0  0  0  0  0  0
   -1.3856   -4.0000    0.0000 H   0  0  0  0  0  0  0  0  0  0  0  0
   -2.7713   -1.6000    0.0000 C   0  0  0  0  0  0  0  0  0  0  0  0
   -4.1570   -2.4000    0.0000 H   0  0  0  0  0  0  0  0  0  0  0  0
   -2.7713   -0.0000    0.0000 C   0  0  0  0  0  0  0  0  0  0  0  0
   -4.1569    0.8000    0.0000 N   0  0  0  0  0  0  0  0  0  0  0  0
   -5.5426   -0.0000    0.0000 H   0  0  0  0  0  0  0  0  0  0  0  0
   -4.1569    2.4000    0.0000 H   0  0  0  0  0  0  0  0  0  0  0  0
   -1.3856    0.8000    0.0000 C   0  0  0  0  0  0  0  0  0  0  0  0
   -1.3856    2.4000    0.0000 H   0  0  0  0  0  0  0  0  0  0  0  0
  1  2  1  0  0  0  0
  2  3  1  0  0  0  0
  2  4  1  0  0  0  0
  2  5  1  0  0  0  0
  5  6  1  0  0  0  0
  6  7  1  0  0  0  0
  6  8  2  0  0  0  0
  8  9  1  0  0  0  0
  8 10  1  0  0  0  0
 10 11  1  0  0  0  0
 10 12  2  0  0  0  0
 12 13  1  0  0  0  0
 13 14  1  0  0  0  0
 13 15  1  0  0  0  0
 12 16  1  0  0  0  0
 16  5  2  0  0  0  0
 16 17  1  0  0  0  0
M  END
> <ChemID>
100145

> <source_casrn>
98-16-8

> <CAS>
98-16-8

> <SMILES>
Nc1cc(ccc1)C(F)(F)F

> <NAME>
3-TRIFLUOROMETHYLANILINE

> <preferred_name>
3-(Trifluoromethyl)aniline

> <iupac>
3-(trifluoromethyl)aniline

> <MPID>
99422

> <dsstox_substance_id>
DTXSID9024512

> <Canonical_QSARr>
Nc1cc(ccc1)C(F)(F)F

> <InChI_Code_QSARr>
InChI=1S/C7H6F3N/c8-7(9,10)5-2-1-3-6(11)4-5/h1-4H,11H2

> <InChI Key_QSARr>
VIUDTWATMPPKEL-UHFFFAOYSA-N

> <LogKOC>
2.36

$$$$
100147
  -INDIGO-08031722282D

 17 17  0  0  0  0  0  0  0  0999 V2000
    1.6000   -0.0000    0.0000 C   0  0  0  0  0  0  0  0  0  0  0  0
    2.4001   -1.3856    0.0000 C   0  0  0  0  0  0  0  0  0  0  0  0
    3.2000   -2.7713    0.0000 H   0  0  0  0  0  0  0  0  0  0  0  0
    4.0000   -1.3856    0.0000 H   0  0  0  0  0  0  0  0  0  0  0  0
    1.6000   -2.7713    0.0000 H   0  0  0  0  0  0  0  0  0  0  0  0
    2.4001    1.3856    0.0000 O   0  0  0  0  0  0  0  0  0  0  0  0
   -0.0000    0.0000    0.0000 C   0  0  0  0  0  0  0  0  0  0  0  0
   -0.8000    1.3856    0.0000 C   0  0  0  0  0  0  0  0  0  0  0  0
   -0.0000    2.7713    0.0000 H   0  0  0  0  0  0  0  0  0  0  0  0
   -2.4000    1.3856    0.0000 C   0  0  0  0  0  0  0  0  0  0  0  0
   -3.2001    2.7713    0.0000 H   0  0  0  0  0  0  0  0  0  0  0  0
   -3.2001    0.0000    0.0000 C   0  0  0  0  0  0  0  0  0  0  0  0
   -4.8000   -0.0000    0.0000 H   0  0  0  0  0  0  0  0  0  0  0  0
   -2.4000   -1.3856    0.0000 C   0  0  0  0  0  0  0  0  0  0  0  0
   -3.2001   -2.7713    0.0000 H   0  0  0  0  0  0  0  0  0  0  0  0
   -0.8000   -1.3856    0.0000 C   0  0  0  0  0  0  0  0  0  0  0  0
   -0.0000   -2.7713    0.0000 H   0  0  0  0  0  0  0  0  0  0  0  0
  1  2  1  0  0  0  0
  2  3  1  0  0  0  0
  2  4  1  0  0  0  0
  2  5  1  0  0  0  0
  1  6  2  0  0  0  0
  1  7  1  0  0  0  0
  7  8  1  0  0  0  0
  8  9  1  0  0  0  0
  8 10  2  0  0  0  0
 10 11  1  0  0  0  0
 10 12  1  0  0  0  0
 12 13  1  0  0  0  0
 12 14  2  0  0  0  0
 14 15  1  0  0  0  0
 14 16  1  0  0  0  0
 16  7  2  0  0  0  0
 16 17  1  0  0  0  0
M  END
> <ChemID>
100147

> <source_casrn>
98-86-2

> <CAS>
98-86-2

> <SMILES>
CC(=O)c1ccccc1

> <NAME>
ACETOPHENONE

> <preferred_name>
Acetophenone

> <iupac>
1-phenylethanone

> <MPID>
99424

> <dsstox_substance_id>
DTXSID6021828

> <Canonical_QSARr>
CC(=O)c1ccccc1

> <InChI_Code_QSARr>
InChI=1S/C8H8O/c1-7(9)8-5-3-2-4-6-8/h2-6H,1H3

> <InChI Key_QSARr>
KWOLFJPFCHCOCG-UHFFFAOYSA-N

> <LogKOC>
1.8

$$$$
100148
  -INDIGO-08031722282D

 14 14  0  0  0  0  0  0  0  0999 V2000
   -2.4000   -1.3856    0.0000 O   0  0  0  0  0  0  0  0  0  0  0  0
   -1.6000   -0.0000    0.0000 N   0  0  0  0  0  0  0  0  0  0  0  0
    0.0000   -0.0000    0.0000 C   0  0  0  0  0  0  0  0  0  0  0  0
    0.8000    1.3856    0.0000 C   0  0  0  0  0  0  0  0  0  0  0  0
    0.0000    2.7713    0.0000 H   0  0  0  0  0  0  0  0  0  0  0  0
    2.4000    1.3856    0.0000 C   0  0  0  0  0  0  0  0  0  0  0  0
    3.2000    2.7713    0.0000 H   0  0  0  0  0  0  0  0  0  0  0  0
    3.2000   -0.0000    0.0000 C   0  0  0  0  0  0  0  0  0  0  0  0
    4.8000   -0.0000    0.0000 H   0  0  0  0  0  0  0  0  0  0  0  0
    2.4000   -1.3856    0.0000 C   0  0  0  0  0  0  0  0  0  0  0  0
    3.2000   -2.7713    0.0000 H   0  0  0  0  0  0  0  0  0  0  0  0
    0.8000   -1.3856    0.0000 C   0  0  0  0  0  0  0  0  0  0  0  0
    0.0000   -2.7713    0.0000 H   0  0  0  0  0  0  0  0  0  0  0  0
   -2.4000    1.3856    0.0000 O   0  0  0  0  0  0  0  0  0  0  0  0
  1  2  2  0  0  0  0
  2  3  1  0  0  0  0
  3  4  1  0  0  0  0
  4  5  1  0  0  0  0
  4  6  2  0  0  0  0
  6  7  1  0  0  0  0
  6  8  1  0  0  0  0
  8  9  1  0  0  0  0
  8 10  2  0  0  0  0
 10 11  1  0  0  0  0
 10 12  1  0  0  0  0
 12  3  2  0  0  0  0
 12 13  1  0  0  0  0
  2 14  1  0  0  0  0
M  CHG  2   2   1  14  -1
M  END
> <ChemID>
100148

> <source_casrn>
98-95-3

> <CAS>
98-95-3

> <SMILES>
[O-][N+](=O)c1ccccc1

> <NAME>
NITROBENZENE

> <preferred_name>
Nitrobenzene

> <iupac>
nitrobenzene

> <MPID>
99425

> <dsstox_substance_id>
DTXSID3020964

> <Canonical_QSARr>
[O-][N+](=O)c1ccccc1

> <InChI_Code_QSARr>
InChI=1S/C6H5NO2/c8-7(9)6-4-2-1-3-5-6/h1-5H

> <InChI Key_QSARr>
LQNUZADURLCDLV-UHFFFAOYSA-N

> <LogKOC>
1.94

$$$$
100149
  -INDIGO-08031722282D

 16 16  0  0  0  0  0  0  0  0999 V2000
    1.3857    0.8000    0.0000 N   0  0  0  0  0  0  0  0  0  0  0  0
    2.7713   -0.0000    0.0000 O   0  0  0  0  0  0  0  0  0  0  0  0
    1.3856    2.4000    0.0000 O   0  0  0  0  0  0  0  0  0  0  0  0
    0.0000   -0.0000    0.0000 C   0  0  0  0  0  0  0  0  0  0  0  0
    0.0000   -1.6000    0.0000 C   0  0  0  0  0  0  0  0  0  0  0  0
    1.3857   -2.4000    0.0000 H   0  0  0  0  0  0  0  0  0  0  0  0
   -1.3856   -2.4000    0.0000 C   0  0  0  0  0  0  0  0  0  0  0  0
   -1.3856   -4.0000    0.0000 H   0  0  0  0  0  0  0  0  0  0  0  0
   -2.7713   -1.6000    0.0000 C   0  0  0  0  0  0  0  0  0  0  0  0
   -4.1570   -2.4000    0.0000 H   0  0  0  0  0  0  0  0  0  0  0  0
   -2.7713   -0.0000    0.0000 C   0  0  0  0  0  0  0  0  0  0  0  0
   -4.1569    0.8000    0.0000 N   0  0  0  0  0  0  0  0  0  0  0  0
   -5.5426   -0.0000    0.0000 H   0  0  0  0  0  0  0  0  0  0  0  0
   -4.1569    2.4000    0.0000 H   0  0  0  0  0  0  0  0  0  0  0  0
   -1.3856    0.8000    0.0000 C   0  0  0  0  0  0  0  0  0  0  0  0
   -1.3856    2.4000    0.0000 H   0  0  0  0  0  0  0  0  0  0  0  0
  1  2  2  0  0  0  0
  1  3  1  0  0  0  0
  1  4  1  0  0  0  0
  4  5  1  0  0  0  0
  5  6  1  0  0  0  0
  5  7  2  0  0  0  0
  7  8  1  0  0  0  0
  7  9  1  0  0  0  0
  9 10  1  0  0  0  0
  9 11  2  0  0  0  0
 11 12  1  0  0  0  0
 12 13  1  0  0  0  0
 12 14  1  0  0  0  0
 11 15  1  0  0  0  0
 15  4  2  0  0  0  0
 15 16  1  0  0  0  0
M  CHG  2   1   1   3  -1
M  END
> <ChemID>
100149

> <source_casrn>
99-09-2

> <CAS>
99-09-2

> <SMILES>
Nc1cc(ccc1)[N+]([O-])=O

> <NAME>
3-NITROANILINE

> <preferred_name>
3-Nitroaniline

> <iupac>
3-nitroaniline

> <MPID>
99426

> <dsstox_substance_id>
DTXSID6025725

> <Canonical_QSARr>
Nc1cc(ccc1)[N+]([O-])=O

> <InChI_Code_QSARr>
InChI=1S/C6H6N2O2/c7-5-2-1-3-6(4-5)8(9)10/h1-4H,7H2

> <InChI Key_QSARr>
XJCVRTZCHMZPBD-UHFFFAOYSA-N

> <LogKOC>
1.73

$$$$
100151
  -INDIGO-08031722282D

 19 19  0  0  0  0  0  0  0  0999 V2000
    0.0001    1.6000    0.0000 C   0  0  0  0  0  0  0  0  0  0  0  0
    1.3857    2.4000    0.0000 H   0  0  0  0  0  0  0  0  0  0  0  0
    0.0001    0.0000    0.0000 C   0  0  0  0  0  0  0  0  0  0  0  0
    1.3857   -0.8000    0.0000 C   0  0  0  0  0  0  0  0  0  0  0  0
    1.3857   -2.4000    0.0000 O   0  0  0  0  0  0  0  0  0  0  0  0
    2.7713    0.0000    0.0000 O   0  0  0  0  0  0  0  0  0  0  0  0
    4.1569   -0.8000    0.0000 H   0  0  0  0  0  0  0  0  0  0  0  0
   -1.3857   -0.8000    0.0000 C   0  0  0  0  0  0  0  0  0  0  0  0
   -1.3857   -2.4000    0.0000 H   0  0  0  0  0  0  0  0  0  0  0  0
   -2.7713    0.0000    0.0000 C   0  0  0  0  0  0  0  0  0  0  0  0
   -4.1569   -0.8000    0.0000 N   0  0  0  0  0  0  0  0  0  0  0  0
   -5.5426    0.0000    0.0000 O   0  0  0  0  0  0  0  0  0  0  0  0
   -4.1569   -2.4000    0.0000 O   0  0  0  0  0  0  0  0  0  0  0  0
   -2.7713    1.6000    0.0000 C   0  0  0  0  0  0  0  0  0  0  0  0
   -4.1569    2.4000    0.0000 H   0  0  0  0  0  0  0  0  0  0  0  0
   -1.3857    2.4000    0.0000 C   0  0  0  0  0  0  0  0  0  0  0  0
   -1.3857    4.0000    0.0000 N   0  0  0  0  0  0  0  0  0  0  0  0
   -2.7713    4.8000    0.0000 O   0  0  0  0  0  0  0  0  0  0  0  0
    0.0001    4.8000    0.0000 O   0  0  0  0  0  0  0  0  0  0  0  0
  1  2  1  0  0  0  0
  1  3  1  0  0  0  0
  3  4  1  0  0  0  0
  4  5  2  0  0  0  0
  4  6  1  0  0  0  0
  6  7  1  0  0  0  0
  3  8  2  0  0  0  0
  8  9  1  0  0  0  0
  8 10  1  0  0  0  0
 10 11  1  0  0  0  0
 11 12  2  0  0  0  0
 11 13  1  0  0  0  0
 10 14  2  0  0  0  0
 14 15  1  0  0  0  0
 14 16  1  0  0  0  0
 16  1  2  0  0  0  0
 16 17  1  0  0  0  0
 17 18  2  0  0  0  0
 17 19  1  0  0  0  0
M  CHG  4  11   1  13  -1  17   1  19  -1
M  END
> <ChemID>
100151

> <source_casrn>
99-34-3

> <CAS>
99-34-3

> <SMILES>
[O-][N+](=O)c1cc(cc(c1)[N+]([O-])=O)C(O)=O

> <NAME>
3,5-DINITROBENZOIC ACID

> <preferred_name>
3,5-Dinitrobenzoic acid

> <iupac>
3,5-Dinitrobenzoic acid

> <MPID>
99428

> <dsstox_substance_id>
DTXSID7059195

> <Canonical_QSARr>
[O-][N+](=O)c1cc(cc(c1)[N+]([O-])=O)C(O)=O

> <InChI_Code_QSARr>
InChI=1S/C7H4N2O6/c10-7(11)4-1-5(8(12)13)3-6(2-4)9(14)15/h1-3H,(H,10,11)

> <InChI Key_QSARr>
VYWYYJYRVSBHJQ-UHFFFAOYSA-N

> <LogKOC>
1.53

$$$$
100152
  -INDIGO-08031722282D

 14 14  0  0  0  0  0  0  0  0999 V2000
    1.6000   -0.0000    0.0000 N   0  0  0  0  0  0  0  0  0  0  0  0
    2.4000    1.3856    0.0000 O   0  0  0  0  0  0  0  0  0  0  0  0
    2.4000   -1.3856    0.0000 O   0  0  0  0  0  0  0  0  0  0  0  0
    0.0000   -0.0000    0.0000 C   0  0  0  0  0  0  0  0  0  0  0  0
   -0.8000    1.3856    0.0000 C   0  0  0  0  0  0  0  0  0  0  0  0
    0.0000    2.7713    0.0000 H   0  0  0  0  0  0  0  0  0  0  0  0
   -2.4000    1.3856    0.0000 C   0  0  0  0  0  0  0  0  0  0  0  0
   -3.2000    2.7713    0.0000 H   0  0  0  0  0  0  0  0  0  0  0  0
   -3.2000   -0.0000    0.0000 C   0  0  0  0  0  0  0  0  0  0  0  0
   -4.8000   -0.0000    0.0000 Cl  0  0  0  0  0  0  0  0  0  0  0  0
   -2.4000   -1.3856    0.0000 C   0  0  0  0  0  0  0  0  0  0  0  0
   -3.2000   -2.7713    0.0000 Cl  0  0  0  0  0  0  0  0  0  0  0  0
   -0.8000   -1.3856    0.0000 C   0  0  0  0  0  0  0  0  0  0  0  0
    0.0000   -2.7713    0.0000 H   0  0  0  0  0  0  0  0  0  0  0  0
  1  2  2  0  0  0  0
  1  3  1  0  0  0  0
  1  4  1  0  0  0  0
  4  5  1  0  0  0  0
  5  6  1  0  0  0  0
  5  7  2  0  0  0  0
  7  8  1  0  0  0  0
  7  9  1  0  0  0  0
  9 10  1  0  0  0  0
  9 11  2  0  0  0  0
 11 12  1  0  0  0  0
 11 13  1  0  0  0  0
 13  4  2  0  0  0  0
 13 14  1  0  0  0  0
M  CHG  2   1   1   3  -1
M  END
> <ChemID>
100152

> <source_casrn>
99-54-7

> <CAS>
99-54-7

> <SMILES>
[O-][N+](=O)c1cc(Cl)c(Cl)cc1

> <NAME>
3,4-DICHLORONITROBENZENE

> <preferred_name>
3,4-Dichloronitrobenzene

> <iupac>
1,2-dichloro-4-nitrobenzene

> <MPID>
99429

> <dsstox_substance_id>
DTXSID8024999

> <Canonical_QSARr>
[O-][N+](=O)c1cc(Cl)c(Cl)cc1

> <InChI_Code_QSARr>
InChI=1S/C6H3Cl2NO2/c7-5-2-1-4(9(10)11)3-6(5)8/h1-3H

> <InChI Key_QSARr>
NTBYINQTYWZXLH-UHFFFAOYSA-N

> <LogKOC>
2.53

$$$$
100153
  -INDIGO-08031722282D

 23 23  0  0  0  0  0  0  0  0999 V2000
    0.0001   -0.0000    0.0000 C   0  0  0  0  0  0  0  0  0  0  0  0
    0.0001   -1.6000    0.0000 C   0  0  0  0  0  0  0  0  0  0  0  0
    1.3856   -2.4000    0.0000 H   0  0  0  0  0  0  0  0  0  0  0  0
   -1.3856   -2.4000    0.0000 C   0  0  0  0  0  0  0  0  0  0  0  0
   -1.3856   -4.0000    0.0000 H   0  0  0  0  0  0  0  0  0  0  0  0
   -2.7713   -1.6000    0.0000 C   0  0  0  0  0  0  0  0  0  0  0  0
   -4.1569   -2.4000    0.0000 N   0  0  0  0  0  0  0  0  0  0  0  0
   -5.5426   -1.6000    0.0000 O   0  0  0  0  0  0  0  0  0  0  0  0
   -4.1569   -4.0000    0.0000 O   0  0  0  0  0  0  0  0  0  0  0  0
   -2.7713   -0.0000    0.0000 C   0  0  0  0  0  0  0  0  0  0  0  0
   -4.1569    0.8000    0.0000 H   0  0  0  0  0  0  0  0  0  0  0  0
   -1.3856    0.8000    0.0000 C   0  0  0  0  0  0  0  0  0  0  0  0
   -1.3856    2.4000    0.0000 H   0  0  0  0  0  0  0  0  0  0  0  0
    1.3856    0.8000    0.0000 C   0  0  0  0  0  0  0  0  0  0  0  0
    2.7713   -0.0000    0.0000 O   0  0  0  0  0  0  0  0  0  0  0  0
    4.1570    0.8000    0.0000 C   0  0  0  0  0  0  0  0  0  0  0  0
    4.7692    2.2782    0.0000 H   0  0  0  0  0  0  0  0  0  0  0  0
    3.5446    2.2782    0.0000 H   0  0  0  0  0  0  0  0  0  0  0  0
    5.5425   -0.0000    0.0000 C   0  0  0  0  0  0  0  0  0  0  0  0
    6.9282   -0.8000    0.0000 H   0  0  0  0  0  0  0  0  0  0  0  0
    6.9282    0.8000    0.0000 H   0  0  0  0  0  0  0  0  0  0  0  0
    5.5425   -1.6000    0.0000 H   0  0  0  0  0  0  0  0  0  0  0  0
    1.3856    2.4000    0.0000 O   0  0  0  0  0  0  0  0  0  0  0  0
  1  2  1  0  0  0  0
  2  3  1  0  0  0  0
  2  4  2  0  0  0  0
  4  5  1  0  0  0  0
  4  6  1  0  0  0  0
  6  7  1  0  0  0  0
  7  8  1  0  0  0  0
  7  9  2  0  0  0  0
  6 10  2  0  0  0  0
 10 11  1  0  0  0  0
 10 12  1  0  0  0  0
 12  1  2  0  0  0  0
 12 13  1  0  0  0  0
  1 14  1  0  0  0  0
 14 15  1  0  0  0  0
 15 16  1  0  0  0  0
 16 17  1  0  0  0  0
 16 18  1  0  0  0  0
 16 19  1  0  0  0  0
 19 20  1  0  0  0  0
 19 21  1  0  0  0  0
 19 22  1  0  0  0  0
 14 23  2  0  0  0  0
M  CHG  2   7   1   8  -1
M  END
> <ChemID>
100153

> <source_casrn>
99-77-4

> <CAS>
99-77-4

> <SMILES>
O=C(OCC)c(ccc(N(=O)=O)c1)c1

> <NAME>
ETHYL-P-NITROBENZOATE

> <preferred_name>
Ethyl 4-nitrobenzoate

> <iupac>
ethyl 4-nitrobenzoate

> <MPID>
99430

> <dsstox_substance_id>
DTXSID1052666

> <Canonical_QSARr>
CCOC(=O)c1ccc(cc1)[N+]([O-])=O

> <InChI_Code_QSARr>
InChI=1S/C9H9NO4/c1-2-14-9(11)7-3-5-8(6-4-7)10(12)13/h3-6H,2H2,1H3

> <InChI Key_QSARr>
PHWSCBWNPZDYRI-UHFFFAOYSA-N

> <LogKOC>
2.48

$$$$
100155
  -INDIGO-08031722282D

 16 16  0  0  0  0  0  0  0  0999 V2000
   -1.3857    0.8000    0.0000 C   0  0  0  0  0  0  0  0  0  0  0  0
   -1.3857    2.4000    0.0000 O   0  0  0  0  0  0  0  0  0  0  0  0
   -0.0001   -0.0000    0.0000 C   0  0  0  0  0  0  0  0  0  0  0  0
   -0.0001   -1.6000    0.0000 C   0  0  0  0  0  0  0  0  0  0  0  0
   -1.3857   -2.4000    0.0000 H   0  0  0  0  0  0  0  0  0  0  0  0
    1.3857   -2.4000    0.0000 C   0  0  0  0  0  0  0  0  0  0  0  0
    1.3857   -4.0000    0.0000 H   0  0  0  0  0  0  0  0  0  0  0  0
    2.7713   -1.6000    0.0000 C   0  0  0  0  0  0  0  0  0  0  0  0
    4.1569   -2.4000    0.0000 O   0  0  0  0  0  0  0  0  0  0  0  0
    5.5426   -1.6000    0.0000 H   0  0  0  0  0  0  0  0  0  0  0  0
    2.7713   -0.0000    0.0000 C   0  0  0  0  0  0  0  0  0  0  0  0
    4.1569    0.8000    0.0000 H   0  0  0  0  0  0  0  0  0  0  0  0
    1.3857    0.8000    0.0000 C   0  0  0  0  0  0  0  0  0  0  0  0
    1.3857    2.4000    0.0000 H   0  0  0  0  0  0  0  0  0  0  0  0
   -2.7713   -0.0000    0.0000 O   0  0  0  0  0  0  0  0  0  0  0  0
   -4.1569    0.8000    0.0000 H   0  0  0  0  0  0  0  0  0  0  0  0
  1  2  2  0  0  0  0
  1  3  1  0  0  0  0
  3  4  1  0  0  0  0
  4  5  1  0  0  0  0
  4  6  2  0  0  0  0
  6  7  1  0  0  0  0
  6  8  1  0  0  0  0
  8  9  1  0  0  0  0
  9 10  1  0  0  0  0
  8 11  2  0  0  0  0
 11 12  1  0  0  0  0
 11 13  1  0  0  0  0
 13  3  2  0  0  0  0
 13 14  1  0  0  0  0
  1 15  1  0  0  0  0
 15 16  1  0  0  0  0
M  END
> <ChemID>
100155

> <source_casrn>
99-96-7

> <CAS>
99-96-7

> <SMILES>
Oc1ccc(cc1)C(O)=O

> <NAME>
P-HYDROXYBENZOIC ACID

> <preferred_name>
4-Hydroxybenzoic acid

> <iupac>
4-hydroxybenzoic acid

> <MPID>
99432

> <dsstox_substance_id>
DTXSID3026647

> <Canonical_QSARr>
Oc1ccc(cc1)C(O)=O

> <InChI_Code_QSARr>
InChI=1S/C7H6O3/c8-6-3-1-5(2-4-6)7(9)10/h1-4,8H,(H,9,10)

> <InChI Key_QSARr>
FJKROLUGYXJWQN-UHFFFAOYSA-N

> <LogKOC>
1.43

$$$$
100156
  -INDIGO-08031722282D

 16 16  0  0  0  0  0  0  0  0999 V2000
   -2.4000   -1.3856    0.0000 O   0  0  0  0  0  0  0  0  0  0  0  0
   -1.5999   -0.0000    0.0000 N   0  0  0  0  0  0  0  0  0  0  0  0
    0.0001   -0.0000    0.0000 C   0  0  0  0  0  0  0  0  0  0  0  0
    0.8000    1.3856    0.0000 C   0  0  0  0  0  0  0  0  0  0  0  0
    0.0001    2.7713    0.0000 H   0  0  0  0  0  0  0  0  0  0  0  0
    2.4000    1.3856    0.0000 C   0  0  0  0  0  0  0  0  0  0  0  0
    3.2001    2.7713    0.0000 H   0  0  0  0  0  0  0  0  0  0  0  0
    3.2001   -0.0000    0.0000 C   0  0  0  0  0  0  0  0  0  0  0  0
    4.8001   -0.0000    0.0000 N   0  0  0  0  0  0  0  0  0  0  0  0
    5.6000    1.3856    0.0000 H   0  0  0  0  0  0  0  0  0  0  0  0
    5.6000   -1.3856    0.0000 H   0  0  0  0  0  0  0  0  0  0  0  0
    2.4000   -1.3856    0.0000 C   0  0  0  0  0  0  0  0  0  0  0  0
    3.2001   -2.7713    0.0000 H   0  0  0  0  0  0  0  0  0  0  0  0
    0.8000   -1.3856    0.0000 C   0  0  0  0  0  0  0  0  0  0  0  0
    0.0001   -2.7713    0.0000 H   0  0  0  0  0  0  0  0  0  0  0  0
   -2.4000    1.3856    0.0000 O   0  0  0  0  0  0  0  0  0  0  0  0
  1  2  2  0  0  0  0
  2  3  1  0  0  0  0
  3  4  1  0  0  0  0
  4  5  1  0  0  0  0
  4  6  2  0  0  0  0
  6  7  1  0  0  0  0
  6  8  1  0  0  0  0
  8  9  1  0  0  0  0
  9 10  1  0  0  0  0
  9 11  1  0  0  0  0
  8 12  2  0  0  0  0
 12 13  1  0  0  0  0
 12 14  1  0  0  0  0
 14  3  2  0  0  0  0
 14 15  1  0  0  0  0
  2 16  1  0  0  0  0
M  CHG  2   2   1  16  -1
M  END
> <ChemID>
100156

> <source_casrn>
100-01-6

> <CAS>
100-01-6

> <SMILES>
Nc1ccc(cc1)[N+]([O-])=O

> <NAME>
4-NITROANILINE

> <preferred_name>
4-Nitroaniline

> <iupac>
4-nitroaniline

> <MPID>
99433

> <dsstox_substance_id>
DTXSID8020961

> <Canonical_QSARr>
Nc1ccc(cc1)[N+]([O-])=O

> <InChI_Code_QSARr>
InChI=1S/C6H6N2O2/c7-5-1-3-6(4-2-5)8(9)10/h1-4H,7H2

> <InChI Key_QSARr>
TYMLOMAKGOJONV-UHFFFAOYSA-N

> <LogKOC>
1.88

$$$$
100157
  -INDIGO-08031722282D

 15 15  0  0  0  0  0  0  0  0999 V2000
    4.8001   -0.0000    0.0000 O   0  0  0  0  0  0  0  0  0  0  0  0
    5.6000    1.3856    0.0000 H   0  0  0  0  0  0  0  0  0  0  0  0
    3.2001   -0.0000    0.0000 C   0  0  0  0  0  0  0  0  0  0  0  0
    2.4000    1.3856    0.0000 C   0  0  0  0  0  0  0  0  0  0  0  0
    3.2001    2.7713    0.0000 H   0  0  0  0  0  0  0  0  0  0  0  0
    0.8000    1.3856    0.0000 C   0  0  0  0  0  0  0  0  0  0  0  0
    0.0001    2.7713    0.0000 H   0  0  0  0  0  0  0  0  0  0  0  0
    0.0001   -0.0000    0.0000 C   0  0  0  0  0  0  0  0  0  0  0  0
   -1.5999   -0.0000    0.0000 N   0  0  0  0  0  0  0  0  0  0  0  0
   -2.4000    1.3856    0.0000 O   0  0  0  0  0  0  0  0  0  0  0  0
   -2.4000   -1.3856    0.0000 O   0  0  0  0  0  0  0  0  0  0  0  0
    0.8000   -1.3856    0.0000 C   0  0  0  0  0  0  0  0  0  0  0  0
    0.0001   -2.7713    0.0000 H   0  0  0  0  0  0  0  0  0  0  0  0
    2.4000   -1.3856    0.0000 C   0  0  0  0  0  0  0  0  0  0  0  0
    3.2001   -2.7713    0.0000 H   0  0  0  0  0  0  0  0  0  0  0  0
  1  2  1  0  0  0  0
  1  3  1  0  0  0  0
  3  4  1  0  0  0  0
  4  5  1  0  0  0  0
  4  6  2  0  0  0  0
  6  7  1  0  0  0  0
  6  8  1  0  0  0  0
  8  9  1  0  0  0  0
  9 10  2  0  0  0  0
  9 11  1  0  0  0  0
  8 12  2  0  0  0  0
 12 13  1  0  0  0  0
 12 14  1  0  0  0  0
 14  3  2  0  0  0  0
 14 15  1  0  0  0  0
M  CHG  2   9   1  11  -1
M  END
> <ChemID>
100157

> <source_casrn>
100-02-7

> <CAS>
100-02-7

> <SMILES>
[O-][N+](=O)c1ccc(O)cc1

> <NAME>
4-NITROPHENOL

> <preferred_name>
4-Nitrophenol

> <iupac>
4-nitrophenol

> <MPID>
99434

> <dsstox_substance_id>
DTXSID0021834

> <Canonical_QSARr>
[O-][N+](=O)c1ccc(O)cc1

> <InChI_Code_QSARr>
InChI=1S/C6H5NO3/c8-6-3-1-5(2-4-6)7(9)10/h1-4,8H

> <InChI Key_QSARr>
BTJIUGUIPKRLHP-UHFFFAOYSA-N

> <LogKOC>
2.37

$$$$
100159
  -INDIGO-08031722282D

 16 16  0  0  0  0  0  0  0  0999 V2000
    2.7713   -0.0000    0.0000 C   0  0  0  0  0  0  0  0  0  0  0  0
    4.1569    0.8000    0.0000 H   0  0  0  0  0  0  0  0  0  0  0  0
    2.7713   -1.6000    0.0000 H   0  0  0  0  0  0  0  0  0  0  0  0
    1.3856    0.8000    0.0000 C   0  0  0  0  0  0  0  0  0  0  0  0
    1.3856    2.4000    0.0000 H   0  0  0  0  0  0  0  0  0  0  0  0
    0.0001   -0.0000    0.0000 C   0  0  0  0  0  0  0  0  0  0  0  0
    0.0001   -1.6000    0.0000 C   0  0  0  0  0  0  0  0  0  0  0  0
    1.3856   -2.4000    0.0000 H   0  0  0  0  0  0  0  0  0  0  0  0
   -1.3856   -2.4000    0.0000 C   0  0  0  0  0  0  0  0  0  0  0  0
   -1.3856   -4.0000    0.0000 H   0  0  0  0  0  0  0  0  0  0  0  0
   -2.7712   -1.6000    0.0000 C   0  0  0  0  0  0  0  0  0  0  0  0
   -4.1569   -2.4000    0.0000 H   0  0  0  0  0  0  0  0  0  0  0  0
   -2.7712   -0.0000    0.0000 C   0  0  0  0  0  0  0  0  0  0  0  0
   -4.1569    0.8000    0.0000 H   0  0  0  0  0  0  0  0  0  0  0  0
   -1.3856    0.8000    0.0000 C   0  0  0  0  0  0  0  0  0  0  0  0
   -1.3856    2.4000    0.0000 H   0  0  0  0  0  0  0  0  0  0  0  0
  1  2  1  0  0  0  0
  1  3  1  0  0  0  0
  1  4  2  0  0  0  0
  4  5  1  0  0  0  0
  4  6  1  0  0  0  0
  6  7  1  0  0  0  0
  7  8  1  0  0  0  0
  7  9  2  0  0  0  0
  9 10  1  0  0  0  0
  9 11  1  0  0  0  0
 11 12  1  0  0  0  0
 11 13  2  0  0  0  0
 13 14  1  0  0  0  0
 13 15  1  0  0  0  0
 15  6  2  0  0  0  0
 15 16  1  0  0  0  0
M  END
> <ChemID>
100159

> <source_casrn>
100-42-5

> <CAS>
100-42-5

> <SMILES>
C=Cc1ccccc1

> <NAME>
STYRENE

> <preferred_name>
Styrene

> <iupac>
ethenylbenzene

> <MPID>
99436

> <dsstox_substance_id>
DTXSID2021284

> <Canonical_QSARr>
C=Cc1ccccc1

> <InChI_Code_QSARr>
InChI=1S/C8H8/c1-2-8-6-4-3-5-7-8/h2-7H,1H2

> <InChI Key_QSARr>
PPBRXRYQALVLMV-UHFFFAOYSA-N

> <LogKOC>
2.96

$$$$
100160
  -INDIGO-08031722282D

 15 15  0  0  0  0  0  0  0  0999 V2000
    3.2000   -0.0000    0.0000 N   0  0  0  0  0  0  0  0  0  0  0  0
    2.4000    1.3856    0.0000 C   0  0  0  0  0  0  0  0  0  0  0  0
    3.2000    2.7713    0.0000 H   0  0  0  0  0  0  0  0  0  0  0  0
    0.8000    1.3856    0.0000 C   0  0  0  0  0  0  0  0  0  0  0  0
   -0.0000    2.7713    0.0000 H   0  0  0  0  0  0  0  0  0  0  0  0
   -0.0000   -0.0000    0.0000 C   0  0  0  0  0  0  0  0  0  0  0  0
   -1.6000   -0.0000    0.0000 C   0  0  0  0  0  0  0  0  0  0  0  0
   -2.4000   -1.3856    0.0000 H   0  0  0  0  0  0  0  0  0  0  0  0
   -2.4000    1.3856    0.0000 C   0  0  0  0  0  0  0  0  0  0  0  0
   -4.0000    1.3856    0.0000 H   0  0  0  0  0  0  0  0  0  0  0  0
   -1.6000    2.7713    0.0000 H   0  0  0  0  0  0  0  0  0  0  0  0
    0.8000   -1.3856    0.0000 C   0  0  0  0  0  0  0  0  0  0  0  0
   -0.0000   -2.7713    0.0000 H   0  0  0  0  0  0  0  0  0  0  0  0
    2.4000   -1.3856    0.0000 C   0  0  0  0  0  0  0  0  0  0  0  0
    3.2000   -2.7713    0.0000 H   0  0  0  0  0  0  0  0  0  0  0  0
  1  2  1  0  0  0  0
  2  3  1  0  0  0  0
  2  4  2  0  0  0  0
  4  5  1  0  0  0  0
  4  6  1  0  0  0  0
  6  7  1  0  0  0  0
  7  8  1  0  0  0  0
  7  9  2  0  0  0  0
  9 10  1  0  0  0  0
  9 11  1  0  0  0  0
  6 12  2  0  0  0  0
 12 13  1  0  0  0  0
 12 14  1  0  0  0  0
 14  1  2  0  0  0  0
 14 15  1  0  0  0  0
M  END
> <ChemID>
100160

> <source_casrn>
100-43-6

> <CAS>
100-43-6

> <SMILES>
C=Cc1cc[n]cc1

> <NAME>
4-VINYLPYRIDINE

> <preferred_name>
4-Vinylpyridine

> <iupac>
4-vinylpyridine

> <MPID>
99437

> <dsstox_substance_id>
DTXSID0051499

> <Canonical_QSARr>
C=Cc1cc[n]cc1

> <InChI_Code_QSARr>
InChI=1S/C7H7N/c1-2-7-3-5-8-6-4-7/h2-6H,1H2

> <InChI Key_QSARr>
KFDVPJUYSDEJTH-UHFFFAOYSA-N

> <LogKOC>
1.18

$$$$
100161
  -INDIGO-08031722282D

 16 16  0  0  0  0  0  0  0  0999 V2000
    2.4001   -1.3856    0.0000 O   0  0  0  0  0  0  0  0  0  0  0  0
    4.0000   -1.3856    0.0000 H   0  0  0  0  0  0  0  0  0  0  0  0
    1.6000   -0.0000    0.0000 C   0  0  0  0  0  0  0  0  0  0  0  0
    1.8088    1.5863    0.0000 H   0  0  0  0  0  0  0  0  0  0  0  0
    2.8694    0.9740    0.0000 H   0  0  0  0  0  0  0  0  0  0  0  0
   -0.0000   -0.0000    0.0000 C   0  0  0  0  0  0  0  0  0  0  0  0
   -0.8000    1.3856    0.0000 C   0  0  0  0  0  0  0  0  0  0  0  0
   -0.0000    2.7713    0.0000 H   0  0  0  0  0  0  0  0  0  0  0  0
   -2.4000    1.3856    0.0000 C   0  0  0  0  0  0  0  0  0  0  0  0
   -3.2001    2.7713    0.0000 H   0  0  0  0  0  0  0  0  0  0  0  0
   -3.2001   -0.0000    0.0000 C   0  0  0  0  0  0  0  0  0  0  0  0
   -4.8000   -0.0000    0.0000 H   0  0  0  0  0  0  0  0  0  0  0  0
   -2.4000   -1.3856    0.0000 C   0  0  0  0  0  0  0  0  0  0  0  0
   -3.2001   -2.7713    0.0000 H   0  0  0  0  0  0  0  0  0  0  0  0
   -0.8000   -1.3856    0.0000 C   0  0  0  0  0  0  0  0  0  0  0  0
   -0.0000   -2.7713    0.0000 H   0  0  0  0  0  0  0  0  0  0  0  0
  1  2  1  0  0  0  0
  1  3  1  0  0  0  0
  3  4  1  0  0  0  0
  3  5  1  0  0  0  0
  3  6  1  0  0  0  0
  6  7  1  0  0  0  0
  7  8  1  0  0  0  0
  7  9  2  0  0  0  0
  9 10  1  0  0  0  0
  9 11  1  0  0  0  0
 11 12  1  0  0  0  0
 11 13  2  0  0  0  0
 13 14  1  0  0  0  0
 13 15  1  0  0  0  0
 15  6  2  0  0  0  0
 15 16  1  0  0  0  0
M  END
> <ChemID>
100161

> <source_casrn>
100-51-6

> <CAS>
100-51-6

> <SMILES>
OCc1ccccc1

> <NAME>
BENZYL ALCOHOL

> <preferred_name>
Benzyl alcohol

> <iupac>
phenylmethanol

> <MPID>
99438

> <dsstox_substance_id>
DTXSID5020152

> <Canonical_QSARr>
OCc1ccccc1

> <InChI_Code_QSARr>
InChI=1S/C7H8O/c8-6-7-4-2-1-3-5-7/h1-5,8H,6H2

> <InChI Key_QSARr>
WVDDGKGOMKODPV-UHFFFAOYSA-N

> <LogKOC>
1.1

$$$$
100163
  -INDIGO-08031722282D

 17 17  0  0  0  0  0  0  0  0999 V2000
    3.2001   -0.0000    0.0000 C   0  0  0  0  0  0  0  0  0  0  0  0
    4.8000   -0.0000    0.0000 H   0  0  0  0  0  0  0  0  0  0  0  0
    2.4000    1.3856    0.0000 C   0  0  0  0  0  0  0  0  0  0  0  0
    3.2001    2.7713    0.0000 H   0  0  0  0  0  0  0  0  0  0  0  0
    0.8000    1.3856    0.0000 C   0  0  0  0  0  0  0  0  0  0  0  0
    0.0000    2.7713    0.0000 H   0  0  0  0  0  0  0  0  0  0  0  0
    0.0000   -0.0000    0.0000 C   0  0  0  0  0  0  0  0  0  0  0  0
   -1.6000   -0.0000    0.0000 N   0  0  0  0  0  0  0  0  0  0  0  0
   -2.4001   -1.3856    0.0000 H   0  0  0  0  0  0  0  0  0  0  0  0
   -2.4001    1.3856    0.0000 C   0  0  0  0  0  0  0  0  0  0  0  0
   -3.2000    2.7713    0.0000 H   0  0  0  0  0  0  0  0  0  0  0  0
   -4.0000    1.3856    0.0000 H   0  0  0  0  0  0  0  0  0  0  0  0
   -1.6000    2.7713    0.0000 H   0  0  0  0  0  0  0  0  0  0  0  0
    0.8000   -1.3856    0.0000 C   0  0  0  0  0  0  0  0  0  0  0  0
    0.0000   -2.7713    0.0000 H   0  0  0  0  0  0  0  0  0  0  0  0
    2.4000   -1.3856    0.0000 C   0  0  0  0  0  0  0  0  0  0  0  0
    3.2001   -2.7713    0.0000 H   0  0  0  0  0  0  0  0  0  0  0  0
  1  2  1  0  0  0  0
  1  3  1  0  0  0  0
  3  4  1  0  0  0  0
  3  5  2  0  0  0  0
  5  6  1  0  0  0  0
  5  7  1  0  0  0  0
  7  8  1  0  0  0  0
  8  9  1  0  0  0  0
  8 10  1  0  0  0  0
 10 11  1  0  0  0  0
 10 12  1  0  0  0  0
 10 13  1  0  0  0  0
  7 14  2  0  0  0  0
 14 15  1  0  0  0  0
 14 16  1  0  0  0  0
 16  1  2  0  0  0  0
 16 17  1  0  0  0  0
M  END
> <ChemID>
100163

> <source_casrn>
100-61-8

> <CAS>
100-61-8

> <SMILES>
CNc1ccccc1

> <NAME>
N-METHYLANILINE

> <preferred_name>
N-Methylaniline

> <iupac>
N-methylaniline

> <MPID>
99440

> <dsstox_substance_id>
DTXSID9021841

> <Canonical_QSARr>
CNc1ccccc1

> <InChI_Code_QSARr>
InChI=1S/C7H9N/c1-8-7-5-3-2-4-6-7/h2-6,8H,1H3

> <InChI Key_QSARr>
AFBPFSWMIHJQDM-UHFFFAOYSA-N

> <LogKOC>
2.28

$$$$
100164
  -INDIGO-08031722282D

 16 16  0  0  0  0  0  0  0  0999 V2000
    0.0001   -0.0000    0.0000 C   0  0  0  0  0  0  0  0  0  0  0  0
    1.3856    0.8000    0.0000 O   0  0  0  0  0  0  0  0  0  0  0  0
    2.7713   -0.0000    0.0000 C   0  0  0  0  0  0  0  0  0  0  0  0
    4.1569    0.8000    0.0000 H   0  0  0  0  0  0  0  0  0  0  0  0
    4.1569   -0.8000    0.0000 H   0  0  0  0  0  0  0  0  0  0  0  0
    2.7713    1.6000    0.0000 H   0  0  0  0  0  0  0  0  0  0  0  0
    0.0001   -1.6000    0.0000 C   0  0  0  0  0  0  0  0  0  0  0  0
    1.3856   -2.4000    0.0000 H   0  0  0  0  0  0  0  0  0  0  0  0
   -1.3856   -2.4000    0.0000 C   0  0  0  0  0  0  0  0  0  0  0  0
   -1.3856   -4.0000    0.0000 H   0  0  0  0  0  0  0  0  0  0  0  0
   -2.7712   -1.6000    0.0000 C   0  0  0  0  0  0  0  0  0  0  0  0
   -4.1569   -2.4000    0.0000 H   0  0  0  0  0  0  0  0  0  0  0  0
   -2.7712   -0.0000    0.0000 C   0  0  0  0  0  0  0  0  0  0  0  0
   -4.1569    0.8000    0.0000 H   0  0  0  0  0  0  0  0  0  0  0  0
   -1.3856    0.8000    0.0000 C   0  0  0  0  0  0  0  0  0  0  0  0
   -1.3856    2.4000    0.0000 H   0  0  0  0  0  0  0  0  0  0  0  0
  1  2  1  0  0  0  0
  2  3  1  0  0  0  0
  3  4  1  0  0  0  0
  3  5  1  0  0  0  0
  3  6  1  0  0  0  0
  1  7  1  0  0  0  0
  7  8  1  0  0  0  0
  7  9  2  0  0  0  0
  9 10  1  0  0  0  0
  9 11  1  0  0  0  0
 11 12  1  0  0  0  0
 11 13  2  0  0  0  0
 13 14  1  0  0  0  0
 13 15  1  0  0  0  0
 15  1  2  0  0  0  0
 15 16  1  0  0  0  0
M  END
> <ChemID>
100164

> <source_casrn>
100-66-3

> <CAS>
100-66-3

> <SMILES>
COc1ccccc1

> <NAME>
ANISOLE

> <preferred_name>
Anisole

> <iupac>
methoxybenzene

> <MPID>
99441

> <dsstox_substance_id>
DTXSID4041608

> <Canonical_QSARr>
COc1ccccc1

> <InChI_Code_QSARr>
InChI=1S/C7H8O/c1-8-7-5-3-2-4-6-7/h2-6H,1H3

> <InChI Key_QSARr>
RDOXTESZEPMUJZ-UHFFFAOYSA-N

> <LogKOC>
1.54

$$$$
100165
  -INDIGO-08031722282D

 21 22  0  0  0  0  0  0  0  0999 V2000
    4.1569   -4.0000    0.0000 Cl  0  0  0  0  0  0  0  0  0  0  0  0
    4.1569   -2.4000    0.0000 C   0  0  0  0  0  0  0  0  0  0  0  0
    5.5425   -1.6000    0.0000 N   0  0  0  0  0  0  0  0  0  0  0  0
    5.5425   -0.0000    0.0000 C   0  0  0  0  0  0  0  0  0  0  0  0
    6.9282    0.8000    0.0000 Cl  0  0  0  0  0  0  0  0  0  0  0  0
    4.1569    0.8000    0.0000 N   0  0  0  0  0  0  0  0  0  0  0  0
    2.7712   -0.0000    0.0000 C   0  0  0  0  0  0  0  0  0  0  0  0
    1.3857    0.8000    0.0000 N   0  0  0  0  0  0  0  0  0  0  0  0
    1.3857    2.4000    0.0000 H   0  0  0  0  0  0  0  0  0  0  0  0
    0.0001   -0.0000    0.0000 C   0  0  0  0  0  0  0  0  0  0  0  0
   -1.3856    0.8000    0.0000 C   0  0  0  0  0  0  0  0  0  0  0  0
   -1.3856    2.4000    0.0000 H   0  0  0  0  0  0  0  0  0  0  0  0
   -2.7713   -0.0000    0.0000 C   0  0  0  0  0  0  0  0  0  0  0  0
   -4.1569    0.8000    0.0000 H   0  0  0  0  0  0  0  0  0  0  0  0
   -2.7713   -1.6000    0.0000 C   0  0  0  0  0  0  0  0  0  0  0  0
   -4.1569   -2.4000    0.0000 H   0  0  0  0  0  0  0  0  0  0  0  0
   -1.3856   -2.4000    0.0000 C   0  0  0  0  0  0  0  0  0  0  0  0
   -1.3856   -4.0000    0.0000 H   0  0  0  0  0  0  0  0  0  0  0  0
    0.0001   -1.6000    0.0000 C   0  0  0  0  0  0  0  0  0  0  0  0
    1.3857   -2.4000    0.0000 Cl  0  0  0  0  0  0  0  0  0  0  0  0
    2.7712   -1.6000    0.0000 N   0  0  0  0  0  0  0  0  0  0  0  0
  1  2  1  0  0  0  0
  2  3  1  0  0  0  0
  3  4  2  0  0  0  0
  4  5  1  0  0  0  0
  4  6  1  0  0  0  0
  6  7  2  0  0  0  0
  7  8  1  0  0  0  0
  8  9  1  0  0  0  0
  8 10  1  0  0  0  0
 10 11  1  0  0  0  0
 11 12  1  0  0  0  0
 11 13  2  0  0  0  0
 13 14  1  0  0  0  0
 13 15  1  0  0  0  0
 15 16  1  0  0  0  0
 15 17  2  0  0  0  0
 17 18  1  0  0  0  0
 17 19  1  0  0  0  0
 19 10  2  0  0  0  0
 19 20  1  0  0  0  0
  7 21  1  0  0  0  0
 21  2  2  0  0  0  0
M  END
> <ChemID>
100165

> <source_casrn>
101-05-3

> <CAS>
101-05-3

> <SMILES>
Clc1ccccc1Nc1[n]c(Cl)[n]c(Cl)[n]1

> <NAME>
ANILAZINE

> <preferred_name>
Anilazine

> <iupac>
4,6-dichloro-N-(2-chlorophenyl)-1,3,5-triazin-2-amine

> <MPID>
99442

> <dsstox_substance_id>
DTXSID9020089

> <Canonical_QSARr>
Clc1ccccc1Nc1[n]c(Cl)[n]c(Cl)[n]1

> <InChI_Code_QSARr>
InChI=1S/C9H5Cl3N4/c10-5-3-1-2-4-6(5)13-9-15-7(11)14-8(12)16-9/h1-4H,(H,13,14,15,16)

> <InChI Key_QSARr>
IMHBYKMAHXWHRP-UHFFFAOYSA-N

> <LogKOC>
3.0

$$$$
100167
  -INDIGO-08031722282D

 25 25  0  0  0  0  0  0  0  0999 V2000
   -2.7714    0.0001    0.0000 C   0  0  0  0  0  0  0  0  0  0  0  0
   -1.3857    0.8000    0.0000 N   0  0  0  0  0  0  0  0  0  0  0  0
   -1.3857    2.4000    0.0000 H   0  0  0  0  0  0  0  0  0  0  0  0
    0.0000    0.0001    0.0000 C   0  0  0  0  0  0  0  0  0  0  0  0
    0.0000   -1.6001    0.0000 C   0  0  0  0  0  0  0  0  0  0  0  0
   -1.3857   -2.4000    0.0000 H   0  0  0  0  0  0  0  0  0  0  0  0
    1.3857   -2.4000    0.0000 C   0  0  0  0  0  0  0  0  0  0  0  0
    1.3857   -4.0000    0.0000 Cl  0  0  0  0  0  0  0  0  0  0  0  0
    2.7712   -1.5999    0.0000 C   0  0  0  0  0  0  0  0  0  0  0  0
    4.1569   -2.4000    0.0000 H   0  0  0  0  0  0  0  0  0  0  0  0
    2.7712    0.0001    0.0000 C   0  0  0  0  0  0  0  0  0  0  0  0
    4.1569    0.8000    0.0000 H   0  0  0  0  0  0  0  0  0  0  0  0
    1.3857    0.8000    0.0000 C   0  0  0  0  0  0  0  0  0  0  0  0
    1.3857    2.4000    0.0000 H   0  0  0  0  0  0  0  0  0  0  0  0
   -2.7714   -1.5999    0.0000 O   0  0  0  0  0  0  0  0  0  0  0  0
   -4.1568    0.8000    0.0000 O   0  0  0  0  0  0  0  0  0  0  0  0
   -5.5425    0.0001    0.0000 C   0  0  0  0  0  0  0  0  0  0  0  0
   -4.9302   -1.4782    0.0000 H   0  0  0  0  0  0  0  0  0  0  0  0
   -6.1549   -1.4782    0.0000 H   0  0  0  0  0  0  0  0  0  0  0  0
   -6.9282    0.8000    0.0000 C   0  0  0  0  0  0  0  0  0  0  0  0
   -8.3139    1.6001    0.0000 C   0  0  0  0  0  0  0  0  0  0  0  0
   -9.6994    2.4000    0.0000 C   0  0  0  0  0  0  0  0  0  0  0  0
  -11.0851    3.2001    0.0000 H   0  0  0  0  0  0  0  0  0  0  0  0
  -11.0851    1.6001    0.0000 H   0  0  0  0  0  0  0  0  0  0  0  0
   -9.6994    4.0000    0.0000 Cl  0  0  0  0  0  0  0  0  0  0  0  0
  1  2  1  0  0  0  0
  2  3  1  0  0  0  0
  2  4  1  0  0  0  0
  4  5  1  0  0  0  0
  5  6  1  0  0  0  0
  5  7  2  0  0  0  0
  7  8  1  0  0  0  0
  7  9  1  0  0  0  0
  9 10  1  0  0  0  0
  9 11  2  0  0  0  0
 11 12  1  0  0  0  0
 11 13  1  0  0  0  0
 13  4  2  0  0  0  0
 13 14  1  0  0  0  0
  1 15  2  0  0  0  0
  1 16  1  0  0  0  0
 16 17  1  0  0  0  0
 17 18  1  0  0  0  0
 17 19  1  0  0  0  0
 17 20  1  0  0  0  0
 20 21  3  0  0  0  0
 21 22  1  0  0  0  0
 22 23  1  0  0  0  0
 22 24  1  0  0  0  0
 22 25  1  0  0  0  0
M  END
> <ChemID>
100167

> <source_casrn>
101-27-9

> <CAS>
101-27-9

> <SMILES>
O=C(Nc1cc(Cl)ccc1)OCC#CCCl

> <NAME>
BARBAN

> <preferred_name>
Barban

> <iupac>
4-chlorobut-2-yn-1-yl (3-chlorophenyl)carbamate

> <MPID>
99444

> <dsstox_substance_id>
DTXSID3041617

> <Canonical_QSARr>
O=C(Nc1cc(Cl)ccc1)OCC#CCCl

> <InChI_Code_QSARr>
InChI=1S/C11H9Cl2NO2/c12-6-1-2-7-16-11(15)14-10-5-3-4-9(13)8-10/h3-5,8H,6-7H2,(H,14,15)

> <InChI Key_QSARr>
MCOQHIWZJUDQIC-UHFFFAOYSA-N

> <LogKOC>
3.06

$$$$
100168
  -INDIGO-08031722282D

 24 24  0  0  0  0  0  0  0  0999 V2000
   -1.5999    0.0000    0.0000 C   0  0  0  0  0  0  0  0  0  0  0  0
   -2.3999    1.3856    0.0000 N   0  0  0  0  0  0  0  0  0  0  0  0
   -1.5999    2.7713    0.0000 H   0  0  0  0  0  0  0  0  0  0  0  0
   -4.0001    1.3856    0.0000 C   0  0  0  0  0  0  0  0  0  0  0  0
   -4.8001    2.7713    0.0000 C   0  0  0  0  0  0  0  0  0  0  0  0
   -4.0001    4.1569    0.0000 H   0  0  0  0  0  0  0  0  0  0  0  0
   -6.4000    2.7713    0.0000 C   0  0  0  0  0  0  0  0  0  0  0  0
   -7.2000    4.1569    0.0000 H   0  0  0  0  0  0  0  0  0  0  0  0
   -7.2000    1.3856    0.0000 C   0  0  0  0  0  0  0  0  0  0  0  0
   -8.8000    1.3856    0.0000 H   0  0  0  0  0  0  0  0  0  0  0  0
   -6.4000    0.0000    0.0000 C   0  0  0  0  0  0  0  0  0  0  0  0
   -7.2000   -1.3856    0.0000 H   0  0  0  0  0  0  0  0  0  0  0  0
   -4.8001    0.0000    0.0000 C   0  0  0  0  0  0  0  0  0  0  0  0
   -4.0001   -1.3856    0.0000 H   0  0  0  0  0  0  0  0  0  0  0  0
    0.0000    0.0000    0.0000 N   0  0  0  0  0  0  0  0  0  0  0  0
    0.8000   -1.3856    0.0000 C   0  0  0  0  0  0  0  0  0  0  0  0
    1.6000   -2.7713    0.0000 H   0  0  0  0  0  0  0  0  0  0  0  0
    2.4000   -1.3856    0.0000 H   0  0  0  0  0  0  0  0  0  0  0  0
    0.0000   -2.7713    0.0000 H   0  0  0  0  0  0  0  0  0  0  0  0
    0.8000    1.3856    0.0000 C   0  0  0  0  0  0  0  0  0  0  0  0
    1.6000    2.7713    0.0000 H   0  0  0  0  0  0  0  0  0  0  0  0
    2.4000    1.3856    0.0000 H   0  0  0  0  0  0  0  0  0  0  0  0
    0.0000    2.7713    0.0000 H   0  0  0  0  0  0  0  0  0  0  0  0
   -2.3999   -1.3856    0.0000 O   0  0  0  0  0  0  0  0  0  0  0  0
  1  2  1  0  0  0  0
  2  3  1  0  0  0  0
  2  4  1  0  0  0  0
  4  5  1  0  0  0  0
  5  6  1  0  0  0  0
  5  7  2  0  0  0  0
  7  8  1  0  0  0  0
  7  9  1  0  0  0  0
  9 10  1  0  0  0  0
  9 11  2  0  0  0  0
 11 12  1  0  0  0  0
 11 13  1  0  0  0  0
 13  4  2  0  0  0  0
 13 14  1  0  0  0  0
  1 15  1  0  0  0  0
 15 16  1  0  0  0  0
 16 17  1  0  0  0  0
 16 18  1  0  0  0  0
 16 19  1  0  0  0  0
 15 20  1  0  0  0  0
 20 21  1  0  0  0  0
 20 22  1  0  0  0  0
 20 23  1  0  0  0  0
  1 24  2  0  0  0  0
M  END
> <ChemID>
100168

> <source_casrn>
101-42-8

> <CAS>
101-42-8

> <SMILES>
CN(C)C(=O)Nc1ccccc1

> <NAME>
FENURON

> <preferred_name>
Fenuron

> <iupac>
1,1-dimethyl-3-phenylurea

> <MPID>
99445

> <dsstox_substance_id>
DTXSID7037551

> <Canonical_QSARr>
CN(C)C(=O)Nc1ccccc1

> <InChI_Code_QSARr>
InChI=1S/C9H12N2O/c1-11(2)9(12)10-8-6-4-3-5-7-8/h3-7H,1-2H3,(H,10,12)

> <InChI Key_QSARr>
XXOYNJXVWVNOOJ-UHFFFAOYSA-N

> <LogKOC>
1.4

$$$$
100169
  -INDIGO-08031722282D

 23 24  0  0  0  0  0  0  0  0999 V2000
   -4.7271   -0.8335    0.0000 Br  0  0  0  0  0  0  0  0  0  0  0  0
   -3.1513   -0.5556    0.0000 C   0  0  0  0  0  0  0  0  0  0  0  0
   -2.6042    0.9479    0.0000 C   0  0  0  0  0  0  0  0  0  0  0  0
   -3.6326    2.1735    0.0000 H   0  0  0  0  0  0  0  0  0  0  0  0
   -1.0284    1.2257    0.0000 C   0  0  0  0  0  0  0  0  0  0  0  0
   -0.4813    2.7292    0.0000 H   0  0  0  0  0  0  0  0  0  0  0  0
    0.0000    0.0000    0.0000 C   0  0  0  0  0  0  0  0  0  0  0  0
    1.5756    0.2779    0.0000 O   0  0  0  0  0  0  0  0  0  0  0  0
    2.9614   -0.5221    0.0000 C   0  0  0  0  0  0  0  0  0  0  0  0
    2.9614   -2.1222    0.0000 C   0  0  0  0  0  0  0  0  0  0  0  0
    1.5756   -2.9222    0.0000 H   0  0  0  0  0  0  0  0  0  0  0  0
    4.3470   -2.9222    0.0000 C   0  0  0  0  0  0  0  0  0  0  0  0
    4.3470   -4.5222    0.0000 H   0  0  0  0  0  0  0  0  0  0  0  0
    5.7326   -2.1222    0.0000 C   0  0  0  0  0  0  0  0  0  0  0  0
    7.1183   -2.9222    0.0000 H   0  0  0  0  0  0  0  0  0  0  0  0
    5.7326   -0.5221    0.0000 C   0  0  0  0  0  0  0  0  0  0  0  0
    7.1183    0.2779    0.0000 H   0  0  0  0  0  0  0  0  0  0  0  0
    4.3470    0.2779    0.0000 C   0  0  0  0  0  0  0  0  0  0  0  0
    4.3470    1.8779    0.0000 H   0  0  0  0  0  0  0  0  0  0  0  0
   -0.5473   -1.5035    0.0000 C   0  0  0  0  0  0  0  0  0  0  0  0
    0.4812   -2.7292    0.0000 H   0  0  0  0  0  0  0  0  0  0  0  0
   -2.1229   -1.7813    0.0000 C   0  0  0  0  0  0  0  0  0  0  0  0
   -2.6702   -3.2849    0.0000 H   0  0  0  0  0  0  0  0  0  0  0  0
  1  2  1  0  0  0  0
  2  3  1  0  0  0  0
  3  4  1  0  0  0  0
  3  5  2  0  0  0  0
  5  6  1  0  0  0  0
  5  7  1  0  0  0  0
  7  8  1  0  0  0  0
  8  9  1  0  0  0  0
  9 10  1  0  0  0  0
 10 11  1  0  0  0  0
 10 12  2  0  0  0  0
 12 13  1  0  0  0  0
 12 14  1  0  0  0  0
 14 15  1  0  0  0  0
 14 16  2  0  0  0  0
 16 17  1  0  0  0  0
 16 18  1  0  0  0  0
 18  9  2  0  0  0  0
 18 19  1  0  0  0  0
  7 20  2  0  0  0  0
 20 21  1  0  0  0  0
 20 22  1  0  0  0  0
 22  2  2  0  0  0  0
 22 23  1  0  0  0  0
M  END
> <ChemID>
100169

> <source_casrn>
101-55-3

> <CAS>
101-55-3

> <SMILES>
Brc1ccc(cc1)Oc1ccccc1

> <NAME>
4-BROMOPHENYL PHENYL ETHER

> <preferred_name>
p-Bromodiphenyl ether

> <iupac>
1-bromo-4-phenoxybenzene

> <MPID>
99446

> <dsstox_substance_id>
DTXSID8023927

> <Canonical_QSARr>
Brc1ccc(cc1)Oc1ccccc1

> <InChI_Code_QSARr>
InChI=1S/C12H9BrO/c13-10-6-8-12(9-7-10)14-11-4-2-1-3-5-11/h1-9H

> <InChI Key_QSARr>
JDUYPUMQALQRCN-UHFFFAOYSA-N

> <LogKOC>
4.23

$$$$
100171
  -INDIGO-08031722282D

 29 30  0  0  0  0  0  0  0  0999 V2000
    4.7272   -0.8335    0.0000 C   0  0  0  0  0  0  0  0  0  0  0  0
    6.3027   -1.1113    0.0000 N   0  0  0  0  0  0  0  0  0  0  0  0
    7.3312    0.1143    0.0000 H   0  0  0  0  0  0  0  0  0  0  0  0
    6.8499   -2.6148    0.0000 H   0  0  0  0  0  0  0  0  0  0  0  0
    4.1799    0.6700    0.0000 C   0  0  0  0  0  0  0  0  0  0  0  0
    5.2083    1.8957    0.0000 H   0  0  0  0  0  0  0  0  0  0  0  0
    2.6042    0.9479    0.0000 C   0  0  0  0  0  0  0  0  0  0  0  0
    2.0570    2.4513    0.0000 H   0  0  0  0  0  0  0  0  0  0  0  0
    1.5757   -0.2778    0.0000 C   0  0  0  0  0  0  0  0  0  0  0  0
   -0.0001    0.0000    0.0000 C   0  0  0  0  0  0  0  0  0  0  0  0
   -0.8598    1.3494    0.0000 H   0  0  0  0  0  0  0  0  0  0  0  0
    0.3463    1.5621    0.0000 H   0  0  0  0  0  0  0  0  0  0  0  0
   -1.3857   -0.8000    0.0000 C   0  0  0  0  0  0  0  0  0  0  0  0
   -1.3857   -2.4000    0.0000 C   0  0  0  0  0  0  0  0  0  0  0  0
   -0.0001   -3.2000    0.0000 H   0  0  0  0  0  0  0  0  0  0  0  0
   -2.7712   -3.2000    0.0000 C   0  0  0  0  0  0  0  0  0  0  0  0
   -2.7712   -4.8000    0.0000 H   0  0  0  0  0  0  0  0  0  0  0  0
   -4.1568   -2.4000    0.0000 C   0  0  0  0  0  0  0  0  0  0  0  0
   -5.5426   -3.2000    0.0000 N   0  0  0  0  0  0  0  0  0  0  0  0
   -5.5426   -4.8000    0.0000 H   0  0  0  0  0  0  0  0  0  0  0  0
   -6.9282   -2.4000    0.0000 H   0  0  0  0  0  0  0  0  0  0  0  0
   -4.1568   -0.8000    0.0000 C   0  0  0  0  0  0  0  0  0  0  0  0
   -5.5426    0.0000    0.0000 H   0  0  0  0  0  0  0  0  0  0  0  0
   -2.7712    0.0000    0.0000 C   0  0  0  0  0  0  0  0  0  0  0  0
   -2.7712    1.6000    0.0000 H   0  0  0  0  0  0  0  0  0  0  0  0
    2.1229   -1.7813    0.0000 C   0  0  0  0  0  0  0  0  0  0  0  0
    1.0944   -3.0071    0.0000 H   0  0  0  0  0  0  0  0  0  0  0  0
    3.6986   -2.0591    0.0000 C   0  0  0  0  0  0  0  0  0  0  0  0
    4.2459   -3.5627    0.0000 H   0  0  0  0  0  0  0  0  0  0  0  0
  1  2  1  0  0  0  0
  2  3  1  0  0  0  0
  2  4  1  0  0  0  0
  1  5  1  0  0  0  0
  5  6  1  0  0  0  0
  5  7  2  0  0  0  0
  7  8  1  0  0  0  0
  7  9  1  0  0  0  0
  9 10  1  0  0  0  0
 10 11  1  0  0  0  0
 10 12  1  0  0  0  0
 10 13  1  0  0  0  0
 13 14  1  0  0  0  0
 14 15  1  0  0  0  0
 14 16  2  0  0  0  0
 16 17  1  0  0  0  0
 16 18  1  0  0  0  0
 18 19  1  0  0  0  0
 19 20  1  0  0  0  0
 19 21  1  0  0  0  0
 18 22  2  0  0  0  0
 22 23  1  0  0  0  0
 22 24  1  0  0  0  0
 24 13  2  0  0  0  0
 24 25  1  0  0  0  0
  9 26  2  0  0  0  0
 26 27  1  0  0  0  0
 26 28  1  0  0  0  0
 28  1  2  0  0  0  0
 28 29  1  0  0  0  0
M  END
> <ChemID>
100171

> <source_casrn>
101-77-9

> <CAS>
101-77-9

> <SMILES>
Nc1ccc(Cc2ccc(N)cc2)cc1

> <NAME>
DI-(P-AMINOPHENYL)METHANE

> <preferred_name>
4,4'-Methylenedianiline

> <iupac>
C13H14N2

> <MPID>
99448

> <dsstox_substance_id>
DTXSID6022422

> <Canonical_QSARr>
Nc1ccc(Cc2ccc(N)cc2)cc1

> <InChI_Code_QSARr>
InChI=1S/C13H14N2/c14-12-5-1-10(2-6-12)9-11-3-7-13(15)8-4-11/h1-8H,9,14-15H2

> <InChI Key_QSARr>
YBRVSVVVWCFQMG-UHFFFAOYSA-N

> <LogKOC>
1.99

$$$$
100172
  -INDIGO-08031722282D

 23 24  0  0  0  0  0  0  0  0999 V2000
   -0.5473   -1.5035    0.0000 C   0  0  0  0  0  0  0  0  0  0  0  0
    0.4812   -2.7292    0.0000 H   0  0  0  0  0  0  0  0  0  0  0  0
   -2.1229   -1.7813    0.0000 C   0  0  0  0  0  0  0  0  0  0  0  0
   -2.6702   -3.2849    0.0000 H   0  0  0  0  0  0  0  0  0  0  0  0
   -3.1513   -0.5556    0.0000 C   0  0  0  0  0  0  0  0  0  0  0  0
   -4.7271   -0.8335    0.0000 H   0  0  0  0  0  0  0  0  0  0  0  0
   -2.6042    0.9479    0.0000 C   0  0  0  0  0  0  0  0  0  0  0  0
   -3.6326    2.1735    0.0000 H   0  0  0  0  0  0  0  0  0  0  0  0
   -1.0284    1.2257    0.0000 C   0  0  0  0  0  0  0  0  0  0  0  0
   -0.4813    2.7292    0.0000 H   0  0  0  0  0  0  0  0  0  0  0  0
    0.0000    0.0000    0.0000 C   0  0  0  0  0  0  0  0  0  0  0  0
    1.5756    0.2779    0.0000 O   0  0  0  0  0  0  0  0  0  0  0  0
    2.9614   -0.5221    0.0000 C   0  0  0  0  0  0  0  0  0  0  0  0
    2.9614   -2.1222    0.0000 C   0  0  0  0  0  0  0  0  0  0  0  0
    1.5756   -2.9222    0.0000 H   0  0  0  0  0  0  0  0  0  0  0  0
    4.3470   -2.9222    0.0000 C   0  0  0  0  0  0  0  0  0  0  0  0
    4.3470   -4.5222    0.0000 H   0  0  0  0  0  0  0  0  0  0  0  0
    5.7326   -2.1222    0.0000 C   0  0  0  0  0  0  0  0  0  0  0  0
    7.1183   -2.9222    0.0000 H   0  0  0  0  0  0  0  0  0  0  0  0
    5.7326   -0.5221    0.0000 C   0  0  0  0  0  0  0  0  0  0  0  0
    7.1183    0.2779    0.0000 H   0  0  0  0  0  0  0  0  0  0  0  0
    4.3470    0.2779    0.0000 C   0  0  0  0  0  0  0  0  0  0  0  0
    4.3470    1.8779    0.0000 H   0  0  0  0  0  0  0  0  0  0  0  0
  1  2  1  0  0  0  0
  1  3  1  0  0  0  0
  3  4  1  0  0  0  0
  3  5  2  0  0  0  0
  5  6  1  0  0  0  0
  5  7  1  0  0  0  0
  7  8  1  0  0  0  0
  7  9  2  0  0  0  0
  9 10  1  0  0  0  0
  9 11  1  0  0  0  0
 11  1  2  0  0  0  0
 11 12  1  0  0  0  0
 12 13  1  0  0  0  0
 13 14  1  0  0  0  0
 14 15  1  0  0  0  0
 14 16  2  0  0  0  0
 16 17  1  0  0  0  0
 16 18  1  0  0  0  0
 18 19  1  0  0  0  0
 18 20  2  0  0  0  0
 20 21  1  0  0  0  0
 20 22  1  0  0  0  0
 22 13  2  0  0  0  0
 22 23  1  0  0  0  0
M  END
> <ChemID>
100172

> <source_casrn>
101-84-8

> <CAS>
101-84-8

> <SMILES>
c1ccccc1Oc1ccccc1

> <NAME>
DIPHENYL ETHER

> <preferred_name>
Diphenyl oxide

> <iupac>
diphenyl ether

> <MPID>
99449

> <dsstox_substance_id>
DTXSID9021847

> <Canonical_QSARr>
c1ccccc1Oc1ccccc1

> <InChI_Code_QSARr>
InChI=1S/C12H10O/c1-3-7-11(8-4-1)13-12-9-5-2-6-10-12/h1-10H

> <InChI Key_QSARr>
USIUVYZYUHIAEV-UHFFFAOYSA-N

> <LogKOC>
3.29

$$$$
100173
  -INDIGO-08031722282D

 24 24  0  0  0  0  0  0  0  0999 V2000
    0.0000   -0.0000    0.0000 C   0  0  0  0  0  0  0  0  0  0  0  0
    0.0000   -1.6000    0.0000 C   0  0  0  0  0  0  0  0  0  0  0  0
    1.3857   -2.4000    0.0000 H   0  0  0  0  0  0  0  0  0  0  0  0
   -1.3857   -2.4000    0.0000 C   0  0  0  0  0  0  0  0  0  0  0  0
   -1.3857   -4.0000    0.0000 H   0  0  0  0  0  0  0  0  0  0  0  0
   -2.7712   -1.6000    0.0000 C   0  0  0  0  0  0  0  0  0  0  0  0
   -4.1569   -2.4000    0.0000 H   0  0  0  0  0  0  0  0  0  0  0  0
   -2.7712   -0.0000    0.0000 C   0  0  0  0  0  0  0  0  0  0  0  0
   -4.1569    0.8000    0.0000 H   0  0  0  0  0  0  0  0  0  0  0  0
   -1.3857    0.8000    0.0000 C   0  0  0  0  0  0  0  0  0  0  0  0
   -1.3857    2.4000    0.0000 H   0  0  0  0  0  0  0  0  0  0  0  0
    1.3857    0.8000    0.0000 C   0  0  0  0  0  0  0  0  0  0  0  0
    1.9979    2.2782    0.0000 H   0  0  0  0  0  0  0  0  0  0  0  0
    0.7733    2.2782    0.0000 H   0  0  0  0  0  0  0  0  0  0  0  0
    2.7712   -0.0000    0.0000 C   0  0  0  0  0  0  0  0  0  0  0  0
    2.7712   -1.6000    0.0000 O   0  0  0  0  0  0  0  0  0  0  0  0
    4.1569    0.8000    0.0000 O   0  0  0  0  0  0  0  0  0  0  0  0
    5.5426   -0.0000    0.0000 C   0  0  0  0  0  0  0  0  0  0  0  0
    4.9303   -1.4782    0.0000 H   0  0  0  0  0  0  0  0  0  0  0  0
    6.1548   -1.4782    0.0000 H   0  0  0  0  0  0  0  0  0  0  0  0
    6.9281    0.8000    0.0000 C   0  0  0  0  0  0  0  0  0  0  0  0
    8.3138    1.6000    0.0000 H   0  0  0  0  0  0  0  0  0  0  0  0
    8.3138   -0.0000    0.0000 H   0  0  0  0  0  0  0  0  0  0  0  0
    6.9281    2.4000    0.0000 H   0  0  0  0  0  0  0  0  0  0  0  0
  1  2  1  0  0  0  0
  2  3  1  0  0  0  0
  2  4  2  0  0  0  0
  4  5  1  0  0  0  0
  4  6  1  0  0  0  0
  6  7  1  0  0  0  0
  6  8  2  0  0  0  0
  8  9  1  0  0  0  0
  8 10  1  0  0  0  0
 10  1  2  0  0  0  0
 10 11  1  0  0  0  0
  1 12  1  0  0  0  0
 12 13  1  0  0  0  0
 12 14  1  0  0  0  0
 12 15  1  0  0  0  0
 15 16  2  0  0  0  0
 15 17  1  0  0  0  0
 17 18  1  0  0  0  0
 18 19  1  0  0  0  0
 18 20  1  0  0  0  0
 18 21  1  0  0  0  0
 21 22  1  0  0  0  0
 21 23  1  0  0  0  0
 21 24  1  0  0  0  0
M  END
> <ChemID>
100173

> <source_casrn>
101-97-3

> <CAS>
101-97-3

> <SMILES>
CCOC(=O)Cc1ccccc1

> <NAME>
BENZENEACETIC ACID, ETHYL ESTER

> <preferred_name>
Ethyl phenylacetate

> <iupac>
ethyl phenylacetate

> <MPID>
99450

> <dsstox_substance_id>
DTXSID6044353

> <Canonical_QSARr>
CCOC(=O)Cc1ccccc1

> <InChI_Code_QSARr>
InChI=1S/C10H12O2/c1-2-12-10(11)8-9-6-4-3-5-7-9/h3-7H,2,8H2,1H3

> <InChI Key_QSARr>
DULCUDSUACXJJC-UHFFFAOYSA-N

> <LogKOC>
1.89

$$$$
100175
  -INDIGO-08031722282D

 68 67  0  0  0  0  0  0  0  0999 V2000
    0.4811    2.7291    0.0000 C   0  0  0  0  0  0  0  0  0  0  0  0
    1.5097    3.9548    0.0000 H   0  0  0  0  0  0  0  0  0  0  0  0
   -0.0660    4.2327    0.0000 H   0  0  0  0  0  0  0  0  0  0  0  0
    2.0569    2.4514    0.0000 H   0  0  0  0  0  0  0  0  0  0  0  0
   -0.5471    1.5035    0.0000 C   0  0  0  0  0  0  0  0  0  0  0  0
   -1.8966    2.3633    0.0000 H   0  0  0  0  0  0  0  0  0  0  0  0
   -2.1091    1.1573    0.0000 H   0  0  0  0  0  0  0  0  0  0  0  0
    0.0001    0.0001    0.0000 C   0  0  0  0  0  0  0  0  0  0  0  0
    1.3856    0.8001    0.0000 H   0  0  0  0  0  0  0  0  0  0  0  0
   -1.3858   -0.8000    0.0000 C   0  0  0  0  0  0  0  0  0  0  0  0
   -1.9980   -2.2782    0.0000 H   0  0  0  0  0  0  0  0  0  0  0  0
   -0.7733   -2.2782    0.0000 H   0  0  0  0  0  0  0  0  0  0  0  0
   -2.7714    0.0001    0.0000 O   0  0  0  0  0  0  0  0  0  0  0  0
   -4.1569   -0.8000    0.0000 C   0  0  0  0  0  0  0  0  0  0  0  0
   -4.1569   -2.4000    0.0000 O   0  0  0  0  0  0  0  0  0  0  0  0
   -5.5424    0.0001    0.0000 C   0  0  0  0  0  0  0  0  0  0  0  0
   -4.9303    1.4782    0.0000 H   0  0  0  0  0  0  0  0  0  0  0  0
   -6.1550    1.4782    0.0000 H   0  0  0  0  0  0  0  0  0  0  0  0
   -6.9284   -0.8000    0.0000 C   0  0  0  0  0  0  0  0  0  0  0  0
   -7.5405   -2.2782    0.0000 H   0  0  0  0  0  0  0  0  0  0  0  0
   -6.3158   -2.2782    0.0000 H   0  0  0  0  0  0  0  0  0  0  0  0
   -8.3139    0.0001    0.0000 C   0  0  0  0  0  0  0  0  0  0  0  0
   -7.7014    1.4782    0.0000 H   0  0  0  0  0  0  0  0  0  0  0  0
   -8.9260    1.4782    0.0000 H   0  0  0  0  0  0  0  0  0  0  0  0
   -9.6994   -0.8000    0.0000 C   0  0  0  0  0  0  0  0  0  0  0  0
  -10.3120   -2.2782    0.0000 H   0  0  0  0  0  0  0  0  0  0  0  0
   -9.0873   -2.2782    0.0000 H   0  0  0  0  0  0  0  0  0  0  0  0
  -11.0850    0.0001    0.0000 C   0  0  0  0  0  0  0  0  0  0  0  0
  -11.0850    1.6001    0.0000 O   0  0  0  0  0  0  0  0  0  0  0  0
  -12.4709   -0.8000    0.0000 O   0  0  0  0  0  0  0  0  0  0  0  0
  -13.8564    0.0001    0.0000 C   0  0  0  0  0  0  0  0  0  0  0  0
  -13.2443    1.4782    0.0000 H   0  0  0  0  0  0  0  0  0  0  0  0
  -14.4686    1.4782    0.0000 H   0  0  0  0  0  0  0  0  0  0  0  0
  -15.2420   -0.8000    0.0000 C   0  0  0  0  0  0  0  0  0  0  0  0
  -14.2138   -2.0256    0.0000 H   0  0  0  0  0  0  0  0  0  0  0  0
  -16.2706   -2.0256    0.0000 C   0  0  0  0  0  0  0  0  0  0  0  0
  -15.7895   -3.5516    0.0000 H   0  0  0  0  0  0  0  0  0  0  0  0
  -14.8514   -2.7644    0.0000 H   0  0  0  0  0  0  0  0  0  0  0  0
  -17.7739   -2.5729    0.0000 C   0  0  0  0  0  0  0  0  0  0  0  0
  -18.5128   -1.1537    0.0000 H   0  0  0  0  0  0  0  0  0  0  0  0
  -19.2999   -2.0918    0.0000 H   0  0  0  0  0  0  0  0  0  0  0  0
  -18.0518   -4.1486    0.0000 C   0  0  0  0  0  0  0  0  0  0  0  0
  -17.3132   -5.5678    0.0000 H   0  0  0  0  0  0  0  0  0  0  0  0
  -16.5257   -4.6297    0.0000 H   0  0  0  0  0  0  0  0  0  0  0  0
  -19.5555   -4.6959    0.0000 C   0  0  0  0  0  0  0  0  0  0  0  0
  -21.0589   -5.2430    0.0000 H   0  0  0  0  0  0  0  0  0  0  0  0
  -19.8330   -6.2715    0.0000 H   0  0  0  0  0  0  0  0  0  0  0  0
  -20.7810   -3.6674    0.0000 H   0  0  0  0  0  0  0  0  0  0  0  0
  -16.2706    0.4257    0.0000 C   0  0  0  0  0  0  0  0  0  0  0  0
  -17.8326    0.7721    0.0000 H   0  0  0  0  0  0  0  0  0  0  0  0
  -17.6201   -0.4339    0.0000 H   0  0  0  0  0  0  0  0  0  0  0  0
  -15.7234    1.9293    0.0000 C   0  0  0  0  0  0  0  0  0  0  0  0
  -16.7516    3.1549    0.0000 H   0  0  0  0  0  0  0  0  0  0  0  0
  -15.1762    3.4327    0.0000 H   0  0  0  0  0  0  0  0  0  0  0  0
  -17.2991    1.6513    0.0000 H   0  0  0  0  0  0  0  0  0  0  0  0
    1.0283   -1.2256    0.0000 C   0  0  0  0  0  0  0  0  0  0  0  0
    2.0025    0.0436    0.0000 H   0  0  0  0  0  0  0  0  0  0  0  0
    2.6146   -1.0168    0.0000 H   0  0  0  0  0  0  0  0  0  0  0  0
    1.3062   -2.8014    0.0000 C   0  0  0  0  0  0  0  0  0  0  0  0
    0.5676   -4.2206    0.0000 H   0  0  0  0  0  0  0  0  0  0  0  0
   -0.2195   -3.2826    0.0000 H   0  0  0  0  0  0  0  0  0  0  0  0
    2.8099   -3.3486    0.0000 C   0  0  0  0  0  0  0  0  0  0  0  0
    3.5485   -1.9293    0.0000 H   0  0  0  0  0  0  0  0  0  0  0  0
    4.3356   -2.8674    0.0000 H   0  0  0  0  0  0  0  0  0  0  0  0
    3.0878   -4.9243    0.0000 C   0  0  0  0  0  0  0  0  0  0  0  0
    3.3653   -6.5000    0.0000 H   0  0  0  0  0  0  0  0  0  0  0  0
    4.5912   -5.4715    0.0000 H   0  0  0  0  0  0  0  0  0  0  0  0
    1.8620   -5.9528    0.0000 H   0  0  0  0  0  0  0  0  0  0  0  0
  1  2  1  0  0  0  0
  1  3  1  0  0  0  0
  1  4  1  0  0  0  0
  1  5  1  0  0  0  0
  5  6  1  0  0  0  0
  5  7  1  0  0  0  0
  5  8  1  0  0  0  0
  8  9  1  0  0  0  0
  8 10  1  0  0  0  0
 10 11  1  0  0  0  0
 10 12  1  0  0  0  0
 10 13  1  0  0  0  0
 13 14  1  0  0  0  0
 14 15  2  0  0  0  0
 14 16  1  0  0  0  0
 16 17  1  0  0  0  0
 16 18  1  0  0  0  0
 16 19  1  0  0  0  0
 19 20  1  0  0  0  0
 19 21  1  0  0  0  0
 19 22  1  0  0  0  0
 22 23  1  0  0  0  0
 22 24  1  0  0  0  0
 22 25  1  0  0  0  0
 25 26  1  0  0  0  0
 25 27  1  0  0  0  0
 25 28  1  0  0  0  0
 28 29  2  0  0  0  0
 28 30  1  0  0  0  0
 30 31  1  0  0  0  0
 31 32  1  0  0  0  0
 31 33  1  0  0  0  0
 31 34  1  0  0  0  0
 34 35  1  0  0  0  0
 34 36  1  0  0  0  0
 36 37  1  0  0  0  0
 36 38  1  0  0  0  0
 36 39  1  0  0  0  0
 39 40  1  0  0  0  0
 39 41  1  0  0  0  0
 39 42  1  0  0  0  0
 42 43  1  0  0  0  0
 42 44  1  0  0  0  0
 42 45  1  0  0  0  0
 45 46  1  0  0  0  0
 45 47  1  0  0  0  0
 45 48  1  0  0  0  0
 34 49  1  0  0  0  0
 49 50  1  0  0  0  0
 49 51  1  0  0  0  0
 49 52  1  0  0  0  0
 52 53  1  0  0  0  0
 52 54  1  0  0  0  0
 52 55  1  0  0  0  0
  8 56  1  0  0  0  0
 56 57  1  0  0  0  0
 56 58  1  0  0  0  0
 56 59  1  0  0  0  0
 59 60  1  0  0  0  0
 59 61  1  0  0  0  0
 59 62  1  0  0  0  0
 62 63  1  0  0  0  0
 62 64  1  0  0  0  0
 62 65  1  0  0  0  0
 65 66  1  0  0  0  0
 65 67  1  0  0  0  0
 65 68  1  0  0  0  0
M  END
> <ChemID>
100175

> <source_casrn>
103-23-1

> <CAS>
103-23-1

> <SMILES>
O=C(OCC(CCCC)CC)CCCCC(=O)OCC(CCCC)CC

> <NAME>
DI-2-ETHYLHEXYL ADIPATE

> <preferred_name>
Di(2-ethylhexyl) adipate

> <iupac>
bis(2-ethylhexyl) hexanedioate

> <MPID>
99452

> <dsstox_substance_id>
DTXSID0020606

> <Canonical_QSARr>
CCCCC(COC(=O)CCCCC(=O)OCC(CCCC)CC)CC

> <InChI_Code_QSARr>
InChI=1S/C22H42O4/c1-5-9-13-19(7-3)17-25-21(23)15-11-12-16-22(24)26-18-20(8-4)14-10-6-2/h19-20H,5-18H2,1-4H3

> <InChI Key_QSARr>
SAOKZLXYCUGLFA-UHFFFAOYSA-N

> <LogKOC>
4.19

$$$$
100176
  -INDIGO-08031722282D

 24 25  0  0  0  0  0  0  0  0999 V2000
    1.3857    0.8000    0.0000 N   0  0  0  0  0  0  0  0  0  0  0  0
    2.7712    0.0000    0.0000 N   0  0  0  0  0  0  0  0  0  0  0  0
    4.1569    0.8000    0.0000 C   0  0  0  0  0  0  0  0  0  0  0  0
    4.1569    2.4000    0.0000 C   0  0  0  0  0  0  0  0  0  0  0  0
    2.7712    3.2001    0.0000 H   0  0  0  0  0  0  0  0  0  0  0  0
    5.5426    3.2001    0.0000 C   0  0  0  0  0  0  0  0  0  0  0  0
    5.5426    4.8000    0.0000 H   0  0  0  0  0  0  0  0  0  0  0  0
    6.9281    2.4000    0.0000 C   0  0  0  0  0  0  0  0  0  0  0  0
    8.3138    3.2001    0.0000 H   0  0  0  0  0  0  0  0  0  0  0  0
    6.9281    0.8000    0.0000 C   0  0  0  0  0  0  0  0  0  0  0  0
    8.3138    0.0000    0.0000 H   0  0  0  0  0  0  0  0  0  0  0  0
    5.5426    0.0000    0.0000 C   0  0  0  0  0  0  0  0  0  0  0  0
    5.5426   -1.6000    0.0000 H   0  0  0  0  0  0  0  0  0  0  0  0
    0.0000    0.0000    0.0000 C   0  0  0  0  0  0  0  0  0  0  0  0
    0.0000   -1.6000    0.0000 C   0  0  0  0  0  0  0  0  0  0  0  0
    1.3857   -2.4001    0.0000 H   0  0  0  0  0  0  0  0  0  0  0  0
   -1.3857   -2.4001    0.0000 C   0  0  0  0  0  0  0  0  0  0  0  0
   -1.3857   -4.0000    0.0000 H   0  0  0  0  0  0  0  0  0  0  0  0
   -2.7712   -1.6000    0.0000 C   0  0  0  0  0  0  0  0  0  0  0  0
   -4.1569   -2.4001    0.0000 H   0  0  0  0  0  0  0  0  0  0  0  0
   -2.7712    0.0000    0.0000 C   0  0  0  0  0  0  0  0  0  0  0  0
   -4.1569    0.8000    0.0000 H   0  0  0  0  0  0  0  0  0  0  0  0
   -1.3857    0.8000    0.0000 C   0  0  0  0  0  0  0  0  0  0  0  0
   -1.3857    2.4000    0.0000 H   0  0  0  0  0  0  0  0  0  0  0  0
  1  2  2  0  0  0  0
  2  3  1  0  0  0  0
  3  4  1  0  0  0  0
  4  5  1  0  0  0  0
  4  6  2  0  0  0  0
  6  7  1  0  0  0  0
  6  8  1  0  0  0  0
  8  9  1  0  0  0  0
  8 10  2  0  0  0  0
 10 11  1  0  0  0  0
 10 12  1  0  0  0  0
 12  3  2  0  0  0  0
 12 13  1  0  0  0  0
  1 14  1  0  0  0  0
 14 15  1  0  0  0  0
 15 16  1  0  0  0  0
 15 17  2  0  0  0  0
 17 18  1  0  0  0  0
 17 19  1  0  0  0  0
 19 20  1  0  0  0  0
 19 21  2  0  0  0  0
 21 22  1  0  0  0  0
 21 23  1  0  0  0  0
 23 14  2  0  0  0  0
 23 24  1  0  0  0  0
M  END
> <ChemID>
100176

> <source_casrn>
103-33-3

> <CAS>
103-33-3

> <SMILES>
c1ccccc1N=Nc1ccccc1

> <NAME>
AZOBENZENE

> <preferred_name>
Azobenzene

> <iupac>
diphenyldiazene

> <MPID>
99453

> <dsstox_substance_id>
DTXSID8020123

> <Canonical_QSARr>
c1ccccc1N=Nc1ccccc1

> <InChI_Code_QSARr>
InChI=1S/C12H10N2/c1-3-7-11(8-4-1)13-14-12-9-5-2-6-10-12/h1-10H/b14-13+

> <InChI Key_QSARr>
DMLAVOWQYNRWNQ-BUHFOSPRSA-N

> <LogKOC>
3.3

$$$$
100177
  -INDIGO-08031722282D

 24 24  0  0  0  0  0  0  0  0999 V2000
   -1.3856   -0.8000    0.0000 C   0  0  0  0  0  0  0  0  0  0  0  0
    0.0001   -0.0000    0.0000 C   0  0  0  0  0  0  0  0  0  0  0  0
    0.6122    1.4782    0.0000 H   0  0  0  0  0  0  0  0  0  0  0  0
   -0.6123    1.4782    0.0000 H   0  0  0  0  0  0  0  0  0  0  0  0
    1.3856   -0.8000    0.0000 C   0  0  0  0  0  0  0  0  0  0  0  0
    0.7734   -2.2782    0.0000 H   0  0  0  0  0  0  0  0  0  0  0  0
    1.9979   -2.2782    0.0000 H   0  0  0  0  0  0  0  0  0  0  0  0
    2.7713   -0.0000    0.0000 O   0  0  0  0  0  0  0  0  0  0  0  0
    4.1570   -0.8000    0.0000 C   0  0  0  0  0  0  0  0  0  0  0  0
    4.1570   -2.4000    0.0000 O   0  0  0  0  0  0  0  0  0  0  0  0
    5.5425   -0.0000    0.0000 C   0  0  0  0  0  0  0  0  0  0  0  0
    6.9282    0.8000    0.0000 H   0  0  0  0  0  0  0  0  0  0  0  0
    6.9282   -0.8000    0.0000 H   0  0  0  0  0  0  0  0  0  0  0  0
    5.5425    1.6000    0.0000 H   0  0  0  0  0  0  0  0  0  0  0  0
   -1.3856   -2.4000    0.0000 C   0  0  0  0  0  0  0  0  0  0  0  0
    0.0001   -3.2000    0.0000 H   0  0  0  0  0  0  0  0  0  0  0  0
   -2.7713   -3.2000    0.0000 C   0  0  0  0  0  0  0  0  0  0  0  0
   -2.7713   -4.8000    0.0000 H   0  0  0  0  0  0  0  0  0  0  0  0
   -4.1569   -2.4000    0.0000 C   0  0  0  0  0  0  0  0  0  0  0  0
   -5.5426   -3.2000    0.0000 H   0  0  0  0  0  0  0  0  0  0  0  0
   -4.1569   -0.8000    0.0000 C   0  0  0  0  0  0  0  0  0  0  0  0
   -5.5426   -0.0000    0.0000 H   0  0  0  0  0  0  0  0  0  0  0  0
   -2.7713   -0.0000    0.0000 C   0  0  0  0  0  0  0  0  0  0  0  0
   -2.7713    1.6000    0.0000 H   0  0  0  0  0  0  0  0  0  0  0  0
  1  2  1  0  0  0  0
  2  3  1  0  0  0  0
  2  4  1  0  0  0  0
  2  5  1  0  0  0  0
  5  6  1  0  0  0  0
  5  7  1  0  0  0  0
  5  8  1  0  0  0  0
  8  9  1  0  0  0  0
  9 10  2  0  0  0  0
  9 11  1  0  0  0  0
 11 12  1  0  0  0  0
 11 13  1  0  0  0  0
 11 14  1  0  0  0  0
  1 15  1  0  0  0  0
 15 16  1  0  0  0  0
 15 17  2  0  0  0  0
 17 18  1  0  0  0  0
 17 19  1  0  0  0  0
 19 20  1  0  0  0  0
 19 21  2  0  0  0  0
 21 22  1  0  0  0  0
 21 23  1  0  0  0  0
 23  1  2  0  0  0  0
 23 24  1  0  0  0  0
M  END
> <ChemID>
100177

> <source_casrn>
103-45-7

> <CAS>
103-45-7

> <SMILES>
CC(=O)OCCc1ccccc1

> <NAME>
B-PHENYLETHYL ACETATE

> <preferred_name>
2-Phenylethyl acetate

> <iupac>
2-phenylethyl acetate

> <MPID>
99454

> <dsstox_substance_id>
DTXSID7044506

> <Canonical_QSARr>
CC(=O)OCCc1ccccc1

> <InChI_Code_QSARr>
InChI=1S/C10H12O2/c1-9(11)12-8-7-10-5-3-2-4-6-10/h2-6H,7-8H2,1H3

> <InChI Key_QSARr>
MDHYEMXUFSJLGV-UHFFFAOYSA-N

> <LogKOC>
1.89

$$$$
100179
  -INDIGO-08031722282D

 18 18  0  0  0  0  0  0  0  0999 V2000
   -1.3857   -0.8000    0.0000 C   0  0  0  0  0  0  0  0  0  0  0  0
   -0.7734   -2.2782    0.0000 H   0  0  0  0  0  0  0  0  0  0  0  0
   -1.9980   -2.2782    0.0000 H   0  0  0  0  0  0  0  0  0  0  0  0
   -0.0001   -0.0000    0.0000 C   0  0  0  0  0  0  0  0  0  0  0  0
   -0.6124    1.4782    0.0000 H   0  0  0  0  0  0  0  0  0  0  0  0
    0.6122    1.4782    0.0000 H   0  0  0  0  0  0  0  0  0  0  0  0
    1.3857   -0.8000    0.0000 C   0  0  0  0  0  0  0  0  0  0  0  0
    1.3857   -2.4000    0.0000 N   0  0  0  0  0  0  0  0  0  0  0  0
    2.7713   -3.2000    0.0000 C   0  0  0  0  0  0  0  0  0  0  0  0
    2.7713   -4.8000    0.0000 H   0  0  0  0  0  0  0  0  0  0  0  0
    4.1569   -2.4000    0.0000 C   0  0  0  0  0  0  0  0  0  0  0  0
    5.5426   -3.2000    0.0000 H   0  0  0  0  0  0  0  0  0  0  0  0
    4.1569   -0.8000    0.0000 C   0  0  0  0  0  0  0  0  0  0  0  0
    5.5426   -0.0000    0.0000 H   0  0  0  0  0  0  0  0  0  0  0  0
    2.7713   -0.0000    0.0000 C   0  0  0  0  0  0  0  0  0  0  0  0
    2.7713    1.6000    0.0000 H   0  0  0  0  0  0  0  0  0  0  0  0
   -2.7713   -0.0000    0.0000 O   0  0  0  0  0  0  0  0  0  0  0  0
   -4.1569   -0.8000    0.0000 H   0  0  0  0  0  0  0  0  0  0  0  0
  1  2  1  0  0  0  0
  1  3  1  0  0  0  0
  1  4  1  0  0  0  0
  4  5  1  0  0  0  0
  4  6  1  0  0  0  0
  4  7  1  0  0  0  0
  7  8  1  0  0  0  0
  8  9  2  0  0  0  0
  9 10  1  0  0  0  0
  9 11  1  0  0  0  0
 11 12  1  0  0  0  0
 11 13  2  0  0  0  0
 13 14  1  0  0  0  0
 13 15  1  0  0  0  0
 15  7  2  0  0  0  0
 15 16  1  0  0  0  0
  1 17  1  0  0  0  0
 17 18  1  0  0  0  0
M  END
> <ChemID>
100179

> <source_casrn>
103-74-2

> <CAS>
103-74-2

> <SMILES>
OCCc1cccc[n]1

> <NAME>
2-PYRIDINEETHANOL

> <preferred_name>
2-(Pyridin-2-yl)ethanol

> <iupac>
2-(pyridin-2-yl)ethanol

> <MPID>
99456

> <dsstox_substance_id>
DTXSID2044767

> <Canonical_QSARr>
OCCc1cccc[n]1

> <InChI_Code_QSARr>
InChI=1S/C7H9NO/c9-6-4-7-3-1-2-5-8-7/h1-3,5,9H,4,6H2

> <InChI Key_QSARr>
BXGYBSJAZFGIPX-UHFFFAOYSA-N

> <LogKOC>
1.45

$$$$
100180
  -INDIGO-08031722282D

 18 18  0  0  0  0  0  0  0  0999 V2000
    4.0000   -1.3856    0.0000 O   0  0  0  0  0  0  0  0  0  0  0  0
    4.8000   -2.7713    0.0000 H   0  0  0  0  0  0  0  0  0  0  0  0
    2.4000   -1.3856    0.0000 C   0  0  0  0  0  0  0  0  0  0  0  0
    1.6000   -0.0000    0.0000 C   0  0  0  0  0  0  0  0  0  0  0  0
    1.8089    1.5863    0.0000 H   0  0  0  0  0  0  0  0  0  0  0  0
    2.8693    0.9740    0.0000 H   0  0  0  0  0  0  0  0  0  0  0  0
    0.0001    0.0000    0.0000 C   0  0  0  0  0  0  0  0  0  0  0  0
   -0.8000    1.3856    0.0000 C   0  0  0  0  0  0  0  0  0  0  0  0
    0.0001    2.7713    0.0000 H   0  0  0  0  0  0  0  0  0  0  0  0
   -2.4000    1.3856    0.0000 C   0  0  0  0  0  0  0  0  0  0  0  0
   -3.1999    2.7713    0.0000 H   0  0  0  0  0  0  0  0  0  0  0  0
   -3.2001    0.0000    0.0000 C   0  0  0  0  0  0  0  0  0  0  0  0
   -4.8000   -0.0000    0.0000 H   0  0  0  0  0  0  0  0  0  0  0  0
   -2.4000   -1.3856    0.0000 C   0  0  0  0  0  0  0  0  0  0  0  0
   -3.2001   -2.7713    0.0000 H   0  0  0  0  0  0  0  0  0  0  0  0
   -0.8000   -1.3856    0.0000 C   0  0  0  0  0  0  0  0  0  0  0  0
    0.0001   -2.7713    0.0000 H   0  0  0  0  0  0  0  0  0  0  0  0
    1.6000   -2.7713    0.0000 O   0  0  0  0  0  0  0  0  0  0  0  0
  1  2  1  0  0  0  0
  1  3  1  0  0  0  0
  3  4  1  0  0  0  0
  4  5  1  0  0  0  0
  4  6  1  0  0  0  0
  4  7  1  0  0  0  0
  7  8  1  0  0  0  0
  8  9  1  0  0  0  0
  8 10  2  0  0  0  0
 10 11  1  0  0  0  0
 10 12  1  0  0  0  0
 12 13  1  0  0  0  0
 12 14  2  0  0  0  0
 14 15  1  0  0  0  0
 14 16  1  0  0  0  0
 16  7  2  0  0  0  0
 16 17  1  0  0  0  0
  3 18  2  0  0  0  0
M  END
> <ChemID>
100180

> <source_casrn>
103-82-2

> <CAS>
103-82-2

> <SMILES>
OC(=O)Cc1ccccc1

> <NAME>
PHENYLACETIC ACID

> <preferred_name>
Phenylacetic acid

> <iupac>
phenylacetic acid

> <MPID>
99457

> <dsstox_substance_id>
DTXSID2021656

> <Canonical_QSARr>
OC(=O)Cc1ccccc1

> <InChI_Code_QSARr>
InChI=1S/C8H8O2/c9-8(10)6-7-4-2-1-3-5-7/h1-5H,6H2,(H,9,10)

> <InChI Key_QSARr>
WLJVXDMOQOGPHL-UHFFFAOYSA-N

> <LogKOC>
1.45

$$$$
100181
  -INDIGO-08031722282D

 19 19  0  0  0  0  0  0  0  0999 V2000
   -0.8000    1.3856    0.0000 C   0  0  0  0  0  0  0  0  0  0  0  0
    0.0000    2.7713    0.0000 H   0  0  0  0  0  0  0  0  0  0  0  0
   -2.4001    1.3856    0.0000 C   0  0  0  0  0  0  0  0  0  0  0  0
   -3.2000    2.7713    0.0000 H   0  0  0  0  0  0  0  0  0  0  0  0
   -3.2000    0.0000    0.0000 C   0  0  0  0  0  0  0  0  0  0  0  0
   -4.8000    0.0000    0.0000 H   0  0  0  0  0  0  0  0  0  0  0  0
   -2.4001   -1.3856    0.0000 C   0  0  0  0  0  0  0  0  0  0  0  0
   -3.2000   -2.7713    0.0000 H   0  0  0  0  0  0  0  0  0  0  0  0
   -0.8000   -1.3856    0.0000 C   0  0  0  0  0  0  0  0  0  0  0  0
    0.0000   -2.7713    0.0000 H   0  0  0  0  0  0  0  0  0  0  0  0
    0.0000   -0.0000    0.0000 C   0  0  0  0  0  0  0  0  0  0  0  0
    1.6000    0.0000    0.0000 N   0  0  0  0  0  0  0  0  0  0  0  0
    2.3999    1.3856    0.0000 H   0  0  0  0  0  0  0  0  0  0  0  0
    2.3999   -1.3856    0.0000 C   0  0  0  0  0  0  0  0  0  0  0  0
    4.0001   -1.3856    0.0000 C   0  0  0  0  0  0  0  0  0  0  0  0
    5.6000   -1.3856    0.0000 H   0  0  0  0  0  0  0  0  0  0  0  0
    4.8000   -2.7713    0.0000 H   0  0  0  0  0  0  0  0  0  0  0  0
    4.8000    0.0000    0.0000 H   0  0  0  0  0  0  0  0  0  0  0  0
    1.6000   -2.7713    0.0000 O   0  0  0  0  0  0  0  0  0  0  0  0
  1  2  1  0  0  0  0
  1  3  1  0  0  0  0
  3  4  1  0  0  0  0
  3  5  2  0  0  0  0
  5  6  1  0  0  0  0
  5  7  1  0  0  0  0
  7  8  1  0  0  0  0
  7  9  2  0  0  0  0
  9 10  1  0  0  0  0
  9 11  1  0  0  0  0
 11  1  2  0  0  0  0
 11 12  1  0  0  0  0
 12 13  1  0  0  0  0
 12 14  1  0  0  0  0
 14 15  1  0  0  0  0
 15 16  1  0  0  0  0
 15 17  1  0  0  0  0
 15 18  1  0  0  0  0
 14 19  2  0  0  0  0
M  END
> <ChemID>
100181

> <source_casrn>
103-84-4

> <CAS>
103-84-4

> <SMILES>
CC(=O)Nc1ccccc1

> <NAME>
ACETANILIDE

> <preferred_name>
Acetanilide

> <iupac>
N-phenylacetamide

> <MPID>
99458

> <dsstox_substance_id>
DTXSID2022543

> <Canonical_QSARr>
CC(=O)Nc1ccccc1

> <InChI_Code_QSARr>
InChI=1S/C8H9NO/c1-7(10)9-8-5-3-2-4-6-8/h2-6H,1H3,(H,9,10)

> <InChI Key_QSARr>
FZERHIULMFGESH-UHFFFAOYSA-N

> <LogKOC>
1.43

$$$$
100183
  -INDIGO-08031722282D

 40 40  0  0  0  0  0  0  0  0999 V2000
    5.5426   -0.0000    0.0000 C   0  0  0  0  0  0  0  0  0  0  0  0
    6.9282    0.8000    0.0000 H   0  0  0  0  0  0  0  0  0  0  0  0
    6.9282   -0.8000    0.0000 H   0  0  0  0  0  0  0  0  0  0  0  0
    5.5426    1.6000    0.0000 H   0  0  0  0  0  0  0  0  0  0  0  0
    4.1570   -0.8000    0.0000 C   0  0  0  0  0  0  0  0  0  0  0  0
    4.7691   -2.2782    0.0000 H   0  0  0  0  0  0  0  0  0  0  0  0
    3.5445   -2.2782    0.0000 H   0  0  0  0  0  0  0  0  0  0  0  0
    2.7713   -0.0000    0.0000 C   0  0  0  0  0  0  0  0  0  0  0  0
    2.1589    1.4782    0.0000 H   0  0  0  0  0  0  0  0  0  0  0  0
    3.3835    1.4782    0.0000 H   0  0  0  0  0  0  0  0  0  0  0  0
    1.3857   -0.8000    0.0000 C   0  0  0  0  0  0  0  0  0  0  0  0
    1.9979   -2.2782    0.0000 H   0  0  0  0  0  0  0  0  0  0  0  0
    0.7733   -2.2782    0.0000 H   0  0  0  0  0  0  0  0  0  0  0  0
    0.0001   -0.0000    0.0000 C   0  0  0  0  0  0  0  0  0  0  0  0
   -0.6123    1.4782    0.0000 H   0  0  0  0  0  0  0  0  0  0  0  0
    0.6123    1.4782    0.0000 H   0  0  0  0  0  0  0  0  0  0  0  0
   -1.3855   -0.8000    0.0000 C   0  0  0  0  0  0  0  0  0  0  0  0
   -0.7734   -2.2782    0.0000 H   0  0  0  0  0  0  0  0  0  0  0  0
   -1.9980   -2.2782    0.0000 H   0  0  0  0  0  0  0  0  0  0  0  0
   -2.7711   -0.0000    0.0000 C   0  0  0  0  0  0  0  0  0  0  0  0
   -3.3836    1.4782    0.0000 H   0  0  0  0  0  0  0  0  0  0  0  0
   -2.1590    1.4782    0.0000 H   0  0  0  0  0  0  0  0  0  0  0  0
   -4.1570   -0.8000    0.0000 C   0  0  0  0  0  0  0  0  0  0  0  0
   -3.5446   -2.2782    0.0000 H   0  0  0  0  0  0  0  0  0  0  0  0
   -4.7692   -2.2782    0.0000 H   0  0  0  0  0  0  0  0  0  0  0  0
   -5.5427   -0.0000    0.0000 C   0  0  0  0  0  0  0  0  0  0  0  0
   -6.1548    1.4782    0.0000 H   0  0  0  0  0  0  0  0  0  0  0  0
   -4.9302    1.4782    0.0000 H   0  0  0  0  0  0  0  0  0  0  0  0
   -6.9283   -0.8000    0.0000 C   0  0  0  0  0  0  0  0  0  0  0  0
   -8.3139   -0.0000    0.0000 C   0  0  0  0  0  0  0  0  0  0  0  0
   -8.3139    1.6000    0.0000 H   0  0  0  0  0  0  0  0  0  0  0  0
   -9.6995   -0.8000    0.0000 C   0  0  0  0  0  0  0  0  0  0  0  0
  -11.0851   -0.0000    0.0000 H   0  0  0  0  0  0  0  0  0  0  0  0
   -9.6995   -2.4000    0.0000 C   0  0  0  0  0  0  0  0  0  0  0  0
  -11.0851   -3.2000    0.0000 O   0  0  0  0  0  0  0  0  0  0  0  0
  -12.4708   -2.4000    0.0000 H   0  0  0  0  0  0  0  0  0  0  0  0
   -8.3139   -3.2000    0.0000 C   0  0  0  0  0  0  0  0  0  0  0  0
   -8.3139   -4.8000    0.0000 H   0  0  0  0  0  0  0  0  0  0  0  0
   -6.9283   -2.4000    0.0000 C   0  0  0  0  0  0  0  0  0  0  0  0
   -5.5427   -3.2000    0.0000 H   0  0  0  0  0  0  0  0  0  0  0  0
  1  2  1  0  0  0  0
  1  3  1  0  0  0  0
  1  4  1  0  0  0  0
  1  5  1  0  0  0  0
  5  6  1  0  0  0  0
  5  7  1  0  0  0  0
  5  8  1  0  0  0  0
  8  9  1  0  0  0  0
  8 10  1  0  0  0  0
  8 11  1  0  0  0  0
 11 12  1  0  0  0  0
 11 13  1  0  0  0  0
 11 14  1  0  0  0  0
 14 15  1  0  0  0  0
 14 16  1  0  0  0  0
 14 17  1  0  0  0  0
 17 18  1  0  0  0  0
 17 19  1  0  0  0  0
 17 20  1  0  0  0  0
 20 21  1  0  0  0  0
 20 22  1  0  0  0  0
 20 23  1  0  0  0  0
 23 24  1  0  0  0  0
 23 25  1  0  0  0  0
 23 26  1  0  0  0  0
 26 27  1  0  0  0  0
 26 28  1  0  0  0  0
 26 29  1  0  0  0  0
 29 30  1  0  0  0  0
 30 31  1  0  0  0  0
 30 32  2  0  0  0  0
 32 33  1  0  0  0  0
 32 34  1  0  0  0  0
 34 35  1  0  0  0  0
 35 36  1  0  0  0  0
 34 37  2  0  0  0  0
 37 38  1  0  0  0  0
 37 39  1  0  0  0  0
 39 29  2  0  0  0  0
 39 40  1  0  0  0  0
M  END
> <ChemID>
100183

> <source_casrn>
104-40-5

> <CAS>
104-40-5

> <SMILES>
CCCCCCCCCc1ccc(O)cc1

> <NAME>
P-NONYLPHENOL

> <preferred_name>
4-Nonylphenol

> <iupac>
4-nonylphenol

> <MPID>
99460

> <dsstox_substance_id>
DTXSID5033836

> <Canonical_QSARr>
CCCCCCCCCc1ccc(O)cc1

> <InChI_Code_QSARr>
InChI=1S/C15H24O/c1-2-3-4-5-6-7-8-9-14-10-12-15(16)13-11-14/h10-13,16H,2-9H2,1H3

> <InChI Key_QSARr>
IGFHQQFPSIBGKE-UHFFFAOYSA-N

> <LogKOC>
3.84

$$$$
100184
  -INDIGO-08031722282D

 24 24  0  0  0  0  0  0  0  0999 V2000
   -2.7712   -0.0000    0.0000 C   0  0  0  0  0  0  0  0  0  0  0  0
   -1.3856    0.8000    0.0000 C   0  0  0  0  0  0  0  0  0  0  0  0
   -0.7734    2.2782    0.0000 H   0  0  0  0  0  0  0  0  0  0  0  0
   -1.9979    2.2782    0.0000 H   0  0  0  0  0  0  0  0  0  0  0  0
   -0.0001   -0.0000    0.0000 C   0  0  0  0  0  0  0  0  0  0  0  0
   -0.6122   -1.4782    0.0000 H   0  0  0  0  0  0  0  0  0  0  0  0
    0.6123   -1.4782    0.0000 H   0  0  0  0  0  0  0  0  0  0  0  0
    1.3856    0.8000    0.0000 C   0  0  0  0  0  0  0  0  0  0  0  0
    1.9979    2.2782    0.0000 H   0  0  0  0  0  0  0  0  0  0  0  0
    0.7733    2.2782    0.0000 H   0  0  0  0  0  0  0  0  0  0  0  0
    2.7713   -0.0000    0.0000 C   0  0  0  0  0  0  0  0  0  0  0  0
    4.1569   -0.8000    0.0000 H   0  0  0  0  0  0  0  0  0  0  0  0
    4.1569    0.8000    0.0000 H   0  0  0  0  0  0  0  0  0  0  0  0
    2.7713   -1.6000    0.0000 H   0  0  0  0  0  0  0  0  0  0  0  0
   -2.7712   -1.6000    0.0000 C   0  0  0  0  0  0  0  0  0  0  0  0
   -1.3856   -2.4000    0.0000 H   0  0  0  0  0  0  0  0  0  0  0  0
   -4.1569   -2.4000    0.0000 C   0  0  0  0  0  0  0  0  0  0  0  0
   -4.1569   -4.0000    0.0000 H   0  0  0  0  0  0  0  0  0  0  0  0
   -5.5425   -1.6000    0.0000 C   0  0  0  0  0  0  0  0  0  0  0  0
   -6.9282   -2.4000    0.0000 H   0  0  0  0  0  0  0  0  0  0  0  0
   -5.5425   -0.0000    0.0000 C   0  0  0  0  0  0  0  0  0  0  0  0
   -6.9282    0.8000    0.0000 H   0  0  0  0  0  0  0  0  0  0  0  0
   -4.1569    0.8000    0.0000 C   0  0  0  0  0  0  0  0  0  0  0  0
   -4.1569    2.4000    0.0000 H   0  0  0  0  0  0  0  0  0  0  0  0
  1  2  1  0  0  0  0
  2  3  1  0  0  0  0
  2  4  1  0  0  0  0
  2  5  1  0  0  0  0
  5  6  1  0  0  0  0
  5  7  1  0  0  0  0
  5  8  1  0  0  0  0
  8  9  1  0  0  0  0
  8 10  1  0  0  0  0
  8 11  1  0  0  0  0
 11 12  1  0  0  0  0
 11 13  1  0  0  0  0
 11 14  1  0  0  0  0
  1 15  1  0  0  0  0
 15 16  1  0  0  0  0
 15 17  2  0  0  0  0
 17 18  1  0  0  0  0
 17 19  1  0  0  0  0
 19 20  1  0  0  0  0
 19 21  2  0  0  0  0
 21 22  1  0  0  0  0
 21 23  1  0  0  0  0
 23  1  2  0  0  0  0
 23 24  1  0  0  0  0
M  END
> <ChemID>
100184

> <source_casrn>
104-51-8

> <CAS>
104-51-8

> <SMILES>
CCCCc1ccccc1

> <NAME>
N-BUTYLBENZENE

> <preferred_name>
Butylbenzene

> <iupac>
butylbenzene

> <MPID>
99461

> <dsstox_substance_id>
DTXSID6022472

> <Canonical_QSARr>
CCCCc1ccccc1

> <InChI_Code_QSARr>
InChI=1S/C10H14/c1-2-3-7-10-8-5-4-6-9-10/h4-6,8-9H,2-3,7H2,1H3

> <InChI Key_QSARr>
OCKPCBLVNKHBMX-UHFFFAOYSA-N

> <LogKOC>
3.39

$$$$
100185
  -INDIGO-08031722282D

 18 18  0  0  0  0  0  0  0  0999 V2000
   -1.6000   -0.0000    0.0000 O   0  0  0  0  0  0  0  0  0  0  0  0
   -0.0000   -0.0000    0.0000 C   0  0  0  0  0  0  0  0  0  0  0  0
    0.7999    1.3856    0.0000 C   0  0  0  0  0  0  0  0  0  0  0  0
   -0.0000    2.7713    0.0000 H   0  0  0  0  0  0  0  0  0  0  0  0
    2.4000    1.3856    0.0000 C   0  0  0  0  0  0  0  0  0  0  0  0
    3.2000    2.7713    0.0000 H   0  0  0  0  0  0  0  0  0  0  0  0
    3.2000   -0.0000    0.0000 C   0  0  0  0  0  0  0  0  0  0  0  0
    4.8000   -0.0000    0.0000 N   0  0  0  0  0  0  0  0  0  0  0  0
    5.6000   -1.3856    0.0000 H   0  0  0  0  0  0  0  0  0  0  0  0
    5.6000    1.3856    0.0000 H   0  0  0  0  0  0  0  0  0  0  0  0
    2.4000   -1.3856    0.0000 C   0  0  0  0  0  0  0  0  0  0  0  0
    3.2000   -2.7713    0.0000 H   0  0  0  0  0  0  0  0  0  0  0  0
    0.8001   -1.3856    0.0000 C   0  0  0  0  0  0  0  0  0  0  0  0
   -0.0000   -2.7713    0.0000 H   0  0  0  0  0  0  0  0  0  0  0  0
   -2.4001    1.3856    0.0000 C   0  0  0  0  0  0  0  0  0  0  0  0
   -4.0000    1.3856    0.0000 H   0  0  0  0  0  0  0  0  0  0  0  0
   -3.2000    2.7713    0.0000 H   0  0  0  0  0  0  0  0  0  0  0  0
   -3.2000   -0.0000    0.0000 H   0  0  0  0  0  0  0  0  0  0  0  0
  1  2  1  0  0  0  0
  2  3  1  0  0  0  0
  3  4  1  0  0  0  0
  3  5  2  0  0  0  0
  5  6  1  0  0  0  0
  5  7  1  0  0  0  0
  7  8  1  0  0  0  0
  8  9  1  0  0  0  0
  8 10  1  0  0  0  0
  7 11  2  0  0  0  0
 11 12  1  0  0  0  0
 11 13  1  0  0  0  0
 13  2  2  0  0  0  0
 13 14  1  0  0  0  0
  1 15  1  0  0  0  0
 15 16  1  0  0  0  0
 15 17  1  0  0  0  0
 15 18  1  0  0  0  0
M  END
> <ChemID>
100185

> <source_casrn>
104-94-9

> <CAS>
104-94-9

> <SMILES>
COc1ccc(N)cc1

> <NAME>
4-METHOXYANILINE

> <preferred_name>
4-Methoxyaniline

> <iupac>
4-methoxyaniline

> <MPID>
99462

> <dsstox_substance_id>
DTXSID7024532

> <Canonical_QSARr>
COc1ccc(N)cc1

> <InChI_Code_QSARr>
InChI=1S/C7H9NO/c1-9-7-4-2-6(8)3-5-7/h2-5H,8H2,1H3

> <InChI Key_QSARr>
BHAAPTBBJKJZER-UHFFFAOYSA-N

> <LogKOC>
1.93

$$$$
100187
  -INDIGO-08031722282D

 32 31  0  0  0  0  0  0  0  0999 V2000
    5.5426    0.0000    0.0000 C   0  0  0  0  0  0  0  0  0  0  0  0
    5.5426   -1.6000    0.0000 O   0  0  0  0  0  0  0  0  0  0  0  0
    6.9281    0.8000    0.0000 O   0  0  0  0  0  0  0  0  0  0  0  0
    8.3137    0.0000    0.0000 C   0  0  0  0  0  0  0  0  0  0  0  0
    8.9262   -1.4782    0.0000 H   0  0  0  0  0  0  0  0  0  0  0  0
    7.7015   -1.4782    0.0000 H   0  0  0  0  0  0  0  0  0  0  0  0
    9.6995    0.8000    0.0000 C   0  0  0  0  0  0  0  0  0  0  0  0
   11.0851    1.6000    0.0000 H   0  0  0  0  0  0  0  0  0  0  0  0
   11.0851    0.0000    0.0000 H   0  0  0  0  0  0  0  0  0  0  0  0
    9.6995    2.4000    0.0000 H   0  0  0  0  0  0  0  0  0  0  0  0
    4.1570    0.8000    0.0000 C   0  0  0  0  0  0  0  0  0  0  0  0
    3.5448    2.2782    0.0000 H   0  0  0  0  0  0  0  0  0  0  0  0
    4.7692    2.2782    0.0000 H   0  0  0  0  0  0  0  0  0  0  0  0
    2.7712    0.0000    0.0000 C   0  0  0  0  0  0  0  0  0  0  0  0
    3.3836   -1.4782    0.0000 H   0  0  0  0  0  0  0  0  0  0  0  0
    2.1589   -1.4782    0.0000 H   0  0  0  0  0  0  0  0  0  0  0  0
    1.3856    0.8000    0.0000 C   0  0  0  0  0  0  0  0  0  0  0  0
    0.7733    2.2782    0.0000 H   0  0  0  0  0  0  0  0  0  0  0  0
    1.9978    2.2782    0.0000 H   0  0  0  0  0  0  0  0  0  0  0  0
    0.0000    0.0000    0.0000 C   0  0  0  0  0  0  0  0  0  0  0  0
    0.6122   -1.4782    0.0000 H   0  0  0  0  0  0  0  0  0  0  0  0
   -0.6122   -1.4782    0.0000 H   0  0  0  0  0  0  0  0  0  0  0  0
   -1.3856    0.8000    0.0000 C   0  0  0  0  0  0  0  0  0  0  0  0
   -1.9978    2.2782    0.0000 H   0  0  0  0  0  0  0  0  0  0  0  0
   -0.7733    2.2782    0.0000 H   0  0  0  0  0  0  0  0  0  0  0  0
   -2.7714    0.0000    0.0000 C   0  0  0  0  0  0  0  0  0  0  0  0
   -2.1589   -1.4782    0.0000 H   0  0  0  0  0  0  0  0  0  0  0  0
   -3.3836   -1.4782    0.0000 H   0  0  0  0  0  0  0  0  0  0  0  0
   -4.1570    0.8000    0.0000 C   0  0  0  0  0  0  0  0  0  0  0  0
   -5.5426    1.6000    0.0000 H   0  0  0  0  0  0  0  0  0  0  0  0
   -5.5426    0.0000    0.0000 H   0  0  0  0  0  0  0  0  0  0  0  0
   -4.1570    2.4000    0.0000 H   0  0  0  0  0  0  0  0  0  0  0  0
  1  2  2  0  0  0  0
  1  3  1  0  0  0  0
  3  4  1  0  0  0  0
  4  5  1  0  0  0  0
  4  6  1  0  0  0  0
  4  7  1  0  0  0  0
  7  8  1  0  0  0  0
  7  9  1  0  0  0  0
  7 10  1  0  0  0  0
  1 11  1  0  0  0  0
 11 12  1  0  0  0  0
 11 13  1  0  0  0  0
 11 14  1  0  0  0  0
 14 15  1  0  0  0  0
 14 16  1  0  0  0  0
 14 17  1  0  0  0  0
 17 18  1  0  0  0  0
 17 19  1  0  0  0  0
 17 20  1  0  0  0  0
 20 21  1  0  0  0  0
 20 22  1  0  0  0  0
 20 23  1  0  0  0  0
 23 24  1  0  0  0  0
 23 25  1  0  0  0  0
 23 26  1  0  0  0  0
 26 27  1  0  0  0  0
 26 28  1  0  0  0  0
 26 29  1  0  0  0  0
 29 30  1  0  0  0  0
 29 31  1  0  0  0  0
 29 32  1  0  0  0  0
M  END
> <ChemID>
100187

> <source_casrn>
106-32-1

> <CAS>
106-32-1

> <SMILES>
CCCCCCCC(=O)OCC

> <NAME>
ETHYL OCTANOATE

> <preferred_name>
Ethyl octanoate

> <iupac>
ethyl octanoate

> <MPID>
99464

> <dsstox_substance_id>
DTXSID8051542

> <Canonical_QSARr>
CCCCCCCC(=O)OCC

> <InChI_Code_QSARr>
InChI=1S/C10H20O2/c1-3-5-6-7-8-9-10(11)12-4-2/h3-9H2,1-2H3

> <InChI Key_QSARr>
YYZUSRORWSJGET-UHFFFAOYSA-N

> <LogKOC>
3.02

$$$$
100188
  -INDIGO-08031722282D

 14 14  0  0  0  0  0  0  0  0999 V2000
    1.6000   -0.0000    0.0000 N   0  0  0  0  0  0  0  0  0  0  0  0
    2.4000    1.3856    0.0000 H   0  0  0  0  0  0  0  0  0  0  0  0
    2.4000   -1.3856    0.0000 H   0  0  0  0  0  0  0  0  0  0  0  0
    0.0000   -0.0000    0.0000 C   0  0  0  0  0  0  0  0  0  0  0  0
   -0.8000    1.3856    0.0000 C   0  0  0  0  0  0  0  0  0  0  0  0
    0.0000    2.7713    0.0000 H   0  0  0  0  0  0  0  0  0  0  0  0
   -2.4000    1.3856    0.0000 C   0  0  0  0  0  0  0  0  0  0  0  0
   -3.2000    2.7713    0.0000 H   0  0  0  0  0  0  0  0  0  0  0  0
   -3.2000   -0.0000    0.0000 C   0  0  0  0  0  0  0  0  0  0  0  0
   -4.8000   -0.0000    0.0000 Br  0  0  0  0  0  0  0  0  0  0  0  0
   -2.4000   -1.3856    0.0000 C   0  0  0  0  0  0  0  0  0  0  0  0
   -3.2000   -2.7713    0.0000 H   0  0  0  0  0  0  0  0  0  0  0  0
   -0.8000   -1.3856    0.0000 C   0  0  0  0  0  0  0  0  0  0  0  0
    0.0000   -2.7713    0.0000 H   0  0  0  0  0  0  0  0  0  0  0  0
  1  2  1  0  0  0  0
  1  3  1  0  0  0  0
  1  4  1  0  0  0  0
  4  5  1  0  0  0  0
  5  6  1  0  0  0  0
  5  7  2  0  0  0  0
  7  8  1  0  0  0  0
  7  9  1  0  0  0  0
  9 10  1  0  0  0  0
  9 11  2  0  0  0  0
 11 12  1  0  0  0  0
 11 13  1  0  0  0  0
 13  4  2  0  0  0  0
 13 14  1  0  0  0  0
M  END
> <ChemID>
100188

> <source_casrn>
106-40-1

> <CAS>
106-40-1

> <SMILES>
Nc1ccc(Br)cc1

> <NAME>
P-BROMOANILINE

> <preferred_name>
4-Bromoaniline

> <iupac>
4-bromoaniline

> <MPID>
99465

> <dsstox_substance_id>
DTXSID7021867

> <Canonical_QSARr>
Nc1ccc(Br)cc1

> <InChI_Code_QSARr>
InChI=1S/C6H6BrN/c7-5-1-3-6(8)4-2-5/h1-4H,8H2

> <InChI Key_QSARr>
WDFQBORIUYODSI-UHFFFAOYSA-N

> <LogKOC>
1.96

$$$$
100189
  -INDIGO-08031722282D

 13 13  0  0  0  0  0  0  0  0999 V2000
   -0.0000   -0.0000    0.0000 C   0  0  0  0  0  0  0  0  0  0  0  0
    0.8000    1.3856    0.0000 O   0  0  0  0  0  0  0  0  0  0  0  0
    2.4000    1.3856    0.0000 H   0  0  0  0  0  0  0  0  0  0  0  0
    0.8000   -1.3857    0.0000 C   0  0  0  0  0  0  0  0  0  0  0  0
    2.4000   -1.3857    0.0000 H   0  0  0  0  0  0  0  0  0  0  0  0
   -0.0000   -2.7713    0.0000 C   0  0  0  0  0  0  0  0  0  0  0  0
    0.8000   -4.1569    0.0000 H   0  0  0  0  0  0  0  0  0  0  0  0
   -1.6000   -2.7713    0.0000 C   0  0  0  0  0  0  0  0  0  0  0  0
   -2.4000   -4.1569    0.0000 Br  0  0  0  0  0  0  0  0  0  0  0  0
   -2.4000   -1.3856    0.0000 C   0  0  0  0  0  0  0  0  0  0  0  0
   -4.0000   -1.3856    0.0000 H   0  0  0  0  0  0  0  0  0  0  0  0
   -1.6000   -0.0000    0.0000 C   0  0  0  0  0  0  0  0  0  0  0  0
   -2.4000    1.3856    0.0000 H   0  0  0  0  0  0  0  0  0  0  0  0
  1  2  1  0  0  0  0
  2  3  1  0  0  0  0
  1  4  1  0  0  0  0
  4  5  1  0  0  0  0
  4  6  2  0  0  0  0
  6  7  1  0  0  0  0
  6  8  1  0  0  0  0
  8  9  1  0  0  0  0
  8 10  2  0  0  0  0
 10 11  1  0  0  0  0
 10 12  1  0  0  0  0
 12  1  2  0  0  0  0
 12 13  1  0  0  0  0
M  END
> <ChemID>
100189

> <source_casrn>
106-41-2

> <CAS>
106-41-2

> <SMILES>
Oc1ccc(Br)cc1

> <NAME>
P-BROMOPHENOL

> <preferred_name>
4-Bromophenol

> <iupac>
4-bromophenol

> <MPID>
99466

> <dsstox_substance_id>
DTXSID3051543

> <Canonical_QSARr>
Oc1ccc(Br)cc1

> <InChI_Code_QSARr>
InChI=1S/C6H5BrO/c7-5-1-3-6(8)4-2-5/h1-4,8H

> <InChI Key_QSARr>
GZFGOTFRPZRKDS-UHFFFAOYSA-N

> <LogKOC>
2.41

$$$$
100191
  -INDIGO-08031722282D

 16 16  0  0  0  0  0  0  0  0999 V2000
    4.8000   -0.0000    0.0000 O   0  0  0  0  0  0  0  0  0  0  0  0
    5.6000    1.3856    0.0000 H   0  0  0  0  0  0  0  0  0  0  0  0
    3.2000   -0.0000    0.0000 C   0  0  0  0  0  0  0  0  0  0  0  0
    2.4000    1.3856    0.0000 C   0  0  0  0  0  0  0  0  0  0  0  0
    3.2000    2.7713    0.0000 H   0  0  0  0  0  0  0  0  0  0  0  0
    0.8000    1.3856    0.0000 C   0  0  0  0  0  0  0  0  0  0  0  0
    0.0000    2.7713    0.0000 H   0  0  0  0  0  0  0  0  0  0  0  0
    0.0000   -0.0000    0.0000 C   0  0  0  0  0  0  0  0  0  0  0  0
   -1.6001   -0.0000    0.0000 C   0  0  0  0  0  0  0  0  0  0  0  0
   -3.2000   -0.0000    0.0000 H   0  0  0  0  0  0  0  0  0  0  0  0
   -2.4000   -1.3856    0.0000 H   0  0  0  0  0  0  0  0  0  0  0  0
   -2.4000    1.3856    0.0000 H   0  0  0  0  0  0  0  0  0  0  0  0
    0.8000   -1.3856    0.0000 C   0  0  0  0  0  0  0  0  0  0  0  0
    0.0000   -2.7713    0.0000 H   0  0  0  0  0  0  0  0  0  0  0  0
    2.4000   -1.3856    0.0000 C   0  0  0  0  0  0  0  0  0  0  0  0
    3.2000   -2.7713    0.0000 H   0  0  0  0  0  0  0  0  0  0  0  0
  1  2  1  0  0  0  0
  1  3  1  0  0  0  0
  3  4  1  0  0  0  0
  4  5  1  0  0  0  0
  4  6  2  0  0  0  0
  6  7  1  0  0  0  0
  6  8  1  0  0  0  0
  8  9  1  0  0  0  0
  9 10  1  0  0  0  0
  9 11  1  0  0  0  0
  9 12  1  0  0  0  0
  8 13  2  0  0  0  0
 13 14  1  0  0  0  0
 13 15  1  0  0  0  0
 15  3  2  0  0  0  0
 15 16  1  0  0  0  0
M  END
> <ChemID>
100191

> <source_casrn>
106-44-5

> <CAS>
106-44-5

> <SMILES>
Cc1ccc(O)cc1

> <NAME>
P-CRESOL

> <preferred_name>
p-Cresol

> <iupac>
4-methylphenol

> <MPID>
99468

> <dsstox_substance_id>
DTXSID7021869

> <Canonical_QSARr>
Cc1ccc(O)cc1

> <InChI_Code_QSARr>
InChI=1S/C7H8O/c1-6-2-4-7(8)5-3-6/h2-5,8H,1H3

> <InChI Key_QSARr>
IWDCLRJOBJJRNH-UHFFFAOYSA-N

> <LogKOC>
2.7

$$$$
100192
  -INDIGO-08031722282D

 12 12  0  0  0  0  0  0  0  0999 V2000
    0.8000    1.3856    0.0000 Cl  0  0  0  0  0  0  0  0  0  0  0  0
   -0.0000   -0.0000    0.0000 C   0  0  0  0  0  0  0  0  0  0  0  0
    0.8000   -1.3857    0.0000 C   0  0  0  0  0  0  0  0  0  0  0  0
    2.4000   -1.3857    0.0000 H   0  0  0  0  0  0  0  0  0  0  0  0
   -0.0000   -2.7713    0.0000 C   0  0  0  0  0  0  0  0  0  0  0  0
    0.8000   -4.1569    0.0000 H   0  0  0  0  0  0  0  0  0  0  0  0
   -1.6000   -2.7713    0.0000 C   0  0  0  0  0  0  0  0  0  0  0  0
   -2.4000   -4.1569    0.0000 Cl  0  0  0  0  0  0  0  0  0  0  0  0
   -2.4000   -1.3856    0.0000 C   0  0  0  0  0  0  0  0  0  0  0  0
   -4.0000   -1.3856    0.0000 H   0  0  0  0  0  0  0  0  0  0  0  0
   -1.6000   -0.0000    0.0000 C   0  0  0  0  0  0  0  0  0  0  0  0
   -2.4000    1.3856    0.0000 H   0  0  0  0  0  0  0  0  0  0  0  0
  1  2  1  0  0  0  0
  2  3  1  0  0  0  0
  3  4  1  0  0  0  0
  3  5  2  0  0  0  0
  5  6  1  0  0  0  0
  5  7  1  0  0  0  0
  7  8  1  0  0  0  0
  7  9  2  0  0  0  0
  9 10  1  0  0  0  0
  9 11  1  0  0  0  0
 11  2  2  0  0  0  0
 11 12  1  0  0  0  0
M  END
> <ChemID>
100192

> <source_casrn>
106-46-7

> <CAS>
106-46-7

> <SMILES>
Clc1ccc(Cl)cc1

> <NAME>
1,4-DICHLOROBENZENE

> <preferred_name>
1,4-Dichlorobenzene

> <iupac>
1,4-dichlorobenzene

> <MPID>
99469

> <dsstox_substance_id>
DTXSID1020431

> <Canonical_QSARr>
Clc1ccc(Cl)cc1

> <InChI_Code_QSARr>
InChI=1S/C6H4Cl2/c7-5-1-2-6(8)4-3-5/h1-4H

> <InChI Key_QSARr>
OCJBOOLMMGQPQU-UHFFFAOYSA-N

> <LogKOC>
2.65

$$$$
100193
  -INDIGO-08031722282D

 14 14  0  0  0  0  0  0  0  0999 V2000
    1.6000   -0.0000    0.0000 N   0  0  0  0  0  0  0  0  0  0  0  0
    2.4000    1.3856    0.0000 H   0  0  0  0  0  0  0  0  0  0  0  0
    2.4000   -1.3856    0.0000 H   0  0  0  0  0  0  0  0  0  0  0  0
    0.0000   -0.0000    0.0000 C   0  0  0  0  0  0  0  0  0  0  0  0
   -0.8000    1.3856    0.0000 C   0  0  0  0  0  0  0  0  0  0  0  0
    0.0000    2.7713    0.0000 H   0  0  0  0  0  0  0  0  0  0  0  0
   -2.4000    1.3856    0.0000 C   0  0  0  0  0  0  0  0  0  0  0  0
   -3.2000    2.7713    0.0000 H   0  0  0  0  0  0  0  0  0  0  0  0
   -3.2000   -0.0000    0.0000 C   0  0  0  0  0  0  0  0  0  0  0  0
   -4.8000   -0.0000    0.0000 Cl  0  0  0  0  0  0  0  0  0  0  0  0
   -2.4000   -1.3856    0.0000 C   0  0  0  0  0  0  0  0  0  0  0  0
   -3.2000   -2.7713    0.0000 H   0  0  0  0  0  0  0  0  0  0  0  0
   -0.8000   -1.3856    0.0000 C   0  0  0  0  0  0  0  0  0  0  0  0
    0.0000   -2.7713    0.0000 H   0  0  0  0  0  0  0  0  0  0  0  0
  1  2  1  0  0  0  0
  1  3  1  0  0  0  0
  1  4  1  0  0  0  0
  4  5  1  0  0  0  0
  5  6  1  0  0  0  0
  5  7  2  0  0  0  0
  7  8  1  0  0  0  0
  7  9  1  0  0  0  0
  9 10  1  0  0  0  0
  9 11  2  0  0  0  0
 11 12  1  0  0  0  0
 11 13  1  0  0  0  0
 13  4  2  0  0  0  0
 13 14  1  0  0  0  0
M  END
> <ChemID>
100193

> <source_casrn>
106-47-8

> <CAS>
106-47-8

> <SMILES>
Nc1ccc(Cl)cc1

> <NAME>
4-CHLOROANILINE

> <preferred_name>
4-Chloroaniline

> <iupac>
4-chloroaniline

> <MPID>
99470

> <dsstox_substance_id>
DTXSID9020295

> <Canonical_QSARr>
Nc1ccc(Cl)cc1

> <InChI_Code_QSARr>
InChI=1S/C6H6ClN/c7-5-1-3-6(8)4-2-5/h1-4H,8H2

> <InChI Key_QSARr>
QSNSCYSYFYORTR-UHFFFAOYSA-N

> <LogKOC>
1.96

$$$$
100195
  -INDIGO-08031722282D

 10 10  0  0  0  0  0  0  0  0999 V2000
    1.7814   -2.1229    0.0000 Cl  0  0  0  0  0  0  0  0  0  0  0  0
    1.5035   -0.5473    0.0000 C   0  0  0  0  0  0  0  0  0  0  0  0
    3.0070   -1.0945    0.0000 H   0  0  0  0  0  0  0  0  0  0  0  0
    2.7292    0.4812    0.0000 H   0  0  0  0  0  0  0  0  0  0  0  0
    0.0000    0.0000    0.0000 C   0  0  0  0  0  0  0  0  0  0  0  0
    0.2779    1.5757    0.0000 H   0  0  0  0  0  0  0  0  0  0  0  0
   -1.6000    0.0000    0.0000 C   0  0  0  0  0  0  0  0  0  0  0  0
   -1.8779    1.5757    0.0000 H   0  0  0  0  0  0  0  0  0  0  0  0
   -3.1035   -0.5473    0.0000 H   0  0  0  0  0  0  0  0  0  0  0  0
   -0.8000   -1.3856    0.0000 O   0  0  0  0  0  0  0  0  0  0  0  0
  1  2  1  0  0  0  0
  2  3  1  0  0  0  0
  2  4  1  0  0  0  0
  2  5  1  0  0  0  0
  5  6  1  0  0  0  0
  5  7  1  0  0  0  0
  7  8  1  0  0  0  0
  7  9  1  0  0  0  0
  7 10  1  0  0  0  0
 10  5  1  0  0  0  0
M  END
> <ChemID>
100195

> <source_casrn>
106-89-8

> <CAS>
106-89-8

> <SMILES>
ClCC1CO1

> <NAME>
1-CHLORO-2,3-EPOXYPROPANE

> <preferred_name>
Epichlorohydrin

> <iupac>
C3H5ClO

> <MPID>
99472

> <dsstox_substance_id>
DTXSID1020566

> <Canonical_QSARr>
ClCC1CO1

> <InChI_Code_QSARr>
InChI=1S/C3H5ClO/c4-1-3-2-5-3/h3H,1-2H2

> <InChI Key_QSARr>
BRLQWZUYTZBJKN-UHFFFAOYSA-N

> <LogKOC>
1.0

$$$$
100196
  -INDIGO-08031722282D

  8  7  0  0  0  0  0  0  0  0999 V2000
    0.8000    1.3856    0.0000 Br  0  0  0  0  0  0  0  0  0  0  0  0
    0.0000    0.0000    0.0000 C   0  0  0  0  0  0  0  0  0  0  0  0
    1.6000   -0.0000    0.0000 H   0  0  0  0  0  0  0  0  0  0  0  0
    0.8000   -1.3856    0.0000 H   0  0  0  0  0  0  0  0  0  0  0  0
   -1.6000    0.0000    0.0000 C   0  0  0  0  0  0  0  0  0  0  0  0
   -3.2000    0.0000    0.0000 H   0  0  0  0  0  0  0  0  0  0  0  0
   -2.4000   -1.3856    0.0000 H   0  0  0  0  0  0  0  0  0  0  0  0
   -2.4000    1.3856    0.0000 Br  0  0  0  0  0  0  0  0  0  0  0  0
  1  2  1  0  0  0  0
  2  3  1  0  0  0  0
  2  4  1  0  0  0  0
  2  5  1  0  0  0  0
  5  6  1  0  0  0  0
  5  7  1  0  0  0  0
  5  8  1  0  0  0  0
M  END
> <ChemID>
100196

> <source_casrn>
106-93-4

> <CAS>
106-93-4

> <SMILES>
BrCCBr

> <NAME>
1,2-DIBROMOETHANE

> <preferred_name>
1,2-Dibromoethane

> <iupac>
1,2-dibromoethane

> <MPID>
99473

> <dsstox_substance_id>
DTXSID3020415

> <Canonical_QSARr>
BrCCBr

> <InChI_Code_QSARr>
InChI=1S/C2H4Br2/c3-1-2-4/h1-2H2

> <InChI Key_QSARr>
PAAZPARNPHGIKF-UHFFFAOYSA-N

> <LogKOC>
1.71

$$$$
100197
  -INDIGO-08031722282D

  8  7  0  0  0  0  0  0  0  0999 V2000
    0.8000    1.3856    0.0000 Cl  0  0  0  0  0  0  0  0  0  0  0  0
    0.0000    0.0000    0.0000 C   0  0  0  0  0  0  0  0  0  0  0  0
    1.6000   -0.0000    0.0000 H   0  0  0  0  0  0  0  0  0  0  0  0
    0.8000   -1.3856    0.0000 H   0  0  0  0  0  0  0  0  0  0  0  0
   -1.6000    0.0000    0.0000 C   0  0  0  0  0  0  0  0  0  0  0  0
   -3.2000    0.0000    0.0000 H   0  0  0  0  0  0  0  0  0  0  0  0
   -2.4000   -1.3856    0.0000 H   0  0  0  0  0  0  0  0  0  0  0  0
   -2.4000    1.3856    0.0000 Cl  0  0  0  0  0  0  0  0  0  0  0  0
  1  2  1  0  0  0  0
  2  3  1  0  0  0  0
  2  4  1  0  0  0  0
  2  5  1  0  0  0  0
  5  6  1  0  0  0  0
  5  7  1  0  0  0  0
  5  8  1  0  0  0  0
M  END
> <ChemID>
100197

> <source_casrn>
107-06-2

> <CAS>
107-06-2

> <SMILES>
ClCCCl

> <NAME>
1,2-DICHLOROETHANE

> <preferred_name>
1,2-Dichloroethane

> <iupac>
C2H4Cl2

> <MPID>
99474

> <dsstox_substance_id>
DTXSID6020438

> <Canonical_QSARr>
ClCCCl

> <InChI_Code_QSARr>
InChI=1S/C2H4Cl2/c3-1-2-4/h1-2H2

> <InChI Key_QSARr>
WSLDOOZREJYCGB-UHFFFAOYSA-N

> <LogKOC>
1.52

$$$$
100199
  -INDIGO-08031722282D

 13 13  0  0  0  0  0  0  0  0999 V2000
    3.2000    2.7713    0.0000 Cl  0  0  0  0  0  0  0  0  0  0  0  0
    2.4000    1.3856    0.0000 C   0  0  0  0  0  0  0  0  0  0  0  0
    3.2000   -0.0000    0.0000 C   0  0  0  0  0  0  0  0  0  0  0  0
    4.8000   -0.0000    0.0000 H   0  0  0  0  0  0  0  0  0  0  0  0
    2.4000   -1.3856    0.0000 C   0  0  0  0  0  0  0  0  0  0  0  0
    3.2000   -2.7713    0.0000 H   0  0  0  0  0  0  0  0  0  0  0  0
    0.8000   -1.3856    0.0000 C   0  0  0  0  0  0  0  0  0  0  0  0
    0.0000   -2.7713    0.0000 H   0  0  0  0  0  0  0  0  0  0  0  0
    0.0000    0.0000    0.0000 C   0  0  0  0  0  0  0  0  0  0  0  0
   -1.6000    0.0000    0.0000 O   0  0  0  0  0  0  0  0  0  0  0  0
   -2.4000   -1.3856    0.0000 H   0  0  0  0  0  0  0  0  0  0  0  0
    0.8000    1.3856    0.0000 C   0  0  0  0  0  0  0  0  0  0  0  0
    0.0000    2.7713    0.0000 H   0  0  0  0  0  0  0  0  0  0  0  0
  1  2  1  0  0  0  0
  2  3  1  0  0  0  0
  3  4  1  0  0  0  0
  3  5  2  0  0  0  0
  5  6  1  0  0  0  0
  5  7  1  0  0  0  0
  7  8  1  0  0  0  0
  7  9  2  0  0  0  0
  9 10  1  0  0  0  0
 10 11  1  0  0  0  0
  9 12  1  0  0  0  0
 12  2  2  0  0  0  0
 12 13  1  0  0  0  0
M  END
> <ChemID>
100199

> <source_casrn>
108-43-0

> <CAS>
108-43-0

> <SMILES>
Oc1cc(Cl)ccc1

> <NAME>
3-CHLOROPHENOL

> <preferred_name>
3-Chlorophenol

> <iupac>
3-chlorophenol

> <MPID>
99476

> <dsstox_substance_id>
DTXSID4024800

> <Canonical_QSARr>
Oc1cc(Cl)ccc1

> <InChI_Code_QSARr>
InChI=1S/C6H5ClO/c7-5-2-1-3-6(8)4-5/h1-4,8H

> <InChI Key_QSARr>
HORNXRXVQWOLPJ-UHFFFAOYSA-N

> <LogKOC>
2.54

$$$$
100200
  -INDIGO-08031722282D

 17 17  0  0  0  0  0  0  0  0999 V2000
    2.7713   -0.0000    0.0000 C   0  0  0  0  0  0  0  0  0  0  0  0
    2.7713   -1.6000    0.0000 C   0  0  0  0  0  0  0  0  0  0  0  0
    4.1570   -2.4000    0.0000 H   0  0  0  0  0  0  0  0  0  0  0  0
    1.3857   -2.4000    0.0000 C   0  0  0  0  0  0  0  0  0  0  0  0
    1.3857   -4.0000    0.0000 H   0  0  0  0  0  0  0  0  0  0  0  0
    0.0000   -1.6000    0.0000 C   0  0  0  0  0  0  0  0  0  0  0  0
   -1.3856   -2.4000    0.0000 H   0  0  0  0  0  0  0  0  0  0  0  0
    0.0000   -0.0000    0.0000 C   0  0  0  0  0  0  0  0  0  0  0  0
   -1.3856    0.8000    0.0000 C   0  0  0  0  0  0  0  0  0  0  0  0
   -2.7713    1.6000    0.0000 H   0  0  0  0  0  0  0  0  0  0  0  0
   -2.7713   -0.0000    0.0000 H   0  0  0  0  0  0  0  0  0  0  0  0
   -1.3856    2.4000    0.0000 H   0  0  0  0  0  0  0  0  0  0  0  0
    1.3857    0.8000    0.0000 C   0  0  0  0  0  0  0  0  0  0  0  0
    1.3857    2.4000    0.0000 H   0  0  0  0  0  0  0  0  0  0  0  0
    4.1570    0.8000    0.0000 N   0  0  0  0  0  0  0  0  0  0  0  0
    5.5426   -0.0000    0.0000 H   0  0  0  0  0  0  0  0  0  0  0  0
    4.1570    2.4000    0.0000 H   0  0  0  0  0  0  0  0  0  0  0  0
  1  2  1  0  0  0  0
  2  3  1  0  0  0  0
  2  4  2  0  0  0  0
  4  5  1  0  0  0  0
  4  6  1  0  0  0  0
  6  7  1  0  0  0  0
  6  8  2  0  0  0  0
  8  9  1  0  0  0  0
  9 10  1  0  0  0  0
  9 11  1  0  0  0  0
  9 12  1  0  0  0  0
  8 13  1  0  0  0  0
 13  1  2  0  0  0  0
 13 14  1  0  0  0  0
  1 15  1  0  0  0  0
 15 16  1  0  0  0  0
 15 17  1  0  0  0  0
M  END
> <ChemID>
100200

> <source_casrn>
108-44-1

> <CAS>
108-44-1

> <SMILES>
Cc1cc(N)ccc1

> <NAME>
M-TOLUIDINE

> <preferred_name>
3-Methylaniline

> <iupac>
3-methylaniline

> <MPID>
99477

> <dsstox_substance_id>
DTXSID1026792

> <Canonical_QSARr>
Cc1cc(N)ccc1

> <InChI_Code_QSARr>
InChI=1S/C7H9N/c1-6-3-2-4-7(8)5-6/h2-5H,8H2,1H3

> <InChI Key_QSARr>
JJYPMNFTHPTTDI-UHFFFAOYSA-N

> <LogKOC>
1.53

$$$$
100201
  -INDIGO-08031722282D

 14 14  0  0  0  0  0  0  0  0999 V2000
    1.6000   -0.0000    0.0000 O   0  0  0  0  0  0  0  0  0  0  0  0
    2.4000   -1.3856    0.0000 H   0  0  0  0  0  0  0  0  0  0  0  0
    0.0000   -0.0000    0.0000 C   0  0  0  0  0  0  0  0  0  0  0  0
   -0.8000    1.3856    0.0000 C   0  0  0  0  0  0  0  0  0  0  0  0
    0.0000    2.7713    0.0000 H   0  0  0  0  0  0  0  0  0  0  0  0
   -2.4000    1.3856    0.0000 C   0  0  0  0  0  0  0  0  0  0  0  0
   -3.2000    2.7713    0.0000 O   0  0  0  0  0  0  0  0  0  0  0  0
   -4.8000    2.7713    0.0000 H   0  0  0  0  0  0  0  0  0  0  0  0
   -3.2000   -0.0000    0.0000 C   0  0  0  0  0  0  0  0  0  0  0  0
   -4.8000   -0.0000    0.0000 H   0  0  0  0  0  0  0  0  0  0  0  0
   -2.4000   -1.3856    0.0000 C   0  0  0  0  0  0  0  0  0  0  0  0
   -3.2000   -2.7713    0.0000 H   0  0  0  0  0  0  0  0  0  0  0  0
   -0.8000   -1.3856    0.0000 C   0  0  0  0  0  0  0  0  0  0  0  0
    0.0000   -2.7713    0.0000 H   0  0  0  0  0  0  0  0  0  0  0  0
  1  2  1  0  0  0  0
  1  3  1  0  0  0  0
  3  4  1  0  0  0  0
  4  5  1  0  0  0  0
  4  6  2  0  0  0  0
  6  7  1  0  0  0  0
  7  8  1  0  0  0  0
  6  9  1  0  0  0  0
  9 10  1  0  0  0  0
  9 11  2  0  0  0  0
 11 12  1  0  0  0  0
 11 13  1  0  0  0  0
 13  3  2  0  0  0  0
 13 14  1  0  0  0  0
M  END
> <ChemID>
100201

> <source_casrn>
108-46-3

> <CAS>
108-46-3

> <SMILES>
Oc1cc(O)ccc1

> <NAME>
RESORCINOL

> <preferred_name>
Resorcinol

> <iupac>
benzene-1,3-diol

> <MPID>
99478

> <dsstox_substance_id>
DTXSID2021238

> <Canonical_QSARr>
Oc1cc(O)ccc1

> <InChI_Code_QSARr>
InChI=1S/C6H6O2/c7-5-2-1-3-6(8)4-5/h1-4,7-8H

> <InChI Key_QSARr>
GHMLBKRAJCXXBS-UHFFFAOYSA-N

> <LogKOC>
0.98

$$$$
100203
  -INDIGO-08031722282D

 28 28  0  0  0  0  0  0  0  0999 V2000
    1.3856    0.7999    0.0000 O   0  0  0  0  0  0  0  0  0  0  0  0
    2.9311    0.3859    0.0000 C   0  0  0  0  0  0  0  0  0  0  0  0
    2.9311    1.9859    0.0000 H   0  0  0  0  0  0  0  0  0  0  0  0
    4.4765    0.7999    0.0000 C   0  0  0  0  0  0  0  0  0  0  0  0
    6.0221    1.2141    0.0000 H   0  0  0  0  0  0  0  0  0  0  0  0
    4.8907    2.3455    0.0000 H   0  0  0  0  0  0  0  0  0  0  0  0
    5.6079   -0.3313    0.0000 H   0  0  0  0  0  0  0  0  0  0  0  0
    3.7311   -0.9997    0.0000 O   0  0  0  0  0  0  0  0  0  0  0  0
    3.3170   -2.5452    0.0000 C   0  0  0  0  0  0  0  0  0  0  0  0
    4.9171   -2.5452    0.0000 H   0  0  0  0  0  0  0  0  0  0  0  0
    3.7311   -4.0906    0.0000 C   0  0  0  0  0  0  0  0  0  0  0  0
    4.1452   -5.6362    0.0000 H   0  0  0  0  0  0  0  0  0  0  0  0
    5.2766   -4.5048    0.0000 H   0  0  0  0  0  0  0  0  0  0  0  0
    2.5998   -5.2220    0.0000 H   0  0  0  0  0  0  0  0  0  0  0  0
    1.9314   -3.3452    0.0000 O   0  0  0  0  0  0  0  0  0  0  0  0
    0.3859   -2.9312    0.0000 C   0  0  0  0  0  0  0  0  0  0  0  0
    0.3859   -4.5312    0.0000 H   0  0  0  0  0  0  0  0  0  0  0  0
   -1.1595   -3.3452    0.0000 C   0  0  0  0  0  0  0  0  0  0  0  0
   -2.7051   -3.7593    0.0000 H   0  0  0  0  0  0  0  0  0  0  0  0
   -1.5737   -4.8907    0.0000 H   0  0  0  0  0  0  0  0  0  0  0  0
   -2.2909   -2.2139    0.0000 H   0  0  0  0  0  0  0  0  0  0  0  0
   -0.4141   -1.5455    0.0000 O   0  0  0  0  0  0  0  0  0  0  0  0
   -0.0000    0.0000    0.0000 C   0  0  0  0  0  0  0  0  0  0  0  0
   -1.6000    0.0000    0.0000 H   0  0  0  0  0  0  0  0  0  0  0  0
   -0.4141    1.5454    0.0000 C   0  0  0  0  0  0  0  0  0  0  0  0
   -0.8282    3.0910    0.0000 H   0  0  0  0  0  0  0  0  0  0  0  0
   -1.9596    1.9596    0.0000 H   0  0  0  0  0  0  0  0  0  0  0  0
    0.7172    2.6768    0.0000 H   0  0  0  0  0  0  0  0  0  0  0  0
  1  2  1  0  0  0  0
  2  3  1  0  0  0  0
  2  4  1  0  0  0  0
  4  5  1  0  0  0  0
  4  6  1  0  0  0  0
  4  7  1  0  0  0  0
  2  8  1  0  0  0  0
  8  9  1  0  0  0  0
  9 10  1  0  0  0  0
  9 11  1  0  0  0  0
 11 12  1  0  0  0  0
 11 13  1  0  0  0  0
 11 14  1  0  0  0  0
  9 15  1  0  0  0  0
 15 16  1  0  0  0  0
 16 17  1  0  0  0  0
 16 18  1  0  0  0  0
 18 19  1  0  0  0  0
 18 20  1  0  0  0  0
 18 21  1  0  0  0  0
 16 22  1  0  0  0  0
 22 23  1  0  0  0  0
 23  1  1  0  0  0  0
 23 24  1  0  0  0  0
 23 25  1  0  0  0  0
 25 26  1  0  0  0  0
 25 27  1  0  0  0  0
 25 28  1  0  0  0  0
M  END
> <ChemID>
100203

> <source_casrn>
108-62-3

> <CAS>
108-62-3

> <SMILES>
CC1OC(C)OC(C)OC(C)O1

> <NAME>
Metaldehyde (tetramer)

> <preferred_name>
Metaldehyde acetaldehyde tetramer

> <iupac>
2,4,6,8-tetramethyl-1,3,5,7-tetroxocane

> <MPID>
99480

> <dsstox_substance_id>
DTXSID1034715

> <Canonical_QSARr>
CC1OC(C)OC(C)OC(C)O1

> <InChI_Code_QSARr>
InChI=1S/C8H16O4/c1-5-9-6(2)11-8(4)12-7(3)10-5/h5-8H,1-4H3

> <InChI Key_QSARr>
GKKDCARASOJPNG-UHFFFAOYSA-N

> <LogKOC>
2.38

$$$$
100204
  -INDIGO-08031722282D

 21 20  0  0  0  0  0  0  0  0999 V2000
    0.8000   -1.3857    0.0000 C   0  0  0  0  0  0  0  0  0  0  0  0
    2.2782   -0.7733    0.0000 H   0  0  0  0  0  0  0  0  0  0  0  0
    2.2782   -1.9980    0.0000 H   0  0  0  0  0  0  0  0  0  0  0  0
    0.0001    0.0001    0.0000 C   0  0  0  0  0  0  0  0  0  0  0  0
   -1.3856   -0.8000    0.0000 H   0  0  0  0  0  0  0  0  0  0  0  0
   -0.8000    1.3857    0.0000 C   0  0  0  0  0  0  0  0  0  0  0  0
   -1.5999    2.7713    0.0000 H   0  0  0  0  0  0  0  0  0  0  0  0
   -2.4000    1.3857    0.0000 H   0  0  0  0  0  0  0  0  0  0  0  0
    0.0001    2.7713    0.0000 H   0  0  0  0  0  0  0  0  0  0  0  0
    1.3857    0.8000    0.0000 O   0  0  0  0  0  0  0  0  0  0  0  0
    2.8891    0.2528    0.0000 C   0  0  0  0  0  0  0  0  0  0  0  0
    3.1670   -1.3229    0.0000 O   0  0  0  0  0  0  0  0  0  0  0  0
    4.1149    1.2812    0.0000 C   0  0  0  0  0  0  0  0  0  0  0  0
    5.3405    2.3096    0.0000 H   0  0  0  0  0  0  0  0  0  0  0  0
    5.6183    0.7339    0.0000 H   0  0  0  0  0  0  0  0  0  0  0  0
    3.8370    2.8569    0.0000 H   0  0  0  0  0  0  0  0  0  0  0  0
    0.0001   -2.7713    0.0000 O   0  0  0  0  0  0  0  0  0  0  0  0
    0.8000   -4.1569    0.0000 C   0  0  0  0  0  0  0  0  0  0  0  0
    1.6000   -5.5426    0.0000 H   0  0  0  0  0  0  0  0  0  0  0  0
    0.0001   -5.5426    0.0000 H   0  0  0  0  0  0  0  0  0  0  0  0
    2.4000   -4.1569    0.0000 H   0  0  0  0  0  0  0  0  0  0  0  0
  1  2  1  0  0  0  0
  1  3  1  0  0  0  0
  1  4  1  0  0  0  0
  4  5  1  0  0  0  0
  4  6  1  0  0  0  0
  6  7  1  0  0  0  0
  6  8  1  0  0  0  0
  6  9  1  0  0  0  0
  4 10  1  0  0  0  0
 10 11  1  0  0  0  0
 11 12  2  0  0  0  0
 11 13  1  0  0  0  0
 13 14  1  0  0  0  0
 13 15  1  0  0  0  0
 13 16  1  0  0  0  0
  1 17  1  0  0  0  0
 17 18  1  0  0  0  0
 18 19  1  0  0  0  0
 18 20  1  0  0  0  0
 18 21  1  0  0  0  0
M  END
> <ChemID>
100204

> <source_casrn>
108-65-6

> <CAS>
108-65-6

> <SMILES>
COCC(OC(=O)C)C

> <NAME>
PROPYLENE GLYCOL ME ETHER ACETATE

> <preferred_name>
1-Methoxy-2-propyl acetate

> <iupac>
1-methoxypropan-2-yl acetate

> <MPID>
99481

> <dsstox_substance_id>
DTXSID1026796

> <Canonical_QSARr>
COCC(C)OC(C)=O

> <InChI_Code_QSARr>
InChI=1S/C6H12O3/c1-5(4-8-3)9-6(2)7/h5H,4H2,1-3H3

> <InChI Key_QSARr>
LLHKCFNBLRBOGN-UHFFFAOYSA-N

> <LogKOC>
0.36

$$$$
100205
  -INDIGO-08031722282D

 21 21  0  0  0  0  0  0  0  0999 V2000
    0.0000    0.0001    0.0000 C   0  0  0  0  0  0  0  0  0  0  0  0
    1.3857    0.8000    0.0000 C   0  0  0  0  0  0  0  0  0  0  0  0
    1.3857    2.4000    0.0000 H   0  0  0  0  0  0  0  0  0  0  0  0
    2.7713    0.0001    0.0000 C   0  0  0  0  0  0  0  0  0  0  0  0
    4.1570    0.8000    0.0000 C   0  0  0  0  0  0  0  0  0  0  0  0
    5.5426    1.6001    0.0000 H   0  0  0  0  0  0  0  0  0  0  0  0
    5.5426    0.0001    0.0000 H   0  0  0  0  0  0  0  0  0  0  0  0
    4.1570    2.4000    0.0000 H   0  0  0  0  0  0  0  0  0  0  0  0
    2.7713   -1.5999    0.0000 C   0  0  0  0  0  0  0  0  0  0  0  0
    4.1570   -2.4000    0.0000 H   0  0  0  0  0  0  0  0  0  0  0  0
    1.3857   -2.4000    0.0000 C   0  0  0  0  0  0  0  0  0  0  0  0
    1.3857   -4.0000    0.0000 C   0  0  0  0  0  0  0  0  0  0  0  0
    1.3856   -5.6000    0.0000 H   0  0  0  0  0  0  0  0  0  0  0  0
    0.0000   -4.8001    0.0000 H   0  0  0  0  0  0  0  0  0  0  0  0
    2.7713   -4.8001    0.0000 H   0  0  0  0  0  0  0  0  0  0  0  0
    0.0000   -1.5999    0.0000 C   0  0  0  0  0  0  0  0  0  0  0  0
   -1.3857   -2.4000    0.0000 H   0  0  0  0  0  0  0  0  0  0  0  0
   -1.3857    0.8000    0.0000 C   0  0  0  0  0  0  0  0  0  0  0  0
   -2.7713    1.6001    0.0000 H   0  0  0  0  0  0  0  0  0  0  0  0
   -2.7713    0.0001    0.0000 H   0  0  0  0  0  0  0  0  0  0  0  0
   -1.3857    2.4000    0.0000 H   0  0  0  0  0  0  0  0  0  0  0  0
  1  2  1  0  0  0  0
  2  3  1  0  0  0  0
  2  4  2  0  0  0  0
  4  5  1  0  0  0  0
  5  6  1  0  0  0  0
  5  7  1  0  0  0  0
  5  8  1  0  0  0  0
  4  9  1  0  0  0  0
  9 10  1  0  0  0  0
  9 11  2  0  0  0  0
 11 12  1  0  0  0  0
 12 13  1  0  0  0  0
 12 14  1  0  0  0  0
 12 15  1  0  0  0  0
 11 16  1  0  0  0  0
 16  1  2  0  0  0  0
 16 17  1  0  0  0  0
  1 18  1  0  0  0  0
 18 19  1  0  0  0  0
 18 20  1  0  0  0  0
 18 21  1  0  0  0  0
M  END
> <ChemID>
100205

> <source_casrn>
108-67-8

> <CAS>
108-67-8

> <SMILES>
Cc1cc(C)cc(C)c1

> <NAME>
1,3,5-TRIMETHYLBENZENE

> <preferred_name>
1,3,5-Trimethylbenzene

> <iupac>
1,3,5-trimethylbenzene

> <MPID>
99482

> <dsstox_substance_id>
DTXSID6026797

> <Canonical_QSARr>
Cc1cc(C)cc(C)c1

> <InChI_Code_QSARr>
InChI=1S/C9H12/c1-7-4-8(2)6-9(3)5-7/h4-6H,1-3H3

> <InChI Key_QSARr>
AUHZEENZYGFFBQ-UHFFFAOYSA-N

> <LogKOC>
2.82

$$$$
100207
  -INDIGO-08031722282D

 12 12  0  0  0  0  0  0  0  0999 V2000
   -0.0000   -0.0000    0.0000 C   0  0  0  0  0  0  0  0  0  0  0  0
    0.8000   -1.3857    0.0000 C   0  0  0  0  0  0  0  0  0  0  0  0
    2.4000   -1.3857    0.0000 H   0  0  0  0  0  0  0  0  0  0  0  0
   -0.0000   -2.7713    0.0000 C   0  0  0  0  0  0  0  0  0  0  0  0
    0.8000   -4.1569    0.0000 Cl  0  0  0  0  0  0  0  0  0  0  0  0
   -1.6000   -2.7713    0.0000 C   0  0  0  0  0  0  0  0  0  0  0  0
   -2.4000   -4.1569    0.0000 H   0  0  0  0  0  0  0  0  0  0  0  0
   -2.4000   -1.3856    0.0000 C   0  0  0  0  0  0  0  0  0  0  0  0
   -4.0000   -1.3856    0.0000 Cl  0  0  0  0  0  0  0  0  0  0  0  0
   -1.6000   -0.0000    0.0000 C   0  0  0  0  0  0  0  0  0  0  0  0
   -2.4000    1.3856    0.0000 H   0  0  0  0  0  0  0  0  0  0  0  0
    0.8000    1.3856    0.0000 Cl  0  0  0  0  0  0  0  0  0  0  0  0
  1  2  1  0  0  0  0
  2  3  1  0  0  0  0
  2  4  2  0  0  0  0
  4  5  1  0  0  0  0
  4  6  1  0  0  0  0
  6  7  1  0  0  0  0
  6  8  2  0  0  0  0
  8  9  1  0  0  0  0
  8 10  1  0  0  0  0
 10  1  2  0  0  0  0
 10 11  1  0  0  0  0
  1 12  1  0  0  0  0
M  END
> <ChemID>
100207

> <source_casrn>
108-70-3

> <CAS>
108-70-3

> <SMILES>
Clc1cc(Cl)cc(Cl)c1

> <NAME>
1,3,5-TRICHLOROBENZENE

> <preferred_name>
1,3,5-Trichlorobenzene

> <iupac>
C6H3Cl3

> <MPID>
99484

> <dsstox_substance_id>
DTXSID8026195

> <Canonical_QSARr>
Clc1cc(Cl)cc(Cl)c1

> <InChI_Code_QSARr>
InChI=1S/C6H3Cl3/c7-4-1-5(8)3-6(9)2-4/h1-3H

> <InChI Key_QSARr>
XKEFYDZQGKAQCN-UHFFFAOYSA-N

> <LogKOC>
2.85

$$$$
100208
  -INDIGO-08031722282D

 12 12  0  0  0  0  0  0  0  0999 V2000
   -0.0000   -0.0000    0.0000 C   0  0  0  0  0  0  0  0  0  0  0  0
    0.8000   -1.3857    0.0000 C   0  0  0  0  0  0  0  0  0  0  0  0
    2.4000   -1.3857    0.0000 H   0  0  0  0  0  0  0  0  0  0  0  0
   -0.0000   -2.7713    0.0000 C   0  0  0  0  0  0  0  0  0  0  0  0
    0.8000   -4.1569    0.0000 H   0  0  0  0  0  0  0  0  0  0  0  0
   -1.6000   -2.7713    0.0000 C   0  0  0  0  0  0  0  0  0  0  0  0
   -2.4000   -4.1569    0.0000 H   0  0  0  0  0  0  0  0  0  0  0  0
   -2.4000   -1.3856    0.0000 C   0  0  0  0  0  0  0  0  0  0  0  0
   -4.0000   -1.3856    0.0000 H   0  0  0  0  0  0  0  0  0  0  0  0
   -1.6000   -0.0000    0.0000 C   0  0  0  0  0  0  0  0  0  0  0  0
   -2.4000    1.3856    0.0000 H   0  0  0  0  0  0  0  0  0  0  0  0
    0.8000    1.3856    0.0000 Br  0  0  0  0  0  0  0  0  0  0  0  0
  1  2  1  0  0  0  0
  2  3  1  0  0  0  0
  2  4  2  0  0  0  0
  4  5  1  0  0  0  0
  4  6  1  0  0  0  0
  6  7  1  0  0  0  0
  6  8  2  0  0  0  0
  8  9  1  0  0  0  0
  8 10  1  0  0  0  0
 10  1  2  0  0  0  0
 10 11  1  0  0  0  0
  1 12  1  0  0  0  0
M  END
> <ChemID>
100208

> <source_casrn>
108-86-1

> <CAS>
108-86-1

> <SMILES>
Brc1ccccc1

> <NAME>
BROMOBENZENE

> <preferred_name>
Bromobenzene

> <iupac>
bromobenzene

> <MPID>
99485

> <dsstox_substance_id>
DTXSID5024637

> <Canonical_QSARr>
Brc1ccccc1

> <InChI_Code_QSARr>
InChI=1S/C6H5Br/c7-6-4-2-1-3-5-6/h1-5H

> <InChI Key_QSARr>
QARVLSVVCXYDNA-UHFFFAOYSA-N

> <LogKOC>
2.49

$$$$
100209
  -INDIGO-08031722282D

 15 15  0  0  0  0  0  0  0  0999 V2000
    1.6000   -0.0000    0.0000 C   0  0  0  0  0  0  0  0  0  0  0  0
    3.2000   -0.0000    0.0000 H   0  0  0  0  0  0  0  0  0  0  0  0
    2.4001   -1.3856    0.0000 H   0  0  0  0  0  0  0  0  0  0  0  0
    2.4001    1.3856    0.0000 H   0  0  0  0  0  0  0  0  0  0  0  0
    0.0000   -0.0000    0.0000 C   0  0  0  0  0  0  0  0  0  0  0  0
   -0.7999    1.3856    0.0000 C   0  0  0  0  0  0  0  0  0  0  0  0
    0.0000    2.7713    0.0000 H   0  0  0  0  0  0  0  0  0  0  0  0
   -2.4001    1.3856    0.0000 C   0  0  0  0  0  0  0  0  0  0  0  0
   -3.2000    2.7713    0.0000 H   0  0  0  0  0  0  0  0  0  0  0  0
   -3.2000   -0.0000    0.0000 C   0  0  0  0  0  0  0  0  0  0  0  0
   -4.8000   -0.0000    0.0000 H   0  0  0  0  0  0  0  0  0  0  0  0
   -2.4001   -1.3856    0.0000 C   0  0  0  0  0  0  0  0  0  0  0  0
   -3.2000   -2.7713    0.0000 H   0  0  0  0  0  0  0  0  0  0  0  0
   -0.8001   -1.3856    0.0000 C   0  0  0  0  0  0  0  0  0  0  0  0
    0.0000   -2.7713    0.0000 H   0  0  0  0  0  0  0  0  0  0  0  0
  1  2  1  0  0  0  0
  1  3  1  0  0  0  0
  1  4  1  0  0  0  0
  1  5  1  0  0  0  0
  5  6  1  0  0  0  0
  6  7  1  0  0  0  0
  6  8  2  0  0  0  0
  8  9  1  0  0  0  0
  8 10  1  0  0  0  0
 10 11  1  0  0  0  0
 10 12  2  0  0  0  0
 12 13  1  0  0  0  0
 12 14  1  0  0  0  0
 14  5  2  0  0  0  0
 14 15  1  0  0  0  0
M  END
> <ChemID>
100209

> <source_casrn>
108-88-3

> <CAS>
108-88-3

> <SMILES>
Cc1ccccc1

> <NAME>
TOLUENE

> <preferred_name>
Toluene

> <iupac>
methylbenzene

> <MPID>
99486

> <dsstox_substance_id>
DTXSID7021360

> <Canonical_QSARr>
Cc1ccccc1

> <InChI_Code_QSARr>
InChI=1S/C7H8/c1-7-5-3-2-4-6-7/h2-6H,1H3

> <InChI Key_QSARr>
YXFVVABEGXRONW-UHFFFAOYSA-N

> <LogKOC>
2.07

$$$$
100211
  -INDIGO-08031722282D

 13 13  0  0  0  0  0  0  0  0999 V2000
    0.8000    1.3856    0.0000 O   0  0  0  0  0  0  0  0  0  0  0  0
    2.4000    1.3856    0.0000 H   0  0  0  0  0  0  0  0  0  0  0  0
   -0.0000   -0.0000    0.0000 C   0  0  0  0  0  0  0  0  0  0  0  0
    0.8000   -1.3857    0.0000 C   0  0  0  0  0  0  0  0  0  0  0  0
    2.4000   -1.3857    0.0000 H   0  0  0  0  0  0  0  0  0  0  0  0
   -0.0000   -2.7713    0.0000 C   0  0  0  0  0  0  0  0  0  0  0  0
    0.8000   -4.1569    0.0000 H   0  0  0  0  0  0  0  0  0  0  0  0
   -1.6000   -2.7713    0.0000 C   0  0  0  0  0  0  0  0  0  0  0  0
   -2.4000   -4.1569    0.0000 H   0  0  0  0  0  0  0  0  0  0  0  0
   -2.4000   -1.3856    0.0000 C   0  0  0  0  0  0  0  0  0  0  0  0
   -4.0000   -1.3856    0.0000 H   0  0  0  0  0  0  0  0  0  0  0  0
   -1.6000   -0.0000    0.0000 C   0  0  0  0  0  0  0  0  0  0  0  0
   -2.4000    1.3856    0.0000 H   0  0  0  0  0  0  0  0  0  0  0  0
  1  2  1  0  0  0  0
  1  3  1  0  0  0  0
  3  4  1  0  0  0  0
  4  5  1  0  0  0  0
  4  6  2  0  0  0  0
  6  7  1  0  0  0  0
  6  8  1  0  0  0  0
  8  9  1  0  0  0  0
  8 10  2  0  0  0  0
 10 11  1  0  0  0  0
 10 12  1  0  0  0  0
 12  3  2  0  0  0  0
 12 13  1  0  0  0  0
M  END
> <ChemID>
100211

> <source_casrn>
108-95-2

> <CAS>
108-95-2

> <SMILES>
Oc1ccccc1

> <NAME>
PHENOL

> <preferred_name>
Phenol

> <iupac>
phenol

> <MPID>
99488

> <dsstox_substance_id>
DTXSID5021124

> <Canonical_QSARr>
Oc1ccccc1

> <InChI_Code_QSARr>
InChI=1S/C6H6O/c7-6-4-2-1-3-5-6/h1-5,7H

> <InChI Key_QSARr>
ISWSIDIOOBJBQZ-UHFFFAOYSA-N

> <LogKOC>
1.43

$$$$
100212
  -INDIGO-08031722282D

 16 15  0  0  0  0  0  0  0  0999 V2000
    2.7713   -0.0000    0.0000 C   0  0  0  0  0  0  0  0  0  0  0  0
    4.1569   -0.8000    0.0000 H   0  0  0  0  0  0  0  0  0  0  0  0
    4.1569    0.8000    0.0000 H   0  0  0  0  0  0  0  0  0  0  0  0
    2.7713   -1.6000    0.0000 H   0  0  0  0  0  0  0  0  0  0  0  0
    1.3856    0.8000    0.0000 C   0  0  0  0  0  0  0  0  0  0  0  0
    0.7734    2.2782    0.0000 H   0  0  0  0  0  0  0  0  0  0  0  0
    1.9979    2.2782    0.0000 H   0  0  0  0  0  0  0  0  0  0  0  0
    0.0001   -0.0000    0.0000 C   0  0  0  0  0  0  0  0  0  0  0  0
    0.6123   -1.4782    0.0000 H   0  0  0  0  0  0  0  0  0  0  0  0
   -0.6123   -1.4782    0.0000 H   0  0  0  0  0  0  0  0  0  0  0  0
   -1.3856    0.8000    0.0000 C   0  0  0  0  0  0  0  0  0  0  0  0
   -1.9979    2.2782    0.0000 H   0  0  0  0  0  0  0  0  0  0  0  0
   -0.7734    2.2782    0.0000 H   0  0  0  0  0  0  0  0  0  0  0  0
   -2.7713   -0.0000    0.0000 N   0  0  0  0  0  0  0  0  0  0  0  0
   -4.1569    0.8000    0.0000 H   0  0  0  0  0  0  0  0  0  0  0  0
   -2.7712   -1.6000    0.0000 H   0  0  0  0  0  0  0  0  0  0  0  0
  1  2  1  0  0  0  0
  1  3  1  0  0  0  0
  1  4  1  0  0  0  0
  1  5  1  0  0  0  0
  5  6  1  0  0  0  0
  5  7  1  0  0  0  0
  5  8  1  0  0  0  0
  8  9  1  0  0  0  0
  8 10  1  0  0  0  0
  8 11  1  0  0  0  0
 11 12  1  0  0  0  0
 11 13  1  0  0  0  0
 11 14  1  0  0  0  0
 14 15  1  0  0  0  0
 14 16  1  0  0  0  0
M  END
> <ChemID>
100212

> <source_casrn>
109-73-9

> <CAS>
109-73-9

> <SMILES>
CCCCN

> <NAME>
N-BUTYLAMINE

> <preferred_name>
Butylamine

> <iupac>
butan-1-amine

> <MPID>
99489

> <dsstox_substance_id>
DTXSID1021904

> <Canonical_QSARr>
CCCCN

> <InChI_Code_QSARr>
InChI=1S/C4H11N/c1-2-3-4-5/h2-5H2,1H3

> <InChI Key_QSARr>
HQABUPZFAYXKJW-UHFFFAOYSA-N

> <LogKOC>
1.88

$$$$
100213
  -INDIGO-08031722282D

 11 11  0  0  0  0  0  0  0  0999 V2000
   -0.0000    3.2000    0.0000 N   0  0  0  0  0  0  0  0  0  0  0  0
    1.3856    2.4000    0.0000 C   0  0  0  0  0  0  0  0  0  0  0  0
    2.7713    3.2000    0.0000 H   0  0  0  0  0  0  0  0  0  0  0  0
    1.3856    0.8000    0.0000 C   0  0  0  0  0  0  0  0  0  0  0  0
    2.7713    0.0000    0.0000 H   0  0  0  0  0  0  0  0  0  0  0  0
   -0.0000    0.0000    0.0000 C   0  0  0  0  0  0  0  0  0  0  0  0
   -0.0000   -1.6000    0.0000 H   0  0  0  0  0  0  0  0  0  0  0  0
   -1.3856    0.8000    0.0000 C   0  0  0  0  0  0  0  0  0  0  0  0
   -2.7713    0.0000    0.0000 H   0  0  0  0  0  0  0  0  0  0  0  0
   -1.3856    2.4000    0.0000 C   0  0  0  0  0  0  0  0  0  0  0  0
   -2.7713    3.2000    0.0000 H   0  0  0  0  0  0  0  0  0  0  0  0
  1  2  1  0  0  0  0
  2  3  1  0  0  0  0
  2  4  2  0  0  0  0
  4  5  1  0  0  0  0
  4  6  1  0  0  0  0
  6  7  1  0  0  0  0
  6  8  2  0  0  0  0
  8  9  1  0  0  0  0
  8 10  1  0  0  0  0
 10  1  2  0  0  0  0
 10 11  1  0  0  0  0
M  END
> <ChemID>
100213

> <source_casrn>
110-86-1

> <CAS>
110-86-1

> <SMILES>
c1cccc[n]1

> <NAME>
PYRIDINE

> <preferred_name>
Pyridine

> <iupac>
pyridine

> <MPID>
99490

> <dsstox_substance_id>
DTXSID9021924

> <Canonical_QSARr>
c1cccc[n]1

> <InChI_Code_QSARr>
InChI=1S/C5H5N/c1-2-4-6-5-3-1/h1-5H

> <InChI Key_QSARr>
JUJWROOIHBZHMG-UHFFFAOYSA-N

> <LogKOC>
1.6

$$$$
100215
  -INDIGO-08031722282D

 18 17  0  0  0  0  0  0  0  0999 V2000
    2.7713    0.0000    0.0000 O   0  0  0  0  0  0  0  0  0  0  0  0
    4.1569    0.8000    0.0000 H   0  0  0  0  0  0  0  0  0  0  0  0
    1.3856    0.8000    0.0000 C   0  0  0  0  0  0  0  0  0  0  0  0
    1.9979    2.2782    0.0000 H   0  0  0  0  0  0  0  0  0  0  0  0
    0.7733    2.2782    0.0000 H   0  0  0  0  0  0  0  0  0  0  0  0
   -0.0001    0.0000    0.0000 C   0  0  0  0  0  0  0  0  0  0  0  0
   -0.6122   -1.4782    0.0000 H   0  0  0  0  0  0  0  0  0  0  0  0
    0.6123   -1.4782    0.0000 H   0  0  0  0  0  0  0  0  0  0  0  0
   -1.3856    0.8000    0.0000 N   0  0  0  0  0  0  0  0  0  0  0  0
   -1.3856    2.4000    0.0000 H   0  0  0  0  0  0  0  0  0  0  0  0
   -2.7712    0.0000    0.0000 C   0  0  0  0  0  0  0  0  0  0  0  0
   -3.3835   -1.4782    0.0000 H   0  0  0  0  0  0  0  0  0  0  0  0
   -2.1591   -1.4782    0.0000 H   0  0  0  0  0  0  0  0  0  0  0  0
   -4.1569    0.8000    0.0000 C   0  0  0  0  0  0  0  0  0  0  0  0
   -3.5446    2.2782    0.0000 H   0  0  0  0  0  0  0  0  0  0  0  0
   -4.7692    2.2782    0.0000 H   0  0  0  0  0  0  0  0  0  0  0  0
   -5.5425    0.0000    0.0000 O   0  0  0  0  0  0  0  0  0  0  0  0
   -6.9282    0.8000    0.0000 H   0  0  0  0  0  0  0  0  0  0  0  0
  1  2  1  0  0  0  0
  1  3  1  0  0  0  0
  3  4  1  0  0  0  0
  3  5  1  0  0  0  0
  3  6  1  0  0  0  0
  6  7  1  0  0  0  0
  6  8  1  0  0  0  0
  6  9  1  0  0  0  0
  9 10  1  0  0  0  0
  9 11  1  0  0  0  0
 11 12  1  0  0  0  0
 11 13  1  0  0  0  0
 11 14  1  0  0  0  0
 14 15  1  0  0  0  0
 14 16  1  0  0  0  0
 14 17  1  0  0  0  0
 17 18  1  0  0  0  0
M  END
> <ChemID>
100215

> <source_casrn>
111-42-2

> <CAS>
111-42-2

> <SMILES>
OCCNCCO

> <NAME>
DIETHANOLAMINE

> <preferred_name>
Diethanolamine

> <iupac>
2,2'-iminodiethanol

> <MPID>
99492

> <dsstox_substance_id>
DTXSID3021932

> <Canonical_QSARr>
OCCNCCO

> <InChI_Code_QSARr>
InChI=1S/C4H11NO2/c6-3-1-5-2-4-7/h5-7H,1-4H2

> <InChI Key_QSARr>
ZBCBWPMODOFKDW-UHFFFAOYSA-N

> <LogKOC>
0.6

$$$$
100216
  -INDIGO-08031722282D

 15 14  0  0  0  0  0  0  0  0999 V2000
    1.3856    2.4000    0.0000 Cl  0  0  0  0  0  0  0  0  0  0  0  0
    1.3856    0.8000    0.0000 C   0  0  0  0  0  0  0  0  0  0  0  0
    2.7713    1.6000    0.0000 H   0  0  0  0  0  0  0  0  0  0  0  0
    2.7713    0.0000    0.0000 H   0  0  0  0  0  0  0  0  0  0  0  0
    0.0000    0.0000    0.0000 C   0  0  0  0  0  0  0  0  0  0  0  0
    0.6122   -1.4782    0.0000 H   0  0  0  0  0  0  0  0  0  0  0  0
   -0.6122   -1.4782    0.0000 H   0  0  0  0  0  0  0  0  0  0  0  0
   -1.3857    0.8000    0.0000 O   0  0  0  0  0  0  0  0  0  0  0  0
   -2.7713    0.0000    0.0000 C   0  0  0  0  0  0  0  0  0  0  0  0
   -2.1590   -1.4782    0.0000 H   0  0  0  0  0  0  0  0  0  0  0  0
   -3.3835   -1.4782    0.0000 H   0  0  0  0  0  0  0  0  0  0  0  0
   -4.1569    0.8000    0.0000 C   0  0  0  0  0  0  0  0  0  0  0  0
   -5.5426    1.6000    0.0000 H   0  0  0  0  0  0  0  0  0  0  0  0
   -5.5426    0.0000    0.0000 H   0  0  0  0  0  0  0  0  0  0  0  0
   -4.1569    2.4000    0.0000 Cl  0  0  0  0  0  0  0  0  0  0  0  0
  1  2  1  0  0  0  0
  2  3  1  0  0  0  0
  2  4  1  0  0  0  0
  2  5  1  0  0  0  0
  5  6  1  0  0  0  0
  5  7  1  0  0  0  0
  5  8  1  0  0  0  0
  8  9  1  0  0  0  0
  9 10  1  0  0  0  0
  9 11  1  0  0  0  0
  9 12  1  0  0  0  0
 12 13  1  0  0  0  0
 12 14  1  0  0  0  0
 12 15  1  0  0  0  0
M  END
> <ChemID>
100216

> <source_casrn>
111-44-4

> <CAS>
111-44-4

> <SMILES>
ClCCOCCCl

> <NAME>
BIS(2-CHLOROETHYL) ETHER

> <preferred_name>
Bis(2-chloroethyl) ether

> <iupac>
bis(2-chloroethyl) ether

> <MPID>
99493

> <dsstox_substance_id>
DTXSID9020168

> <Canonical_QSARr>
ClCCOCCCl

> <InChI_Code_QSARr>
InChI=1S/C4H8Cl2O/c5-1-3-7-4-2-6/h1-4H2

> <InChI Key_QSARr>
ZNSMNVMLTJELDZ-UHFFFAOYSA-N

> <LogKOC>
1.88

$$$$
100217
  -INDIGO-08031722282D

 18 17  0  0  0  0  0  0  0  0999 V2000
   -2.7713    1.6000    0.0000 S   0  0  0  0  0  0  0  0  0  0  0  0
   -2.7713    0.0000    0.0000 C   0  0  0  0  0  0  0  0  0  0  0  0
   -1.3856   -0.8000    0.0000 N   0  0  0  0  0  0  0  0  0  0  0  0
   -1.3856   -2.4000    0.0000 H   0  0  0  0  0  0  0  0  0  0  0  0
    0.0001    0.0000    0.0000 C   0  0  0  0  0  0  0  0  0  0  0  0
   -0.6123    1.4782    0.0000 H   0  0  0  0  0  0  0  0  0  0  0  0
    0.6122    1.4782    0.0000 H   0  0  0  0  0  0  0  0  0  0  0  0
    1.3856   -0.8000    0.0000 C   0  0  0  0  0  0  0  0  0  0  0  0
    1.9979   -2.2782    0.0000 H   0  0  0  0  0  0  0  0  0  0  0  0
    0.7734   -2.2782    0.0000 H   0  0  0  0  0  0  0  0  0  0  0  0
    2.7713    0.0000    0.0000 N   0  0  0  0  0  0  0  0  0  0  0  0
    2.7713    1.6000    0.0000 H   0  0  0  0  0  0  0  0  0  0  0  0
    4.1570   -0.8000    0.0000 C   0  0  0  0  0  0  0  0  0  0  0  0
    4.1570   -2.4000    0.0000 S   0  0  0  0  0  0  0  0  0  0  0  0
    5.5425    0.0000    0.0000 S   0  0  0  0  0  0  0  0  0  0  0  0
    6.9282   -0.8000    0.0000 H   0  0  0  0  0  0  0  0  0  0  0  0
   -4.1569   -0.8000    0.0000 S   0  0  0  0  0  0  0  0  0  0  0  0
   -5.5426    0.0000    0.0000 H   0  0  0  0  0  0  0  0  0  0  0  0
  1  2  2  0  0  0  0
  2  3  1  0  0  0  0
  3  4  1  0  0  0  0
  3  5  1  0  0  0  0
  5  6  1  0  0  0  0
  5  7  1  0  0  0  0
  5  8  1  0  0  0  0
  8  9  1  0  0  0  0
  8 10  1  0  0  0  0
  8 11  1  0  0  0  0
 11 12  1  0  0  0  0
 11 13  1  0  0  0  0
 13 14  2  0  0  0  0
 13 15  1  0  0  0  0
 15 16  1  0  0  0  0
  2 17  1  0  0  0  0
 17 18  1  0  0  0  0
M  END
> <ChemID>
100217

> <source_casrn>
111-54-6

> <CAS>
111-54-6

> <SMILES>
SC(=S)NCCNC(S)=S

> <NAME>
1,2-ETHANEDIYLBISCARBAMODITHIOIC ACID

> <preferred_name>
Ethylenebis[dithiocarbamic acid]

> <iupac>
ethane-1,2-diyldicarbamodithioic acid

> <MPID>
99494

> <dsstox_substance_id>
DTXSID5043972

> <Canonical_QSARr>
SC(=S)NCCNC(S)=S

> <InChI_Code_QSARr>
InChI=1S/C4H8N2S4/c7-3(8)5-1-2-6-4(9)10/h1-2H2,(H2,5,7,8)(H2,6,9,10)

> <InChI Key_QSARr>
AWYFNIZYMPNGAI-UHFFFAOYSA-N

> <LogKOC>
2.74

$$$$
100219
  -INDIGO-08031722282D

 22 21  0  0  0  0  0  0  0  0999 V2000
    6.9281    0.8000    0.0000 O   0  0  0  0  0  0  0  0  0  0  0  0
    8.3138   -0.0000    0.0000 H   0  0  0  0  0  0  0  0  0  0  0  0
    5.5426   -0.0000    0.0000 C   0  0  0  0  0  0  0  0  0  0  0  0
    4.9303   -1.4782    0.0000 H   0  0  0  0  0  0  0  0  0  0  0  0
    6.1548   -1.4782    0.0000 H   0  0  0  0  0  0  0  0  0  0  0  0
    4.1569    0.8000    0.0000 C   0  0  0  0  0  0  0  0  0  0  0  0
    4.7693    2.2782    0.0000 H   0  0  0  0  0  0  0  0  0  0  0  0
    3.5446    2.2782    0.0000 H   0  0  0  0  0  0  0  0  0  0  0  0
    2.7712   -0.0000    0.0000 O   0  0  0  0  0  0  0  0  0  0  0  0
    1.3857    0.8000    0.0000 C   0  0  0  0  0  0  0  0  0  0  0  0
    1.9979    2.2782    0.0000 H   0  0  0  0  0  0  0  0  0  0  0  0
    0.7733    2.2782    0.0000 H   0  0  0  0  0  0  0  0  0  0  0  0
    0.0000   -0.0000    0.0000 C   0  0  0  0  0  0  0  0  0  0  0  0
   -0.6124   -1.4782    0.0000 H   0  0  0  0  0  0  0  0  0  0  0  0
    0.6124   -1.4782    0.0000 H   0  0  0  0  0  0  0  0  0  0  0  0
   -1.3857    0.8000    0.0000 C   0  0  0  0  0  0  0  0  0  0  0  0
   -0.7733    2.2782    0.0000 H   0  0  0  0  0  0  0  0  0  0  0  0
   -1.9979    2.2782    0.0000 H   0  0  0  0  0  0  0  0  0  0  0  0
   -2.7712   -0.0000    0.0000 C   0  0  0  0  0  0  0  0  0  0  0  0
   -4.1569   -0.8000    0.0000 H   0  0  0  0  0  0  0  0  0  0  0  0
   -4.1569    0.8000    0.0000 H   0  0  0  0  0  0  0  0  0  0  0  0
   -2.7712   -1.6000    0.0000 H   0  0  0  0  0  0  0  0  0  0  0  0
  1  2  1  0  0  0  0
  1  3  1  0  0  0  0
  3  4  1  0  0  0  0
  3  5  1  0  0  0  0
  3  6  1  0  0  0  0
  6  7  1  0  0  0  0
  6  8  1  0  0  0  0
  6  9  1  0  0  0  0
  9 10  1  0  0  0  0
 10 11  1  0  0  0  0
 10 12  1  0  0  0  0
 10 13  1  0  0  0  0
 13 14  1  0  0  0  0
 13 15  1  0  0  0  0
 13 16  1  0  0  0  0
 16 17  1  0  0  0  0
 16 18  1  0  0  0  0
 16 19  1  0  0  0  0
 19 20  1  0  0  0  0
 19 21  1  0  0  0  0
 19 22  1  0  0  0  0
M  END
> <ChemID>
100219

> <source_casrn>
111-76-2

> <CAS>
111-76-2

> <SMILES>
CCCCOCCO

> <NAME>
2-BUTOXYETHANOL

> <preferred_name>
2-Butoxyethanol

> <iupac>
C6H14O2

> <MPID>
99496

> <dsstox_substance_id>
DTXSID1024097

> <Canonical_QSARr>
CCCCOCCO

> <InChI_Code_QSARr>
InChI=1S/C6H14O2/c1-2-3-5-8-6-4-7/h7H,2-6H2,1H3

> <InChI Key_QSARr>
POAOYUHQDCAZBD-UHFFFAOYSA-N

> <LogKOC>
1.83

$$$$
100220
  -INDIGO-08031722282D

 27 26  0  0  0  0  0  0  0  0999 V2000
    5.5427   -0.0000    0.0000 C   0  0  0  0  0  0  0  0  0  0  0  0
    6.9282   -0.8000    0.0000 H   0  0  0  0  0  0  0  0  0  0  0  0
    6.9282    0.8000    0.0000 H   0  0  0  0  0  0  0  0  0  0  0  0
    5.5427   -1.6000    0.0000 H   0  0  0  0  0  0  0  0  0  0  0  0
    4.1569    0.8000    0.0000 C   0  0  0  0  0  0  0  0  0  0  0  0
    3.5446    2.2782    0.0000 H   0  0  0  0  0  0  0  0  0  0  0  0
    4.7692    2.2782    0.0000 H   0  0  0  0  0  0  0  0  0  0  0  0
    2.7714   -0.0000    0.0000 C   0  0  0  0  0  0  0  0  0  0  0  0
    3.3835   -1.4782    0.0000 H   0  0  0  0  0  0  0  0  0  0  0  0
    2.1591   -1.4782    0.0000 H   0  0  0  0  0  0  0  0  0  0  0  0
    1.3856    0.8000    0.0000 C   0  0  0  0  0  0  0  0  0  0  0  0
    0.7733    2.2782    0.0000 H   0  0  0  0  0  0  0  0  0  0  0  0
    1.9980    2.2782    0.0000 H   0  0  0  0  0  0  0  0  0  0  0  0
    0.0001   -0.0000    0.0000 C   0  0  0  0  0  0  0  0  0  0  0  0
    0.6122   -1.4782    0.0000 H   0  0  0  0  0  0  0  0  0  0  0  0
   -0.6122   -1.4782    0.0000 H   0  0  0  0  0  0  0  0  0  0  0  0
   -1.3856    0.8000    0.0000 C   0  0  0  0  0  0  0  0  0  0  0  0
   -1.9980    2.2782    0.0000 H   0  0  0  0  0  0  0  0  0  0  0  0
   -0.7733    2.2782    0.0000 H   0  0  0  0  0  0  0  0  0  0  0  0
   -2.7712   -0.0000    0.0000 C   0  0  0  0  0  0  0  0  0  0  0  0
   -2.1591   -1.4782    0.0000 H   0  0  0  0  0  0  0  0  0  0  0  0
   -3.3835   -1.4782    0.0000 H   0  0  0  0  0  0  0  0  0  0  0  0
   -4.1569    0.8000    0.0000 C   0  0  0  0  0  0  0  0  0  0  0  0
   -4.7692    2.2782    0.0000 H   0  0  0  0  0  0  0  0  0  0  0  0
   -3.5446    2.2782    0.0000 H   0  0  0  0  0  0  0  0  0  0  0  0
   -5.5425   -0.0000    0.0000 O   0  0  0  0  0  0  0  0  0  0  0  0
   -6.9282    0.8000    0.0000 H   0  0  0  0  0  0  0  0  0  0  0  0
  1  2  1  0  0  0  0
  1  3  1  0  0  0  0
  1  4  1  0  0  0  0
  1  5  1  0  0  0  0
  5  6  1  0  0  0  0
  5  7  1  0  0  0  0
  5  8  1  0  0  0  0
  8  9  1  0  0  0  0
  8 10  1  0  0  0  0
  8 11  1  0  0  0  0
 11 12  1  0  0  0  0
 11 13  1  0  0  0  0
 11 14  1  0  0  0  0
 14 15  1  0  0  0  0
 14 16  1  0  0  0  0
 14 17  1  0  0  0  0
 17 18  1  0  0  0  0
 17 19  1  0  0  0  0
 17 20  1  0  0  0  0
 20 21  1  0  0  0  0
 20 22  1  0  0  0  0
 20 23  1  0  0  0  0
 23 24  1  0  0  0  0
 23 25  1  0  0  0  0
 23 26  1  0  0  0  0
 26 27  1  0  0  0  0
M  END
> <ChemID>
100220

> <source_casrn>
111-87-5

> <CAS>
111-87-5

> <SMILES>
CCCCCCCCO

> <NAME>
1-OCTANOL

> <preferred_name>
1-Octanol

> <iupac>
octan-1-ol

> <MPID>
99497

> <dsstox_substance_id>
DTXSID7021940

> <Canonical_QSARr>
CCCCCCCCO

> <InChI_Code_QSARr>
InChI=1S/C8H18O/c1-2-3-4-5-6-7-8-9/h9H,2-8H2,1H3

> <InChI Key_QSARr>
KBPLFHHGFOOTCA-UHFFFAOYSA-N

> <LogKOC>
1.56

$$$$
100221
  -INDIGO-08031722282D

 19 18  0  0  0  0  0  0  0  0999 V2000
    1.3857    0.8000    0.0000 O   0  0  0  0  0  0  0  0  0  0  0  0
    2.7714    0.0000    0.0000 C   0  0  0  0  0  0  0  0  0  0  0  0
    2.1590   -1.4782    0.0000 H   0  0  0  0  0  0  0  0  0  0  0  0
    3.3835   -1.4782    0.0000 H   0  0  0  0  0  0  0  0  0  0  0  0
    4.1569    0.8000    0.0000 O   0  0  0  0  0  0  0  0  0  0  0  0
    5.5425    0.0000    0.0000 C   0  0  0  0  0  0  0  0  0  0  0  0
    4.9302   -1.4782    0.0000 H   0  0  0  0  0  0  0  0  0  0  0  0
    6.1548   -1.4782    0.0000 H   0  0  0  0  0  0  0  0  0  0  0  0
    6.9282    0.8000    0.0000 C   0  0  0  0  0  0  0  0  0  0  0  0
    8.3138    1.6000    0.0000 H   0  0  0  0  0  0  0  0  0  0  0  0
    8.3138    0.0000    0.0000 H   0  0  0  0  0  0  0  0  0  0  0  0
    6.9282    2.4000    0.0000 Cl  0  0  0  0  0  0  0  0  0  0  0  0
    0.0000    0.0000    0.0000 C   0  0  0  0  0  0  0  0  0  0  0  0
   -0.6123   -1.4782    0.0000 H   0  0  0  0  0  0  0  0  0  0  0  0
    0.6124   -1.4782    0.0000 H   0  0  0  0  0  0  0  0  0  0  0  0
   -1.3856    0.8000    0.0000 C   0  0  0  0  0  0  0  0  0  0  0  0
   -2.7713    1.6000    0.0000 H   0  0  0  0  0  0  0  0  0  0  0  0
   -2.7713    0.0000    0.0000 H   0  0  0  0  0  0  0  0  0  0  0  0
   -1.3856    2.4000    0.0000 Cl  0  0  0  0  0  0  0  0  0  0  0  0
  1  2  1  0  0  0  0
  2  3  1  0  0  0  0
  2  4  1  0  0  0  0
  2  5  1  0  0  0  0
  5  6  1  0  0  0  0
  6  7  1  0  0  0  0
  6  8  1  0  0  0  0
  6  9  1  0  0  0  0
  9 10  1  0  0  0  0
  9 11  1  0  0  0  0
  9 12  1  0  0  0  0
  1 13  1  0  0  0  0
 13 14  1  0  0  0  0
 13 15  1  0  0  0  0
 13 16  1  0  0  0  0
 16 17  1  0  0  0  0
 16 18  1  0  0  0  0
 16 19  1  0  0  0  0
M  END
> <ChemID>
100221

> <source_casrn>
111-91-1

> <CAS>
111-91-1

> <SMILES>
ClCCOCOCCCl

> <NAME>
BIS(2-CHLOROETHOXY)METHANE

> <preferred_name>
Bis(2-chloroethoxy)methane

> <iupac>
1-chloro-2-[(2-chloroethoxy)methoxy]ethane

> <MPID>
99498

> <dsstox_substance_id>
DTXSID4023917

> <Canonical_QSARr>
ClCCOCOCCCl

> <InChI_Code_QSARr>
InChI=1S/C5H10Cl2O2/c6-1-3-8-5-9-4-2-7/h1-5H2

> <InChI Key_QSARr>
NLXGURFLBLRZRO-UHFFFAOYSA-N

> <LogKOC>
1.79

$$$$
100223
  -INDIGO-08031722282D

 39 38  0  0  0  0  0  0  0  0999 V2000
    6.9282    0.8000    0.0000 C   0  0  0  0  0  0  0  0  0  0  0  0
    7.5404    2.2782    0.0000 H   0  0  0  0  0  0  0  0  0  0  0  0
    6.3158    2.2782    0.0000 H   0  0  0  0  0  0  0  0  0  0  0  0
    5.5426   -0.0000    0.0000 C   0  0  0  0  0  0  0  0  0  0  0  0
    4.9302   -1.4782    0.0000 H   0  0  0  0  0  0  0  0  0  0  0  0
    6.1548   -1.4782    0.0000 H   0  0  0  0  0  0  0  0  0  0  0  0
    4.1570    0.8000    0.0000 C   0  0  0  0  0  0  0  0  0  0  0  0
    4.7692    2.2782    0.0000 H   0  0  0  0  0  0  0  0  0  0  0  0
    3.5446    2.2782    0.0000 H   0  0  0  0  0  0  0  0  0  0  0  0
    2.7714   -0.0000    0.0000 C   0  0  0  0  0  0  0  0  0  0  0  0
    2.1589   -1.4782    0.0000 H   0  0  0  0  0  0  0  0  0  0  0  0
    3.3835   -1.4782    0.0000 H   0  0  0  0  0  0  0  0  0  0  0  0
    1.3858    0.8000    0.0000 C   0  0  0  0  0  0  0  0  0  0  0  0
    1.9979    2.2782    0.0000 H   0  0  0  0  0  0  0  0  0  0  0  0
    0.7733    2.2782    0.0000 H   0  0  0  0  0  0  0  0  0  0  0  0
    0.0001   -0.0000    0.0000 C   0  0  0  0  0  0  0  0  0  0  0  0
   -0.6123   -1.4782    0.0000 H   0  0  0  0  0  0  0  0  0  0  0  0
    0.6123   -1.4782    0.0000 H   0  0  0  0  0  0  0  0  0  0  0  0
   -1.3858    0.8000    0.0000 C   0  0  0  0  0  0  0  0  0  0  0  0
   -0.7733    2.2782    0.0000 H   0  0  0  0  0  0  0  0  0  0  0  0
   -1.9979    2.2782    0.0000 H   0  0  0  0  0  0  0  0  0  0  0  0
   -2.7714   -0.0000    0.0000 C   0  0  0  0  0  0  0  0  0  0  0  0
   -3.3835   -1.4782    0.0000 H   0  0  0  0  0  0  0  0  0  0  0  0
   -2.1589   -1.4782    0.0000 H   0  0  0  0  0  0  0  0  0  0  0  0
   -4.1570    0.8000    0.0000 C   0  0  0  0  0  0  0  0  0  0  0  0
   -3.5446    2.2782    0.0000 H   0  0  0  0  0  0  0  0  0  0  0  0
   -4.7692    2.2782    0.0000 H   0  0  0  0  0  0  0  0  0  0  0  0
   -5.5426   -0.0000    0.0000 C   0  0  0  0  0  0  0  0  0  0  0  0
   -6.1548   -1.4782    0.0000 H   0  0  0  0  0  0  0  0  0  0  0  0
   -4.9302   -1.4782    0.0000 H   0  0  0  0  0  0  0  0  0  0  0  0
   -6.9282    0.8000    0.0000 C   0  0  0  0  0  0  0  0  0  0  0  0
   -6.3158    2.2782    0.0000 H   0  0  0  0  0  0  0  0  0  0  0  0
   -7.5404    2.2782    0.0000 H   0  0  0  0  0  0  0  0  0  0  0  0
   -8.3139   -0.0000    0.0000 C   0  0  0  0  0  0  0  0  0  0  0  0
   -9.6995   -0.8000    0.0000 H   0  0  0  0  0  0  0  0  0  0  0  0
   -9.6995    0.8000    0.0000 H   0  0  0  0  0  0  0  0  0  0  0  0
   -8.3139   -1.6000    0.0000 H   0  0  0  0  0  0  0  0  0  0  0  0
    8.3139   -0.0000    0.0000 O   0  0  0  0  0  0  0  0  0  0  0  0
    9.6995    0.8000    0.0000 H   0  0  0  0  0  0  0  0  0  0  0  0
  1  2  1  0  0  0  0
  1  3  1  0  0  0  0
  1  4  1  0  0  0  0
  4  5  1  0  0  0  0
  4  6  1  0  0  0  0
  4  7  1  0  0  0  0
  7  8  1  0  0  0  0
  7  9  1  0  0  0  0
  7 10  1  0  0  0  0
 10 11  1  0  0  0  0
 10 12  1  0  0  0  0
 10 13  1  0  0  0  0
 13 14  1  0  0  0  0
 13 15  1  0  0  0  0
 13 16  1  0  0  0  0
 16 17  1  0  0  0  0
 16 18  1  0  0  0  0
 16 19  1  0  0  0  0
 19 20  1  0  0  0  0
 19 21  1  0  0  0  0
 19 22  1  0  0  0  0
 22 23  1  0  0  0  0
 22 24  1  0  0  0  0
 22 25  1  0  0  0  0
 25 26  1  0  0  0  0
 25 27  1  0  0  0  0
 25 28  1  0  0  0  0
 28 29  1  0  0  0  0
 28 30  1  0  0  0  0
 28 31  1  0  0  0  0
 31 32  1  0  0  0  0
 31 33  1  0  0  0  0
 31 34  1  0  0  0  0
 34 35  1  0  0  0  0
 34 36  1  0  0  0  0
 34 37  1  0  0  0  0
  1 38  1  0  0  0  0
 38 39  1  0  0  0  0
M  END
> <ChemID>
100223

> <source_casrn>
112-53-8

> <CAS>
112-53-8

> <SMILES>
CCCCCCCCCCCCO

> <NAME>
DODECANOL

> <preferred_name>
1-Dodecanol

> <iupac>
dodecan-1-ol

> <MPID>
99500

> <dsstox_substance_id>
DTXSID5026918

> <Canonical_QSARr>
CCCCCCCCCCCCO

> <InChI_Code_QSARr>
InChI=1S/C12H26O/c1-2-3-4-5-6-7-8-9-10-11-12-13/h13H,2-12H2,1H3

> <InChI Key_QSARr>
LQZZUXJYWNFBMV-UHFFFAOYSA-N

> <LogKOC>
3.52

$$$$
100224
  -INDIGO-08031722282D

 30 30  0  0  0  0  0  0  0  0999 V2000
    0.0000    1.6000    0.0000 C   0  0  0  0  0  0  0  0  0  0  0  0
    0.0000    3.2000    0.0000 H   0  0  0  0  0  0  0  0  0  0  0  0
    1.3856    2.4000    0.0000 H   0  0  0  0  0  0  0  0  0  0  0  0
   -1.3856    2.4000    0.0000 H   0  0  0  0  0  0  0  0  0  0  0  0
    0.0000    0.0001    0.0000 C   0  0  0  0  0  0  0  0  0  0  0  0
    0.0000   -1.6000    0.0000 H   0  0  0  0  0  0  0  0  0  0  0  0
   -1.6000    0.0001    0.0000 C   0  0  0  0  0  0  0  0  0  0  0  0
   -3.2000    0.0001    0.0000 H   0  0  0  0  0  0  0  0  0  0  0  0
   -2.4000    1.3856    0.0000 H   0  0  0  0  0  0  0  0  0  0  0  0
   -2.4000   -1.3856    0.0000 H   0  0  0  0  0  0  0  0  0  0  0  0
    1.6000    0.0001    0.0000 O   0  0  0  0  0  0  0  0  0  0  0  0
    2.4000   -1.3856    0.0000 C   0  0  0  0  0  0  0  0  0  0  0  0
    1.6000   -2.7713    0.0000 C   0  0  0  0  0  0  0  0  0  0  0  0
    0.0000   -2.7713    0.0000 H   0  0  0  0  0  0  0  0  0  0  0  0
    2.4000   -4.1569    0.0000 C   0  0  0  0  0  0  0  0  0  0  0  0
    1.6000   -5.5426    0.0000 H   0  0  0  0  0  0  0  0  0  0  0  0
    4.0000   -4.1569    0.0000 C   0  0  0  0  0  0  0  0  0  0  0  0
    4.8000   -5.5426    0.0000 H   0  0  0  0  0  0  0  0  0  0  0  0
    4.8000   -2.7713    0.0000 C   0  0  0  0  0  0  0  0  0  0  0  0
    6.4000   -2.7713    0.0000 H   0  0  0  0  0  0  0  0  0  0  0  0
    4.0000   -1.3856    0.0000 C   0  0  0  0  0  0  0  0  0  0  0  0
    4.8000    0.0001    0.0000 O   0  0  0  0  0  0  0  0  0  0  0  0
    6.4000    0.0001    0.0000 C   0  0  0  0  0  0  0  0  0  0  0  0
    7.2000   -1.3856    0.0000 O   0  0  0  0  0  0  0  0  0  0  0  0
    7.2000    1.3856    0.0000 N   0  0  0  0  0  0  0  0  0  0  0  0
    6.4000    2.7712    0.0000 H   0  0  0  0  0  0  0  0  0  0  0  0
    8.8000    1.3856    0.0000 C   0  0  0  0  0  0  0  0  0  0  0  0
   10.4000    1.3856    0.0000 H   0  0  0  0  0  0  0  0  0  0  0  0
    9.6000    2.7712    0.0000 H   0  0  0  0  0  0  0  0  0  0  0  0
    9.6000    0.0001    0.0000 H   0  0  0  0  0  0  0  0  0  0  0  0
  1  2  1  0  0  0  0
  1  3  1  0  0  0  0
  1  4  1  0  0  0  0
  1  5  1  0  0  0  0
  5  6  1  0  0  0  0
  5  7  1  0  0  0  0
  7  8  1  0  0  0  0
  7  9  1  0  0  0  0
  7 10  1  0  0  0  0
  5 11  1  0  0  0  0
 11 12  1  0  0  0  0
 12 13  1  0  0  0  0
 13 14  1  0  0  0  0
 13 15  2  0  0  0  0
 15 16  1  0  0  0  0
 15 17  1  0  0  0  0
 17 18  1  0  0  0  0
 17 19  2  0  0  0  0
 19 20  1  0  0  0  0
 19 21  1  0  0  0  0
 21 12  2  0  0  0  0
 21 22  1  0  0  0  0
 22 23  1  0  0  0  0
 23 24  2  0  0  0  0
 23 25  1  0  0  0  0
 25 26  1  0  0  0  0
 25 27  1  0  0  0  0
 27 28  1  0  0  0  0
 27 29  1  0  0  0  0
 27 30  1  0  0  0  0
M  END
> <ChemID>
100224

> <source_casrn>
114-26-1

> <CAS>
114-26-1

> <SMILES>
CNC(=O)Oc1ccccc1OC(C)C

> <NAME>
PROPOXUR

> <preferred_name>
Propoxur

> <iupac>
2-(propan-2-yloxy)phenyl methylcarbamate

> <MPID>
99501

> <dsstox_substance_id>
DTXSID7021948

> <Canonical_QSARr>
CNC(=O)Oc1ccccc1OC(C)C

> <InChI_Code_QSARr>
InChI=1S/C11H15NO3/c1-8(2)14-9-6-4-5-7-10(9)15-11(13)12-3/h4-8H,1-3H3,(H,12,13)

> <InChI Key_QSARr>
ISRUGXGCCGIOQO-UHFFFAOYSA-N

> <LogKOC>
1.67

$$$$
100225
  -INDIGO-08031722282D

 18 18  0  0  0  0  0  0  0  0999 V2000
   -0.0001   -0.0000    0.0000 C   0  0  0  0  0  0  0  0  0  0  0  0
   -0.0001   -1.6000    0.0000 C   0  0  0  0  0  0  0  0  0  0  0  0
    1.3857   -2.4000    0.0000 Cl  0  0  0  0  0  0  0  0  0  0  0  0
   -1.3857   -2.4000    0.0000 C   0  0  0  0  0  0  0  0  0  0  0  0
   -1.3857   -4.0000    0.0000 H   0  0  0  0  0  0  0  0  0  0  0  0
   -2.7713   -1.6000    0.0000 C   0  0  0  0  0  0  0  0  0  0  0  0
   -4.1569   -2.4000    0.0000 H   0  0  0  0  0  0  0  0  0  0  0  0
   -2.7713   -0.0000    0.0000 C   0  0  0  0  0  0  0  0  0  0  0  0
   -4.1569    0.8000    0.0000 H   0  0  0  0  0  0  0  0  0  0  0  0
   -1.3857    0.8000    0.0000 C   0  0  0  0  0  0  0  0  0  0  0  0
   -1.3857    2.4000    0.0000 H   0  0  0  0  0  0  0  0  0  0  0  0
    1.3857    0.8000    0.0000 N   0  0  0  0  0  0  0  0  0  0  0  0
    1.3857    2.4000    0.0000 H   0  0  0  0  0  0  0  0  0  0  0  0
    2.7713   -0.0000    0.0000 C   0  0  0  0  0  0  0  0  0  0  0  0
    4.1569    0.8000    0.0000 N   0  0  0  0  0  0  0  0  0  0  0  0
    5.5426   -0.0000    0.0000 H   0  0  0  0  0  0  0  0  0  0  0  0
    4.1569    2.4000    0.0000 H   0  0  0  0  0  0  0  0  0  0  0  0
    2.7713   -1.6000    0.0000 O   0  0  0  0  0  0  0  0  0  0  0  0
  1  2  1  0  0  0  0
  2  3  1  0  0  0  0
  2  4  2  0  0  0  0
  4  5  1  0  0  0  0
  4  6  1  0  0  0  0
  6  7  1  0  0  0  0
  6  8  2  0  0  0  0
  8  9  1  0  0  0  0
  8 10  1  0  0  0  0
 10  1  2  0  0  0  0
 10 11  1  0  0  0  0
  1 12  1  0  0  0  0
 12 13  1  0  0  0  0
 12 14  1  0  0  0  0
 14 15  1  0  0  0  0
 15 16  1  0  0  0  0
 15 17  1  0  0  0  0
 14 18  2  0  0  0  0
M  END
> <ChemID>
100225

> <source_casrn>
114-38-5

> <CAS>
114-38-5

> <SMILES>
NC(=O)Nc1ccccc1Cl

> <NAME>
O-CHLOROPHENYLUREA

> <preferred_name>
(2-Chlorophenyl)urea

> <iupac>
(2-CHLOROPHENYL)UREA

> <MPID>
99502

> <dsstox_substance_id>
DTXSID1074460

> <Canonical_QSARr>
NC(=O)Nc1ccccc1Cl

> <InChI_Code_QSARr>
InChI=1S/C7H7ClN2O/c8-5-3-1-2-4-6(5)10-7(9)11/h1-4H,(H3,9,10,11)

> <InChI Key_QSARr>
ASPIQYFYSMQBHA-UHFFFAOYSA-N

> <LogKOC>
1.61

$$$$
100227
  -INDIGO-08031722282D

 25 27  0  0  0  0  0  0  0  0999 V2000
   -2.8827    0.0431    0.0000 O   0  0  0  0  0  0  0  0  0  0  0  0
   -3.2621   -1.5113    0.0000 S   0  0  0  0  0  0  0  0  0  0  0  0
   -4.8271   -1.8439    0.0000 O   0  0  0  0  0  0  0  0  0  0  0  0
   -2.2834   -2.7770    0.0000 O   0  0  0  0  0  0  0  0  0  0  0  0
   -0.6835   -2.8009    0.0000 C   0  0  0  0  0  0  0  0  0  0  0  0
   -1.0628   -4.3553    0.0000 H   0  0  0  0  0  0  0  0  0  0  0  0
    0.4163   -3.9628    0.0000 H   0  0  0  0  0  0  0  0  0  0  0  0
    0.3327   -1.5650    0.0000 C   0  0  0  0  0  0  0  0  0  0  0  0
    0.9395   -3.0456    0.0000 H   0  0  0  0  0  0  0  0  0  0  0  0
   -0.0001    0.0000    0.0000 C   0  0  0  0  0  0  0  0  0  0  0  0
   -0.0478    1.5993    0.0000 H   0  0  0  0  0  0  0  0  0  0  0  0
    1.3856    0.8000    0.0000 C   0  0  0  0  0  0  0  0  0  0  0  0
    2.9769    0.6327    0.0000 C   0  0  0  0  0  0  0  0  0  0  0  0
    4.0475    1.8217    0.0000 Cl  0  0  0  0  0  0  0  0  0  0  0  0
    3.3095   -0.9323    0.0000 C   0  0  0  0  0  0  0  0  0  0  0  0
    4.7712   -1.5831    0.0000 Cl  0  0  0  0  0  0  0  0  0  0  0  0
    1.9239   -1.7323    0.0000 C   0  0  0  0  0  0  0  0  0  0  0  0
    2.2566   -3.2973    0.0000 Cl  0  0  0  0  0  0  0  0  0  0  0  0
    2.5747   -0.2706    0.0000 C   0  0  0  0  0  0  0  0  0  0  0  0
    4.1504   -0.5485    0.0000 Cl  0  0  0  0  0  0  0  0  0  0  0  0
    3.9011    0.6241    0.0000 Cl  0  0  0  0  0  0  0  0  0  0  0  0
    1.0530    2.3650    0.0000 Cl  0  0  0  0  0  0  0  0  0  0  0  0
   -1.4310    0.7157    0.0000 C   0  0  0  0  0  0  0  0  0  0  0  0
   -0.8988    2.2245    0.0000 H   0  0  0  0  0  0  0  0  0  0  0  0
   -2.4098    1.9814    0.0000 H   0  0  0  0  0  0  0  0  0  0  0  0
  1  2  1  0  0  0  0
  2  3  2  0  0  0  0
  2  4  1  0  0  0  0
  4  5  1  0  0  0  0
  5  6  1  0  0  0  0
  5  7  1  0  0  0  0
  5  8  1  0  0  0  0
  8  9  1  0  0  0  0
  8 10  1  0  0  0  0
 10 11  1  0  0  0  0
 10 12  1  0  0  0  0
 12 13  1  0  0  0  0
 13 14  1  0  0  0  0
 13 15  2  0  0  0  0
 15 16  1  0  0  0  0
 15 17  1  0  0  0  0
 17  8  1  0  0  0  0
 17 18  1  0  0  0  0
 17 19  1  0  0  0  0
 19 12  1  0  0  0  0
 19 20  1  0  0  0  0
 19 21  1  0  0  0  0
 12 22  1  0  0  0  0
 10 23  1  0  0  0  0
 23  1  1  0  0  0  0
 23 24  1  0  0  0  0
 23 25  1  0  0  0  0
M  END
> <ChemID>
100227

> <source_casrn>
115-29-7|959-98-8

> <CAS>
115-29-7|959-98-8

> <SMILES>
O=S1OCC2C(CO1)C1(Cl)C(Cl)=C(Cl)C2(Cl)C1(Cl)Cl

> <NAME>
ENDOSULFAN, A-ENDOSULFAN

> <preferred_name>
Endosulfan

> <iupac>
6,7,8,9,10,10-hexachloro-1,5,5a,6,9,9a-hexahydro-6,9-methano-2,4,3-benzodioxathiepine 3-oxide

> <MPID>
99504|99670

> <dsstox_substance_id>
DTXSID1020560|DTXSID9037539

> <Canonical_QSARr>
O=S1OCC2C(CO1)C1(Cl)C(Cl)=C(Cl)C2(Cl)C1(Cl)Cl

> <InChI_Code_QSARr>
InChI=1S/C9H6Cl6O3S/c10-5-6(11)8(13)4-2-18-19(16)17-1-3(4)7(5,12)9(8,14)15/h3-4H,1-2H2

> <InChI Key_QSARr>
RDYMFSUJUZBWLH-UHFFFAOYSA-N

> <LogKOC>
4.11

$$$$
100228
  -INDIGO-08031722282D

 29 30  0  0  0  0  0  0  0  0999 V2000
    0.5473   -1.5035    0.0000 O   0  0  0  0  0  0  0  0  0  0  0  0
    1.0655   -2.0024    0.0000 H   0  0  0  0  0  0  0  0  0  0  0  0
    0.0000    0.0000    0.0000 C   0  0  0  0  0  0  0  0  0  0  0  0
   -1.5036   -0.5472    0.0000 C   0  0  0  0  0  0  0  0  0  0  0  0
   -1.7813   -2.1230    0.0000 C   0  0  0  0  0  0  0  0  0  0  0  0
   -0.5556   -3.1514    0.0000 H   0  0  0  0  0  0  0  0  0  0  0  0
   -3.2848   -2.6702    0.0000 C   0  0  0  0  0  0  0  0  0  0  0  0
   -3.5627   -4.2458    0.0000 H   0  0  0  0  0  0  0  0  0  0  0  0
   -4.5105   -1.6417    0.0000 C   0  0  0  0  0  0  0  0  0  0  0  0
   -6.0140   -2.1889    0.0000 Cl  0  0  0  0  0  0  0  0  0  0  0  0
   -4.2328   -0.0660    0.0000 C   0  0  0  0  0  0  0  0  0  0  0  0
   -5.4584    0.9624    0.0000 H   0  0  0  0  0  0  0  0  0  0  0  0
   -2.7292    0.4812    0.0000 C   0  0  0  0  0  0  0  0  0  0  0  0
   -2.4513    2.0569    0.0000 H   0  0  0  0  0  0  0  0  0  0  0  0
    1.5758    0.2778    0.0000 C   0  0  0  0  0  0  0  0  0  0  0  0
    2.3757    1.6635    0.0000 C   0  0  0  0  0  0  0  0  0  0  0  0
    1.5758    3.0491    0.0000 H   0  0  0  0  0  0  0  0  0  0  0  0
    3.9756    1.6635    0.0000 C   0  0  0  0  0  0  0  0  0  0  0  0
    4.7757    3.0491    0.0000 H   0  0  0  0  0  0  0  0  0  0  0  0
    4.7757    0.2778    0.0000 C   0  0  0  0  0  0  0  0  0  0  0  0
    6.3757    0.2778    0.0000 Cl  0  0  0  0  0  0  0  0  0  0  0  0
    3.9756   -1.1078    0.0000 C   0  0  0  0  0  0  0  0  0  0  0  0
    4.7757   -2.4934    0.0000 H   0  0  0  0  0  0  0  0  0  0  0  0
    2.3757   -1.1078    0.0000 C   0  0  0  0  0  0  0  0  0  0  0  0
    2.1229   -1.7814    0.0000 H   0  0  0  0  0  0  0  0  0  0  0  0
   -0.5473    1.5035    0.0000 C   0  0  0  0  0  0  0  0  0  0  0  0
   -1.0944    3.0070    0.0000 Cl  0  0  0  0  0  0  0  0  0  0  0  0
    0.4811    2.7292    0.0000 Cl  0  0  0  0  0  0  0  0  0  0  0  0
    1.0285    1.2257    0.0000 Cl  0  0  0  0  0  0  0  0  0  0  0  0
  1  2  1  0  0  0  0
  1  3  1  0  0  0  0
  3  4  1  0  0  0  0
  4  5  1  0  0  0  0
  5  6  1  0  0  0  0
  5  7  2  0  0  0  0
  7  8  1  0  0  0  0
  7  9  1  0  0  0  0
  9 10  1  0  0  0  0
  9 11  2  0  0  0  0
 11 12  1  0  0  0  0
 11 13  1  0  0  0  0
 13  4  2  0  0  0  0
 13 14  1  0  0  0  0
  3 15  1  0  0  0  0
 15 16  1  0  0  0  0
 16 17  1  0  0  0  0
 16 18  2  0  0  0  0
 18 19  1  0  0  0  0
 18 20  1  0  0  0  0
 20 21  1  0  0  0  0
 20 22  2  0  0  0  0
 22 23  1  0  0  0  0
 22 24  1  0  0  0  0
 24 15  2  0  0  0  0
 24 25  1  0  0  0  0
  3 26  1  0  0  0  0
 26 27  1  0  0  0  0
 26 28  1  0  0  0  0
 26 29  1  0  0  0  0
M  END
> <ChemID>
100228

> <source_casrn>
115-32-2

> <CAS>
115-32-2

> <SMILES>
OC(c1ccc(Cl)cc1)(c1ccc(Cl)cc1)C(Cl)(Cl)Cl

> <NAME>
DICOFOL

> <preferred_name>
Dicofol

> <iupac>
2,2,2-trichloro-1,1-bis(4-chlorophenyl)ethanol

> <MPID>
99505

> <dsstox_substance_id>
DTXSID4020450

> <Canonical_QSARr>
OC(c1ccc(Cl)cc1)(c1ccc(Cl)cc1)C(Cl)(Cl)Cl

> <InChI_Code_QSARr>
InChI=1S/C14H9Cl5O/c15-11-5-1-9(2-6-11)13(20,14(17,18)19)10-3-7-12(16)8-4-10/h1-8,20H

> <InChI Key_QSARr>
UOAMTSKGCBMZTC-UHFFFAOYSA-N

> <LogKOC>
3.7

$$$$
100229
  -INDIGO-08031722282D

 35 35  0  0  0  0  0  0  0  0999 V2000
   -6.9283    2.4000    0.0000 S   0  0  0  0  0  0  0  0  0  0  0  0
   -6.9283    4.0000    0.0000 O   0  0  0  0  0  0  0  0  0  0  0  0
   -8.3138    1.6000    0.0000 C   0  0  0  0  0  0  0  0  0  0  0  0
   -9.6995    0.8000    0.0000 H   0  0  0  0  0  0  0  0  0  0  0  0
   -9.6995    2.4000    0.0000 H   0  0  0  0  0  0  0  0  0  0  0  0
   -8.3138    0.0000    0.0000 H   0  0  0  0  0  0  0  0  0  0  0  0
   -5.5426    1.6000    0.0000 C   0  0  0  0  0  0  0  0  0  0  0  0
   -5.5426    0.0000    0.0000 C   0  0  0  0  0  0  0  0  0  0  0  0
   -6.9283   -0.8000    0.0000 H   0  0  0  0  0  0  0  0  0  0  0  0
   -4.1569   -0.8000    0.0000 C   0  0  0  0  0  0  0  0  0  0  0  0
   -4.1569   -2.4000    0.0000 H   0  0  0  0  0  0  0  0  0  0  0  0
   -2.7712    0.0000    0.0000 C   0  0  0  0  0  0  0  0  0  0  0  0
   -1.3857   -0.8000    0.0000 O   0  0  0  0  0  0  0  0  0  0  0  0
   -0.0000    0.0000    0.0000 P   0  0  0  0  0  0  0  0  0  0  0  0
   -0.0000   -1.6000    0.0000 S   0  0  0  0  0  0  0  0  0  0  0  0
    1.3857   -0.8000    0.0000 O   0  0  0  0  0  0  0  0  0  0  0  0
    2.7714    0.0000    0.0000 C   0  0  0  0  0  0  0  0  0  0  0  0
    2.1590    1.4782    0.0000 H   0  0  0  0  0  0  0  0  0  0  0  0
    3.3835    1.4782    0.0000 H   0  0  0  0  0  0  0  0  0  0  0  0
    4.1569   -0.8000    0.0000 C   0  0  0  0  0  0  0  0  0  0  0  0
    5.5426   -1.6000    0.0000 H   0  0  0  0  0  0  0  0  0  0  0  0
    5.5426    0.0000    0.0000 H   0  0  0  0  0  0  0  0  0  0  0  0
    4.1569   -2.4000    0.0000 H   0  0  0  0  0  0  0  0  0  0  0  0
    1.3857    0.8000    0.0000 O   0  0  0  0  0  0  0  0  0  0  0  0
    1.3857    2.4000    0.0000 C   0  0  0  0  0  0  0  0  0  0  0  0
   -0.2007    2.6089    0.0000 H   0  0  0  0  0  0  0  0  0  0  0  0
    0.4116    3.6694    0.0000 H   0  0  0  0  0  0  0  0  0  0  0  0
    2.7714    3.2000    0.0000 C   0  0  0  0  0  0  0  0  0  0  0  0
    4.1569    4.0000    0.0000 H   0  0  0  0  0  0  0  0  0  0  0  0
    2.7714    4.8000    0.0000 H   0  0  0  0  0  0  0  0  0  0  0  0
    4.1569    2.4000    0.0000 H   0  0  0  0  0  0  0  0  0  0  0  0
   -2.7712    1.6000    0.0000 C   0  0  0  0  0  0  0  0  0  0  0  0
   -1.3857    2.4000    0.0000 H   0  0  0  0  0  0  0  0  0  0  0  0
   -4.1569    2.4000    0.0000 C   0  0  0  0  0  0  0  0  0  0  0  0
   -4.1569    4.0000    0.0000 H   0  0  0  0  0  0  0  0  0  0  0  0
  1  2  2  0  0  0  0
  1  3  1  0  0  0  0
  3  4  1  0  0  0  0
  3  5  1  0  0  0  0
  3  6  1  0  0  0  0
  1  7  1  0  0  0  0
  7  8  1  0  0  0  0
  8  9  1  0  0  0  0
  8 10  2  0  0  0  0
 10 11  1  0  0  0  0
 10 12  1  0  0  0  0
 12 13  1  0  0  0  0
 13 14  1  0  0  0  0
 14 15  2  0  0  0  0
 14 16  1  0  0  0  0
 16 17  1  0  0  0  0
 17 18  1  0  0  0  0
 17 19  1  0  0  0  0
 17 20  1  0  0  0  0
 20 21  1  0  0  0  0
 20 22  1  0  0  0  0
 20 23  1  0  0  0  0
 14 24  1  0  0  0  0
 24 25  1  0  0  0  0
 25 26  1  0  0  0  0
 25 27  1  0  0  0  0
 25 28  1  0  0  0  0
 28 29  1  0  0  0  0
 28 30  1  0  0  0  0
 28 31  1  0  0  0  0
 12 32  2  0  0  0  0
 32 33  1  0  0  0  0
 32 34  1  0  0  0  0
 34  7  2  0  0  0  0
 34 35  1  0  0  0  0
M  END
> <ChemID>
100229

> <source_casrn>
115-90-2

> <CAS>
115-90-2

> <SMILES>
CS(=O)c1ccc(cc1)OP(=S)(OCC)OCC

> <NAME>
FENSULFOTHION

> <preferred_name>
Fensulfothion

> <iupac>
O,O-diethyl O-[4-(methylsulfinyl)phenyl] phosphorothioate

> <MPID>
99506

> <dsstox_substance_id>
DTXSID6021953

> <Canonical_QSARr>
CS(=O)c1ccc(cc1)OP(=S)(OCC)OCC

> <InChI_Code_QSARr>
InChI=1S/C11H17O4PS2/c1-4-13-16(17,14-5-2)15-10-6-8-11(9-7-10)18(3)12/h6-9H,4-5H2,1-3H3

> <InChI Key_QSARr>
XDNBJTQLKCIJBV-UHFFFAOYSA-N

> <LogKOC>
2.52

$$$$
100231
  -INDIGO-08031722282D

 14 14  0  0  0  0  0  0  0  0999 V2000
    1.6000   -0.0000    0.0000 N   0  0  0  0  0  0  0  0  0  0  0  0
    2.4000    1.3856    0.0000 O   0  0  0  0  0  0  0  0  0  0  0  0
    2.4000   -1.3856    0.0000 O   0  0  0  0  0  0  0  0  0  0  0  0
    0.0000   -0.0000    0.0000 C   0  0  0  0  0  0  0  0  0  0  0  0
   -0.8000    1.3856    0.0000 C   0  0  0  0  0  0  0  0  0  0  0  0
    0.0000    2.7713    0.0000 Cl  0  0  0  0  0  0  0  0  0  0  0  0
   -2.4000    1.3856    0.0000 C   0  0  0  0  0  0  0  0  0  0  0  0
   -3.2000    2.7713    0.0000 Cl  0  0  0  0  0  0  0  0  0  0  0  0
   -3.2000   -0.0000    0.0000 C   0  0  0  0  0  0  0  0  0  0  0  0
   -4.8000   -0.0000    0.0000 H   0  0  0  0  0  0  0  0  0  0  0  0
   -2.4000   -1.3856    0.0000 C   0  0  0  0  0  0  0  0  0  0  0  0
   -3.2000   -2.7713    0.0000 Cl  0  0  0  0  0  0  0  0  0  0  0  0
   -0.8000   -1.3856    0.0000 C   0  0  0  0  0  0  0  0  0  0  0  0
    0.0000   -2.7713    0.0000 Cl  0  0  0  0  0  0  0  0  0  0  0  0
  1  2  2  0  0  0  0
  1  3  1  0  0  0  0
  1  4  1  0  0  0  0
  4  5  1  0  0  0  0
  5  6  1  0  0  0  0
  5  7  2  0  0  0  0
  7  8  1  0  0  0  0
  7  9  1  0  0  0  0
  9 10  1  0  0  0  0
  9 11  2  0  0  0  0
 11 12  1  0  0  0  0
 11 13  1  0  0  0  0
 13  4  2  0  0  0  0
 13 14  1  0  0  0  0
M  CHG  2   1   1   3  -1
M  END
> <ChemID>
100231

> <source_casrn>
117-18-0

> <CAS>
117-18-0

> <SMILES>
[O-][N+](=O)c1c(Cl)c(Cl)cc(Cl)c1Cl

> <NAME>
2,3,5,6-TETRACHLORONITROBENZENE

> <preferred_name>
2,3,5,6-Tetrachloronitrobenzene

> <iupac>
1,2,4,5-tetrachloro-3-nitrobenzene

> <MPID>
99508

> <dsstox_substance_id>
DTXSID0026098

> <Canonical_QSARr>
[O-][N+](=O)c1c(Cl)c(Cl)cc(Cl)c1Cl

> <InChI_Code_QSARr>
InChI=1S/C6HCl4NO2/c7-2-1-3(8)5(10)6(4(2)9)11(12)13/h1H

> <InChI Key_QSARr>
XQTLDIFVVHJORV-UHFFFAOYSA-N

> <LogKOC>
4.05

$$$$
100232
  -INDIGO-08031722282D

 18 19  0  0  0  0  0  0  0  0999 V2000
   -1.3856    4.0000    0.0000 O   0  0  0  0  0  0  0  0  0  0  0  0
   -1.3856    2.4000    0.0000 C   0  0  0  0  0  0  0  0  0  0  0  0
    0.0001    1.6000    0.0000 C   0  0  0  0  0  0  0  0  0  0  0  0
    0.0001    0.0000    0.0000 C   0  0  0  0  0  0  0  0  0  0  0  0
    1.3856   -0.8000    0.0000 C   0  0  0  0  0  0  0  0  0  0  0  0
    1.3856   -2.4000    0.0000 H   0  0  0  0  0  0  0  0  0  0  0  0
    2.7713    0.0000    0.0000 C   0  0  0  0  0  0  0  0  0  0  0  0
    4.1569   -0.8000    0.0000 H   0  0  0  0  0  0  0  0  0  0  0  0
    2.7713    1.6000    0.0000 C   0  0  0  0  0  0  0  0  0  0  0  0
    4.1569    2.4000    0.0000 H   0  0  0  0  0  0  0  0  0  0  0  0
    1.3856    2.4000    0.0000 C   0  0  0  0  0  0  0  0  0  0  0  0
    1.3856    4.0000    0.0000 H   0  0  0  0  0  0  0  0  0  0  0  0
   -1.3856   -0.8000    0.0000 C   0  0  0  0  0  0  0  0  0  0  0  0
   -1.3856   -2.4000    0.0000 O   0  0  0  0  0  0  0  0  0  0  0  0
   -2.7713    0.0000    0.0000 C   0  0  0  0  0  0  0  0  0  0  0  0
   -4.1569   -0.8000    0.0000 Cl  0  0  0  0  0  0  0  0  0  0  0  0
   -2.7713    1.6000    0.0000 C   0  0  0  0  0  0  0  0  0  0  0  0
   -4.1569    2.4000    0.0000 Cl  0  0  0  0  0  0  0  0  0  0  0  0
  1  2  2  0  0  0  0
  2  3  1  0  0  0  0
  3  4  1  0  0  0  0
  4  5  2  0  0  0  0
  5  6  1  0  0  0  0
  5  7  1  0  0  0  0
  7  8  1  0  0  0  0
  7  9  2  0  0  0  0
  9 10  1  0  0  0  0
  9 11  1  0  0  0  0
 11  3  2  0  0  0  0
 11 12  1  0  0  0  0
  4 13  1  0  0  0  0
 13 14  2  0  0  0  0
 13 15  1  0  0  0  0
 15 16  1  0  0  0  0
 15 17  2  0  0  0  0
 17  2  1  0  0  0  0
 17 18  1  0  0  0  0
M  END
> <ChemID>
100232

> <source_casrn>
117-80-6

> <CAS>
117-80-6

> <SMILES>
O=C1c2ccccc2C(=O)C(Cl)=C1Cl

> <NAME>
DICHLONE

> <preferred_name>
Dichlone

> <iupac>
2,3-dichloronaphthalene-1,4-dione

> <MPID>
99509

> <dsstox_substance_id>
DTXSID7020425

> <Canonical_QSARr>
O=C1c2ccccc2C(=O)C(Cl)=C1Cl

> <InChI_Code_QSARr>
InChI=1S/C10H4Cl2O2/c11-7-8(12)10(14)6-4-2-1-3-5(6)9(7)13/h1-4H

> <InChI Key_QSARr>
SVPKNMBRVBMTLB-UHFFFAOYSA-N

> <LogKOC>
3.98

$$$$
100233
  -INDIGO-08031722282D

 66 66  0  0  0  0  0  0  0  0999 V2000
    4.8000    0.0000    0.0000 O   0  0  0  0  0  0  0  0  0  0  0  0
    3.9999   -1.3856    0.0000 C   0  0  0  0  0  0  0  0  0  0  0  0
    4.8000   -2.7713    0.0000 C   0  0  0  0  0  0  0  0  0  0  0  0
    6.4000   -2.7713    0.0000 C   0  0  0  0  0  0  0  0  0  0  0  0
    7.2001   -1.3856    0.0000 C   0  0  0  0  0  0  0  0  0  0  0  0
    6.4000    0.0000    0.0000 O   0  0  0  0  0  0  0  0  0  0  0  0
    8.8001   -1.3856    0.0000 O   0  0  0  0  0  0  0  0  0  0  0  0
    9.5999    0.0000    0.0000 C   0  0  0  0  0  0  0  0  0  0  0  0
    9.3911    1.5864    0.0000 H   0  0  0  0  0  0  0  0  0  0  0  0
    8.3307    0.9740    0.0000 H   0  0  0  0  0  0  0  0  0  0  0  0
   11.1998    0.0000    0.0000 C   0  0  0  0  0  0  0  0  0  0  0  0
   10.9220   -1.5756    0.0000 H   0  0  0  0  0  0  0  0  0  0  0  0
   12.7036   -0.5473    0.0000 C   0  0  0  0  0  0  0  0  0  0  0  0
   11.8438   -1.8967    0.0000 H   0  0  0  0  0  0  0  0  0  0  0  0
   13.0497   -2.1094    0.0000 H   0  0  0  0  0  0  0  0  0  0  0  0
   14.2792   -0.2695    0.0000 C   0  0  0  0  0  0  0  0  0  0  0  0
   15.3600    0.9102    0.0000 H   0  0  0  0  0  0  0  0  0  0  0  0
   14.2094    1.3291    0.0000 H   0  0  0  0  0  0  0  0  0  0  0  0
   15.3078   -1.4951    0.0000 C   0  0  0  0  0  0  0  0  0  0  0  0
   14.2267   -2.6747    0.0000 H   0  0  0  0  0  0  0  0  0  0  0  0
   15.3773   -3.0935    0.0000 H   0  0  0  0  0  0  0  0  0  0  0  0
   16.8834   -1.2173    0.0000 C   0  0  0  0  0  0  0  0  0  0  0  0
   18.4590   -0.9393    0.0000 H   0  0  0  0  0  0  0  0  0  0  0  0
   17.9120   -2.4429    0.0000 H   0  0  0  0  0  0  0  0  0  0  0  0
   17.4305    0.2863    0.0000 H   0  0  0  0  0  0  0  0  0  0  0  0
   11.4777    1.5757    0.0000 C   0  0  0  0  0  0  0  0  0  0  0  0
   13.0764    1.5058    0.0000 H   0  0  0  0  0  0  0  0  0  0  0  0
   12.6573    2.6566    0.0000 H   0  0  0  0  0  0  0  0  0  0  0  0
   10.2521    2.6042    0.0000 C   0  0  0  0  0  0  0  0  0  0  0  0
   10.5299    4.1798    0.0000 H   0  0  0  0  0  0  0  0  0  0  0  0
    9.0265    3.6325    0.0000 H   0  0  0  0  0  0  0  0  0  0  0  0
   11.7555    3.1513    0.0000 H   0  0  0  0  0  0  0  0  0  0  0  0
    7.2001   -4.1569    0.0000 C   0  0  0  0  0  0  0  0  0  0  0  0
    8.8001   -4.1569    0.0000 H   0  0  0  0  0  0  0  0  0  0  0  0
    6.4000   -5.5426    0.0000 C   0  0  0  0  0  0  0  0  0  0  0  0
    7.2001   -6.9282    0.0000 H   0  0  0  0  0  0  0  0  0  0  0  0
    4.8000   -5.5426    0.0000 C   0  0  0  0  0  0  0  0  0  0  0  0
    3.9999   -6.9282    0.0000 H   0  0  0  0  0  0  0  0  0  0  0  0
    3.9999   -4.1569    0.0000 C   0  0  0  0  0  0  0  0  0  0  0  0
    2.3999   -4.1569    0.0000 H   0  0  0  0  0  0  0  0  0  0  0  0
    2.3999   -1.3856    0.0000 O   0  0  0  0  0  0  0  0  0  0  0  0
    1.6001    0.0000    0.0000 C   0  0  0  0  0  0  0  0  0  0  0  0
    2.8693    0.9740    0.0000 H   0  0  0  0  0  0  0  0  0  0  0  0
    1.8089    1.5864    0.0000 H   0  0  0  0  0  0  0  0  0  0  0  0
    0.0002    0.0000    0.0000 C   0  0  0  0  0  0  0  0  0  0  0  0
    0.2780   -1.5756    0.0000 H   0  0  0  0  0  0  0  0  0  0  0  0
   -1.5036   -0.5473    0.0000 C   0  0  0  0  0  0  0  0  0  0  0  0
   -1.8497   -2.1094    0.0000 H   0  0  0  0  0  0  0  0  0  0  0  0
   -0.6438   -1.8967    0.0000 H   0  0  0  0  0  0  0  0  0  0  0  0
   -3.0792   -0.2695    0.0000 C   0  0  0  0  0  0  0  0  0  0  0  0
   -3.0094    1.3291    0.0000 H   0  0  0  0  0  0  0  0  0  0  0  0
   -4.1600    0.9102    0.0000 H   0  0  0  0  0  0  0  0  0  0  0  0
   -4.1078   -1.4951    0.0000 C   0  0  0  0  0  0  0  0  0  0  0  0
   -4.1773   -3.0935    0.0000 H   0  0  0  0  0  0  0  0  0  0  0  0
   -3.0267   -2.6747    0.0000 H   0  0  0  0  0  0  0  0  0  0  0  0
   -5.6834   -1.2173    0.0000 C   0  0  0  0  0  0  0  0  0  0  0  0
   -7.2590   -0.9393    0.0000 H   0  0  0  0  0  0  0  0  0  0  0  0
   -6.7120   -2.4429    0.0000 H   0  0  0  0  0  0  0  0  0  0  0  0
   -6.2305    0.2863    0.0000 H   0  0  0  0  0  0  0  0  0  0  0  0
   -0.2777    1.5757    0.0000 C   0  0  0  0  0  0  0  0  0  0  0  0
   -1.4573    2.6566    0.0000 H   0  0  0  0  0  0  0  0  0  0  0  0
   -1.8764    1.5058    0.0000 H   0  0  0  0  0  0  0  0  0  0  0  0
    0.9479    2.6042    0.0000 C   0  0  0  0  0  0  0  0  0  0  0  0
    0.6701    4.1798    0.0000 H   0  0  0  0  0  0  0  0  0  0  0  0
    2.1735    3.6325    0.0000 H   0  0  0  0  0  0  0  0  0  0  0  0
   -0.5555    3.1513    0.0000 H   0  0  0  0  0  0  0  0  0  0  0  0
  1  2  2  0  0  0  0
  2  3  1  0  0  0  0
  3  4  1  0  0  0  0
  4  5  1  0  0  0  0
  5  6  2  0  0  0  0
  5  7  1  0  0  0  0
  7  8  1  0  0  0  0
  8  9  1  0  0  0  0
  8 10  1  0  0  0  0
  8 11  1  0  0  0  0
 11 12  1  0  0  0  0
 11 13  1  0  0  0  0
 13 14  1  0  0  0  0
 13 15  1  0  0  0  0
 13 16  1  0  0  0  0
 16 17  1  0  0  0  0
 16 18  1  0  0  0  0
 16 19  1  0  0  0  0
 19 20  1  0  0  0  0
 19 21  1  0  0  0  0
 19 22  1  0  0  0  0
 22 23  1  0  0  0  0
 22 24  1  0  0  0  0
 22 25  1  0  0  0  0
 11 26  1  0  0  0  0
 26 27  1  0  0  0  0
 26 28  1  0  0  0  0
 26 29  1  0  0  0  0
 29 30  1  0  0  0  0
 29 31  1  0  0  0  0
 29 32  1  0  0  0  0
  4 33  2  0  0  0  0
 33 34  1  0  0  0  0
 33 35  1  0  0  0  0
 35 36  1  0  0  0  0
 35 37  2  0  0  0  0
 37 38  1  0  0  0  0
 37 39  1  0  0  0  0
 39  3  2  0  0  0  0
 39 40  1  0  0  0  0
  2 41  1  0  0  0  0
 41 42  1  0  0  0  0
 42 43  1  0  0  0  0
 42 44  1  0  0  0  0
 42 45  1  0  0  0  0
 45 46  1  0  0  0  0
 45 47  1  0  0  0  0
 47 48  1  0  0  0  0
 47 49  1  0  0  0  0
 47 50  1  0  0  0  0
 50 51  1  0  0  0  0
 50 52  1  0  0  0  0
 50 53  1  0  0  0  0
 53 54  1  0  0  0  0
 53 55  1  0  0  0  0
 53 56  1  0  0  0  0
 56 57  1  0  0  0  0
 56 58  1  0  0  0  0
 56 59  1  0  0  0  0
 45 60  1  0  0  0  0
 60 61  1  0  0  0  0
 60 62  1  0  0  0  0
 60 63  1  0  0  0  0
 63 64  1  0  0  0  0
 63 65  1  0  0  0  0
 63 66  1  0  0  0  0
M  END
> <ChemID>
100233

> <source_casrn>
117-81-7

> <CAS>
117-81-7

> <SMILES>
O=C(OCC(CCCC)CC)c(c(ccc1)C(=O)OCC(CCCC)CC)c1

> <NAME>
BIS(2-ETHYLHEXYL)PHTHALATE

> <preferred_name>
Di(2-ethylhexyl) phthalate

> <iupac>
bis(2-ethylhexyl) benzene-1,2-dicarboxylate

> <MPID>
99510

> <dsstox_substance_id>
DTXSID5020607

> <Canonical_QSARr>
CCCCC(COC(=O)c1ccccc1C(=O)OCC(CCCC)CC)CC

> <InChI_Code_QSARr>
InChI=1S/C24H38O4/c1-5-9-13-19(7-3)17-27-23(25)21-15-11-12-16-22(21)24(26)28-18-20(8-4)14-10-6-2/h11-12,15-16,19-20H,5-10,13-14,17-18H2,1-4H3

> <InChI Key_QSARr>
BJQHLKABXJIVAM-UHFFFAOYSA-N

> <LogKOC>
4.94

$$$$
100235
  -INDIGO-08031722282D

 12 12  0  0  0  0  0  0  0  0999 V2000
    0.8000    1.3856    0.0000 Cl  0  0  0  0  0  0  0  0  0  0  0  0
   -0.0000   -0.0000    0.0000 C   0  0  0  0  0  0  0  0  0  0  0  0
    0.8000   -1.3857    0.0000 C   0  0  0  0  0  0  0  0  0  0  0  0
    2.4000   -1.3857    0.0000 Cl  0  0  0  0  0  0  0  0  0  0  0  0
   -0.0000   -2.7713    0.0000 C   0  0  0  0  0  0  0  0  0  0  0  0
    0.8000   -4.1569    0.0000 Cl  0  0  0  0  0  0  0  0  0  0  0  0
   -1.6000   -2.7713    0.0000 C   0  0  0  0  0  0  0  0  0  0  0  0
   -2.4000   -4.1569    0.0000 Cl  0  0  0  0  0  0  0  0  0  0  0  0
   -2.4000   -1.3856    0.0000 C   0  0  0  0  0  0  0  0  0  0  0  0
   -4.0000   -1.3856    0.0000 Cl  0  0  0  0  0  0  0  0  0  0  0  0
   -1.6000   -0.0000    0.0000 C   0  0  0  0  0  0  0  0  0  0  0  0
   -2.4000    1.3856    0.0000 Cl  0  0  0  0  0  0  0  0  0  0  0  0
  1  2  1  0  0  0  0
  2  3  1  0  0  0  0
  3  4  1  0  0  0  0
  3  5  2  0  0  0  0
  5  6  1  0  0  0  0
  5  7  1  0  0  0  0
  7  8  1  0  0  0  0
  7  9  2  0  0  0  0
  9 10  1  0  0  0  0
  9 11  1  0  0  0  0
 11  2  2  0  0  0  0
 11 12  1  0  0  0  0
M  END
> <ChemID>
100235

> <source_casrn>
118-74-1

> <CAS>
118-74-1

> <SMILES>
Clc1c(Cl)c(Cl)c(Cl)c(Cl)c1Cl

> <NAME>
HEXACHLOROBENZENE

> <preferred_name>
Hexachlorobenzene

> <iupac>
hexachlorobenzene

> <MPID>
99512

> <dsstox_substance_id>
DTXSID2020682

> <Canonical_QSARr>
Clc1c(Cl)c(Cl)c(Cl)c(Cl)c1Cl

> <InChI_Code_QSARr>
InChI=1S/C6Cl6/c7-1-2(8)4(10)6(12)5(11)3(1)9

> <InChI Key_QSARr>
CKAPSXZOOQJIBF-UHFFFAOYSA-N

> <LogKOC>
3.74

$$$$
100236
  -INDIGO-08031722282D

 12 12  0  0  0  0  0  0  0  0999 V2000
    0.8000    1.3856    0.0000 O   0  0  0  0  0  0  0  0  0  0  0  0
   -0.0000   -0.0000    0.0000 C   0  0  0  0  0  0  0  0  0  0  0  0
    0.8000   -1.3857    0.0000 C   0  0  0  0  0  0  0  0  0  0  0  0
    2.4000   -1.3857    0.0000 Cl  0  0  0  0  0  0  0  0  0  0  0  0
   -0.0000   -2.7713    0.0000 C   0  0  0  0  0  0  0  0  0  0  0  0
    0.8000   -4.1569    0.0000 Cl  0  0  0  0  0  0  0  0  0  0  0  0
   -1.6000   -2.7713    0.0000 C   0  0  0  0  0  0  0  0  0  0  0  0
   -2.4000   -4.1569    0.0000 O   0  0  0  0  0  0  0  0  0  0  0  0
   -2.4000   -1.3856    0.0000 C   0  0  0  0  0  0  0  0  0  0  0  0
   -4.0000   -1.3856    0.0000 Cl  0  0  0  0  0  0  0  0  0  0  0  0
   -1.6000   -0.0000    0.0000 C   0  0  0  0  0  0  0  0  0  0  0  0
   -2.4000    1.3856    0.0000 Cl  0  0  0  0  0  0  0  0  0  0  0  0
  1  2  2  0  0  0  0
  2  3  1  0  0  0  0
  3  4  1  0  0  0  0
  3  5  2  0  0  0  0
  5  6  1  0  0  0  0
  5  7  1  0  0  0  0
  7  8  2  0  0  0  0
  7  9  1  0  0  0  0
  9 10  1  0  0  0  0
  9 11  2  0  0  0  0
 11  2  1  0  0  0  0
 11 12  1  0  0  0  0
M  END
> <ChemID>
100236

> <source_casrn>
118-75-2

> <CAS>
118-75-2

> <SMILES>
O=C1C(Cl)=C(Cl)C(=O)C(Cl)=C1Cl

> <NAME>
CHLORANIL

> <preferred_name>
Chloranil

> <iupac>
2,3,5,6-tetrachlorocyclohexa-2,5-diene-1,4-dione

> <MPID>
99513

> <dsstox_substance_id>
DTXSID2020266

> <Canonical_QSARr>
O=C1C(Cl)=C(Cl)C(=O)C(Cl)=C1Cl

> <InChI_Code_QSARr>
InChI=1S/C6Cl4O2/c7-1-2(8)6(12)4(10)3(9)5(1)11

> <InChI Key_QSARr>
UGNWTBMOAKPKBL-UHFFFAOYSA-N

> <LogKOC>
2.32

$$$$
100237
  -INDIGO-08031722282D

 24 25  0  0  0  0  0  0  0  0999 V2000
   -0.5473   -1.5035    0.0000 C   0  0  0  0  0  0  0  0  0  0  0  0
    0.4812   -2.7292    0.0000 H   0  0  0  0  0  0  0  0  0  0  0  0
   -2.1229   -1.7813    0.0000 C   0  0  0  0  0  0  0  0  0  0  0  0
   -2.6702   -3.2849    0.0000 H   0  0  0  0  0  0  0  0  0  0  0  0
   -3.1513   -0.5556    0.0000 C   0  0  0  0  0  0  0  0  0  0  0  0
   -4.7271   -0.8335    0.0000 H   0  0  0  0  0  0  0  0  0  0  0  0
   -2.6042    0.9479    0.0000 C   0  0  0  0  0  0  0  0  0  0  0  0
   -3.6326    2.1735    0.0000 H   0  0  0  0  0  0  0  0  0  0  0  0
   -1.0284    1.2257    0.0000 C   0  0  0  0  0  0  0  0  0  0  0  0
   -0.4813    2.7292    0.0000 H   0  0  0  0  0  0  0  0  0  0  0  0
    0.0000    0.0000    0.0000 C   0  0  0  0  0  0  0  0  0  0  0  0
    1.5756    0.2779    0.0000 C   0  0  0  0  0  0  0  0  0  0  0  0
    1.8536    1.8535    0.0000 O   0  0  0  0  0  0  0  0  0  0  0  0
    2.9614   -0.5221    0.0000 C   0  0  0  0  0  0  0  0  0  0  0  0
    2.9614   -2.1222    0.0000 C   0  0  0  0  0  0  0  0  0  0  0  0
    1.5756   -2.9222    0.0000 H   0  0  0  0  0  0  0  0  0  0  0  0
    4.3470   -2.9222    0.0000 C   0  0  0  0  0  0  0  0  0  0  0  0
    4.3470   -4.5222    0.0000 H   0  0  0  0  0  0  0  0  0  0  0  0
    5.7326   -2.1222    0.0000 C   0  0  0  0  0  0  0  0  0  0  0  0
    7.1183   -2.9222    0.0000 H   0  0  0  0  0  0  0  0  0  0  0  0
    5.7326   -0.5221    0.0000 C   0  0  0  0  0  0  0  0  0  0  0  0
    7.1183    0.2779    0.0000 H   0  0  0  0  0  0  0  0  0  0  0  0
    4.3470    0.2779    0.0000 C   0  0  0  0  0  0  0  0  0  0  0  0
    4.3470    1.8779    0.0000 H   0  0  0  0  0  0  0  0  0  0  0  0
  1  2  1  0  0  0  0
  1  3  1  0  0  0  0
  3  4  1  0  0  0  0
  3  5  2  0  0  0  0
  5  6  1  0  0  0  0
  5  7  1  0  0  0  0
  7  8  1  0  0  0  0
  7  9  2  0  0  0  0
  9 10  1  0  0  0  0
  9 11  1  0  0  0  0
 11  1  2  0  0  0  0
 11 12  1  0  0  0  0
 12 13  2  0  0  0  0
 12 14  1  0  0  0  0
 14 15  1  0  0  0  0
 15 16  1  0  0  0  0
 15 17  2  0  0  0  0
 17 18  1  0  0  0  0
 17 19  1  0  0  0  0
 19 20  1  0  0  0  0
 19 21  2  0  0  0  0
 21 22  1  0  0  0  0
 21 23  1  0  0  0  0
 23 14  2  0  0  0  0
 23 24  1  0  0  0  0
M  END
> <ChemID>
100237

> <source_casrn>
119-61-9

> <CAS>
119-61-9

> <SMILES>
O=C(c1ccccc1)c1ccccc1

> <NAME>
BENZOPHENONE

> <preferred_name>
Benzophenone

> <iupac>
diphenylmethanone

> <MPID>
99514

> <dsstox_substance_id>
DTXSID0021961

> <Canonical_QSARr>
O=C(c1ccccc1)c1ccccc1

> <InChI_Code_QSARr>
InChI=1S/C13H10O/c14-13(11-7-3-1-4-8-11)12-9-5-2-6-10-12/h1-10H

> <InChI Key_QSARr>
RWCCWEUUXYIKHB-UHFFFAOYSA-N

> <LogKOC>
2.63

$$$$
100239
  -INDIGO-08031722282D

 24 26  0  0  0  0  0  0  0  0999 V2000
   -1.3856    0.8000    0.0000 C   0  0  0  0  0  0  0  0  0  0  0  0
   -1.3856    2.4000    0.0000 H   0  0  0  0  0  0  0  0  0  0  0  0
   -2.7712   -0.0000    0.0000 C   0  0  0  0  0  0  0  0  0  0  0  0
   -2.7712   -1.6000    0.0000 C   0  0  0  0  0  0  0  0  0  0  0  0
   -4.1569   -2.4000    0.0000 C   0  0  0  0  0  0  0  0  0  0  0  0
   -4.1569   -4.0000    0.0000 H   0  0  0  0  0  0  0  0  0  0  0  0
   -5.5425   -1.6000    0.0000 C   0  0  0  0  0  0  0  0  0  0  0  0
   -6.9282   -2.4000    0.0000 H   0  0  0  0  0  0  0  0  0  0  0  0
   -5.5425   -0.0000    0.0000 C   0  0  0  0  0  0  0  0  0  0  0  0
   -6.9282    0.8000    0.0000 H   0  0  0  0  0  0  0  0  0  0  0  0
   -4.1569    0.8000    0.0000 C   0  0  0  0  0  0  0  0  0  0  0  0
   -4.1569    2.4000    0.0000 H   0  0  0  0  0  0  0  0  0  0  0  0
   -1.3856   -2.4000    0.0000 C   0  0  0  0  0  0  0  0  0  0  0  0
   -1.3856   -4.0000    0.0000 H   0  0  0  0  0  0  0  0  0  0  0  0
   -0.0001   -1.6000    0.0000 C   0  0  0  0  0  0  0  0  0  0  0  0
   -0.0001   -0.0000    0.0000 C   0  0  0  0  0  0  0  0  0  0  0  0
    1.3856    0.8000    0.0000 C   0  0  0  0  0  0  0  0  0  0  0  0
    1.3856    2.4000    0.0000 H   0  0  0  0  0  0  0  0  0  0  0  0
    2.7713   -0.0000    0.0000 C   0  0  0  0  0  0  0  0  0  0  0  0
    4.1569    0.8000    0.0000 H   0  0  0  0  0  0  0  0  0  0  0  0
    2.7713   -1.6000    0.0000 C   0  0  0  0  0  0  0  0  0  0  0  0
    4.1569   -2.4000    0.0000 H   0  0  0  0  0  0  0  0  0  0  0  0
    1.3856   -2.4000    0.0000 C   0  0  0  0  0  0  0  0  0  0  0  0
    1.3856   -4.0000    0.0000 H   0  0  0  0  0  0  0  0  0  0  0  0
  1  2  1  0  0  0  0
  1  3  1  0  0  0  0
  3  4  1  0  0  0  0
  4  5  2  0  0  0  0
  5  6  1  0  0  0  0
  5  7  1  0  0  0  0
  7  8  1  0  0  0  0
  7  9  2  0  0  0  0
  9 10  1  0  0  0  0
  9 11  1  0  0  0  0
 11  3  2  0  0  0  0
 11 12  1  0  0  0  0
  4 13  1  0  0  0  0
 13 14  1  0  0  0  0
 13 15  2  0  0  0  0
 15 16  1  0  0  0  0
 16  1  2  0  0  0  0
 16 17  1  0  0  0  0
 17 18  1  0  0  0  0
 17 19  2  0  0  0  0
 19 20  1  0  0  0  0
 19 21  1  0  0  0  0
 21 22  1  0  0  0  0
 21 23  2  0  0  0  0
 23 15  1  0  0  0  0
 23 24  1  0  0  0  0
M  END
> <ChemID>
100239

> <source_casrn>
120-12-7

> <CAS>
120-12-7

> <SMILES>
c1c2ccccc2cc2ccccc21

> <NAME>
ANTHRACENE

> <preferred_name>
Anthracene

> <iupac>
anthracene

> <MPID>
99516

> <dsstox_substance_id>
DTXSID0023878

> <Canonical_QSARr>
c1c2ccccc2cc2ccccc21

> <InChI_Code_QSARr>
InChI=1S/C14H10/c1-2-6-12-10-14-8-4-3-7-13(14)9-11(12)5-1/h1-10H

> <InChI Key_QSARr>
MWPLVEDNUUSJAV-UHFFFAOYSA-N

> <LogKOC>
4.31

$$$$
100240
  -INDIGO-08031722282D

 22 22  0  0  0  0  0  0  0  0999 V2000
   -2.4001    1.3856    0.0000 Cl  0  0  0  0  0  0  0  0  0  0  0  0
   -3.2001    0.0000    0.0000 C   0  0  0  0  0  0  0  0  0  0  0  0
   -2.4001   -1.3856    0.0000 C   0  0  0  0  0  0  0  0  0  0  0  0
   -0.8000   -1.3856    0.0000 O   0  0  0  0  0  0  0  0  0  0  0  0
   -0.0000    0.0000    0.0000 C   0  0  0  0  0  0  0  0  0  0  0  0
   -1.3857    0.8000    0.0000 H   0  0  0  0  0  0  0  0  0  0  0  0
    1.3856   -0.8000    0.0000 C   0  0  0  0  0  0  0  0  0  0  0  0
    2.7713    0.0000    0.0000 O   0  0  0  0  0  0  0  0  0  0  0  0
    1.3856   -2.4000    0.0000 O   0  0  0  0  0  0  0  0  0  0  0  0
    2.7713   -3.2000    0.0000 H   0  0  0  0  0  0  0  0  0  0  0  0
    0.8000    1.3856    0.0000 C   0  0  0  0  0  0  0  0  0  0  0  0
    1.6000    2.7713    0.0000 H   0  0  0  0  0  0  0  0  0  0  0  0
    2.4000    1.3856    0.0000 H   0  0  0  0  0  0  0  0  0  0  0  0
   -0.0000    2.7713    0.0000 H   0  0  0  0  0  0  0  0  0  0  0  0
   -3.2001   -2.7713    0.0000 C   0  0  0  0  0  0  0  0  0  0  0  0
   -2.4001   -4.1569    0.0000 H   0  0  0  0  0  0  0  0  0  0  0  0
   -4.8000   -2.7713    0.0000 C   0  0  0  0  0  0  0  0  0  0  0  0
   -5.6000   -4.1569    0.0000 H   0  0  0  0  0  0  0  0  0  0  0  0
   -5.6000   -1.3856    0.0000 C   0  0  0  0  0  0  0  0  0  0  0  0
   -7.2000   -1.3856    0.0000 Cl  0  0  0  0  0  0  0  0  0  0  0  0
   -4.8000    0.0000    0.0000 C   0  0  0  0  0  0  0  0  0  0  0  0
   -5.6000    1.3856    0.0000 H   0  0  0  0  0  0  0  0  0  0  0  0
  1  2  1  0  0  0  0
  2  3  1  0  0  0  0
  3  4  1  0  0  0  0
  4  5  1  0  0  0  0
  5  6  1  0  0  0  0
  5  7  1  0  0  0  0
  7  8  2  0  0  0  0
  7  9  1  0  0  0  0
  9 10  1  0  0  0  0
  5 11  1  0  0  0  0
 11 12  1  0  0  0  0
 11 13  1  0  0  0  0
 11 14  1  0  0  0  0
  3 15  2  0  0  0  0
 15 16  1  0  0  0  0
 15 17  1  0  0  0  0
 17 18  1  0  0  0  0
 17 19  2  0  0  0  0
 19 20  1  0  0  0  0
 19 21  1  0  0  0  0
 21  2  2  0  0  0  0
 21 22  1  0  0  0  0
M  END
> <ChemID>
100240

> <source_casrn>
120-36-5

> <CAS>
120-36-5

> <SMILES>
CC(Oc1ccc(Cl)cc1Cl)C(O)=O

> <NAME>
DICHLORPROP

> <preferred_name>
Dichlorprop

> <iupac>
2-(2,4-dichlorophenoxy)propanoic acid

> <MPID>
99517

> <dsstox_substance_id>
DTXSID0020440

> <Canonical_QSARr>
CC(Oc1ccc(Cl)cc1Cl)C(O)=O

> <InChI_Code_QSARr>
InChI=1S/C9H8Cl2O3/c1-5(9(12)13)14-8-3-2-6(10)4-7(8)11/h2-5H,1H3,(H,12,13)

> <InChI Key_QSARr>
MZHCENGPTKEIGP-UHFFFAOYSA-N

> <LogKOC>
2.23

$$$$
100241
  -INDIGO-08031722282D

 22 22  0  0  0  0  0  0  0  0999 V2000
   -1.3856    0.8000    0.0000 C   0  0  0  0  0  0  0  0  0  0  0  0
   -0.0001   -0.0000    0.0000 C   0  0  0  0  0  0  0  0  0  0  0  0
   -0.0001   -1.6000    0.0000 C   0  0  0  0  0  0  0  0  0  0  0  0
   -1.3856   -2.4000    0.0000 H   0  0  0  0  0  0  0  0  0  0  0  0
    1.3856   -2.4000    0.0000 C   0  0  0  0  0  0  0  0  0  0  0  0
    1.3856   -4.0000    0.0000 H   0  0  0  0  0  0  0  0  0  0  0  0
    2.7713   -1.6000    0.0000 C   0  0  0  0  0  0  0  0  0  0  0  0
    4.1569   -2.4000    0.0000 O   0  0  0  0  0  0  0  0  0  0  0  0
    5.5426   -1.6000    0.0000 H   0  0  0  0  0  0  0  0  0  0  0  0
    2.7713   -0.0000    0.0000 C   0  0  0  0  0  0  0  0  0  0  0  0
    4.1569    0.8000    0.0000 H   0  0  0  0  0  0  0  0  0  0  0  0
    1.3856    0.8000    0.0000 C   0  0  0  0  0  0  0  0  0  0  0  0
    1.3856    2.4000    0.0000 H   0  0  0  0  0  0  0  0  0  0  0  0
   -1.3856    2.4000    0.0000 O   0  0  0  0  0  0  0  0  0  0  0  0
   -2.7713   -0.0000    0.0000 O   0  0  0  0  0  0  0  0  0  0  0  0
   -4.1570    0.8000    0.0000 C   0  0  0  0  0  0  0  0  0  0  0  0
   -4.7692    2.2782    0.0000 H   0  0  0  0  0  0  0  0  0  0  0  0
   -3.5446    2.2782    0.0000 H   0  0  0  0  0  0  0  0  0  0  0  0
   -5.5425   -0.0000    0.0000 C   0  0  0  0  0  0  0  0  0  0  0  0
   -6.9282   -0.8000    0.0000 H   0  0  0  0  0  0  0  0  0  0  0  0
   -6.9282    0.8000    0.0000 H   0  0  0  0  0  0  0  0  0  0  0  0
   -5.5425   -1.6000    0.0000 H   0  0  0  0  0  0  0  0  0  0  0  0
  1  2  1  0  0  0  0
  2  3  1  0  0  0  0
  3  4  1  0  0  0  0
  3  5  2  0  0  0  0
  5  6  1  0  0  0  0
  5  7  1  0  0  0  0
  7  8  1  0  0  0  0
  8  9  1  0  0  0  0
  7 10  2  0  0  0  0
 10 11  1  0  0  0  0
 10 12  1  0  0  0  0
 12  2  2  0  0  0  0
 12 13  1  0  0  0  0
  1 14  2  0  0  0  0
  1 15  1  0  0  0  0
 15 16  1  0  0  0  0
 16 17  1  0  0  0  0
 16 18  1  0  0  0  0
 16 19  1  0  0  0  0
 19 20  1  0  0  0  0
 19 21  1  0  0  0  0
 19 22  1  0  0  0  0
M  END
> <ChemID>
100241

> <source_casrn>
120-47-8

> <CAS>
120-47-8

> <SMILES>
O=C(OCC)c(ccc(O)c1)c1

> <NAME>
P-HYDROXYBENZOIC ACID,ETHYL ESTER

> <preferred_name>
Ethylparaben

> <iupac>
ethyl 4-hydroxybenzoate

> <MPID>
99518

> <dsstox_substance_id>
DTXSID9022528

> <Canonical_QSARr>
CCOC(=O)c1ccc(O)cc1

> <InChI_Code_QSARr>
InChI=1S/C9H10O3/c1-2-12-9(11)7-3-5-8(10)6-4-7/h3-6,10H,2H2,1H3

> <InChI Key_QSARr>
NUVBSKCKDOMJSU-UHFFFAOYSA-N

> <LogKOC>
2.21

$$$$
100243
  -INDIGO-08031722282D

 13 13  0  0  0  0  0  0  0  0999 V2000
    0.0000    2.7713    0.0000 Cl  0  0  0  0  0  0  0  0  0  0  0  0
   -0.8000    1.3856    0.0000 C   0  0  0  0  0  0  0  0  0  0  0  0
    0.0000   -0.0000    0.0000 C   0  0  0  0  0  0  0  0  0  0  0  0
    1.6000   -0.0000    0.0000 O   0  0  0  0  0  0  0  0  0  0  0  0
    2.4000    1.3856    0.0000 H   0  0  0  0  0  0  0  0  0  0  0  0
   -0.8000   -1.3856    0.0000 C   0  0  0  0  0  0  0  0  0  0  0  0
    0.0000   -2.7713    0.0000 H   0  0  0  0  0  0  0  0  0  0  0  0
   -2.4000   -1.3856    0.0000 C   0  0  0  0  0  0  0  0  0  0  0  0
   -3.2000   -2.7713    0.0000 H   0  0  0  0  0  0  0  0  0  0  0  0
   -3.2000   -0.0000    0.0000 C   0  0  0  0  0  0  0  0  0  0  0  0
   -4.8000   -0.0000    0.0000 Cl  0  0  0  0  0  0  0  0  0  0  0  0
   -2.4000    1.3856    0.0000 C   0  0  0  0  0  0  0  0  0  0  0  0
   -3.2000    2.7713    0.0000 H   0  0  0  0  0  0  0  0  0  0  0  0
  1  2  1  0  0  0  0
  2  3  1  0  0  0  0
  3  4  1  0  0  0  0
  4  5  1  0  0  0  0
  3  6  2  0  0  0  0
  6  7  1  0  0  0  0
  6  8  1  0  0  0  0
  8  9  1  0  0  0  0
  8 10  2  0  0  0  0
 10 11  1  0  0  0  0
 10 12  1  0  0  0  0
 12  2  2  0  0  0  0
 12 13  1  0  0  0  0
M  END
> <ChemID>
100243

> <source_casrn>
120-83-2

> <CAS>
120-83-2

> <SMILES>
Oc1ccc(Cl)cc1Cl

> <NAME>
2,4-DICHLOROPHENOL

> <preferred_name>
2,4-Dichlorophenol

> <iupac>
2,4-dichlorophenol

> <MPID>
99520

> <dsstox_substance_id>
DTXSID1020439

> <Canonical_QSARr>
Oc1ccc(Cl)cc1Cl

> <InChI_Code_QSARr>
InChI=1S/C6H4Cl2O/c7-4-1-2-6(9)5(8)3-4/h1-3,9H

> <InChI Key_QSARr>
HFZWRUODUSTPEG-UHFFFAOYSA-N

> <LogKOC>
2.81

$$$$
100244
  -INDIGO-08031722282D

 20 20  0  0  0  0  0  0  0  0999 V2000
    0.8001    1.3856    0.0000 C   0  0  0  0  0  0  0  0  0  0  0  0
    1.6000    2.7713    0.0000 H   0  0  0  0  0  0  0  0  0  0  0  0
    2.4000    1.3856    0.0000 H   0  0  0  0  0  0  0  0  0  0  0  0
    0.0000    2.7713    0.0000 H   0  0  0  0  0  0  0  0  0  0  0  0
    0.0000   -0.0000    0.0000 N   0  0  0  0  0  0  0  0  0  0  0  0
   -1.6000    0.0000    0.0000 C   0  0  0  0  0  0  0  0  0  0  0  0
   -2.4000    1.3856    0.0000 C   0  0  0  0  0  0  0  0  0  0  0  0
   -1.6000    2.7713    0.0000 H   0  0  0  0  0  0  0  0  0  0  0  0
   -4.0000    1.3856    0.0000 C   0  0  0  0  0  0  0  0  0  0  0  0
   -4.8001    2.7713    0.0000 H   0  0  0  0  0  0  0  0  0  0  0  0
   -4.8001    0.0000    0.0000 C   0  0  0  0  0  0  0  0  0  0  0  0
   -6.4000    0.0000    0.0000 H   0  0  0  0  0  0  0  0  0  0  0  0
   -4.0000   -1.3856    0.0000 C   0  0  0  0  0  0  0  0  0  0  0  0
   -4.8001   -2.7713    0.0000 H   0  0  0  0  0  0  0  0  0  0  0  0
   -2.4000   -1.3856    0.0000 C   0  0  0  0  0  0  0  0  0  0  0  0
   -1.6000   -2.7713    0.0000 H   0  0  0  0  0  0  0  0  0  0  0  0
    0.8001   -1.3856    0.0000 C   0  0  0  0  0  0  0  0  0  0  0  0
    1.6000   -2.7713    0.0000 H   0  0  0  0  0  0  0  0  0  0  0  0
    2.4000   -1.3856    0.0000 H   0  0  0  0  0  0  0  0  0  0  0  0
    0.0000   -2.7713    0.0000 H   0  0  0  0  0  0  0  0  0  0  0  0
  1  2  1  0  0  0  0
  1  3  1  0  0  0  0
  1  4  1  0  0  0  0
  1  5  1  0  0  0  0
  5  6  1  0  0  0  0
  6  7  1  0  0  0  0
  7  8  1  0  0  0  0
  7  9  2  0  0  0  0
  9 10  1  0  0  0  0
  9 11  1  0  0  0  0
 11 12  1  0  0  0  0
 11 13  2  0  0  0  0
 13 14  1  0  0  0  0
 13 15  1  0  0  0  0
 15  6  2  0  0  0  0
 15 16  1  0  0  0  0
  5 17  1  0  0  0  0
 17 18  1  0  0  0  0
 17 19  1  0  0  0  0
 17 20  1  0  0  0  0
M  END
> <ChemID>
100244

> <source_casrn>
121-69-7

> <CAS>
121-69-7

> <SMILES>
CN(C)c1ccccc1

> <NAME>
N,N-DIMETHYLANILINE

> <preferred_name>
N,N-Dimethylaniline

> <iupac>
N,N-dimethylaniline

> <MPID>
99521

> <dsstox_substance_id>
DTXSID2020507

> <Canonical_QSARr>
CN(C)c1ccccc1

> <InChI_Code_QSARr>
InChI=1S/C8H11N/c1-9(2)8-6-4-3-5-7-8/h3-7H,1-2H3

> <InChI Key_QSARr>
JLTDJTHDQAWBAV-UHFFFAOYSA-N

> <LogKOC>
2.26

$$$$
100245
  -INDIGO-08031722282D

 38 37  0  0  0  0  0  0  0  0999 V2000
   -2.4000    1.3856    0.0000 O   0  0  0  0  0  0  0  0  0  0  0  0
   -1.6000    0.0001    0.0000 C   0  0  0  0  0  0  0  0  0  0  0  0
    0.0001    0.0001    0.0000 C   0  0  0  0  0  0  0  0  0  0  0  0
    0.0001   -1.6000    0.0000 H   0  0  0  0  0  0  0  0  0  0  0  0
    0.0001    1.5999    0.0000 S   0  0  0  0  0  0  0  0  0  0  0  0
    1.2257    2.6285    0.0000 P   0  0  0  0  0  0  0  0  0  0  0  0
   -0.2779    3.1756    0.0000 S   0  0  0  0  0  0  0  0  0  0  0  0
    0.9478    4.2042    0.0000 O   0  0  0  0  0  0  0  0  0  0  0  0
    2.1734    5.2326    0.0000 C   0  0  0  0  0  0  0  0  0  0  0  0
    1.8957    6.8083    0.0000 H   0  0  0  0  0  0  0  0  0  0  0  0
    3.3991    6.2610    0.0000 H   0  0  0  0  0  0  0  0  0  0  0  0
    0.6700    5.7799    0.0000 H   0  0  0  0  0  0  0  0  0  0  0  0
    2.4514    3.6569    0.0000 O   0  0  0  0  0  0  0  0  0  0  0  0
    3.9548    3.1097    0.0000 C   0  0  0  0  0  0  0  0  0  0  0  0
    5.1804    4.1381    0.0000 H   0  0  0  0  0  0  0  0  0  0  0  0
    5.4584    2.5624    0.0000 H   0  0  0  0  0  0  0  0  0  0  0  0
    4.2327    1.5340    0.0000 H   0  0  0  0  0  0  0  0  0  0  0  0
    1.5999    0.0001    0.0000 C   0  0  0  0  0  0  0  0  0  0  0  0
    1.8089    1.5863    0.0000 H   0  0  0  0  0  0  0  0  0  0  0  0
    2.8693    0.9740    0.0000 H   0  0  0  0  0  0  0  0  0  0  0  0
    2.4000   -1.3856    0.0000 C   0  0  0  0  0  0  0  0  0  0  0  0
    1.5999   -2.7713    0.0000 O   0  0  0  0  0  0  0  0  0  0  0  0
    4.0000   -1.3856    0.0000 O   0  0  0  0  0  0  0  0  0  0  0  0
    4.8001   -2.7713    0.0000 C   0  0  0  0  0  0  0  0  0  0  0  0
    4.5911   -4.3576    0.0000 H   0  0  0  0  0  0  0  0  0  0  0  0
    3.5307   -3.7452    0.0000 H   0  0  0  0  0  0  0  0  0  0  0  0
    6.3999   -2.7713    0.0000 C   0  0  0  0  0  0  0  0  0  0  0  0
    8.0000   -2.7713    0.0000 H   0  0  0  0  0  0  0  0  0  0  0  0
    7.2000   -4.1569    0.0000 H   0  0  0  0  0  0  0  0  0  0  0  0
    7.2000   -1.3856    0.0000 H   0  0  0  0  0  0  0  0  0  0  0  0
   -2.4000   -1.3856    0.0000 O   0  0  0  0  0  0  0  0  0  0  0  0
   -3.9999   -1.3856    0.0000 C   0  0  0  0  0  0  0  0  0  0  0  0
   -5.2693   -0.4116    0.0000 H   0  0  0  0  0  0  0  0  0  0  0  0
   -4.2089    0.2006    0.0000 H   0  0  0  0  0  0  0  0  0  0  0  0
   -4.7999   -2.7713    0.0000 C   0  0  0  0  0  0  0  0  0  0  0  0
   -5.6000   -4.1569    0.0000 H   0  0  0  0  0  0  0  0  0  0  0  0
   -6.4000   -2.7713    0.0000 H   0  0  0  0  0  0  0  0  0  0  0  0
   -3.9999   -4.1569    0.0000 H   0  0  0  0  0  0  0  0  0  0  0  0
  1  2  2  0  0  0  0
  2  3  1  0  0  0  0
  3  4  1  0  0  0  0
  3  5  1  0  0  0  0
  5  6  1  0  0  0  0
  6  7  2  0  0  0  0
  6  8  1  0  0  0  0
  8  9  1  0  0  0  0
  9 10  1  0  0  0  0
  9 11  1  0  0  0  0
  9 12  1  0  0  0  0
  6 13  1  0  0  0  0
 13 14  1  0  0  0  0
 14 15  1  0  0  0  0
 14 16  1  0  0  0  0
 14 17  1  0  0  0  0
  3 18  1  0  0  0  0
 18 19  1  0  0  0  0
 18 20  1  0  0  0  0
 18 21  1  0  0  0  0
 21 22  2  0  0  0  0
 21 23  1  0  0  0  0
 23 24  1  0  0  0  0
 24 25  1  0  0  0  0
 24 26  1  0  0  0  0
 24 27  1  0  0  0  0
 27 28  1  0  0  0  0
 27 29  1  0  0  0  0
 27 30  1  0  0  0  0
  2 31  1  0  0  0  0
 31 32  1  0  0  0  0
 32 33  1  0  0  0  0
 32 34  1  0  0  0  0
 32 35  1  0  0  0  0
 35 36  1  0  0  0  0
 35 37  1  0  0  0  0
 35 38  1  0  0  0  0
M  END
> <ChemID>
100245

> <source_casrn>
121-75-5

> <CAS>
121-75-5

> <SMILES>
CCOC(=O)C(CC(=O)OCC)SP(=S)(OC)OC

> <NAME>
MALATHION

> <preferred_name>
Malathion

> <iupac>
diethyl 2-[(dimethoxyphosphorothioyl)sulfanyl]butanedioate

> <MPID>
99522

> <dsstox_substance_id>
DTXSID4020791

> <Canonical_QSARr>
CCOC(=O)C(CC(=O)OCC)SP(=S)(OC)OC

> <InChI_Code_QSARr>
InChI=1S/C10H19O6PS2/c1-5-15-9(11)7-8(10(12)16-6-2)19-17(18,13-3)14-4/h8H,5-7H2,1-4H3

> <InChI Key_QSARr>
JXSJBGJIGXNWCI-UHFFFAOYSA-N

> <LogKOC>
2.36

$$$$
100247
  -INDIGO-08031722282D

 29 29  0  0  0  0  0  0  0  0999 V2000
   -5.5426    1.6000    0.0000 S   0  0  0  0  0  0  0  0  0  0  0  0
   -5.5426   -0.0000    0.0000 P   0  0  0  0  0  0  0  0  0  0  0  0
   -4.1569    0.8000    0.0000 O   0  0  0  0  0  0  0  0  0  0  0  0
   -2.7713   -0.0000    0.0000 C   0  0  0  0  0  0  0  0  0  0  0  0
   -1.3856    0.8000    0.0000 C   0  0  0  0  0  0  0  0  0  0  0  0
   -1.3856    2.4000    0.0000 H   0  0  0  0  0  0  0  0  0  0  0  0
    0.0001   -0.0000    0.0000 C   0  0  0  0  0  0  0  0  0  0  0  0
    1.3856    0.8000    0.0000 C   0  0  0  0  0  0  0  0  0  0  0  0
    2.7713    1.6000    0.0000 H   0  0  0  0  0  0  0  0  0  0  0  0
    1.3856    2.4000    0.0000 H   0  0  0  0  0  0  0  0  0  0  0  0
    2.7713   -0.0000    0.0000 H   0  0  0  0  0  0  0  0  0  0  0  0
    0.0001   -1.6000    0.0000 C   0  0  0  0  0  0  0  0  0  0  0  0
    1.3856   -2.4000    0.0000 N   0  0  0  0  0  0  0  0  0  0  0  0
    1.3856   -4.0000    0.0000 O   0  0  0  0  0  0  0  0  0  0  0  0
    2.7713   -1.6000    0.0000 O   0  0  0  0  0  0  0  0  0  0  0  0
   -1.3856   -2.4000    0.0000 C   0  0  0  0  0  0  0  0  0  0  0  0
   -1.3856   -4.0000    0.0000 H   0  0  0  0  0  0  0  0  0  0  0  0
   -2.7713   -1.6000    0.0000 C   0  0  0  0  0  0  0  0  0  0  0  0
   -4.1569   -2.4000    0.0000 H   0  0  0  0  0  0  0  0  0  0  0  0
   -6.9283    0.8000    0.0000 O   0  0  0  0  0  0  0  0  0  0  0  0
   -8.3138   -0.0000    0.0000 C   0  0  0  0  0  0  0  0  0  0  0  0
   -9.6995    0.8000    0.0000 H   0  0  0  0  0  0  0  0  0  0  0  0
   -9.6995   -0.8000    0.0000 H   0  0  0  0  0  0  0  0  0  0  0  0
   -8.3138    1.6000    0.0000 H   0  0  0  0  0  0  0  0  0  0  0  0
   -6.9283   -0.8000    0.0000 O   0  0  0  0  0  0  0  0  0  0  0  0
   -6.9283   -2.4000    0.0000 C   0  0  0  0  0  0  0  0  0  0  0  0
   -6.9283   -4.0000    0.0000 H   0  0  0  0  0  0  0  0  0  0  0  0
   -8.3138   -3.2000    0.0000 H   0  0  0  0  0  0  0  0  0  0  0  0
   -5.5426   -3.2000    0.0000 H   0  0  0  0  0  0  0  0  0  0  0  0
  1  2  2  0  0  0  0
  2  3  1  0  0  0  0
  3  4  1  0  0  0  0
  4  5  1  0  0  0  0
  5  6  1  0  0  0  0
  5  7  2  0  0  0  0
  7  8  1  0  0  0  0
  8  9  1  0  0  0  0
  8 10  1  0  0  0  0
  8 11  1  0  0  0  0
  7 12  1  0  0  0  0
 12 13  1  0  0  0  0
 13 14  2  0  0  0  0
 13 15  1  0  0  0  0
 12 16  2  0  0  0  0
 16 17  1  0  0  0  0
 16 18  1  0  0  0  0
 18  4  2  0  0  0  0
 18 19  1  0  0  0  0
  2 20  1  0  0  0  0
 20 21  1  0  0  0  0
 21 22  1  0  0  0  0
 21 23  1  0  0  0  0
 21 24  1  0  0  0  0
  2 25  1  0  0  0  0
 25 26  1  0  0  0  0
 26 27  1  0  0  0  0
 26 28  1  0  0  0  0
 26 29  1  0  0  0  0
M  CHG  2  13   1  15  -1
M  END
> <ChemID>
100247

> <source_casrn>
122-14-5

> <CAS>
122-14-5

> <SMILES>
Cc1cc(ccc1[N+]([O-])=O)OP(=S)(OC)OC

> <NAME>
FENITROTHION

> <preferred_name>
Fenitrothion

> <iupac>
O,O-dimethyl O-(3-methyl-4-nitrophenyl) phosphorothioate

> <MPID>
99524

> <dsstox_substance_id>
DTXSID4032613

> <Canonical_QSARr>
Cc1cc(ccc1[N+]([O-])=O)OP(=S)(OC)OC

> <InChI_Code_QSARr>
InChI=1S/C9H12NO5PS/c1-7-6-8(4-5-9(7)10(11)12)15-16(17,13-2)14-3/h4-6H,1-3H3

> <InChI Key_QSARr>
ZNOLGFHPUIJIMJ-UHFFFAOYSA-N

> <LogKOC>
2.63

$$$$
100248
  -INDIGO-08031722282D

 21 21  0  0  0  0  0  0  0  0999 V2000
    0.0001   -0.0000    0.0000 C   0  0  0  0  0  0  0  0  0  0  0  0
    1.3856    0.8000    0.0000 C   0  0  0  0  0  0  0  0  0  0  0  0
    1.3856    2.4000    0.0000 H   0  0  0  0  0  0  0  0  0  0  0  0
    2.7712   -0.0000    0.0000 C   0  0  0  0  0  0  0  0  0  0  0  0
    4.1569    0.8000    0.0000 N   0  0  0  0  0  0  0  0  0  0  0  0
    5.5426   -0.0000    0.0000 O   0  0  0  0  0  0  0  0  0  0  0  0
    4.1569    2.4000    0.0000 O   0  0  0  0  0  0  0  0  0  0  0  0
    2.7712   -1.6000    0.0000 C   0  0  0  0  0  0  0  0  0  0  0  0
    4.1569   -2.4000    0.0000 H   0  0  0  0  0  0  0  0  0  0  0  0
    1.3856   -2.4000    0.0000 C   0  0  0  0  0  0  0  0  0  0  0  0
    1.3856   -4.0000    0.0000 H   0  0  0  0  0  0  0  0  0  0  0  0
    0.0001   -1.6000    0.0000 C   0  0  0  0  0  0  0  0  0  0  0  0
   -1.3856   -2.4000    0.0000 H   0  0  0  0  0  0  0  0  0  0  0  0
   -1.3856    0.8000    0.0000 N   0  0  0  0  0  0  0  0  0  0  0  0
   -1.3856    2.4000    0.0000 H   0  0  0  0  0  0  0  0  0  0  0  0
   -2.7712   -0.0000    0.0000 C   0  0  0  0  0  0  0  0  0  0  0  0
   -4.1569    0.8000    0.0000 C   0  0  0  0  0  0  0  0  0  0  0  0
   -5.5426    1.6000    0.0000 H   0  0  0  0  0  0  0  0  0  0  0  0
   -5.5426   -0.0000    0.0000 H   0  0  0  0  0  0  0  0  0  0  0  0
   -4.1569    2.4000    0.0000 H   0  0  0  0  0  0  0  0  0  0  0  0
   -2.7712   -1.6000    0.0000 O   0  0  0  0  0  0  0  0  0  0  0  0
  1  2  1  0  0  0  0
  2  3  1  0  0  0  0
  2  4  2  0  0  0  0
  4  5  1  0  0  0  0
  5  6  2  0  0  0  0
  5  7  1  0  0  0  0
  4  8  1  0  0  0  0
  8  9  1  0  0  0  0
  8 10  2  0  0  0  0
 10 11  1  0  0  0  0
 10 12  1  0  0  0  0
 12  1  2  0  0  0  0
 12 13  1  0  0  0  0
  1 14  1  0  0  0  0
 14 15  1  0  0  0  0
 14 16  1  0  0  0  0
 16 17  1  0  0  0  0
 17 18  1  0  0  0  0
 17 19  1  0  0  0  0
 17 20  1  0  0  0  0
 16 21  2  0  0  0  0
M  CHG  2   5   1   7  -1
M  END
> <ChemID>
100248

> <source_casrn>
122-28-1

> <CAS>
122-28-1

> <SMILES>
CC(=O)Nc1cc(ccc1)[N+]([O-])=O

> <NAME>
M-NITROACETANILIDE

> <preferred_name>
Acetamide, N-(3-nitrophenyl)-

> <iupac>
N-(3-Nitrophenyl)acetamide

> <MPID>
99525

> <dsstox_substance_id>
DTXSID5059539

> <Canonical_QSARr>
CC(=O)Nc1cc(ccc1)[N+]([O-])=O

> <InChI_Code_QSARr>
InChI=1S/C8H8N2O3/c1-6(11)9-7-3-2-4-8(5-7)10(12)13/h2-5H,1H3,(H,9,11)

> <InChI Key_QSARr>
KFTYNYHJHKCRKU-UHFFFAOYSA-N

> <LogKOC>
1.94

$$$$
100249
  -INDIGO-08031722282D

 25 25  0  0  0  0  0  0  0  0999 V2000
    4.1568    4.0000    0.0000 Cl  0  0  0  0  0  0  0  0  0  0  0  0
    4.1570    2.4000    0.0000 C   0  0  0  0  0  0  0  0  0  0  0  0
    5.5426    1.6000    0.0000 N   0  0  0  0  0  0  0  0  0  0  0  0
    5.5426    0.0000    0.0000 C   0  0  0  0  0  0  0  0  0  0  0  0
    6.9283   -0.8000    0.0000 N   0  0  0  0  0  0  0  0  0  0  0  0
    6.9283   -2.4000    0.0000 H   0  0  0  0  0  0  0  0  0  0  0  0
    8.3138    0.0000    0.0000 C   0  0  0  0  0  0  0  0  0  0  0  0
    8.9262    1.4782    0.0000 H   0  0  0  0  0  0  0  0  0  0  0  0
    7.7015    1.4782    0.0000 H   0  0  0  0  0  0  0  0  0  0  0  0
    9.6996   -0.8000    0.0000 C   0  0  0  0  0  0  0  0  0  0  0  0
   11.0851   -1.6000    0.0000 H   0  0  0  0  0  0  0  0  0  0  0  0
   11.0851    0.0000    0.0000 H   0  0  0  0  0  0  0  0  0  0  0  0
    9.6996   -2.4000    0.0000 H   0  0  0  0  0  0  0  0  0  0  0  0
    4.1570   -0.8000    0.0000 N   0  0  0  0  0  0  0  0  0  0  0  0
    2.7713    0.0000    0.0000 C   0  0  0  0  0  0  0  0  0  0  0  0
    1.3857   -0.8000    0.0000 N   0  0  0  0  0  0  0  0  0  0  0  0
    1.3857   -2.4000    0.0000 H   0  0  0  0  0  0  0  0  0  0  0  0
    0.0000    0.0000    0.0000 C   0  0  0  0  0  0  0  0  0  0  0  0
    0.6123    1.4782    0.0000 H   0  0  0  0  0  0  0  0  0  0  0  0
   -0.6123    1.4782    0.0000 H   0  0  0  0  0  0  0  0  0  0  0  0
   -1.3855   -0.8000    0.0000 C   0  0  0  0  0  0  0  0  0  0  0  0
   -2.7713   -1.6000    0.0000 H   0  0  0  0  0  0  0  0  0  0  0  0
   -2.7713    0.0000    0.0000 H   0  0  0  0  0  0  0  0  0  0  0  0
   -1.3855   -2.4000    0.0000 H   0  0  0  0  0  0  0  0  0  0  0  0
    2.7713    1.6000    0.0000 N   0  0  0  0  0  0  0  0  0  0  0  0
  1  2  1  0  0  0  0
  2  3  1  0  0  0  0
  3  4  2  0  0  0  0
  4  5  1  0  0  0  0
  5  6  1  0  0  0  0
  5  7  1  0  0  0  0
  7  8  1  0  0  0  0
  7  9  1  0  0  0  0
  7 10  1  0  0  0  0
 10 11  1  0  0  0  0
 10 12  1  0  0  0  0
 10 13  1  0  0  0  0
  4 14  1  0  0  0  0
 14 15  2  0  0  0  0
 15 16  1  0  0  0  0
 16 17  1  0  0  0  0
 16 18  1  0  0  0  0
 18 19  1  0  0  0  0
 18 20  1  0  0  0  0
 18 21  1  0  0  0  0
 21 22  1  0  0  0  0
 21 23  1  0  0  0  0
 21 24  1  0  0  0  0
 15 25  1  0  0  0  0
 25  2  2  0  0  0  0
M  END
> <ChemID>
100249

> <source_casrn>
122-34-9

> <CAS>
122-34-9

> <SMILES>
CCNc1[n]c(Cl)[n]c(NCC)[n]1

> <NAME>
SIMAZINE

> <preferred_name>
Simazine

> <iupac>
6-chloro-N,N'-diethyl-1,3,5-triazine-2,4-diamine

> <MPID>
99526

> <dsstox_substance_id>
DTXSID4021268

> <Canonical_QSARr>
CCNc1[n]c(Cl)[n]c(NCC)[n]1

> <InChI_Code_QSARr>
InChI=1S/C7H12ClN5/c1-3-9-6-11-5(8)12-7(13-6)10-4-2/h3-4H2,1-2H3,(H2,9,10,11,12,13)

> <InChI Key_QSARr>
ODCWYMIRDDJXKW-UHFFFAOYSA-N

> <LogKOC>
2.1

$$$$
100251
  -INDIGO-08031722282D

 26 26  0  0  0  0  0  0  0  0999 V2000
    2.7713   -1.6000    0.0000 O   0  0  0  0  0  0  0  0  0  0  0  0
    2.7713   -0.0001    0.0000 C   0  0  0  0  0  0  0  0  0  0  0  0
    4.1569    0.8000    0.0000 N   0  0  0  0  0  0  0  0  0  0  0  0
    4.1569    2.4000    0.0000 H   0  0  0  0  0  0  0  0  0  0  0  0
    5.5426    0.0001    0.0000 C   0  0  0  0  0  0  0  0  0  0  0  0
    6.9283    0.8000    0.0000 C   0  0  0  0  0  0  0  0  0  0  0  0
    6.9283    2.4000    0.0000 H   0  0  0  0  0  0  0  0  0  0  0  0
    8.3138    0.0001    0.0000 C   0  0  0  0  0  0  0  0  0  0  0  0
    9.6995    0.8000    0.0000 H   0  0  0  0  0  0  0  0  0  0  0  0
    8.3138   -1.6000    0.0000 C   0  0  0  0  0  0  0  0  0  0  0  0
    9.6995   -2.4000    0.0000 H   0  0  0  0  0  0  0  0  0  0  0  0
    6.9283   -2.4000    0.0000 C   0  0  0  0  0  0  0  0  0  0  0  0
    6.9283   -4.0000    0.0000 H   0  0  0  0  0  0  0  0  0  0  0  0
    5.5426   -1.6000    0.0000 C   0  0  0  0  0  0  0  0  0  0  0  0
    4.1569   -2.4000    0.0000 H   0  0  0  0  0  0  0  0  0  0  0  0
    1.3856    0.8000    0.0000 O   0  0  0  0  0  0  0  0  0  0  0  0
   -0.0001   -0.0001    0.0000 C   0  0  0  0  0  0  0  0  0  0  0  0
    0.7999   -1.3856    0.0000 H   0  0  0  0  0  0  0  0  0  0  0  0
   -1.3856   -0.8000    0.0000 C   0  0  0  0  0  0  0  0  0  0  0  0
   -2.7713   -1.6000    0.0000 H   0  0  0  0  0  0  0  0  0  0  0  0
   -2.7713    0.0001    0.0000 H   0  0  0  0  0  0  0  0  0  0  0  0
   -1.3856   -2.4000    0.0000 H   0  0  0  0  0  0  0  0  0  0  0  0
   -0.8000    1.3856    0.0000 C   0  0  0  0  0  0  0  0  0  0  0  0
   -1.6000    2.7713    0.0000 H   0  0  0  0  0  0  0  0  0  0  0  0
   -0.0001    2.7713    0.0000 H   0  0  0  0  0  0  0  0  0  0  0  0
   -2.4000    1.3856    0.0000 H   0  0  0  0  0  0  0  0  0  0  0  0
  1  2  2  0  0  0  0
  2  3  1  0  0  0  0
  3  4  1  0  0  0  0
  3  5  1  0  0  0  0
  5  6  1  0  0  0  0
  6  7  1  0  0  0  0
  6  8  2  0  0  0  0
  8  9  1  0  0  0  0
  8 10  1  0  0  0  0
 10 11  1  0  0  0  0
 10 12  2  0  0  0  0
 12 13  1  0  0  0  0
 12 14  1  0  0  0  0
 14  5  2  0  0  0  0
 14 15  1  0  0  0  0
  2 16  1  0  0  0  0
 16 17  1  0  0  0  0
 17 18  1  0  0  0  0
 17 19  1  0  0  0  0
 19 20  1  0  0  0  0
 19 21  1  0  0  0  0
 19 22  1  0  0  0  0
 17 23  1  0  0  0  0
 23 24  1  0  0  0  0
 23 25  1  0  0  0  0
 23 26  1  0  0  0  0
M  END
> <ChemID>
100251

> <source_casrn>
122-42-9

> <CAS>
122-42-9

> <SMILES>
O=C(OC(C)C)Nc(cccc1)c1

> <NAME>
ISOPROPYL PHENYL CARBAMATE

> <preferred_name>
Propham

> <iupac>
propan-2-yl phenylcarbamate

> <MPID>
99528

> <dsstox_substance_id>
DTXSID7020766

> <Canonical_QSARr>
CC(C)OC(=O)Nc1ccccc1

> <InChI_Code_QSARr>
InChI=1S/C10H13NO2/c1-8(2)13-10(12)11-9-6-4-3-5-7-9/h3-8H,1-2H3,(H,11,12)

> <InChI Key_QSARr>
VXPLXMJHHKHSOA-UHFFFAOYSA-N

> <LogKOC>
1.83

$$$$
100252
  -INDIGO-08031722282D

 26 27  0  0  0  0  0  0  0  0999 V2000
   -2.4000   -1.3856    0.0000 N   0  0  0  0  0  0  0  0  0  0  0  0
   -1.6000   -2.7713    0.0000 H   0  0  0  0  0  0  0  0  0  0  0  0
   -4.0000   -1.3856    0.0000 C   0  0  0  0  0  0  0  0  0  0  0  0
   -4.8000   -2.7713    0.0000 C   0  0  0  0  0  0  0  0  0  0  0  0
   -4.0000   -4.1569    0.0000 H   0  0  0  0  0  0  0  0  0  0  0  0
   -6.4000   -2.7713    0.0000 C   0  0  0  0  0  0  0  0  0  0  0  0
   -7.2000   -4.1569    0.0000 H   0  0  0  0  0  0  0  0  0  0  0  0
   -7.2000   -1.3856    0.0000 C   0  0  0  0  0  0  0  0  0  0  0  0
   -8.8000   -1.3856    0.0000 H   0  0  0  0  0  0  0  0  0  0  0  0
   -6.4000    0.0000    0.0000 C   0  0  0  0  0  0  0  0  0  0  0  0
   -7.2000    1.3856    0.0000 H   0  0  0  0  0  0  0  0  0  0  0  0
   -4.8000    0.0000    0.0000 C   0  0  0  0  0  0  0  0  0  0  0  0
   -4.0000    1.3856    0.0000 H   0  0  0  0  0  0  0  0  0  0  0  0
   -1.6000    0.0000    0.0000 N   0  0  0  0  0  0  0  0  0  0  0  0
   -2.4000    1.3856    0.0000 H   0  0  0  0  0  0  0  0  0  0  0  0
    0.0000    0.0000    0.0000 C   0  0  0  0  0  0  0  0  0  0  0  0
    0.8000    1.3856    0.0000 C   0  0  0  0  0  0  0  0  0  0  0  0
    0.0000    2.7713    0.0000 H   0  0  0  0  0  0  0  0  0  0  0  0
    2.4000    1.3856    0.0000 C   0  0  0  0  0  0  0  0  0  0  0  0
    3.2000    2.7713    0.0000 H   0  0  0  0  0  0  0  0  0  0  0  0
    3.2000    0.0000    0.0000 C   0  0  0  0  0  0  0  0  0  0  0  0
    4.8000    0.0000    0.0000 H   0  0  0  0  0  0  0  0  0  0  0  0
    2.4000   -1.3856    0.0000 C   0  0  0  0  0  0  0  0  0  0  0  0
    3.2000   -2.7713    0.0000 H   0  0  0  0  0  0  0  0  0  0  0  0
    0.8000   -1.3856    0.0000 C   0  0  0  0  0  0  0  0  0  0  0  0
    0.0000   -2.7713    0.0000 H   0  0  0  0  0  0  0  0  0  0  0  0
  1  2  1  0  0  0  0
  1  3  1  0  0  0  0
  3  4  1  0  0  0  0
  4  5  1  0  0  0  0
  4  6  2  0  0  0  0
  6  7  1  0  0  0  0
  6  8  1  0  0  0  0
  8  9  1  0  0  0  0
  8 10  2  0  0  0  0
 10 11  1  0  0  0  0
 10 12  1  0  0  0  0
 12  3  2  0  0  0  0
 12 13  1  0  0  0  0
  1 14  1  0  0  0  0
 14 15  1  0  0  0  0
 14 16  1  0  0  0  0
 16 17  1  0  0  0  0
 17 18  1  0  0  0  0
 17 19  2  0  0  0  0
 19 20  1  0  0  0  0
 19 21  1  0  0  0  0
 21 22  1  0  0  0  0
 21 23  2  0  0  0  0
 23 24  1  0  0  0  0
 23 25  1  0  0  0  0
 25 16  2  0  0  0  0
 25 26  1  0  0  0  0
M  END
> <ChemID>
100252

> <source_casrn>
122-66-7

> <CAS>
122-66-7

> <SMILES>
c1ccccc1NNc1ccccc1

> <NAME>
HYDRAZOBENZENE

> <preferred_name>
1,2-Diphenylhydrazine

> <iupac>
1,2-diphenylhydrazine

> <MPID>
99529

> <dsstox_substance_id>
DTXSID7020710

> <Canonical_QSARr>
c1ccccc1NNc1ccccc1

> <InChI_Code_QSARr>
InChI=1S/C12H12N2/c1-3-7-11(8-4-1)13-14-12-9-5-2-6-10-12/h1-10,13-14H

> <InChI Key_QSARr>
YBQZXXMEJHZYMB-UHFFFAOYSA-N

> <LogKOC>
2.98

$$$$
100253
  -INDIGO-08031722282D

 12 12  0  0  0  0  0  0  0  0999 V2000
    0.8000    1.3856    0.0000 O   0  0  0  0  0  0  0  0  0  0  0  0
   -0.0000   -0.0000    0.0000 C   0  0  0  0  0  0  0  0  0  0  0  0
    0.8000   -1.3857    0.0000 C   0  0  0  0  0  0  0  0  0  0  0  0
    2.4000   -1.3857    0.0000 H   0  0  0  0  0  0  0  0  0  0  0  0
   -0.0000   -2.7713    0.0000 C   0  0  0  0  0  0  0  0  0  0  0  0
    0.8000   -4.1569    0.0000 H   0  0  0  0  0  0  0  0  0  0  0  0
   -1.6000   -2.7713    0.0000 C   0  0  0  0  0  0  0  0  0  0  0  0
   -2.4000   -4.1569    0.0000 O   0  0  0  0  0  0  0  0  0  0  0  0
   -2.4000   -1.3856    0.0000 N   0  0  0  0  0  0  0  0  0  0  0  0
   -4.0000   -1.3856    0.0000 H   0  0  0  0  0  0  0  0  0  0  0  0
   -1.6000   -0.0000    0.0000 N   0  0  0  0  0  0  0  0  0  0  0  0
   -2.4000    1.3856    0.0000 H   0  0  0  0  0  0  0  0  0  0  0  0
  1  2  2  0  0  0  0
  2  3  1  0  0  0  0
  3  4  1  0  0  0  0
  3  5  2  0  0  0  0
  5  6  1  0  0  0  0
  5  7  1  0  0  0  0
  7  8  2  0  0  0  0
  7  9  1  0  0  0  0
  9 10  1  0  0  0  0
  9 11  1  0  0  0  0
 11  2  1  0  0  0  0
 11 12  1  0  0  0  0
M  END
> <ChemID>
100253

> <source_casrn>
123-33-1

> <CAS>
123-33-1

> <SMILES>
C1=CC(=O)NNC1(=O)

> <NAME>
MALEIC HYDRAZIDE

> <preferred_name>
Maleic hydrazide

> <iupac>
1,2-dihydropyridazine-3,6-dione

> <MPID>
99530

> <dsstox_substance_id>
DTXSID9020792

> <Canonical_QSARr>
O=C1C=CC(=O)NN1

> <InChI_Code_QSARr>
InChI=1S/C4H4N2O2/c7-3-1-2-4(8)6-5-3/h1-2H,(H,5,7)(H,6,8)

> <InChI Key_QSARr>
BGRDGMRNKXEXQD-UHFFFAOYSA-N

> <LogKOC>
0.45

$$$$
100255
  -INDIGO-08031722282D

 14 14  0  0  0  0  0  0  0  0999 V2000
    0.0000   -0.0000    0.0000 C   0  0  0  0  0  0  0  0  0  0  0  0
    1.5757    0.2779    0.0000 H   0  0  0  0  0  0  0  0  0  0  0  0
    0.5472   -1.5035    0.0000 H   0  0  0  0  0  0  0  0  0  0  0  0
    0.0000    1.6000    0.0000 C   0  0  0  0  0  0  0  0  0  0  0  0
    1.5757    1.3221    0.0000 H   0  0  0  0  0  0  0  0  0  0  0  0
    0.5472    3.1035    0.0000 H   0  0  0  0  0  0  0  0  0  0  0  0
   -1.3856    2.4000    0.0000 O   0  0  0  0  0  0  0  0  0  0  0  0
   -2.7713    1.6000    0.0000 C   0  0  0  0  0  0  0  0  0  0  0  0
   -3.3185    3.1035    0.0000 H   0  0  0  0  0  0  0  0  0  0  0  0
   -4.3470    1.3221    0.0000 H   0  0  0  0  0  0  0  0  0  0  0  0
   -2.7713   -0.0000    0.0000 C   0  0  0  0  0  0  0  0  0  0  0  0
   -4.3470    0.2779    0.0000 H   0  0  0  0  0  0  0  0  0  0  0  0
   -3.3185   -1.5035    0.0000 H   0  0  0  0  0  0  0  0  0  0  0  0
   -1.3856   -0.8000    0.0000 O   0  0  0  0  0  0  0  0  0  0  0  0
  1  2  1  0  0  0  0
  1  3  1  0  0  0  0
  1  4  1  0  0  0  0
  4  5  1  0  0  0  0
  4  6  1  0  0  0  0
  4  7  1  0  0  0  0
  7  8  1  0  0  0  0
  8  9  1  0  0  0  0
  8 10  1  0  0  0  0
  8 11  1  0  0  0  0
 11 12  1  0  0  0  0
 11 13  1  0  0  0  0
 11 14  1  0  0  0  0
 14  1  1  0  0  0  0
M  END
> <ChemID>
100255

> <source_casrn>
123-91-1

> <CAS>
123-91-1

> <SMILES>
C1COCCO1

> <NAME>
1,4-DIOXANE

> <preferred_name>
1,4-Dioxane

> <iupac>
1,4-dioxane

> <MPID>
99532

> <dsstox_substance_id>
DTXSID4020533

> <Canonical_QSARr>
C1COCCO1

> <InChI_Code_QSARr>
InChI=1S/C4H8O2/c1-2-6-4-3-5-1/h1-4H2

> <InChI Key_QSARr>
RYHBNJHYFVUHQT-UHFFFAOYSA-N

> <LogKOC>
1.23

$$$$
100256
  -INDIGO-08031722282D

  5  4  0  0  0  0  0  0  0  0999 V2000
   -0.8000   -1.3856    0.0000 Cl  0  0  0  0  0  0  0  0  0  0  0  0
    0.0000    0.0000    0.0000 C   0  0  0  0  0  0  0  0  0  0  0  0
    0.8000    1.3856    0.0000 H   0  0  0  0  0  0  0  0  0  0  0  0
   -1.3856    0.8000    0.0000 Br  0  0  0  0  0  0  0  0  0  0  0  0
    1.3856   -0.8000    0.0000 Br  0  0  0  0  0  0  0  0  0  0  0  0
  1  2  1  0  0  0  0
  2  3  1  0  0  0  0
  2  4  1  0  0  0  0
  2  5  1  0  0  0  0
M  END
> <ChemID>
100256

> <source_casrn>
124-48-1

> <CAS>
124-48-1

> <SMILES>
ClC(Br)Br

> <NAME>
DIBROMOCHLOROMETHANE

> <preferred_name>
Chlorodibromomethane

> <iupac>
dibromo(chloro)methane

> <MPID>
99533

> <dsstox_substance_id>
DTXSID1020300

> <Canonical_QSARr>
ClC(Br)Br

> <InChI_Code_QSARr>
InChI=1S/CHBr2Cl/c2-1(3)4/h1H

> <InChI Key_QSARr>
GATVIKZLVQHOMN-UHFFFAOYSA-N

> <LogKOC>
1.92

$$$$
100257
  -INDIGO-08031722282D

 33 32  0  0  0  0  0  0  0  0999 V2000
    0.0001    0.0001    0.0000 P   0  0  0  0  0  0  0  0  0  0  0  0
    1.3856    0.8000    0.0000 S   0  0  0  0  0  0  0  0  0  0  0  0
    2.7714    0.0001    0.0000 C   0  0  0  0  0  0  0  0  0  0  0  0
    3.3835   -1.4783    0.0000 H   0  0  0  0  0  0  0  0  0  0  0  0
    2.1591   -1.4783    0.0000 H   0  0  0  0  0  0  0  0  0  0  0  0
    4.1569    0.8000    0.0000 C   0  0  0  0  0  0  0  0  0  0  0  0
    3.5446    2.2782    0.0000 H   0  0  0  0  0  0  0  0  0  0  0  0
    4.7692    2.2782    0.0000 H   0  0  0  0  0  0  0  0  0  0  0  0
    5.5425    0.0001    0.0000 S   0  0  0  0  0  0  0  0  0  0  0  0
    6.9282    0.8000    0.0000 C   0  0  0  0  0  0  0  0  0  0  0  0
    6.3159    2.2782    0.0000 H   0  0  0  0  0  0  0  0  0  0  0  0
    7.5405    2.2782    0.0000 H   0  0  0  0  0  0  0  0  0  0  0  0
    8.3139    0.0001    0.0000 C   0  0  0  0  0  0  0  0  0  0  0  0
    9.6995   -0.8000    0.0000 H   0  0  0  0  0  0  0  0  0  0  0  0
    9.6995    0.8000    0.0000 H   0  0  0  0  0  0  0  0  0  0  0  0
    8.3139   -1.6000    0.0000 H   0  0  0  0  0  0  0  0  0  0  0  0
    0.0001   -1.6000    0.0000 O   0  0  0  0  0  0  0  0  0  0  0  0
   -1.3856   -0.8000    0.0000 O   0  0  0  0  0  0  0  0  0  0  0  0
   -1.3856   -2.4000    0.0000 C   0  0  0  0  0  0  0  0  0  0  0  0
    0.2008   -2.6089    0.0000 H   0  0  0  0  0  0  0  0  0  0  0  0
   -0.4116   -3.6694    0.0000 H   0  0  0  0  0  0  0  0  0  0  0  0
   -2.7712   -3.2001    0.0000 C   0  0  0  0  0  0  0  0  0  0  0  0
   -4.1569   -4.0000    0.0000 H   0  0  0  0  0  0  0  0  0  0  0  0
   -2.7712   -4.8000    0.0000 H   0  0  0  0  0  0  0  0  0  0  0  0
   -4.1569   -2.4000    0.0000 H   0  0  0  0  0  0  0  0  0  0  0  0
   -1.3856    0.8000    0.0000 O   0  0  0  0  0  0  0  0  0  0  0  0
   -1.3856    2.4000    0.0000 C   0  0  0  0  0  0  0  0  0  0  0  0
   -0.4116    3.6694    0.0000 H   0  0  0  0  0  0  0  0  0  0  0  0
    0.2008    2.6089    0.0000 H   0  0  0  0  0  0  0  0  0  0  0  0
   -2.7714    3.2001    0.0000 C   0  0  0  0  0  0  0  0  0  0  0  0
   -4.1569    4.0000    0.0000 H   0  0  0  0  0  0  0  0  0  0  0  0
   -2.7714    4.8000    0.0000 H   0  0  0  0  0  0  0  0  0  0  0  0
   -4.1569    2.4000    0.0000 H   0  0  0  0  0  0  0  0  0  0  0  0
  1  2  1  0  0  0  0
  2  3  1  0  0  0  0
  3  4  1  0  0  0  0
  3  5  1  0  0  0  0
  3  6  1  0  0  0  0
  6  7  1  0  0  0  0
  6  8  1  0  0  0  0
  6  9  1  0  0  0  0
  9 10  1  0  0  0  0
 10 11  1  0  0  0  0
 10 12  1  0  0  0  0
 10 13  1  0  0  0  0
 13 14  1  0  0  0  0
 13 15  1  0  0  0  0
 13 16  1  0  0  0  0
  1 17  2  0  0  0  0
  1 18  1  0  0  0  0
 18 19  1  0  0  0  0
 19 20  1  0  0  0  0
 19 21  1  0  0  0  0
 19 22  1  0  0  0  0
 22 23  1  0  0  0  0
 22 24  1  0  0  0  0
 22 25  1  0  0  0  0
  1 26  1  0  0  0  0
 26 27  1  0  0  0  0
 27 28  1  0  0  0  0
 27 29  1  0  0  0  0
 27 30  1  0  0  0  0
 30 31  1  0  0  0  0
 30 32  1  0  0  0  0
 30 33  1  0  0  0  0
M  END
> <ChemID>
100257

> <source_casrn>
126-75-0

> <CAS>
126-75-0

> <SMILES>
CCSCCSP(=O)(OCC)OCC

> <NAME>
Demeton-S

> <preferred_name>
Demeton-S

> <iupac>
O,O-diethyl S-[2-(ethylsulfanyl)ethyl] phosphorothioate

> <MPID>
99534

> <dsstox_substance_id>
DTXSID9037535

> <Canonical_QSARr>
CCSCCSP(=O)(OCC)OCC

> <InChI_Code_QSARr>
InChI=1S/C8H19O3PS2/c1-4-10-12(9,11-5-2)14-8-7-13-6-3/h4-8H2,1-3H3

> <InChI Key_QSARr>
GRPRVIYRYGLIJU-UHFFFAOYSA-N

> <LogKOC>
1.85

$$$$
100259
  -INDIGO-08031722282D

 11 10  0  0  0  0  0  0  0  0999 V2000
    2.7713    0.0000    0.0000 O   0  0  0  0  0  0  0  0  0  0  0  0
    4.1569    0.8000    0.0000 H   0  0  0  0  0  0  0  0  0  0  0  0
    1.3856    0.8000    0.0000 C   0  0  0  0  0  0  0  0  0  0  0  0
    0.0000    0.0000    0.0000 C   0  0  0  0  0  0  0  0  0  0  0  0
   -0.6123   -1.4782    0.0000 Cl  0  0  0  0  0  0  0  0  0  0  0  0
    0.6123   -1.4782    0.0000 Cl  0  0  0  0  0  0  0  0  0  0  0  0
   -1.3856    0.8000    0.0000 C   0  0  0  0  0  0  0  0  0  0  0  0
   -2.7713    1.6000    0.0000 H   0  0  0  0  0  0  0  0  0  0  0  0
   -2.7713    0.0000    0.0000 H   0  0  0  0  0  0  0  0  0  0  0  0
   -1.3856    2.4000    0.0000 H   0  0  0  0  0  0  0  0  0  0  0  0
    1.3856    2.4000    0.0000 O   0  0  0  0  0  0  0  0  0  0  0  0
  1  2  1  0  0  0  0
  1  3  1  0  0  0  0
  3  4  1  0  0  0  0
  4  5  1  0  0  0  0
  4  6  1  0  0  0  0
  4  7  1  0  0  0  0
  7  8  1  0  0  0  0
  7  9  1  0  0  0  0
  7 10  1  0  0  0  0
  3 11  2  0  0  0  0
M  END
> <ChemID>
100259

> <source_casrn>
127-20-8

> <CAS>
127-20-8

> <SMILES>
CC(Cl)(Cl)C(O[Na])=O

> <NAME>
DALAPON (SODIUM SALT)

> <preferred_name>
Dalapon-sodium

> <iupac>
sodium 2,2-dichloropropanoate

> <MPID>
99536

> <dsstox_substance_id>
DTXSID5024001

> <Canonical_QSARr>
CC(Cl)(Cl)C(O)=O

> <InChI_Code_QSARr>
InChI=1S/C3H4Cl2O2/c1-3(4,5)2(6)7/h1H3,(H,6,7)

> <InChI Key_QSARr>
NDUPDOJHUQKPAG-UHFFFAOYSA-N

> <LogKOC>
0.0

$$$$
100260
  -INDIGO-08031722282D

 38 43  0  0  0  0  0  0  0  0999 V2000
    4.8001    2.7712    0.0000 C   0  0  0  0  0  0  0  0  0  0  0  0
    5.6001    4.1569    0.0000 H   0  0  0  0  0  0  0  0  0  0  0  0
    5.6001    1.3856    0.0000 C   0  0  0  0  0  0  0  0  0  0  0  0
    7.2000    1.3856    0.0000 H   0  0  0  0  0  0  0  0  0  0  0  0
    4.8001    0.0001    0.0000 C   0  0  0  0  0  0  0  0  0  0  0  0
    5.6001   -1.3856    0.0000 H   0  0  0  0  0  0  0  0  0  0  0  0
    3.1999    0.0001    0.0000 C   0  0  0  0  0  0  0  0  0  0  0  0
    2.3999    1.3856    0.0000 C   0  0  0  0  0  0  0  0  0  0  0  0
    0.8000    1.3856    0.0000 C   0  0  0  0  0  0  0  0  0  0  0  0
   -0.0001    2.7712    0.0000 C   0  0  0  0  0  0  0  0  0  0  0  0
    0.8000    4.1569    0.0000 H   0  0  0  0  0  0  0  0  0  0  0  0
   -1.5999    2.7712    0.0000 C   0  0  0  0  0  0  0  0  0  0  0  0
   -2.4000    4.1569    0.0000 H   0  0  0  0  0  0  0  0  0  0  0  0
   -2.4000    1.3856    0.0000 C   0  0  0  0  0  0  0  0  0  0  0  0
   -1.5999   -0.0001    0.0000 C   0  0  0  0  0  0  0  0  0  0  0  0
   -2.4000   -1.3856    0.0000 C   0  0  0  0  0  0  0  0  0  0  0  0
   -1.5999   -2.7712    0.0000 C   0  0  0  0  0  0  0  0  0  0  0  0
   -2.4000   -4.1569    0.0000 H   0  0  0  0  0  0  0  0  0  0  0  0
   -0.0001   -2.7712    0.0000 C   0  0  0  0  0  0  0  0  0  0  0  0
    0.8000   -4.1569    0.0000 H   0  0  0  0  0  0  0  0  0  0  0  0
    0.8000   -1.3856    0.0000 C   0  0  0  0  0  0  0  0  0  0  0  0
    2.4001   -1.3856    0.0000 C   0  0  0  0  0  0  0  0  0  0  0  0
    3.1999   -2.7712    0.0000 O   0  0  0  0  0  0  0  0  0  0  0  0
   -0.0001    0.0001    0.0000 C   0  0  0  0  0  0  0  0  0  0  0  0
   -4.0001   -1.3856    0.0000 C   0  0  0  0  0  0  0  0  0  0  0  0
   -4.7999    0.0001    0.0000 C   0  0  0  0  0  0  0  0  0  0  0  0
   -4.0001    1.3856    0.0000 C   0  0  0  0  0  0  0  0  0  0  0  0
   -4.7999    2.7712    0.0000 O   0  0  0  0  0  0  0  0  0  0  0  0
   -6.4001   -0.0001    0.0000 C   0  0  0  0  0  0  0  0  0  0  0  0
   -7.2001    1.3856    0.0000 H   0  0  0  0  0  0  0  0  0  0  0  0
   -7.2001   -1.3856    0.0000 C   0  0  0  0  0  0  0  0  0  0  0  0
   -8.8000   -1.3856    0.0000 H   0  0  0  0  0  0  0  0  0  0  0  0
   -6.4001   -2.7712    0.0000 C   0  0  0  0  0  0  0  0  0  0  0  0
   -7.2001   -4.1569    0.0000 H   0  0  0  0  0  0  0  0  0  0  0  0
   -4.7999   -2.7712    0.0000 C   0  0  0  0  0  0  0  0  0  0  0  0
   -4.0001   -4.1569    0.0000 H   0  0  0  0  0  0  0  0  0  0  0  0
    3.1999    2.7713    0.0000 C   0  0  0  0  0  0  0  0  0  0  0  0
    2.4001    4.1569    0.0000 H   0  0  0  0  0  0  0  0  0  0  0  0
  1  2  1  0  0  0  0
  1  3  1  0  0  0  0
  3  4  1  0  0  0  0
  3  5  2  0  0  0  0
  5  6  1  0  0  0  0
  5  7  1  0  0  0  0
  7  8  2  0  0  0  0
  8  9  1  0  0  0  0
  9 10  1  0  0  0  0
 10 11  1  0  0  0  0
 10 12  2  0  0  0  0
 12 13  1  0  0  0  0
 12 14  1  0  0  0  0
 14 15  2  0  0  0  0
 15 16  1  0  0  0  0
 16 17  2  0  0  0  0
 17 18  1  0  0  0  0
 17 19  1  0  0  0  0
 19 20  1  0  0  0  0
 19 21  2  0  0  0  0
 21 22  1  0  0  0  0
 22  7  1  0  0  0  0
 22 23  2  0  0  0  0
 21 24  1  0  0  0  0
 24  9  2  0  0  0  0
 24 15  1  0  0  0  0
 16 25  1  0  0  0  0
 25 26  1  0  0  0  0
 26 27  1  0  0  0  0
 27 14  1  0  0  0  0
 27 28  2  0  0  0  0
 26 29  2  0  0  0  0
 29 30  1  0  0  0  0
 29 31  1  0  0  0  0
 31 32  1  0  0  0  0
 31 33  2  0  0  0  0
 33 34  1  0  0  0  0
 33 35  1  0  0  0  0
 35 25  2  0  0  0  0
 35 36  1  0  0  0  0
  8 37  1  0  0  0  0
 37  1  2  0  0  0  0
 37 38  1  0  0  0  0
M  END
> <ChemID>
100260

> <source_casrn>
128-66-5

> <CAS>
128-66-5

> <SMILES>
O=C1c2ccccc2-c2ccc3c4c2c1ccc4-c1ccccc1C3=O

> <NAME>
DIBENZO(B,DEF)CHRYSENE-7,14-DIONE

> <preferred_name>
C.I. Vat Yellow 4

> <iupac>
dibenzo[c,pqr]tetraphene-7,14-dione

> <MPID>
99537

> <dsstox_substance_id>
DTXSID6021454

> <Canonical_QSARr>
O=C1c2ccccc2-c2ccc3c4c2c1ccc4-c1ccccc1C3=O

> <InChI_Code_QSARr>
InChI=1S/C24H12O2/c25-23-17-7-3-1-5-13(17)15-9-11-20-22-16(10-12-19(23)21(15)22)14-6-2-4-8-18(14)24(20)26/h1-12H

> <InChI Key_QSARr>
ZTWQZJLUUZHJGS-UHFFFAOYSA-N

> <LogKOC>
4.28

$$$$
100261
  -INDIGO-08031722282D

 26 29  0  0  0  0  0  0  0  0999 V2000
    0.0001    0.0001    0.0000 C   0  0  0  0  0  0  0  0  0  0  0  0
   -1.6001    0.0001    0.0000 C   0  0  0  0  0  0  0  0  0  0  0  0
   -2.4001   -1.3856    0.0000 C   0  0  0  0  0  0  0  0  0  0  0  0
   -4.0000   -1.3856    0.0000 C   0  0  0  0  0  0  0  0  0  0  0  0
   -4.8000   -2.7712    0.0000 H   0  0  0  0  0  0  0  0  0  0  0  0
   -4.8000    0.0001    0.0000 C   0  0  0  0  0  0  0  0  0  0  0  0
   -6.4000    0.0001    0.0000 H   0  0  0  0  0  0  0  0  0  0  0  0
   -4.0000    1.3856    0.0000 C   0  0  0  0  0  0  0  0  0  0  0  0
   -4.8000    2.7713    0.0000 H   0  0  0  0  0  0  0  0  0  0  0  0
   -2.4001    1.3856    0.0000 C   0  0  0  0  0  0  0  0  0  0  0  0
   -1.6001    2.7713    0.0000 C   0  0  0  0  0  0  0  0  0  0  0  0
   -2.4001    4.1569    0.0000 H   0  0  0  0  0  0  0  0  0  0  0  0
    0.0001    2.7713    0.0000 C   0  0  0  0  0  0  0  0  0  0  0  0
    0.8001    4.1569    0.0000 H   0  0  0  0  0  0  0  0  0  0  0  0
    0.8001    1.3856    0.0000 C   0  0  0  0  0  0  0  0  0  0  0  0
    2.4000    1.3856    0.0000 C   0  0  0  0  0  0  0  0  0  0  0  0
    3.2000    2.7712    0.0000 H   0  0  0  0  0  0  0  0  0  0  0  0
    3.2000    0.0001    0.0000 C   0  0  0  0  0  0  0  0  0  0  0  0
    4.8000    0.0001    0.0000 H   0  0  0  0  0  0  0  0  0  0  0  0
    2.4000   -1.3856    0.0000 C   0  0  0  0  0  0  0  0  0  0  0  0
    3.2000   -2.7712    0.0000 H   0  0  0  0  0  0  0  0  0  0  0  0
    0.8001   -1.3856    0.0000 C   0  0  0  0  0  0  0  0  0  0  0  0
    0.0001   -2.7712    0.0000 C   0  0  0  0  0  0  0  0  0  0  0  0
    0.8001   -4.1569    0.0000 H   0  0  0  0  0  0  0  0  0  0  0  0
   -1.6001   -2.7712    0.0000 C   0  0  0  0  0  0  0  0  0  0  0  0
   -2.4001   -4.1569    0.0000 H   0  0  0  0  0  0  0  0  0  0  0  0
  1  2  2  0  0  0  0
  2  3  1  0  0  0  0
  3  4  1  0  0  0  0
  4  5  1  0  0  0  0
  4  6  2  0  0  0  0
  6  7  1  0  0  0  0
  6  8  1  0  0  0  0
  8  9  1  0  0  0  0
  8 10  2  0  0  0  0
 10  2  1  0  0  0  0
 10 11  1  0  0  0  0
 11 12  1  0  0  0  0
 11 13  2  0  0  0  0
 13 14  1  0  0  0  0
 13 15  1  0  0  0  0
 15  1  1  0  0  0  0
 15 16  2  0  0  0  0
 16 17  1  0  0  0  0
 16 18  1  0  0  0  0
 18 19  1  0  0  0  0
 18 20  2  0  0  0  0
 20 21  1  0  0  0  0
 20 22  1  0  0  0  0
 22  1  1  0  0  0  0
 22 23  2  0  0  0  0
 23 24  1  0  0  0  0
 23 25  1  0  0  0  0
 25  3  2  0  0  0  0
 25 26  1  0  0  0  0
M  END
> <ChemID>
100261

> <source_casrn>
129-00-0

> <CAS>
129-00-0

> <SMILES>
c1cc2cccc3ccc4cccc1c4c32

> <NAME>
PYRENE

> <preferred_name>
Pyrene

> <iupac>
pyrene

> <MPID>
99538

> <dsstox_substance_id>
DTXSID3024289

> <Canonical_QSARr>
c1cc2cccc3ccc4cccc1c4c32

> <InChI_Code_QSARr>
InChI=1S/C16H10/c1-3-11-7-9-13-5-2-6-14-10-8-12(4-1)15(11)16(13)14/h1-10H

> <InChI Key_QSARr>
BBEAQIROQSPTKN-UHFFFAOYSA-N

> <LogKOC>
4.9

$$$$
100262
  -INDIGO-08031722282D

 24 24  0  0  0  0  0  0  0  0999 V2000
   -0.0001    0.0001    0.0000 C   0  0  0  0  0  0  0  0  0  0  0  0
    1.6001    0.0001    0.0000 C   0  0  0  0  0  0  0  0  0  0  0  0
    2.4001    1.3856    0.0000 C   0  0  0  0  0  0  0  0  0  0  0  0
    1.6001    2.7713    0.0000 O   0  0  0  0  0  0  0  0  0  0  0  0
    4.0000    1.3856    0.0000 O   0  0  0  0  0  0  0  0  0  0  0  0
    4.8000    2.7713    0.0000 C   0  0  0  0  0  0  0  0  0  0  0  0
    5.6000    4.1569    0.0000 H   0  0  0  0  0  0  0  0  0  0  0  0
    6.4000    2.7713    0.0000 H   0  0  0  0  0  0  0  0  0  0  0  0
    4.0000    4.1569    0.0000 H   0  0  0  0  0  0  0  0  0  0  0  0
    2.4001   -1.3856    0.0000 C   0  0  0  0  0  0  0  0  0  0  0  0
    4.0000   -1.3856    0.0000 H   0  0  0  0  0  0  0  0  0  0  0  0
    1.6001   -2.7712    0.0000 C   0  0  0  0  0  0  0  0  0  0  0  0
    2.4001   -4.1569    0.0000 H   0  0  0  0  0  0  0  0  0  0  0  0
   -0.0001   -2.7712    0.0000 C   0  0  0  0  0  0  0  0  0  0  0  0
   -0.8001   -4.1569    0.0000 H   0  0  0  0  0  0  0  0  0  0  0  0
   -0.8001   -1.3856    0.0000 C   0  0  0  0  0  0  0  0  0  0  0  0
   -2.4000   -1.3856    0.0000 H   0  0  0  0  0  0  0  0  0  0  0  0
   -0.8001    1.3856    0.0000 C   0  0  0  0  0  0  0  0  0  0  0  0
   -0.0001    2.7713    0.0000 O   0  0  0  0  0  0  0  0  0  0  0  0
   -2.4000    1.3856    0.0000 O   0  0  0  0  0  0  0  0  0  0  0  0
   -3.2000    2.7713    0.0000 C   0  0  0  0  0  0  0  0  0  0  0  0
   -4.0000    4.1569    0.0000 H   0  0  0  0  0  0  0  0  0  0  0  0
   -4.8000    2.7713    0.0000 H   0  0  0  0  0  0  0  0  0  0  0  0
   -2.4000    4.1569    0.0000 H   0  0  0  0  0  0  0  0  0  0  0  0
  1  2  1  0  0  0  0
  2  3  1  0  0  0  0
  3  4  2  0  0  0  0
  3  5  1  0  0  0  0
  5  6  1  0  0  0  0
  6  7  1  0  0  0  0
  6  8  1  0  0  0  0
  6  9  1  0  0  0  0
  2 10  2  0  0  0  0
 10 11  1  0  0  0  0
 10 12  1  0  0  0  0
 12 13  1  0  0  0  0
 12 14  2  0  0  0  0
 14 15  1  0  0  0  0
 14 16  1  0  0  0  0
 16  1  2  0  0  0  0
 16 17  1  0  0  0  0
  1 18  1  0  0  0  0
 18 19  2  0  0  0  0
 18 20  1  0  0  0  0
 20 21  1  0  0  0  0
 21 22  1  0  0  0  0
 21 23  1  0  0  0  0
 21 24  1  0  0  0  0
M  END
> <ChemID>
100262

> <source_casrn>
131-11-3

> <CAS>
131-11-3

> <SMILES>
COC(=O)c1ccccc1C(=O)OC

> <NAME>
DIMETHYL PHTHALATE

> <preferred_name>
Dimethyl phthalate

> <iupac>
dimethyl benzene-1,2-dicarboxylate

> <MPID>
99539

> <dsstox_substance_id>
DTXSID3022455

> <Canonical_QSARr>
COC(=O)c1ccccc1C(=O)OC

> <InChI_Code_QSARr>
InChI=1S/C10H10O4/c1-13-9(11)7-5-3-4-6-8(7)10(12)14-2/h3-6H,1-2H3

> <InChI Key_QSARr>
NIQCNGHVCWTJSM-UHFFFAOYSA-N

> <LogKOC>
1.6

$$$$
100264
  -INDIGO-08031722282D

 21 23  0  0  0  0  0  0  0  0999 V2000
   -0.8000    1.3856    0.0000 C   0  0  0  0  0  0  0  0  0  0  0  0
    0.2707    2.5747    0.0000 S   0  0  0  0  0  0  0  0  0  0  0  0
    1.7322    1.9239    0.0000 C   0  0  0  0  0  0  0  0  0  0  0  0
    1.5651    0.3327    0.0000 C   0  0  0  0  0  0  0  0  0  0  0  0
    2.8595   -0.6078    0.0000 C   0  0  0  0  0  0  0  0  0  0  0  0
    2.6921   -2.1990    0.0000 H   0  0  0  0  0  0  0  0  0  0  0  0
    4.3212    0.0430    0.0000 C   0  0  0  0  0  0  0  0  0  0  0  0
    5.6156   -0.8974    0.0000 H   0  0  0  0  0  0  0  0  0  0  0  0
    4.4883    1.6342    0.0000 C   0  0  0  0  0  0  0  0  0  0  0  0
    5.9501    2.2850    0.0000 H   0  0  0  0  0  0  0  0  0  0  0  0
    3.1939    2.5747    0.0000 C   0  0  0  0  0  0  0  0  0  0  0  0
    3.3612    4.1659    0.0000 H   0  0  0  0  0  0  0  0  0  0  0  0
    0.0000    0.0000    0.0000 C   0  0  0  0  0  0  0  0  0  0  0  0
   -0.8000   -1.3856    0.0000 C   0  0  0  0  0  0  0  0  0  0  0  0
    0.0000   -2.7713    0.0000 H   0  0  0  0  0  0  0  0  0  0  0  0
   -2.4000   -1.3856    0.0000 C   0  0  0  0  0  0  0  0  0  0  0  0
   -3.2000   -2.7713    0.0000 H   0  0  0  0  0  0  0  0  0  0  0  0
   -3.2000    0.0000    0.0000 C   0  0  0  0  0  0  0  0  0  0  0  0
   -4.8000    0.0000    0.0000 H   0  0  0  0  0  0  0  0  0  0  0  0
   -2.4000    1.3856    0.0000 C   0  0  0  0  0  0  0  0  0  0  0  0
   -3.2000    2.7713    0.0000 H   0  0  0  0  0  0  0  0  0  0  0  0
  1  2  1  0  0  0  0
  2  3  1  0  0  0  0
  3  4  1  0  0  0  0
  4  5  2  0  0  0  0
  5  6  1  0  0  0  0
  5  7  1  0  0  0  0
  7  8  1  0  0  0  0
  7  9  2  0  0  0  0
  9 10  1  0  0  0  0
  9 11  1  0  0  0  0
 11  3  2  0  0  0  0
 11 12  1  0  0  0  0
  4 13  1  0  0  0  0
 13  1  1  0  0  0  0
 13 14  2  0  0  0  0
 14 15  1  0  0  0  0
 14 16  1  0  0  0  0
 16 17  1  0  0  0  0
 16 18  2  0  0  0  0
 18 19  1  0  0  0  0
 18 20  1  0  0  0  0
 20  1  2  0  0  0  0
 20 21  1  0  0  0  0
M  END
> <ChemID>
100264

> <source_casrn>
132-65-0

> <CAS>
132-65-0

> <SMILES>
c1cccc2[s]c3ccccc3c21

> <NAME>
DIBENZOTHIOPHENE

> <preferred_name>
Dibenzothiophene

> <iupac>
dibenzo[b,d]thiophene

> <MPID>
99541

> <dsstox_substance_id>
DTXSID0047741

> <Canonical_QSARr>
c1cccc2[s]c3ccccc3c21

> <InChI_Code_QSARr>
InChI=1S/C12H8S/c1-3-7-11-9(5-1)10-6-2-4-8-12(10)13-11/h1-8H

> <InChI Key_QSARr>
IYYZUPMFVPLQIF-UHFFFAOYSA-N

> <LogKOC>
4.05

$$$$
100267
  -INDIGO-08031722282D

 24 25  0  0  0  0  0  0  0  0999 V2000
   -2.0162    2.0161    0.0000 O   0  0  0  0  0  0  0  0  0  0  0  0
   -1.5217    0.4944    0.0000 C   0  0  0  0  0  0  0  0  0  0  0  0
   -2.4621   -0.8000    0.0000 N   0  0  0  0  0  0  0  0  0  0  0  0
   -4.0622   -0.8000    0.0000 S   0  0  0  0  0  0  0  0  0  0  0  0
   -4.8622    0.5856    0.0000 C   0  0  0  0  0  0  0  0  0  0  0  0
   -6.4621    0.5856    0.0000 Cl  0  0  0  0  0  0  0  0  0  0  0  0
   -5.6622    1.9713    0.0000 Cl  0  0  0  0  0  0  0  0  0  0  0  0
   -5.6622   -0.8000    0.0000 Cl  0  0  0  0  0  0  0  0  0  0  0  0
   -1.5217   -2.0944    0.0000 C   0  0  0  0  0  0  0  0  0  0  0  0
   -2.0162   -3.6161    0.0000 O   0  0  0  0  0  0  0  0  0  0  0  0
    0.0000   -1.6000    0.0000 C   0  0  0  0  0  0  0  0  0  0  0  0
   -0.1672   -3.1913    0.0000 H   0  0  0  0  0  0  0  0  0  0  0  0
    0.0000    0.0000    0.0000 C   0  0  0  0  0  0  0  0  0  0  0  0
   -0.1672    1.5913    0.0000 H   0  0  0  0  0  0  0  0  0  0  0  0
    1.3856    0.8000    0.0000 C   0  0  0  0  0  0  0  0  0  0  0  0
    2.4141    2.0257    0.0000 H   0  0  0  0  0  0  0  0  0  0  0  0
    0.8384    2.3035    0.0000 H   0  0  0  0  0  0  0  0  0  0  0  0
    2.7713    0.0000    0.0000 C   0  0  0  0  0  0  0  0  0  0  0  0
    4.1569    0.8000    0.0000 H   0  0  0  0  0  0  0  0  0  0  0  0
    2.7713   -1.6000    0.0000 C   0  0  0  0  0  0  0  0  0  0  0  0
    4.1569   -2.4000    0.0000 H   0  0  0  0  0  0  0  0  0  0  0  0
    1.3856   -2.4000    0.0000 C   0  0  0  0  0  0  0  0  0  0  0  0
    0.8384   -3.9035    0.0000 H   0  0  0  0  0  0  0  0  0  0  0  0
    2.4141   -3.6257    0.0000 H   0  0  0  0  0  0  0  0  0  0  0  0
  1  2  2  0  0  0  0
  2  3  1  0  0  0  0
  3  4  1  0  0  0  0
  4  5  1  0  0  0  0
  5  6  1  0  0  0  0
  5  7  1  0  0  0  0
  5  8  1  0  0  0  0
  3  9  1  0  0  0  0
  9 10  2  0  0  0  0
  9 11  1  0  0  0  0
 11 12  1  0  0  0  0
 11 13  1  0  0  0  0
 13  2  1  0  0  0  0
 13 14  1  0  0  0  0
 13 15  1  0  0  0  0
 15 16  1  0  0  0  0
 15 17  1  0  0  0  0
 15 18  1  0  0  0  0
 18 19  1  0  0  0  0
 18 20  2  0  0  0  0
 20 21  1  0  0  0  0
 20 22  1  0  0  0  0
 22 11  1  0  0  0  0
 22 23  1  0  0  0  0
 22 24  1  0  0  0  0
M  END
> <ChemID>
100267

> <source_casrn>
133-06-2

> <CAS>
133-06-2

> <SMILES>
O=C1C2CC=CCC2C(=O)N1SC(Cl)(Cl)Cl

> <NAME>
CAPTAN

> <preferred_name>
Captan

> <iupac>
2-[(trichloromethyl)sulfanyl]-3a,4,7,7a-tetrahydro-1H-isoindole-1,3(2H)-dione

> <MPID>
99543

> <dsstox_substance_id>
DTXSID9020243

> <Canonical_QSARr>
O=C1C2CC=CCC2C(=O)N1SC(Cl)(Cl)Cl

> <InChI_Code_QSARr>
InChI=1S/C9H8Cl3NO2S/c10-9(11,12)16-13-7(14)5-3-1-2-4-6(5)8(13)15/h1-2,5-6H,3-4H2

> <InChI Key_QSARr>
LDVVMCZRFWMZSG-UHFFFAOYSA-N

> <LogKOC>
2.3

$$$$
100268
  -INDIGO-08031722282D

 20 21  0  0  0  0  0  0  0  0999 V2000
   -2.0162    2.0161    0.0000 O   0  0  0  0  0  0  0  0  0  0  0  0
   -1.5217    0.4944    0.0000 C   0  0  0  0  0  0  0  0  0  0  0  0
   -2.4621   -0.8000    0.0000 N   0  0  0  0  0  0  0  0  0  0  0  0
   -4.0622   -0.8000    0.0000 S   0  0  0  0  0  0  0  0  0  0  0  0
   -4.8622    0.5856    0.0000 C   0  0  0  0  0  0  0  0  0  0  0  0
   -6.4621    0.5856    0.0000 Cl  0  0  0  0  0  0  0  0  0  0  0  0
   -5.6622    1.9713    0.0000 Cl  0  0  0  0  0  0  0  0  0  0  0  0
   -5.6622   -0.8000    0.0000 Cl  0  0  0  0  0  0  0  0  0  0  0  0
   -1.5217   -2.0944    0.0000 C   0  0  0  0  0  0  0  0  0  0  0  0
   -2.0162   -3.6161    0.0000 O   0  0  0  0  0  0  0  0  0  0  0  0
    0.0000   -1.6000    0.0000 C   0  0  0  0  0  0  0  0  0  0  0  0
    0.0000   -0.0000    0.0000 C   0  0  0  0  0  0  0  0  0  0  0  0
    1.3856    0.8000    0.0000 C   0  0  0  0  0  0  0  0  0  0  0  0
    1.3856    2.4000    0.0000 H   0  0  0  0  0  0  0  0  0  0  0  0
    2.7713   -0.0000    0.0000 C   0  0  0  0  0  0  0  0  0  0  0  0
    4.1569    0.8000    0.0000 H   0  0  0  0  0  0  0  0  0  0  0  0
    2.7713   -1.6000    0.0000 C   0  0  0  0  0  0  0  0  0  0  0  0
    4.1569   -2.4000    0.0000 H   0  0  0  0  0  0  0  0  0  0  0  0
    1.3856   -2.4000    0.0000 C   0  0  0  0  0  0  0  0  0  0  0  0
    1.3856   -4.0000    0.0000 H   0  0  0  0  0  0  0  0  0  0  0  0
  1  2  2  0  0  0  0
  2  3  1  0  0  0  0
  3  4  1  0  0  0  0
  4  5  1  0  0  0  0
  5  6  1  0  0  0  0
  5  7  1  0  0  0  0
  5  8  1  0  0  0  0
  3  9  1  0  0  0  0
  9 10  2  0  0  0  0
  9 11  1  0  0  0  0
 11 12  1  0  0  0  0
 12  2  1  0  0  0  0
 12 13  2  0  0  0  0
 13 14  1  0  0  0  0
 13 15  1  0  0  0  0
 15 16  1  0  0  0  0
 15 17  2  0  0  0  0
 17 18  1  0  0  0  0
 17 19  1  0  0  0  0
 19 11  2  0  0  0  0
 19 20  1  0  0  0  0
M  END
> <ChemID>
100268

> <source_casrn>
133-07-3

> <CAS>
133-07-3

> <SMILES>
O=C1c2ccccc2C(=O)N1SC(Cl)(Cl)Cl

> <NAME>
FOLPET

> <preferred_name>
Folpet

> <iupac>
2-[(trichloromethyl)sulfanyl]-1H-isoindole-1,3(2H)-dione

> <MPID>
99544

> <dsstox_substance_id>
DTXSID0021385

> <Canonical_QSARr>
O=C1c2ccccc2C(=O)N1SC(Cl)(Cl)Cl

> <InChI_Code_QSARr>
InChI=1S/C9H4Cl3NO2S/c10-9(11,12)16-13-7(14)5-3-1-2-4-6(5)8(13)15/h1-4H

> <InChI Key_QSARr>
HKIOYBQGHSTUDB-UHFFFAOYSA-N

> <LogKOC>
3.27

$$$$
100270
  -INDIGO-08031722282D

 20 21  0  0  0  0  0  0  0  0999 V2000
   -0.0001    1.6000    0.0000 C   0  0  0  0  0  0  0  0  0  0  0  0
    1.3856    2.4000    0.0000 C   0  0  0  0  0  0  0  0  0  0  0  0
    1.3856    4.0000    0.0000 H   0  0  0  0  0  0  0  0  0  0  0  0
    2.7712    1.6000    0.0000 C   0  0  0  0  0  0  0  0  0  0  0  0
    4.1569    2.4000    0.0000 H   0  0  0  0  0  0  0  0  0  0  0  0
    2.7713    0.0000    0.0000 C   0  0  0  0  0  0  0  0  0  0  0  0
    4.1569   -0.8000    0.0000 H   0  0  0  0  0  0  0  0  0  0  0  0
    1.3856   -0.8000    0.0000 C   0  0  0  0  0  0  0  0  0  0  0  0
    1.3856   -2.4000    0.0000 H   0  0  0  0  0  0  0  0  0  0  0  0
    0.0001    0.0000    0.0000 C   0  0  0  0  0  0  0  0  0  0  0  0
   -1.3856   -0.8000    0.0000 C   0  0  0  0  0  0  0  0  0  0  0  0
   -1.3856   -2.4000    0.0000 N   0  0  0  0  0  0  0  0  0  0  0  0
   -2.7712   -3.2000    0.0000 H   0  0  0  0  0  0  0  0  0  0  0  0
    0.0001   -3.2000    0.0000 H   0  0  0  0  0  0  0  0  0  0  0  0
   -2.7713    0.0000    0.0000 C   0  0  0  0  0  0  0  0  0  0  0  0
   -4.1569   -0.8000    0.0000 H   0  0  0  0  0  0  0  0  0  0  0  0
   -2.7712    1.6000    0.0000 C   0  0  0  0  0  0  0  0  0  0  0  0
   -4.1569    2.4000    0.0000 H   0  0  0  0  0  0  0  0  0  0  0  0
   -1.3856    2.4000    0.0000 C   0  0  0  0  0  0  0  0  0  0  0  0
   -1.3856    4.0000    0.0000 H   0  0  0  0  0  0  0  0  0  0  0  0
  1  2  1  0  0  0  0
  2  3  1  0  0  0  0
  2  4  2  0  0  0  0
  4  5  1  0  0  0  0
  4  6  1  0  0  0  0
  6  7  1  0  0  0  0
  6  8  2  0  0  0  0
  8  9  1  0  0  0  0
  8 10  1  0  0  0  0
 10  1  1  0  0  0  0
 10 11  2  0  0  0  0
 11 12  1  0  0  0  0
 12 13  1  0  0  0  0
 12 14  1  0  0  0  0
 11 15  1  0  0  0  0
 15 16  1  0  0  0  0
 15 17  2  0  0  0  0
 17 18  1  0  0  0  0
 17 19  1  0  0  0  0
 19  1  2  0  0  0  0
 19 20  1  0  0  0  0
M  END
> <ChemID>
100270

> <source_casrn>
134-32-7

> <CAS>
134-32-7

> <SMILES>
Nc1cccc2ccccc21

> <NAME>
1-NAPHTHYLAMINE

> <preferred_name>
1-Naphthylamine

> <iupac>
naphthalen-1-amine

> <MPID>
99546

> <dsstox_substance_id>
DTXSID7020920

> <Canonical_QSARr>
Nc1cccc2ccccc21

> <InChI_Code_QSARr>
InChI=1S/C10H9N/c11-10-7-3-5-8-4-1-2-6-9(8)10/h1-7H,11H2

> <InChI Key_QSARr>
RUFPHBVGCFYCNW-UHFFFAOYSA-N

> <LogKOC>
3.51

$$$$
100271
  -INDIGO-08031722282D

 27 27  0  0  0  0  0  0  0  0999 V2000
    4.1569    0.8000    0.0000 C   0  0  0  0  0  0  0  0  0  0  0  0
    4.1569    2.4000    0.0000 O   0  0  0  0  0  0  0  0  0  0  0  0
    5.5425   -0.0000    0.0000 C   0  0  0  0  0  0  0  0  0  0  0  0
    5.5425   -1.6000    0.0000 C   0  0  0  0  0  0  0  0  0  0  0  0
    4.1569   -2.4000    0.0000 H   0  0  0  0  0  0  0  0  0  0  0  0
    6.9282   -2.4000    0.0000 C   0  0  0  0  0  0  0  0  0  0  0  0
    6.9282   -4.0000    0.0000 H   0  0  0  0  0  0  0  0  0  0  0  0
    8.3139   -1.6000    0.0000 C   0  0  0  0  0  0  0  0  0  0  0  0
    9.6995   -2.4000    0.0000 H   0  0  0  0  0  0  0  0  0  0  0  0
    8.3139   -0.0000    0.0000 C   0  0  0  0  0  0  0  0  0  0  0  0
    9.6995    0.8000    0.0000 H   0  0  0  0  0  0  0  0  0  0  0  0
    6.9282    0.8000    0.0000 C   0  0  0  0  0  0  0  0  0  0  0  0
    6.9282    2.4000    0.0000 H   0  0  0  0  0  0  0  0  0  0  0  0
    2.7712   -0.0000    0.0000 O   0  0  0  0  0  0  0  0  0  0  0  0
    1.3856    0.8000    0.0000 C   0  0  0  0  0  0  0  0  0  0  0  0
    0.7733    2.2782    0.0000 H   0  0  0  0  0  0  0  0  0  0  0  0
    1.9980    2.2782    0.0000 H   0  0  0  0  0  0  0  0  0  0  0  0
   -0.0001   -0.0000    0.0000 C   0  0  0  0  0  0  0  0  0  0  0  0
    0.6122   -1.4782    0.0000 H   0  0  0  0  0  0  0  0  0  0  0  0
   -0.6122   -1.4782    0.0000 H   0  0  0  0  0  0  0  0  0  0  0  0
   -1.3856    0.8000    0.0000 C   0  0  0  0  0  0  0  0  0  0  0  0
   -1.9980    2.2782    0.0000 H   0  0  0  0  0  0  0  0  0  0  0  0
   -0.7733    2.2782    0.0000 H   0  0  0  0  0  0  0  0  0  0  0  0
   -2.7714   -0.0000    0.0000 C   0  0  0  0  0  0  0  0  0  0  0  0
   -4.1569   -0.8000    0.0000 H   0  0  0  0  0  0  0  0  0  0  0  0
   -4.1569    0.8000    0.0000 H   0  0  0  0  0  0  0  0  0  0  0  0
   -2.7714   -1.6000    0.0000 H   0  0  0  0  0  0  0  0  0  0  0  0
  1  2  2  0  0  0  0
  1  3  1  0  0  0  0
  3  4  1  0  0  0  0
  4  5  1  0  0  0  0
  4  6  2  0  0  0  0
  6  7  1  0  0  0  0
  6  8  1  0  0  0  0
  8  9  1  0  0  0  0
  8 10  2  0  0  0  0
 10 11  1  0  0  0  0
 10 12  1  0  0  0  0
 12  3  2  0  0  0  0
 12 13  1  0  0  0  0
  1 14  1  0  0  0  0
 14 15  1  0  0  0  0
 15 16  1  0  0  0  0
 15 17  1  0  0  0  0
 15 18  1  0  0  0  0
 18 19  1  0  0  0  0
 18 20  1  0  0  0  0
 18 21  1  0  0  0  0
 21 22  1  0  0  0  0
 21 23  1  0  0  0  0
 21 24  1  0  0  0  0
 24 25  1  0  0  0  0
 24 26  1  0  0  0  0
 24 27  1  0  0  0  0
M  END
> <ChemID>
100271

> <source_casrn>
136-60-7

> <CAS>
136-60-7

> <SMILES>
CCCCOC(=O)c1ccccc1

> <NAME>
BUTYL BENZOATE

> <preferred_name>
Butyl benzoate

> <iupac>
butyl benzoate

> <MPID>
99547

> <dsstox_substance_id>
DTXSID8040694

> <Canonical_QSARr>
CCCCOC(=O)c1ccccc1

> <InChI_Code_QSARr>
InChI=1S/C11H14O2/c1-2-3-9-13-11(12)10-7-5-4-6-8-10/h4-8H,2-3,9H2,1H3

> <InChI Key_QSARr>
XSIFPSYPOVKYCO-UHFFFAOYSA-N

> <LogKOC>
2.1

$$$$
100272
  -INDIGO-08031722282D

 24 23  0  0  0  0  0  0  0  0999 V2000
    5.5426    1.6000    0.0000 S   0  0  0  0  0  0  0  0  0  0  0  0
    5.5426   -0.0000    0.0000 C   0  0  0  0  0  0  0  0  0  0  0  0
    6.9283   -0.8000    0.0000 N   0  0  0  0  0  0  0  0  0  0  0  0
    8.3138   -0.0000    0.0000 C   0  0  0  0  0  0  0  0  0  0  0  0
    9.6995    0.8000    0.0000 H   0  0  0  0  0  0  0  0  0  0  0  0
    9.6995   -0.8000    0.0000 H   0  0  0  0  0  0  0  0  0  0  0  0
    8.3138    1.6000    0.0000 H   0  0  0  0  0  0  0  0  0  0  0  0
    6.9283   -2.4000    0.0000 C   0  0  0  0  0  0  0  0  0  0  0  0
    6.9283   -4.0000    0.0000 H   0  0  0  0  0  0  0  0  0  0  0  0
    8.3138   -3.2000    0.0000 H   0  0  0  0  0  0  0  0  0  0  0  0
    5.5426   -3.2000    0.0000 H   0  0  0  0  0  0  0  0  0  0  0  0
    4.1569   -0.8000    0.0000 S   0  0  0  0  0  0  0  0  0  0  0  0
    2.7713   -0.0000    0.0000 S   0  0  0  0  0  0  0  0  0  0  0  0
    1.3856   -0.8000    0.0000 C   0  0  0  0  0  0  0  0  0  0  0  0
    1.3856   -2.4000    0.0000 S   0  0  0  0  0  0  0  0  0  0  0  0
   -0.0001   -0.0000    0.0000 N   0  0  0  0  0  0  0  0  0  0  0  0
   -0.0001    1.6000    0.0000 C   0  0  0  0  0  0  0  0  0  0  0  0
   -0.0001    3.2000    0.0000 H   0  0  0  0  0  0  0  0  0  0  0  0
    1.3856    2.4000    0.0000 H   0  0  0  0  0  0  0  0  0  0  0  0
   -1.3856    2.4000    0.0000 H   0  0  0  0  0  0  0  0  0  0  0  0
   -1.3856   -0.8000    0.0000 C   0  0  0  0  0  0  0  0  0  0  0  0
   -2.7713   -1.6000    0.0000 H   0  0  0  0  0  0  0  0  0  0  0  0
   -1.3856   -2.4000    0.0000 H   0  0  0  0  0  0  0  0  0  0  0  0
   -2.7713   -0.0000    0.0000 H   0  0  0  0  0  0  0  0  0  0  0  0
  1  2  2  0  0  0  0
  2  3  1  0  0  0  0
  3  4  1  0  0  0  0
  4  5  1  0  0  0  0
  4  6  1  0  0  0  0
  4  7  1  0  0  0  0
  3  8  1  0  0  0  0
  8  9  1  0  0  0  0
  8 10  1  0  0  0  0
  8 11  1  0  0  0  0
  2 12  1  0  0  0  0
 12 13  1  0  0  0  0
 13 14  1  0  0  0  0
 14 15  2  0  0  0  0
 14 16  1  0  0  0  0
 16 17  1  0  0  0  0
 17 18  1  0  0  0  0
 17 19  1  0  0  0  0
 17 20  1  0  0  0  0
 16 21  1  0  0  0  0
 21 22  1  0  0  0  0
 21 23  1  0  0  0  0
 21 24  1  0  0  0  0
M  END
> <ChemID>
100272

> <source_casrn>
137-26-8

> <CAS>
137-26-8

> <SMILES>
CN(C)C(=S)SSC(=S)N(C)C

> <NAME>
THIRAM

> <preferred_name>
Thiram

> <iupac>
[disulfanediylbis(carbonothioylnitrilo)]tetramethane

> <MPID>
99548

> <dsstox_substance_id>
DTXSID5021332

> <Canonical_QSARr>
CN(C)C(=S)SSC(=S)N(C)C

> <InChI_Code_QSARr>
InChI=1S/C6H12N2S4/c1-7(2)5(9)11-12-6(10)8(3)4/h1-4H3

> <InChI Key_QSARr>
KUAZQDVKQLNFPE-UHFFFAOYSA-N

> <LogKOC>
2.83

$$$$
100275
  -INDIGO-08031722282D

 27 28  0  0  0  0  0  0  0  0999 V2000
    3.1515   -0.5556    0.0000 C   0  0  0  0  0  0  0  0  0  0  0  0
    2.6043    0.9479    0.0000 C   0  0  0  0  0  0  0  0  0  0  0  0
    3.6326    2.1735    0.0000 H   0  0  0  0  0  0  0  0  0  0  0  0
    1.0285    1.2257    0.0000 C   0  0  0  0  0  0  0  0  0  0  0  0
    0.4813    2.7292    0.0000 H   0  0  0  0  0  0  0  0  0  0  0  0
   -0.0000    0.0000    0.0000 C   0  0  0  0  0  0  0  0  0  0  0  0
   -1.5758    0.2779    0.0000 S   0  0  0  0  0  0  0  0  0  0  0  0
   -2.9614   -0.5221    0.0000 C   0  0  0  0  0  0  0  0  0  0  0  0
   -2.9614   -2.1222    0.0000 C   0  0  0  0  0  0  0  0  0  0  0  0
   -1.5758   -2.9222    0.0000 H   0  0  0  0  0  0  0  0  0  0  0  0
   -4.3469   -2.9222    0.0000 C   0  0  0  0  0  0  0  0  0  0  0  0
   -4.3469   -4.5222    0.0000 H   0  0  0  0  0  0  0  0  0  0  0  0
   -5.7325   -2.1222    0.0000 C   0  0  0  0  0  0  0  0  0  0  0  0
   -7.1183   -2.9222    0.0000 N   0  0  0  0  0  0  0  0  0  0  0  0
   -8.5039   -2.1222    0.0000 H   0  0  0  0  0  0  0  0  0  0  0  0
   -7.1183   -4.5222    0.0000 H   0  0  0  0  0  0  0  0  0  0  0  0
   -5.7325   -0.5221    0.0000 C   0  0  0  0  0  0  0  0  0  0  0  0
   -7.1183    0.2779    0.0000 H   0  0  0  0  0  0  0  0  0  0  0  0
   -4.3469    0.2779    0.0000 C   0  0  0  0  0  0  0  0  0  0  0  0
   -4.3469    1.8779    0.0000 H   0  0  0  0  0  0  0  0  0  0  0  0
    0.5472   -1.5035    0.0000 C   0  0  0  0  0  0  0  0  0  0  0  0
   -0.4813   -2.7292    0.0000 H   0  0  0  0  0  0  0  0  0  0  0  0
    2.1230   -1.7813    0.0000 C   0  0  0  0  0  0  0  0  0  0  0  0
    2.6702   -3.2849    0.0000 H   0  0  0  0  0  0  0  0  0  0  0  0
    4.7270   -0.8335    0.0000 N   0  0  0  0  0  0  0  0  0  0  0  0
    5.2742   -2.3370    0.0000 H   0  0  0  0  0  0  0  0  0  0  0  0
    5.7555    0.3922    0.0000 H   0  0  0  0  0  0  0  0  0  0  0  0
  1  2  1  0  0  0  0
  2  3  1  0  0  0  0
  2  4  2  0  0  0  0
  4  5  1  0  0  0  0
  4  6  1  0  0  0  0
  6  7  1  0  0  0  0
  7  8  1  0  0  0  0
  8  9  1  0  0  0  0
  9 10  1  0  0  0  0
  9 11  2  0  0  0  0
 11 12  1  0  0  0  0
 11 13  1  0  0  0  0
 13 14  1  0  0  0  0
 14 15  1  0  0  0  0
 14 16  1  0  0  0  0
 13 17  2  0  0  0  0
 17 18  1  0  0  0  0
 17 19  1  0  0  0  0
 19  8  2  0  0  0  0
 19 20  1  0  0  0  0
  6 21  2  0  0  0  0
 21 22  1  0  0  0  0
 21 23  1  0  0  0  0
 23  1  2  0  0  0  0
 23 24  1  0  0  0  0
  1 25  1  0  0  0  0
 25 26  1  0  0  0  0
 25 27  1  0  0  0  0
M  END
> <ChemID>
100275

> <source_casrn>
139-65-1

> <CAS>
139-65-1

> <SMILES>
Nc1ccc(cc1)Sc1ccc(N)cc1

> <NAME>
4,4'-THIODIANILINE

> <preferred_name>
4,4'-Thiodianiline

> <iupac>
4,4'-sulfanediyldianiline

> <MPID>
99550

> <dsstox_substance_id>
DTXSID9021344

> <Canonical_QSARr>
Nc1ccc(cc1)Sc1ccc(N)cc1

> <InChI_Code_QSARr>
InChI=1S/C12H12N2S/c13-9-1-5-11(6-2-9)15-12-7-3-10(14)4-8-12/h1-8H,13-14H2

> <InChI Key_QSARr>
ICNFHJVPAJKPHW-UHFFFAOYSA-N

> <LogKOC>
2.04

$$$$
100276
  -INDIGO-08031722282D

 26 26  0  0  0  0  0  0  0  0999 V2000
    8.3139    3.2001    0.0000 O   0  0  0  0  0  0  0  0  0  0  0  0
    9.6995    2.4000    0.0000 H   0  0  0  0  0  0  0  0  0  0  0  0
    6.9282    2.4000    0.0000 S   0  0  0  0  0  0  0  0  0  0  0  0
    5.5427    1.6001    0.0000 N   0  0  0  0  0  0  0  0  0  0  0  0
    4.1569    2.4000    0.0000 N   0  0  0  0  0  0  0  0  0  0  0  0
    2.7714    1.6001    0.0000 C   0  0  0  0  0  0  0  0  0  0  0  0
    2.7714   -0.0001    0.0000 C   0  0  0  0  0  0  0  0  0  0  0  0
    4.1569   -0.8000    0.0000 H   0  0  0  0  0  0  0  0  0  0  0  0
    1.3856   -0.8000    0.0000 C   0  0  0  0  0  0  0  0  0  0  0  0
    1.3856   -2.4000    0.0000 H   0  0  0  0  0  0  0  0  0  0  0  0
    0.0001   -0.0001    0.0000 C   0  0  0  0  0  0  0  0  0  0  0  0
   -1.3856   -0.8000    0.0000 N   0  0  0  0  0  0  0  0  0  0  0  0
   -1.3856   -2.4000    0.0000 C   0  0  0  0  0  0  0  0  0  0  0  0
   -1.3856   -4.0000    0.0000 H   0  0  0  0  0  0  0  0  0  0  0  0
   -2.7712   -3.1999    0.0000 H   0  0  0  0  0  0  0  0  0  0  0  0
   -0.0001   -3.2001    0.0000 H   0  0  0  0  0  0  0  0  0  0  0  0
   -2.7712    0.0001    0.0000 C   0  0  0  0  0  0  0  0  0  0  0  0
   -4.1569    0.8000    0.0000 H   0  0  0  0  0  0  0  0  0  0  0  0
   -4.1569   -0.8000    0.0000 H   0  0  0  0  0  0  0  0  0  0  0  0
   -2.7712    1.6001    0.0000 H   0  0  0  0  0  0  0  0  0  0  0  0
    0.0001    1.6001    0.0000 C   0  0  0  0  0  0  0  0  0  0  0  0
   -1.3856    2.4000    0.0000 H   0  0  0  0  0  0  0  0  0  0  0  0
    1.3856    2.4000    0.0000 C   0  0  0  0  0  0  0  0  0  0  0  0
    1.3856    4.0000    0.0000 H   0  0  0  0  0  0  0  0  0  0  0  0
    7.7283    1.0144    0.0000 O   0  0  0  0  0  0  0  0  0  0  0  0
    6.1281    3.7856    0.0000 O   0  0  0  0  0  0  0  0  0  0  0  0
  1  2  1  0  0  0  0
  1  3  1  0  0  0  0
  3  4  1  0  0  0  0
  4  5  2  0  0  0  0
  5  6  1  0  0  0  0
  6  7  1  0  0  0  0
  7  8  1  0  0  0  0
  7  9  2  0  0  0  0
  9 10  1  0  0  0  0
  9 11  1  0  0  0  0
 11 12  1  0  0  0  0
 12 13  1  0  0  0  0
 13 14  1  0  0  0  0
 13 15  1  0  0  0  0
 13 16  1  0  0  0  0
 12 17  1  0  0  0  0
 17 18  1  0  0  0  0
 17 19  1  0  0  0  0
 17 20  1  0  0  0  0
 11 21  2  0  0  0  0
 21 22  1  0  0  0  0
 21 23  1  0  0  0  0
 23  6  2  0  0  0  0
 23 24  1  0  0  0  0
  3 25  2  0  0  0  0
  3 26  2  0  0  0  0
M  END
> <ChemID>
100276

> <source_casrn>
140-56-7

> <CAS>
140-56-7

> <SMILES>
[Na+].CN(C)c1ccc(cc1)N=NS([O-])(=O)=O

> <NAME>
FENAMINOSULF

> <preferred_name>
Fenaminosulf

> <iupac>
sodium [4-(dimethylamino)phenyl]diazenesulfonate

> <MPID>
99551

> <dsstox_substance_id>
DTXSID6040371

> <Canonical_QSARr>
CN(C)c1ccc(cc1)N=NS(O)(=O)=O

> <InChI_Code_QSARr>
InChI=1S/C8H11N3O3S/c1-11(2)8-5-3-7(4-6-8)9-10-15(12,13)14/h3-6H,1-2H3,(H,12,13,14)/b10-9+

> <InChI Key_QSARr>
FLTYACUMGDVPLP-MDZDMXLPSA-N

> <LogKOC>
1.18

$$$$
100277
  -INDIGO-08031722282D

 31 30  0  0  0  0  0  0  0  0999 V2000
   -2.4001    1.3856    0.0000 C   0  0  0  0  0  0  0  0  0  0  0  0
   -1.6001    2.7713    0.0000 H   0  0  0  0  0  0  0  0  0  0  0  0
   -1.6001    0.0000    0.0000 C   0  0  0  0  0  0  0  0  0  0  0  0
   -0.0000    0.0000    0.0000 N   0  0  0  0  0  0  0  0  0  0  0  0
    0.8000    1.3856    0.0000 C   0  0  0  0  0  0  0  0  0  0  0  0
    1.6000    2.7713    0.0000 H   0  0  0  0  0  0  0  0  0  0  0  0
    2.4000    1.3856    0.0000 H   0  0  0  0  0  0  0  0  0  0  0  0
   -0.0000    2.7713    0.0000 H   0  0  0  0  0  0  0  0  0  0  0  0
    0.8000   -1.3856    0.0000 C   0  0  0  0  0  0  0  0  0  0  0  0
    1.6000   -2.7713    0.0000 H   0  0  0  0  0  0  0  0  0  0  0  0
   -0.0000   -2.7713    0.0000 H   0  0  0  0  0  0  0  0  0  0  0  0
    2.4000   -1.3856    0.0000 H   0  0  0  0  0  0  0  0  0  0  0  0
   -2.4001   -1.3856    0.0000 O   0  0  0  0  0  0  0  0  0  0  0  0
   -3.9999    1.3856    0.0000 C   0  0  0  0  0  0  0  0  0  0  0  0
   -4.7999    0.0000    0.0000 O   0  0  0  0  0  0  0  0  0  0  0  0
   -6.3999    0.0000    0.0000 P   0  0  0  0  0  0  0  0  0  0  0  0
   -5.5999   -1.3856    0.0000 O   0  0  0  0  0  0  0  0  0  0  0  0
   -8.0000    0.0000    0.0000 O   0  0  0  0  0  0  0  0  0  0  0  0
   -8.8000    1.3856    0.0000 C   0  0  0  0  0  0  0  0  0  0  0  0
  -10.4000    1.3856    0.0000 H   0  0  0  0  0  0  0  0  0  0  0  0
   -9.6000    2.7713    0.0000 H   0  0  0  0  0  0  0  0  0  0  0  0
   -8.0000    2.7713    0.0000 H   0  0  0  0  0  0  0  0  0  0  0  0
   -7.2000   -1.3856    0.0000 O   0  0  0  0  0  0  0  0  0  0  0  0
   -8.8000   -1.3856    0.0000 C   0  0  0  0  0  0  0  0  0  0  0  0
   -9.6000   -2.7713    0.0000 H   0  0  0  0  0  0  0  0  0  0  0  0
  -10.4000   -1.3856    0.0000 H   0  0  0  0  0  0  0  0  0  0  0  0
   -8.0000   -2.7713    0.0000 H   0  0  0  0  0  0  0  0  0  0  0  0
   -4.7999    2.7713    0.0000 C   0  0  0  0  0  0  0  0  0  0  0  0
   -5.5999    4.1569    0.0000 H   0  0  0  0  0  0  0  0  0  0  0  0
   -6.3999    2.7713    0.0000 H   0  0  0  0  0  0  0  0  0  0  0  0
   -3.9999    4.1569    0.0000 H   0  0  0  0  0  0  0  0  0  0  0  0
  1  2  1  0  0  0  0
  1  3  1  0  0  0  0
  3  4  1  0  0  0  0
  4  5  1  0  0  0  0
  5  6  1  0  0  0  0
  5  7  1  0  0  0  0
  5  8  1  0  0  0  0
  4  9  1  0  0  0  0
  9 10  1  0  0  0  0
  9 11  1  0  0  0  0
  9 12  1  0  0  0  0
  3 13  2  0  0  0  0
  1 14  2  0  0  0  0
 14 15  1  0  0  0  0
 15 16  1  0  0  0  0
 16 17  2  0  0  0  0
 16 18  1  0  0  0  0
 18 19  1  0  0  0  0
 19 20  1  0  0  0  0
 19 21  1  0  0  0  0
 19 22  1  0  0  0  0
 16 23  1  0  0  0  0
 23 24  1  0  0  0  0
 24 25  1  0  0  0  0
 24 26  1  0  0  0  0
 24 27  1  0  0  0  0
 14 28  1  0  0  0  0
 28 29  1  0  0  0  0
 28 30  1  0  0  0  0
 28 31  1  0  0  0  0
M  END
> <ChemID>
100277

> <source_casrn>
141-66-2

> <CAS>
141-66-2

> <SMILES>
C/C(=C\C(=O)N(C)C)/OP(=O)(OC)OC

> <NAME>
DICROTOPHOS

> <preferred_name>
Dicrotophos

> <iupac>
(2E)-4-(dimethylamino)-4-oxobut-2-en-2-yl dimethyl phosphate

> <MPID>
99552

> <dsstox_substance_id>
DTXSID9023914

> <Canonical_QSARr>
CC(=CC(=O)N(C)C)OP(=O)(OC)OC

> <InChI_Code_QSARr>
InChI=1S/C8H16NO5P/c1-7(6-8(10)9(2)3)14-15(11,12-4)13-5/h6H,1-5H3/b7-6-

> <InChI Key_QSARr>
VEENJGZXVHKXNB-SREVYHEPSA-N

> <LogKOC>
1.66

$$$$
100278
  -INDIGO-08031722282D

 20 19  0  0  0  0  0  0  0  0999 V2000
    2.7713    0.0000    0.0000 C   0  0  0  0  0  0  0  0  0  0  0  0
    4.1569   -0.8000    0.0000 H   0  0  0  0  0  0  0  0  0  0  0  0
    4.1569    0.8000    0.0000 H   0  0  0  0  0  0  0  0  0  0  0  0
    2.7713   -1.6000    0.0000 H   0  0  0  0  0  0  0  0  0  0  0  0
    1.3856    0.8000    0.0000 C   0  0  0  0  0  0  0  0  0  0  0  0
    1.9979    2.2782    0.0000 H   0  0  0  0  0  0  0  0  0  0  0  0
    0.7733    2.2782    0.0000 H   0  0  0  0  0  0  0  0  0  0  0  0
   -0.0001    0.0000    0.0000 C   0  0  0  0  0  0  0  0  0  0  0  0
   -0.6122   -1.4782    0.0000 H   0  0  0  0  0  0  0  0  0  0  0  0
    0.6123   -1.4782    0.0000 H   0  0  0  0  0  0  0  0  0  0  0  0
   -1.3856    0.8000    0.0000 C   0  0  0  0  0  0  0  0  0  0  0  0
   -0.7734    2.2782    0.0000 H   0  0  0  0  0  0  0  0  0  0  0  0
   -1.9979    2.2782    0.0000 H   0  0  0  0  0  0  0  0  0  0  0  0
   -2.7712    0.0000    0.0000 C   0  0  0  0  0  0  0  0  0  0  0  0
   -3.3835   -1.4782    0.0000 H   0  0  0  0  0  0  0  0  0  0  0  0
   -2.1591   -1.4782    0.0000 H   0  0  0  0  0  0  0  0  0  0  0  0
   -4.1569    0.8000    0.0000 C   0  0  0  0  0  0  0  0  0  0  0  0
   -5.5425    0.0000    0.0000 O   0  0  0  0  0  0  0  0  0  0  0  0
   -6.9282    0.8000    0.0000 H   0  0  0  0  0  0  0  0  0  0  0  0
   -4.1569    2.4000    0.0000 O   0  0  0  0  0  0  0  0  0  0  0  0
  1  2  1  0  0  0  0
  1  3  1  0  0  0  0
  1  4  1  0  0  0  0
  1  5  1  0  0  0  0
  5  6  1  0  0  0  0
  5  7  1  0  0  0  0
  5  8  1  0  0  0  0
  8  9  1  0  0  0  0
  8 10  1  0  0  0  0
  8 11  1  0  0  0  0
 11 12  1  0  0  0  0
 11 13  1  0  0  0  0
 11 14  1  0  0  0  0
 14 15  1  0  0  0  0
 14 16  1  0  0  0  0
 14 17  1  0  0  0  0
 17 18  1  0  0  0  0
 18 19  1  0  0  0  0
 17 20  2  0  0  0  0
M  END
> <ChemID>
100278

> <source_casrn>
142-62-1

> <CAS>
142-62-1

> <SMILES>
CCCCCC(O)=O

> <NAME>
HEXANOIC ACID

> <preferred_name>
Hexanoic acid

> <iupac>
hexanoic acid

> <MPID>
99553

> <dsstox_substance_id>
DTXSID7021607

> <Canonical_QSARr>
CCCCCC(O)=O

> <InChI_Code_QSARr>
InChI=1S/C6H12O2/c1-2-3-4-5-6(7)8/h2-5H2,1H3,(H,7,8)

> <InChI Key_QSARr>
FUZZWVXGSFPDMH-UHFFFAOYSA-N

> <LogKOC>
1.46

$$$$
100280
  -INDIGO-08031722282D

 21 25  0  0  0  0  0  0  0  0999 V2000
   -0.0000    0.0000    0.0000 C   0  0  0  0  0  0  0  0  0  0  0  0
   -1.5913    0.1672    0.0000 C   0  0  0  0  0  0  0  0  0  0  0  0
   -2.9769   -0.6328    0.0000 C   0  0  0  0  0  0  0  0  0  0  0  0
   -2.6442   -2.1978    0.0000 C   0  0  0  0  0  0  0  0  0  0  0  0
   -3.7148   -3.3868    0.0000 Cl  0  0  0  0  0  0  0  0  0  0  0  0
    1.9239   -1.7322    0.0000 C   0  0  0  0  0  0  0  0  0  0  0  0
    0.3327   -1.5650    0.0000 C   0  0  0  0  0  0  0  0  0  0  0  0
   -0.3516   -0.9270    0.0000 Cl  0  0  0  0  0  0  0  0  0  0  0  0
   -1.0530   -2.3650    0.0000 C   0  0  0  0  0  0  0  0  0  0  0  0
   -1.1832   -1.4386    0.0000 Cl  0  0  0  0  0  0  0  0  0  0  0  0
   -2.2420   -1.2944    0.0000 C   0  0  0  0  0  0  0  0  0  0  0  0
   -3.8071   -1.6271    0.0000 O   0  0  0  0  0  0  0  0  0  0  0  0
    2.8623   -3.0282    0.0000 Cl  0  0  0  0  0  0  0  0  0  0  0  0
    2.5747   -0.2706    0.0000 C   0  0  0  0  0  0  0  0  0  0  0  0
    3.9603   -1.0706    0.0000 Cl  0  0  0  0  0  0  0  0  0  0  0  0
    3.5151    1.0238    0.0000 Cl  0  0  0  0  0  0  0  0  0  0  0  0
    1.3856    0.8000    0.0000 C   0  0  0  0  0  0  0  0  0  0  0  0
    1.7159    2.3656    0.0000 Cl  0  0  0  0  0  0  0  0  0  0  0  0
   -4.4385    0.0180    0.0000 Cl  0  0  0  0  0  0  0  0  0  0  0  0
   -1.9240    1.7323    0.0000 Cl  0  0  0  0  0  0  0  0  0  0  0  0
    1.4616   -0.6508    0.0000 Cl  0  0  0  0  0  0  0  0  0  0  0  0
  1  2  1  0  0  0  0
  2  3  1  0  0  0  0
  3  4  1  0  0  0  0
  4  5  1  0  0  0  0
  4  6  1  0  0  0  0
  6  7  1  0  0  0  0
  7  1  1  0  0  0  0
  7  8  1  0  0  0  0
  7  9  1  0  0  0  0
  9  4  1  0  0  0  0
  9 10  1  0  0  0  0
  9 11  1  0  0  0  0
 11  2  1  0  0  0  0
 11 12  2  0  0  0  0
  6 13  1  0  0  0  0
  6 14  1  0  0  0  0
 14 15  1  0  0  0  0
 14 16  1  0  0  0  0
 14 17  1  0  0  0  0
 17  1  1  0  0  0  0
 17  3  1  0  0  0  0
 17 18  1  0  0  0  0
  3 19  1  0  0  0  0
  2 20  1  0  0  0  0
  1 21  1  0  0  0  0
M  END
> <ChemID>
100280

> <source_casrn>
143-50-0

> <CAS>
143-50-0

> <SMILES>
O=C1C2(Cl)C3(Cl)C4(Cl)C2(Cl)C2(Cl)C(Cl)(C3(Cl)C21Cl)C4(Cl)Cl

> <NAME>
KEPONE

> <preferred_name>
Kepone

> <iupac>
1,1a,3,3a,4,5,5,5a,5b,6-decachlorooctahydro-2H-1,3,4-(methanetriyl)cyclobuta[cd]pentalen-2-one

> <MPID>
99555

> <dsstox_substance_id>
DTXSID1020770

> <Canonical_QSARr>
O=C1C2(Cl)C3(Cl)C4(Cl)C2(Cl)C2(Cl)C(Cl)(C3(Cl)C21Cl)C4(Cl)Cl

> <InChI_Code_QSARr>
InChI=1S/C10Cl10O/c11-2-1(21)3(12)6(15)4(2,13)8(17)5(2,14)7(3,16)9(6,18)10(8,19)20

> <InChI Key_QSARr>
LHHGDZSESBACKH-UHFFFAOYSA-N

> <LogKOC>
4.2

$$$$
100281
  -INDIGO-08031722282D

 10  9  0  0  0  0  0  0  0  0999 V2000
   -0.8000    1.3856    0.0000 O   0  0  0  0  0  0  0  0  0  0  0  0
   -0.0000    2.7713    0.0000 H   0  0  0  0  0  0  0  0  0  0  0  0
   -0.0000    0.0000    0.0000 As  0  0  0  0  0  0  0  0  0  0  0  0
    1.6000    0.0000    0.0000 C   0  0  0  0  0  0  0  0  0  0  0  0
    3.2000    0.0000    0.0000 H   0  0  0  0  0  0  0  0  0  0  0  0
    2.4000   -1.3856    0.0000 H   0  0  0  0  0  0  0  0  0  0  0  0
    2.4000    1.3856    0.0000 H   0  0  0  0  0  0  0  0  0  0  0  0
   -1.6000    0.0000    0.0000 O   0  0  0  0  0  0  0  0  0  0  0  0
   -2.4000   -1.3856    0.0000 H   0  0  0  0  0  0  0  0  0  0  0  0
   -0.8000   -1.3856    0.0000 O   0  0  0  0  0  0  0  0  0  0  0  0
  1  2  1  0  0  0  0
  1  3  1  0  0  0  0
  3  4  1  0  0  0  0
  4  5  1  0  0  0  0
  4  6  1  0  0  0  0
  4  7  1  0  0  0  0
  3  8  1  0  0  0  0
  8  9  1  0  0  0  0
  3 10  2  0  0  0  0
M  END
> <ChemID>
100281

> <source_casrn>
144-21-8

> <CAS>
144-21-8

> <SMILES>
C[As](O[Na])(O[Na])=O

> <NAME>
DSMA

> <preferred_name>
Disodium methanearsonate

> <iupac>
disodium methylarsonate

> <MPID>
99556

> <dsstox_substance_id>
DTXSID4032665

> <Canonical_QSARr>
C[As](O)(O)=O

> <InChI_Code_QSARr>
InChI=1S/CH5AsO3/c1-2(3,4)5/h1H3,(H2,3,4,5)

> <InChI Key_QSARr>
QYPPRTNMGCREIM-UHFFFAOYSA-N

> <LogKOC>
2.78

$$$$
100282
  -INDIGO-08031722282D

 23 24  0  0  0  0  0  0  0  0999 V2000
    0.0000   -0.0000    0.0000 C   0  0  0  0  0  0  0  0  0  0  0  0
    0.0804   -1.5980    0.0000 H   0  0  0  0  0  0  0  0  0  0  0  0
    1.6412    0.0985    0.0000 C   0  0  0  0  0  0  0  0  0  0  0  0
    3.2412    0.1085    0.0000 H   0  0  0  0  0  0  0  0  0  0  0  0
    1.9710   -1.4671    0.0000 C   0  0  0  0  0  0  0  0  0  0  0  0
    0.7800   -2.5356    0.0000 O   0  0  0  0  0  0  0  0  0  0  0  0
    3.4918   -1.9644    0.0000 O   0  0  0  0  0  0  0  0  0  0  0  0
    3.8216   -3.5300    0.0000 H   0  0  0  0  0  0  0  0  0  0  0  0
    1.6745    1.7076    0.0000 C   0  0  0  0  0  0  0  0  0  0  0  0
    3.1421    1.0703    0.0000 H   0  0  0  0  0  0  0  0  0  0  0  0
    2.7646    2.7691    0.0000 O   0  0  0  0  0  0  0  0  0  0  0  0
   -0.0449    1.4507    0.0000 C   0  0  0  0  0  0  0  0  0  0  0  0
   -1.4831    0.7496    0.0000 H   0  0  0  0  0  0  0  0  0  0  0  0
   -1.2743    2.4747    0.0000 C   0  0  0  0  0  0  0  0  0  0  0  0
   -1.8304    3.9750    0.0000 H   0  0  0  0  0  0  0  0  0  0  0  0
   -2.5805    1.5508    0.0000 H   0  0  0  0  0  0  0  0  0  0  0  0
    0.2283    2.6170    0.0000 C   0  0  0  0  0  0  0  0  0  0  0  0
    1.4474    3.6531    0.0000 H   0  0  0  0  0  0  0  0  0  0  0  0
   -0.3939    4.0910    0.0000 H   0  0  0  0  0  0  0  0  0  0  0  0
   -1.4801   -0.6079    0.0000 C   0  0  0  0  0  0  0  0  0  0  0  0
   -2.7465    0.3700    0.0000 O   0  0  0  0  0  0  0  0  0  0  0  0
   -1.6937   -2.1935    0.0000 O   0  0  0  0  0  0  0  0  0  0  0  0
   -3.1737   -2.8013    0.0000 H   0  0  0  0  0  0  0  0  0  0  0  0
  1  2  1  0  0  0  0
  1  3  1  0  0  0  0
  3  4  1  0  0  0  0
  3  5  1  0  0  0  0
  5  6  2  0  0  0  0
  5  7  1  0  0  0  0
  7  8  1  0  0  0  0
  3  9  1  0  0  0  0
  9 10  1  0  0  0  0
  9 11  1  0  0  0  0
 11 12  1  0  0  0  0
 12  1  1  0  0  0  0
 12 13  1  0  0  0  0
 12 14  1  0  0  0  0
 14 15  1  0  0  0  0
 14 16  1  0  0  0  0
 14 17  1  0  0  0  0
 17  9  1  0  0  0  0
 17 18  1  0  0  0  0
 17 19  1  0  0  0  0
  1 20  1  0  0  0  0
 20 21  2  0  0  0  0
 20 22  1  0  0  0  0
 22 23  1  0  0  0  0
M  END
> <ChemID>
100282

> <source_casrn>
145-73-3

> <CAS>
145-73-3

> <SMILES>
OC(=O)C1C(C2CCC1O2)C(O)=O

> <NAME>
ENDOTHAL

> <preferred_name>
Endothal

> <iupac>
7-oxabicyclo[2.2.1]heptane-2,3-dicarboxylic acid

> <MPID>
99557

> <dsstox_substance_id>
DTXSID7024081

> <Canonical_QSARr>
OC(=O)C1C(C2CCC1O2)C(O)=O

> <InChI_Code_QSARr>
InChI=1S/C8H10O5/c9-7(10)5-3-1-2-4(13-3)6(5)8(11)12/h3-6H,1-2H2,(H,9,10)(H,11,12)

> <InChI Key_QSARr>
GXEKYRXVRROBEV-UHFFFAOYSA-N

> <LogKOC>
2.09

$$$$
100283
  -INDIGO-08031722282D

 21 23  0  0  0  0  0  0  0  0999 V2000
    1.5216    0.4944    0.0000 N   0  0  0  0  0  0  0  0  0  0  0  0
    2.0161    2.0161    0.0000 H   0  0  0  0  0  0  0  0  0  0  0  0
    2.4622   -0.8000    0.0000 C   0  0  0  0  0  0  0  0  0  0  0  0
    4.0622   -0.8000    0.0000 C   0  0  0  0  0  0  0  0  0  0  0  0
    5.0026    0.4944    0.0000 C   0  0  0  0  0  0  0  0  0  0  0  0
    4.5083    2.0161    0.0000 H   0  0  0  0  0  0  0  0  0  0  0  0
    6.5242   -0.0000    0.0000 S   0  0  0  0  0  0  0  0  0  0  0  0
    6.5242   -1.6000    0.0000 C   0  0  0  0  0  0  0  0  0  0  0  0
    7.8187   -2.5404    0.0000 H   0  0  0  0  0  0  0  0  0  0  0  0
    5.0026   -2.0944    0.0000 N   0  0  0  0  0  0  0  0  0  0  0  0
    1.5216   -2.0944    0.0000 N   0  0  0  0  0  0  0  0  0  0  0  0
   -0.0000   -1.6000    0.0000 C   0  0  0  0  0  0  0  0  0  0  0  0
   -0.0000   -0.0000    0.0000 C   0  0  0  0  0  0  0  0  0  0  0  0
   -1.3857    0.8000    0.0000 C   0  0  0  0  0  0  0  0  0  0  0  0
   -1.3857    2.4000    0.0000 H   0  0  0  0  0  0  0  0  0  0  0  0
   -2.7712   -0.0000    0.0000 C   0  0  0  0  0  0  0  0  0  0  0  0
   -4.1569    0.8000    0.0000 H   0  0  0  0  0  0  0  0  0  0  0  0
   -2.7712   -1.6000    0.0000 C   0  0  0  0  0  0  0  0  0  0  0  0
   -4.1569   -2.4000    0.0000 H   0  0  0  0  0  0  0  0  0  0  0  0
   -1.3857   -2.4000    0.0000 C   0  0  0  0  0  0  0  0  0  0  0  0
   -1.3857   -4.0000    0.0000 H   0  0  0  0  0  0  0  0  0  0  0  0
  1  2  1  0  0  0  0
  1  3  1  0  0  0  0
  3  4  1  0  0  0  0
  4  5  2  0  0  0  0
  5  6  1  0  0  0  0
  5  7  1  0  0  0  0
  7  8  1  0  0  0  0
  8  9  1  0  0  0  0
  8 10  2  0  0  0  0
 10  4  1  0  0  0  0
  3 11  2  0  0  0  0
 11 12  1  0  0  0  0
 12 13  1  0  0  0  0
 13  1  1  0  0  0  0
 13 14  2  0  0  0  0
 14 15  1  0  0  0  0
 14 16  1  0  0  0  0
 16 17  1  0  0  0  0
 16 18  2  0  0  0  0
 18 19  1  0  0  0  0
 18 20  1  0  0  0  0
 20 12  2  0  0  0  0
 20 21  1  0  0  0  0
M  END
> <ChemID>
100283

> <source_casrn>
148-79-8

> <CAS>
148-79-8

> <SMILES>
c1[n]c(c[s]1)-c1[nH]c2ccccc2[n]1

> <NAME>
THIABENDAZOLE

> <preferred_name>
Thiabendazole

> <iupac>
2-(1,3-thiazol-4-yl)-1H-benzimidazole

> <MPID>
99558

> <dsstox_substance_id>
DTXSID0021337

> <Canonical_QSARr>
c1[n]c(c[s]1)-c1[nH]c2ccccc2[n]1

> <InChI_Code_QSARr>
InChI=1S/C10H7N3S/c1-2-4-8-7(3-1)12-10(13-8)9-5-14-6-11-9/h1-6H,(H,12,13)

> <InChI Key_QSARr>
WJCNZQLZVWNLKY-UHFFFAOYSA-N

> <LogKOC>
3.24

$$$$
100285
  -INDIGO-08031722282D

 17 17  0  0  0  0  0  0  0  0999 V2000
    2.3999   -1.3856    0.0000 O   0  0  0  0  0  0  0  0  0  0  0  0
    1.6000   -0.0000    0.0000 C   0  0  0  0  0  0  0  0  0  0  0  0
    2.4001    1.3856    0.0000 O   0  0  0  0  0  0  0  0  0  0  0  0
    4.0000    1.3856    0.0000 H   0  0  0  0  0  0  0  0  0  0  0  0
    0.0000   -0.0000    0.0000 C   0  0  0  0  0  0  0  0  0  0  0  0
   -0.7999    1.3856    0.0000 C   0  0  0  0  0  0  0  0  0  0  0  0
    0.0000    2.7713    0.0000 H   0  0  0  0  0  0  0  0  0  0  0  0
   -2.4000    1.3856    0.0000 C   0  0  0  0  0  0  0  0  0  0  0  0
   -3.2000    2.7713    0.0000 H   0  0  0  0  0  0  0  0  0  0  0  0
   -3.2000   -0.0000    0.0000 C   0  0  0  0  0  0  0  0  0  0  0  0
   -4.8000   -0.0000    0.0000 N   0  0  0  0  0  0  0  0  0  0  0  0
   -5.6000   -1.3856    0.0000 H   0  0  0  0  0  0  0  0  0  0  0  0
   -5.6000    1.3856    0.0000 H   0  0  0  0  0  0  0  0  0  0  0  0
   -2.4000   -1.3856    0.0000 C   0  0  0  0  0  0  0  0  0  0  0  0
   -3.2000   -2.7713    0.0000 H   0  0  0  0  0  0  0  0  0  0  0  0
   -0.8001   -1.3856    0.0000 C   0  0  0  0  0  0  0  0  0  0  0  0
    0.0000   -2.7713    0.0000 H   0  0  0  0  0  0  0  0  0  0  0  0
  1  2  2  0  0  0  0
  2  3  1  0  0  0  0
  3  4  1  0  0  0  0
  2  5  1  0  0  0  0
  5  6  1  0  0  0  0
  6  7  1  0  0  0  0
  6  8  2  0  0  0  0
  8  9  1  0  0  0  0
  8 10  1  0  0  0  0
 10 11  1  0  0  0  0
 11 12  1  0  0  0  0
 11 13  1  0  0  0  0
 10 14  2  0  0  0  0
 14 15  1  0  0  0  0
 14 16  1  0  0  0  0
 16  5  2  0  0  0  0
 16 17  1  0  0  0  0
M  END
> <ChemID>
100285

> <source_casrn>
150-13-0

> <CAS>
150-13-0

> <SMILES>
Nc1ccc(cc1)C(O)=O

> <NAME>
4-AMINOBENZOIC ACID

> <preferred_name>
4-Aminobenzoic acid

> <iupac>
4-aminobenzoic acid

> <MPID>
99560

> <dsstox_substance_id>
DTXSID6024466

> <Canonical_QSARr>
Nc1ccc(cc1)C(O)=O

> <InChI_Code_QSARr>
InChI=1S/C7H7NO2/c8-6-3-1-5(2-4-6)7(9)10/h1-4H,8H2,(H,9,10)

> <InChI Key_QSARr>
ALYNCZNDIQEVRV-UHFFFAOYSA-N

> <LogKOC>
2.5

$$$$
100286
  -INDIGO-08031722282D

 17 17  0  0  0  0  0  0  0  0999 V2000
    3.2001    2.7713    0.0000 O   0  0  0  0  0  0  0  0  0  0  0  0
    4.8000    2.7713    0.0000 H   0  0  0  0  0  0  0  0  0  0  0  0
    2.4000    1.3856    0.0000 C   0  0  0  0  0  0  0  0  0  0  0  0
    0.8000    1.3856    0.0000 C   0  0  0  0  0  0  0  0  0  0  0  0
    0.0000    2.7713    0.0000 H   0  0  0  0  0  0  0  0  0  0  0  0
    0.0000    0.0000    0.0000 C   0  0  0  0  0  0  0  0  0  0  0  0
   -1.6000    0.0000    0.0000 O   0  0  0  0  0  0  0  0  0  0  0  0
   -2.4001   -1.3856    0.0000 C   0  0  0  0  0  0  0  0  0  0  0  0
   -4.0000   -1.3856    0.0000 H   0  0  0  0  0  0  0  0  0  0  0  0
   -3.2000   -2.7713    0.0000 H   0  0  0  0  0  0  0  0  0  0  0  0
   -3.2000    0.0000    0.0000 H   0  0  0  0  0  0  0  0  0  0  0  0
    0.8000   -1.3856    0.0000 C   0  0  0  0  0  0  0  0  0  0  0  0
    0.0000   -2.7713    0.0000 H   0  0  0  0  0  0  0  0  0  0  0  0
    2.4000   -1.3856    0.0000 C   0  0  0  0  0  0  0  0  0  0  0  0
    3.2001   -2.7713    0.0000 H   0  0  0  0  0  0  0  0  0  0  0  0
    3.2001   -0.0000    0.0000 C   0  0  0  0  0  0  0  0  0  0  0  0
    4.8000    0.0000    0.0000 H   0  0  0  0  0  0  0  0  0  0  0  0
  1  2  1  0  0  0  0
  1  3  1  0  0  0  0
  3  4  1  0  0  0  0
  4  5  1  0  0  0  0
  4  6  2  0  0  0  0
  6  7  1  0  0  0  0
  7  8  1  0  0  0  0
  8  9  1  0  0  0  0
  8 10  1  0  0  0  0
  8 11  1  0  0  0  0
  6 12  1  0  0  0  0
 12 13  1  0  0  0  0
 12 14  2  0  0  0  0
 14 15  1  0  0  0  0
 14 16  1  0  0  0  0
 16  3  2  0  0  0  0
 16 17  1  0  0  0  0
M  END
> <ChemID>
100286

> <source_casrn>
150-19-6

> <CAS>
150-19-6

> <SMILES>
COc1cccc(O)c1

> <NAME>
M-METHOXYPHENOL

> <preferred_name>
3-Methoxyphenol

> <iupac>
3-methoxyphenol

> <MPID>
99561

> <dsstox_substance_id>
DTXSID0022012

> <Canonical_QSARr>
COc1cccc(O)c1

> <InChI_Code_QSARr>
InChI=1S/C7H8O2/c1-9-7-4-2-3-6(8)5-7/h2-5,8H,1H3

> <InChI Key_QSARr>
ASHGTJPOSUFTGB-UHFFFAOYSA-N

> <LogKOC>
1.5

$$$$
100287
  -INDIGO-08031722282D

 24 24  0  0  0  0  0  0  0  0999 V2000
   -2.3999   -1.3856    0.0000 O   0  0  0  0  0  0  0  0  0  0  0  0
   -1.5999    0.0000    0.0000 C   0  0  0  0  0  0  0  0  0  0  0  0
    0.0000    0.0000    0.0000 N   0  0  0  0  0  0  0  0  0  0  0  0
    0.8000   -1.3856    0.0000 C   0  0  0  0  0  0  0  0  0  0  0  0
    1.6000   -2.7713    0.0000 H   0  0  0  0  0  0  0  0  0  0  0  0
    2.4000   -1.3856    0.0000 H   0  0  0  0  0  0  0  0  0  0  0  0
    0.0000   -2.7713    0.0000 H   0  0  0  0  0  0  0  0  0  0  0  0
    0.8000    1.3856    0.0000 C   0  0  0  0  0  0  0  0  0  0  0  0
    1.6000    2.7713    0.0000 H   0  0  0  0  0  0  0  0  0  0  0  0
    2.4000    1.3856    0.0000 H   0  0  0  0  0  0  0  0  0  0  0  0
    0.0000    2.7713    0.0000 H   0  0  0  0  0  0  0  0  0  0  0  0
   -2.3999    1.3856    0.0000 N   0  0  0  0  0  0  0  0  0  0  0  0
   -1.5999    2.7713    0.0000 H   0  0  0  0  0  0  0  0  0  0  0  0
   -4.0001    1.3856    0.0000 C   0  0  0  0  0  0  0  0  0  0  0  0
   -4.8001    2.7713    0.0000 C   0  0  0  0  0  0  0  0  0  0  0  0
   -4.0001    4.1569    0.0000 H   0  0  0  0  0  0  0  0  0  0  0  0
   -6.4000    2.7713    0.0000 C   0  0  0  0  0  0  0  0  0  0  0  0
   -7.2000    4.1569    0.0000 H   0  0  0  0  0  0  0  0  0  0  0  0
   -7.2000    1.3856    0.0000 C   0  0  0  0  0  0  0  0  0  0  0  0
   -8.8000    1.3856    0.0000 Cl  0  0  0  0  0  0  0  0  0  0  0  0
   -6.4000    0.0000    0.0000 C   0  0  0  0  0  0  0  0  0  0  0  0
   -7.2000   -1.3856    0.0000 H   0  0  0  0  0  0  0  0  0  0  0  0
   -4.8001    0.0000    0.0000 C   0  0  0  0  0  0  0  0  0  0  0  0
   -4.0001   -1.3856    0.0000 H   0  0  0  0  0  0  0  0  0  0  0  0
  1  2  2  0  0  0  0
  2  3  1  0  0  0  0
  3  4  1  0  0  0  0
  4  5  1  0  0  0  0
  4  6  1  0  0  0  0
  4  7  1  0  0  0  0
  3  8  1  0  0  0  0
  8  9  1  0  0  0  0
  8 10  1  0  0  0  0
  8 11  1  0  0  0  0
  2 12  1  0  0  0  0
 12 13  1  0  0  0  0
 12 14  1  0  0  0  0
 14 15  1  0  0  0  0
 15 16  1  0  0  0  0
 15 17  2  0  0  0  0
 17 18  1  0  0  0  0
 17 19  1  0  0  0  0
 19 20  1  0  0  0  0
 19 21  2  0  0  0  0
 21 22  1  0  0  0  0
 21 23  1  0  0  0  0
 23 14  2  0  0  0  0
 23 24  1  0  0  0  0
M  END
> <ChemID>
100287

> <source_casrn>
150-68-5

> <CAS>
150-68-5

> <SMILES>
CN(C)C(=O)Nc1ccc(Cl)cc1

> <NAME>
MONURON

> <preferred_name>
Monuron

> <iupac>
3-(4-chlorophenyl)-1,1-dimethylurea

> <MPID>
99562

> <dsstox_substance_id>
DTXSID0020311

> <Canonical_QSARr>
CN(C)C(=O)Nc1ccc(Cl)cc1

> <InChI_Code_QSARr>
InChI=1S/C9H11ClN2O/c1-12(2)9(13)11-8-5-3-7(10)4-6-8/h3-6H,1-2H3,(H,11,13)

> <InChI Key_QSARr>
BMLIZLVNXIYGCK-UHFFFAOYSA-N

> <LogKOC>
1.95

$$$$
100289
  -INDIGO-08031722282D

 35 37  0  0  0  0  0  0  0  0999 V2000
   -2.4001    1.3856    0.0000 C   0  0  0  0  0  0  0  0  0  0  0  0
   -0.8000    1.3856    0.0000 O   0  0  0  0  0  0  0  0  0  0  0  0
   -0.0000    0.0000    0.0000 C   0  0  0  0  0  0  0  0  0  0  0  0
    1.2257   -1.0285    0.0000 H   0  0  0  0  0  0  0  0  0  0  0  0
    1.2257    1.0285    0.0000 C   0  0  0  0  0  0  0  0  0  0  0  0
    0.9479    2.6041    0.0000 C   0  0  0  0  0  0  0  0  0  0  0  0
   -0.5556    3.1514    0.0000 H   0  0  0  0  0  0  0  0  0  0  0  0
    2.1735    3.6326    0.0000 C   0  0  0  0  0  0  0  0  0  0  0  0
    1.8957    5.2083    0.0000 O   0  0  0  0  0  0  0  0  0  0  0  0
    3.1213    6.2368    0.0000 H   0  0  0  0  0  0  0  0  0  0  0  0
    3.6771    3.0854    0.0000 C   0  0  0  0  0  0  0  0  0  0  0  0
    4.9026    4.1139    0.0000 O   0  0  0  0  0  0  0  0  0  0  0  0
    6.4062    3.5666    0.0000 H   0  0  0  0  0  0  0  0  0  0  0  0
    3.9549    1.5096    0.0000 C   0  0  0  0  0  0  0  0  0  0  0  0
    5.4584    0.9625    0.0000 H   0  0  0  0  0  0  0  0  0  0  0  0
    2.7291    0.4813    0.0000 C   0  0  0  0  0  0  0  0  0  0  0  0
    3.0071   -1.0945    0.0000 H   0  0  0  0  0  0  0  0  0  0  0  0
   -0.8000   -1.3857    0.0000 C   0  0  0  0  0  0  0  0  0  0  0  0
    0.7036   -1.9329    0.0000 H   0  0  0  0  0  0  0  0  0  0  0  0
   -1.0778   -2.9613    0.0000 O   0  0  0  0  0  0  0  0  0  0  0  0
    0.1478   -3.9898    0.0000 H   0  0  0  0  0  0  0  0  0  0  0  0
   -2.4001   -1.3857    0.0000 C   0  0  0  0  0  0  0  0  0  0  0  0
   -2.1221   -2.9613    0.0000 H   0  0  0  0  0  0  0  0  0  0  0  0
   -3.9035   -1.9329    0.0000 H   0  0  0  0  0  0  0  0  0  0  0  0
   -3.2000    0.0000    0.0000 C   0  0  0  0  0  0  0  0  0  0  0  0
   -4.7999    0.0000    0.0000 C   0  0  0  0  0  0  0  0  0  0  0  0
   -5.6001   -1.3857    0.0000 O   0  0  0  0  0  0  0  0  0  0  0  0
   -7.2000   -1.3857    0.0000 H   0  0  0  0  0  0  0  0  0  0  0  0
   -5.6001    1.3856    0.0000 C   0  0  0  0  0  0  0  0  0  0  0  0
   -7.2000    1.3856    0.0000 H   0  0  0  0  0  0  0  0  0  0  0  0
   -4.7999    2.7713    0.0000 C   0  0  0  0  0  0  0  0  0  0  0  0
   -5.6001    4.1570    0.0000 O   0  0  0  0  0  0  0  0  0  0  0  0
   -7.2000    4.1570    0.0000 H   0  0  0  0  0  0  0  0  0  0  0  0
   -3.2000    2.7713    0.0000 C   0  0  0  0  0  0  0  0  0  0  0  0
   -2.4001    4.1570    0.0000 H   0  0  0  0  0  0  0  0  0  0  0  0
  1  2  1  0  0  0  0
  2  3  1  0  0  0  0
  3  4  1  0  0  0  0
  3  5  1  0  0  0  0
  5  6  1  0  0  0  0
  6  7  1  0  0  0  0
  6  8  2  0  0  0  0
  8  9  1  0  0  0  0
  9 10  1  0  0  0  0
  8 11  1  0  0  0  0
 11 12  1  0  0  0  0
 12 13  1  0  0  0  0
 11 14  2  0  0  0  0
 14 15  1  0  0  0  0
 14 16  1  0  0  0  0
 16  5  2  0  0  0  0
 16 17  1  0  0  0  0
  3 18  1  0  0  0  0
 18 19  1  0  0  0  0
 18 20  1  0  0  0  0
 20 21  1  0  0  0  0
 18 22  1  0  0  0  0
 22 23  1  0  0  0  0
 22 24  1  0  0  0  0
 22 25  1  0  0  0  0
 25  1  1  0  0  0  0
 25 26  2  0  0  0  0
 26 27  1  0  0  0  0
 27 28  1  0  0  0  0
 26 29  1  0  0  0  0
 29 30  1  0  0  0  0
 29 31  2  0  0  0  0
 31 32  1  0  0  0  0
 32 33  1  0  0  0  0
 31 34  1  0  0  0  0
 34  1  2  0  0  0  0
 34 35  1  0  0  0  0
M  END
> <ChemID>
100289

> <source_casrn>
154-23-4

> <CAS>
154-23-4

> <SMILES>
O[C@H]1Cc2c(cc(O)cc2O)O[C@@H]1c1cc(O)c(O)cc1

> <NAME>
CIANIDANOL

> <preferred_name>
Cianidanol

> <iupac>
(2R,3S)-2-(3,4-dihydroxyphenyl)-3,4-dihydro-2H-chromene-3,5,7-triol

> <MPID>
99564

> <dsstox_substance_id>
DTXSID3022322

> <Canonical_QSARr>
OC1Cc2c(cc(O)cc2O)OC1c1cc(O)c(O)cc1

> <InChI_Code_QSARr>
InChI=1S/C15H14O6/c16-8-4-11(18)9-6-13(20)15(21-14(9)5-8)7-1-2-10(17)12(19)3-7/h1-5,13,15-20H,6H2

> <InChI Key_QSARr>
PFTAWBLQPZVEMU-UHFFFAOYSA-N

> <LogKOC>
2.03

$$$$
100290
  -INDIGO-08031722282D

 38 43  0  0  0  0  0  0  0  0999 V2000
   -0.0001    0.0001    0.0000 C   0  0  0  0  0  0  0  0  0  0  0  0
   -1.5999   -0.0001    0.0000 C   0  0  0  0  0  0  0  0  0  0  0  0
   -2.4000    1.3856    0.0000 C   0  0  0  0  0  0  0  0  0  0  0  0
   -3.9999    1.3856    0.0000 C   0  0  0  0  0  0  0  0  0  0  0  0
   -4.7999   -0.0001    0.0000 C   0  0  0  0  0  0  0  0  0  0  0  0
   -3.9999   -1.3856    0.0000 C   0  0  0  0  0  0  0  0  0  0  0  0
   -4.7999   -2.7713    0.0000 H   0  0  0  0  0  0  0  0  0  0  0  0
   -2.4000   -1.3856    0.0000 C   0  0  0  0  0  0  0  0  0  0  0  0
   -1.5999   -2.7713    0.0000 C   0  0  0  0  0  0  0  0  0  0  0  0
   -2.4000   -4.1569    0.0000 H   0  0  0  0  0  0  0  0  0  0  0  0
   -0.0001   -2.7712    0.0000 C   0  0  0  0  0  0  0  0  0  0  0  0
    0.8000   -4.1569    0.0000 H   0  0  0  0  0  0  0  0  0  0  0  0
    0.8000   -1.3856    0.0000 C   0  0  0  0  0  0  0  0  0  0  0  0
    2.4001   -1.3856    0.0000 C   0  0  0  0  0  0  0  0  0  0  0  0
    3.1999   -2.7712    0.0000 H   0  0  0  0  0  0  0  0  0  0  0  0
    3.1999    0.0001    0.0000 C   0  0  0  0  0  0  0  0  0  0  0  0
    2.4001    1.3856    0.0000 C   0  0  0  0  0  0  0  0  0  0  0  0
    0.8000    1.3856    0.0000 C   0  0  0  0  0  0  0  0  0  0  0  0
   -0.0001    2.7712    0.0000 C   0  0  0  0  0  0  0  0  0  0  0  0
    0.8000    4.1569    0.0000 H   0  0  0  0  0  0  0  0  0  0  0  0
   -1.5999    2.7712    0.0000 C   0  0  0  0  0  0  0  0  0  0  0  0
   -2.4000    4.1569    0.0000 H   0  0  0  0  0  0  0  0  0  0  0  0
    3.1999    2.7713    0.0000 C   0  0  0  0  0  0  0  0  0  0  0  0
    2.4001    4.1569    0.0000 H   0  0  0  0  0  0  0  0  0  0  0  0
    4.8001    2.7713    0.0000 C   0  0  0  0  0  0  0  0  0  0  0  0
    5.6001    4.1569    0.0000 H   0  0  0  0  0  0  0  0  0  0  0  0
    5.6001    1.3856    0.0000 C   0  0  0  0  0  0  0  0  0  0  0  0
    7.2000    1.3856    0.0000 H   0  0  0  0  0  0  0  0  0  0  0  0
    4.8001    0.0001    0.0000 C   0  0  0  0  0  0  0  0  0  0  0  0
    5.6001   -1.3856    0.0000 H   0  0  0  0  0  0  0  0  0  0  0  0
   -6.4001    0.0001    0.0000 C   0  0  0  0  0  0  0  0  0  0  0  0
   -7.2001   -1.3856    0.0000 H   0  0  0  0  0  0  0  0  0  0  0  0
   -7.1999    1.3856    0.0000 C   0  0  0  0  0  0  0  0  0  0  0  0
   -8.8000    1.3856    0.0000 H   0  0  0  0  0  0  0  0  0  0  0  0
   -6.4001    2.7712    0.0000 C   0  0  0  0  0  0  0  0  0  0  0  0
   -7.2001    4.1569    0.0000 H   0  0  0  0  0  0  0  0  0  0  0  0
   -4.7999    2.7712    0.0000 C   0  0  0  0  0  0  0  0  0  0  0  0
   -4.0001    4.1569    0.0000 H   0  0  0  0  0  0  0  0  0  0  0  0
  1  2  2  0  0  0  0
  2  3  1  0  0  0  0
  3  4  1  0  0  0  0
  4  5  1  0  0  0  0
  5  6  1  0  0  0  0
  6  7  1  0  0  0  0
  6  8  2  0  0  0  0
  8  2  1  0  0  0  0
  8  9  1  0  0  0  0
  9 10  1  0  0  0  0
  9 11  2  0  0  0  0
 11 12  1  0  0  0  0
 11 13  1  0  0  0  0
 13  1  1  0  0  0  0
 13 14  2  0  0  0  0
 14 15  1  0  0  0  0
 14 16  1  0  0  0  0
 16 17  1  0  0  0  0
 17 18  1  0  0  0  0
 18  1  1  0  0  0  0
 18 19  2  0  0  0  0
 19 20  1  0  0  0  0
 19 21  1  0  0  0  0
 21  3  2  0  0  0  0
 21 22  1  0  0  0  0
 17 23  2  0  0  0  0
 23 24  1  0  0  0  0
 23 25  1  0  0  0  0
 25 26  1  0  0  0  0
 25 27  2  0  0  0  0
 27 28  1  0  0  0  0
 27 29  1  0  0  0  0
 29 16  2  0  0  0  0
 29 30  1  0  0  0  0
  5 31  2  0  0  0  0
 31 32  1  0  0  0  0
 31 33  1  0  0  0  0
 33 34  1  0  0  0  0
 33 35  2  0  0  0  0
 35 36  1  0  0  0  0
 35 37  1  0  0  0  0
 37  4  2  0  0  0  0
 37 38  1  0  0  0  0
M  END
> <ChemID>
100290

> <source_casrn>
189-55-9

> <CAS>
189-55-9

> <SMILES>
c1c2ccccc2c2ccc3c4c2c1ccc4cc1ccccc13

> <NAME>
DIBENZO(A,I)PYRENE

> <preferred_name>
Dibenzo[a,i]pyrene

> <iupac>


> <MPID>
99565

> <dsstox_substance_id>
DTXSID9059751

> <Canonical_QSARr>
c1c2ccccc2c2ccc3c4c2c1ccc4cc1ccccc13

> <InChI_Code_QSARr>
InChI=1S/C24H14/c1-3-7-19-15(5-1)13-17-9-10-18-14-16-6-2-4-8-20(16)22-12-11-21(19)23(17)24(18)22/h1-14H

> <InChI Key_QSARr>
TUGYIJVAYAHHHM-UHFFFAOYSA-N

> <LogKOC>
5.71

$$$$
100291
  -INDIGO-08031722282D

 34 39  0  0  0  0  0  0  0  0999 V2000
    0.0001    0.0001    0.0000 C   0  0  0  0  0  0  0  0  0  0  0  0
   -1.6001    0.0001    0.0000 C   0  0  0  0  0  0  0  0  0  0  0  0
   -2.4001    1.3857    0.0000 C   0  0  0  0  0  0  0  0  0  0  0  0
   -4.0000    1.3857    0.0000 C   0  0  0  0  0  0  0  0  0  0  0  0
   -4.8000    2.7713    0.0000 H   0  0  0  0  0  0  0  0  0  0  0  0
   -4.8000    0.0001    0.0000 C   0  0  0  0  0  0  0  0  0  0  0  0
   -6.4000    0.0001    0.0000 H   0  0  0  0  0  0  0  0  0  0  0  0
   -4.0000   -1.3857    0.0000 C   0  0  0  0  0  0  0  0  0  0  0  0
   -2.4001   -1.3857    0.0000 C   0  0  0  0  0  0  0  0  0  0  0  0
   -1.6001   -2.7713    0.0000 C   0  0  0  0  0  0  0  0  0  0  0  0
    0.0001   -2.7713    0.0000 C   0  0  0  0  0  0  0  0  0  0  0  0
    0.8001   -1.3857    0.0000 C   0  0  0  0  0  0  0  0  0  0  0  0
    2.4000   -1.3857    0.0000 C   0  0  0  0  0  0  0  0  0  0  0  0
    3.2000    0.0001    0.0000 C   0  0  0  0  0  0  0  0  0  0  0  0
    4.8000    0.0001    0.0000 H   0  0  0  0  0  0  0  0  0  0  0  0
    2.4000    1.3857    0.0000 C   0  0  0  0  0  0  0  0  0  0  0  0
    3.2000    2.7713    0.0000 H   0  0  0  0  0  0  0  0  0  0  0  0
    0.8001    1.3857    0.0000 C   0  0  0  0  0  0  0  0  0  0  0  0
    0.0001    2.7713    0.0000 C   0  0  0  0  0  0  0  0  0  0  0  0
    0.8001    4.1569    0.0000 H   0  0  0  0  0  0  0  0  0  0  0  0
   -1.6001    2.7713    0.0000 C   0  0  0  0  0  0  0  0  0  0  0  0
   -2.4001    4.1569    0.0000 H   0  0  0  0  0  0  0  0  0  0  0  0
    3.2000   -2.7713    0.0000 C   0  0  0  0  0  0  0  0  0  0  0  0
    4.8000   -2.7713    0.0000 H   0  0  0  0  0  0  0  0  0  0  0  0
    2.4000   -4.1569    0.0000 C   0  0  0  0  0  0  0  0  0  0  0  0
    3.2000   -5.5426    0.0000 H   0  0  0  0  0  0  0  0  0  0  0  0
    0.8001   -4.1569    0.0000 C   0  0  0  0  0  0  0  0  0  0  0  0
    0.0001   -5.5426    0.0000 H   0  0  0  0  0  0  0  0  0  0  0  0
   -2.4001   -4.1569    0.0000 C   0  0  0  0  0  0  0  0  0  0  0  0
   -1.6001   -5.5426    0.0000 H   0  0  0  0  0  0  0  0  0  0  0  0
   -4.0000   -4.1569    0.0000 C   0  0  0  0  0  0  0  0  0  0  0  0
   -4.8000   -5.5426    0.0000 H   0  0  0  0  0  0  0  0  0  0  0  0
   -4.8000   -2.7713    0.0000 C   0  0  0  0  0  0  0  0  0  0  0  0
   -6.4000   -2.7713    0.0000 H   0  0  0  0  0  0  0  0  0  0  0  0
  1  2  1  0  0  0  0
  2  3  1  0  0  0  0
  3  4  1  0  0  0  0
  4  5  1  0  0  0  0
  4  6  2  0  0  0  0
  6  7  1  0  0  0  0
  6  8  1  0  0  0  0
  8  9  1  0  0  0  0
  9  2  2  0  0  0  0
  9 10  1  0  0  0  0
 10 11  2  0  0  0  0
 11 12  1  0  0  0  0
 12  1  2  0  0  0  0
 12 13  1  0  0  0  0
 13 14  1  0  0  0  0
 14 15  1  0  0  0  0
 14 16  2  0  0  0  0
 16 17  1  0  0  0  0
 16 18  1  0  0  0  0
 18  1  1  0  0  0  0
 18 19  2  0  0  0  0
 19 20  1  0  0  0  0
 19 21  1  0  0  0  0
 21  3  2  0  0  0  0
 21 22  1  0  0  0  0
 13 23  2  0  0  0  0
 23 24  1  0  0  0  0
 23 25  1  0  0  0  0
 25 26  1  0  0  0  0
 25 27  2  0  0  0  0
 27 11  1  0  0  0  0
 27 28  1  0  0  0  0
 10 29  1  0  0  0  0
 29 30  1  0  0  0  0
 29 31  2  0  0  0  0
 31 32  1  0  0  0  0
 31 33  1  0  0  0  0
 33  8  2  0  0  0  0
 33 34  1  0  0  0  0
M  END
> <ChemID>
100291

> <source_casrn>
191-24-2

> <CAS>
191-24-2

> <SMILES>
c1cc2ccc3cccc4c3c2c2c3c4cccc3ccc21

> <NAME>
BENZO(GHI)PERYLENE

> <preferred_name>
Benzo(g,h,i)perylene

> <iupac>
benzo[ghi]perylene

> <MPID>
99566

> <dsstox_substance_id>
DTXSID5023908

> <Canonical_QSARr>
c1cc2ccc3cccc4c3c2c2c3c4cccc3ccc21

> <InChI_Code_QSARr>
InChI=1S/C22H12/c1-3-13-7-9-15-11-12-16-10-8-14-4-2-6-18-17(5-1)19(13)21(15)22(16)20(14)18/h1-12H

> <InChI Key_QSARr>
GYFAGKUZYNFMBN-UHFFFAOYSA-N

> <LogKOC>
4.61

$$$$
100293
  -INDIGO-08031722282D

 34 38  0  0  0  0  0  0  0  0999 V2000
    3.9651    4.4897    0.0000 C   0  0  0  0  0  0  0  0  0  0  0  0
    4.7651    5.8752    0.0000 H   0  0  0  0  0  0  0  0  0  0  0  0
    2.3650    4.4897    0.0000 C   0  0  0  0  0  0  0  0  0  0  0  0
    1.5650    5.8752    0.0000 H   0  0  0  0  0  0  0  0  0  0  0  0
    1.5650    3.1039    0.0000 C   0  0  0  0  0  0  0  0  0  0  0  0
    0.0615    2.5567    0.0000 H   0  0  0  0  0  0  0  0  0  0  0  0
    2.3650    1.7184    0.0000 C   0  0  0  0  0  0  0  0  0  0  0  0
    3.9651    1.7184    0.0000 C   0  0  0  0  0  0  0  0  0  0  0  0
    4.7651    0.3326    0.0000 C   0  0  0  0  0  0  0  0  0  0  0  0
    6.3650    0.3326    0.0000 H   0  0  0  0  0  0  0  0  0  0  0  0
    3.9651   -1.0529    0.0000 C   0  0  0  0  0  0  0  0  0  0  0  0
    4.7651   -2.4386    0.0000 H   0  0  0  0  0  0  0  0  0  0  0  0
    2.3650   -1.0529    0.0000 C   0  0  0  0  0  0  0  0  0  0  0  0
    1.5650    0.3326    0.0000 C   0  0  0  0  0  0  0  0  0  0  0  0
    0.0001    0.0001    0.0000 C   0  0  0  0  0  0  0  0  0  0  0  0
   -1.2945    0.9405    0.0000 C   0  0  0  0  0  0  0  0  0  0  0  0
   -1.1272    2.5317    0.0000 C   0  0  0  0  0  0  0  0  0  0  0  0
    0.0238    3.6432    0.0000 H   0  0  0  0  0  0  0  0  0  0  0  0
   -2.4216    3.4722    0.0000 C   0  0  0  0  0  0  0  0  0  0  0  0
   -2.2543    5.0634    0.0000 H   0  0  0  0  0  0  0  0  0  0  0  0
   -3.8833    2.8214    0.0000 C   0  0  0  0  0  0  0  0  0  0  0  0
   -5.1776    3.7618    0.0000 H   0  0  0  0  0  0  0  0  0  0  0  0
   -4.0505    1.2301    0.0000 C   0  0  0  0  0  0  0  0  0  0  0  0
   -5.5122    0.5793    0.0000 H   0  0  0  0  0  0  0  0  0  0  0  0
   -2.7562    0.2897    0.0000 C   0  0  0  0  0  0  0  0  0  0  0  0
   -2.9233   -1.3015    0.0000 C   0  0  0  0  0  0  0  0  0  0  0  0
   -4.3851   -1.9523    0.0000 H   0  0  0  0  0  0  0  0  0  0  0  0
   -1.6289   -2.2421    0.0000 C   0  0  0  0  0  0  0  0  0  0  0  0
   -1.7962   -3.8333    0.0000 H   0  0  0  0  0  0  0  0  0  0  0  0
   -0.1672   -1.5913    0.0000 C   0  0  0  0  0  0  0  0  0  0  0  0
    1.2944   -2.2421    0.0000 N   0  0  0  0  0  0  0  0  0  0  0  0
    1.6270   -3.8070    0.0000 H   0  0  0  0  0  0  0  0  0  0  0  0
    4.7651    3.1039    0.0000 C   0  0  0  0  0  0  0  0  0  0  0  0
    6.3650    3.1039    0.0000 H   0  0  0  0  0  0  0  0  0  0  0  0
  1  2  1  0  0  0  0
  1  3  1  0  0  0  0
  3  4  1  0  0  0  0
  3  5  2  0  0  0  0
  5  6  1  0  0  0  0
  5  7  1  0  0  0  0
  7  8  1  0  0  0  0
  8  9  2  0  0  0  0
  9 10  1  0  0  0  0
  9 11  1  0  0  0  0
 11 12  1  0  0  0  0
 11 13  2  0  0  0  0
 13 14  1  0  0  0  0
 14  7  2  0  0  0  0
 14 15  1  0  0  0  0
 15 16  1  0  0  0  0
 16 17  1  0  0  0  0
 17 18  1  0  0  0  0
 17 19  2  0  0  0  0
 19 20  1  0  0  0  0
 19 21  1  0  0  0  0
 21 22  1  0  0  0  0
 21 23  2  0  0  0  0
 23 24  1  0  0  0  0
 23 25  1  0  0  0  0
 25 16  2  0  0  0  0
 25 26  1  0  0  0  0
 26 27  1  0  0  0  0
 26 28  2  0  0  0  0
 28 29  1  0  0  0  0
 28 30  1  0  0  0  0
 30 15  2  0  0  0  0
 30 31  1  0  0  0  0
 31 13  1  0  0  0  0
 31 32  1  0  0  0  0
  8 33  1  0  0  0  0
 33  1  2  0  0  0  0
 33 34  1  0  0  0  0
M  END
> <ChemID>
100293

> <source_casrn>
194-59-2

> <CAS>
194-59-2

> <SMILES>
c1cc2[nH]c3ccc4ccccc4c3c2c2ccccc21

> <NAME>
7H-DIBENZO(C,G)CARBAZOLE

> <preferred_name>
7H-Dibenzo[c,g]carbazole

> <iupac>


> <MPID>
99568

> <dsstox_substance_id>
DTXSID9059755

> <Canonical_QSARr>
c1cc2[nH]c3ccc4ccccc4c3c2c2ccccc21

> <InChI_Code_QSARr>
InChI=1S/C20H13N/c1-3-7-15-13(5-1)9-11-17-19(15)20-16-8-4-2-6-14(16)10-12-18(20)21-17/h1-12,21H

> <InChI Key_QSARr>
STJXCDGCXVZHDU-UHFFFAOYSA-N

> <LogKOC>
6.03

$$$$
100294
  -INDIGO-08031722282D

 26 29  0  0  0  0  0  0  0  0999 V2000
    0.0000    0.0001    0.0000 C   0  0  0  0  0  0  0  0  0  0  0  0
    0.8000    1.3856    0.0000 C   0  0  0  0  0  0  0  0  0  0  0  0
    2.2889    0.8000    0.0000 C   0  0  0  0  0  0  0  0  0  0  0  0
    3.6747    1.6000    0.0000 C   0  0  0  0  0  0  0  0  0  0  0  0
    3.6747    3.2000    0.0000 H   0  0  0  0  0  0  0  0  0  0  0  0
    5.0603    0.8000    0.0000 C   0  0  0  0  0  0  0  0  0  0  0  0
    6.4459    1.6000    0.0000 H   0  0  0  0  0  0  0  0  0  0  0  0
    5.0603   -0.8000    0.0000 C   0  0  0  0  0  0  0  0  0  0  0  0
    6.4459   -1.6000    0.0000 H   0  0  0  0  0  0  0  0  0  0  0  0
    3.6747   -1.6000    0.0000 C   0  0  0  0  0  0  0  0  0  0  0  0
    3.6747   -3.2000    0.0000 H   0  0  0  0  0  0  0  0  0  0  0  0
    2.2889   -0.8000    0.0000 C   0  0  0  0  0  0  0  0  0  0  0  0
    0.8000   -1.3856    0.0000 C   0  0  0  0  0  0  0  0  0  0  0  0
    0.0000   -2.7712    0.0000 C   0  0  0  0  0  0  0  0  0  0  0  0
    0.8000   -4.1569    0.0000 H   0  0  0  0  0  0  0  0  0  0  0  0
   -1.6000   -2.7712    0.0000 C   0  0  0  0  0  0  0  0  0  0  0  0
   -2.4000   -4.1569    0.0000 H   0  0  0  0  0  0  0  0  0  0  0  0
   -2.4000   -1.3856    0.0000 C   0  0  0  0  0  0  0  0  0  0  0  0
   -1.6000    0.0001    0.0000 C   0  0  0  0  0  0  0  0  0  0  0  0
   -2.4000    1.3856    0.0000 C   0  0  0  0  0  0  0  0  0  0  0  0
   -4.0000    1.3856    0.0000 H   0  0  0  0  0  0  0  0  0  0  0  0
   -1.6000    2.7713    0.0000 C   0  0  0  0  0  0  0  0  0  0  0  0
   -2.4000    4.1569    0.0000 H   0  0  0  0  0  0  0  0  0  0  0  0
    0.0000    2.7713    0.0000 C   0  0  0  0  0  0  0  0  0  0  0  0
    0.8000    4.1569    0.0000 H   0  0  0  0  0  0  0  0  0  0  0  0
   -4.0000   -1.3856    0.0000 H   0  0  0  0  0  0  0  0  0  0  0  0
  1  2  2  0  0  0  0
  2  3  1  0  0  0  0
  3  4  1  0  0  0  0
  4  5  1  0  0  0  0
  4  6  2  0  0  0  0
  6  7  1  0  0  0  0
  6  8  1  0  0  0  0
  8  9  1  0  0  0  0
  8 10  2  0  0  0  0
 10 11  1  0  0  0  0
 10 12  1  0  0  0  0
 12  3  2  0  0  0  0
 12 13  1  0  0  0  0
 13  1  1  0  0  0  0
 13 14  2  0  0  0  0
 14 15  1  0  0  0  0
 14 16  1  0  0  0  0
 16 17  1  0  0  0  0
 16 18  2  0  0  0  0
 18 19  1  0  0  0  0
 19  1  1  0  0  0  0
 19 20  2  0  0  0  0
 20 21  1  0  0  0  0
 20 22  1  0  0  0  0
 22 23  1  0  0  0  0
 22 24  2  0  0  0  0
 24  2  1  0  0  0  0
 24 25  1  0  0  0  0
 18 26  1  0  0  0  0
M  END
> <ChemID>
100294

> <source_casrn>
206-44-0

> <CAS>
206-44-0

> <SMILES>
c1ccc2c3c(cccc31)-c1ccccc1-2

> <NAME>
FLUORANTHENE

> <preferred_name>
Fluoranthene

> <iupac>
fluoranthene

> <MPID>
99569

> <dsstox_substance_id>
DTXSID3024104

> <Canonical_QSARr>
c1ccc2c3c(cccc31)-c1ccccc1-2

> <InChI_Code_QSARr>
InChI=1S/C16H10/c1-2-8-13-12(7-1)14-9-3-5-11-6-4-10-15(13)16(11)14/h1-10H

> <InChI Key_QSARr>
GVEPBJHOBDJJJI-UHFFFAOYSA-N

> <LogKOC>
4.8

$$$$
100295
  -INDIGO-08031722282D

 32 36  0  0  0  0  0  0  0  0999 V2000
   -0.0000   -0.0000    0.0000 C   0  0  0  0  0  0  0  0  0  0  0  0
   -1.5913   -0.1673    0.0000 C   0  0  0  0  0  0  0  0  0  0  0  0
   -2.3340    1.2498    0.0000 C   0  0  0  0  0  0  0  0  0  0  0  0
   -3.9334    1.2934    0.0000 H   0  0  0  0  0  0  0  0  0  0  0  0
   -1.5153    2.6245    0.0000 C   0  0  0  0  0  0  0  0  0  0  0  0
   -2.3153    4.0102    0.0000 H   0  0  0  0  0  0  0  0  0  0  0  0
    0.0845    2.6462    0.0000 C   0  0  0  0  0  0  0  0  0  0  0  0
    0.8465    4.0532    0.0000 H   0  0  0  0  0  0  0  0  0  0  0  0
    0.9405    1.2944    0.0000 C   0  0  0  0  0  0  0  0  0  0  0  0
    2.4622    0.8000    0.0000 C   0  0  0  0  0  0  0  0  0  0  0  0
    2.4622   -0.8000    0.0000 C   0  0  0  0  0  0  0  0  0  0  0  0
    0.9405   -1.2944    0.0000 C   0  0  0  0  0  0  0  0  0  0  0  0
    0.2897   -2.7561    0.0000 C   0  0  0  0  0  0  0  0  0  0  0  0
    1.2302   -4.0505    0.0000 H   0  0  0  0  0  0  0  0  0  0  0  0
   -1.3016   -2.9234    0.0000 C   0  0  0  0  0  0  0  0  0  0  0  0
   -1.9524   -4.3850    0.0000 H   0  0  0  0  0  0  0  0  0  0  0  0
   -2.2419   -1.6289    0.0000 C   0  0  0  0  0  0  0  0  0  0  0  0
   -3.8332   -1.7962    0.0000 H   0  0  0  0  0  0  0  0  0  0  0  0
    3.8478   -1.6000    0.0000 C   0  0  0  0  0  0  0  0  0  0  0  0
    3.8478   -3.2001    0.0000 H   0  0  0  0  0  0  0  0  0  0  0  0
    5.2335   -0.8000    0.0000 C   0  0  0  0  0  0  0  0  0  0  0  0
    5.2335    0.8000    0.0000 C   0  0  0  0  0  0  0  0  0  0  0  0
    6.6191    1.6001    0.0000 C   0  0  0  0  0  0  0  0  0  0  0  0
    6.6191    3.2000    0.0000 H   0  0  0  0  0  0  0  0  0  0  0  0
    8.0048    0.8000    0.0000 C   0  0  0  0  0  0  0  0  0  0  0  0
    9.3904    1.6001    0.0000 H   0  0  0  0  0  0  0  0  0  0  0  0
    8.0048   -0.8000    0.0000 C   0  0  0  0  0  0  0  0  0  0  0  0
    9.3904   -1.6000    0.0000 H   0  0  0  0  0  0  0  0  0  0  0  0
    6.6191   -1.6000    0.0000 C   0  0  0  0  0  0  0  0  0  0  0  0
    6.6191   -3.2001    0.0000 H   0  0  0  0  0  0  0  0  0  0  0  0
    3.8478    1.6001    0.0000 C   0  0  0  0  0  0  0  0  0  0  0  0
    3.8478    3.2000    0.0000 H   0  0  0  0  0  0  0  0  0  0  0  0
  1  2  2  0  0  0  0
  2  3  1  0  0  0  0
  3  4  1  0  0  0  0
  3  5  2  0  0  0  0
  5  6  1  0  0  0  0
  5  7  1  0  0  0  0
  7  8  1  0  0  0  0
  7  9  2  0  0  0  0
  9  1  1  0  0  0  0
  9 10  1  0  0  0  0
 10 11  1  0  0  0  0
 11 12  1  0  0  0  0
 12  1  1  0  0  0  0
 12 13  2  0  0  0  0
 13 14  1  0  0  0  0
 13 15  1  0  0  0  0
 15 16  1  0  0  0  0
 15 17  2  0  0  0  0
 17  2  1  0  0  0  0
 17 18  1  0  0  0  0
 11 19  2  0  0  0  0
 19 20  1  0  0  0  0
 19 21  1  0  0  0  0
 21 22  1  0  0  0  0
 22 23  2  0  0  0  0
 23 24  1  0  0  0  0
 23 25  1  0  0  0  0
 25 26  1  0  0  0  0
 25 27  2  0  0  0  0
 27 28  1  0  0  0  0
 27 29  1  0  0  0  0
 29 21  2  0  0  0  0
 29 30  1  0  0  0  0
 22 31  1  0  0  0  0
 31 10  2  0  0  0  0
 31 32  1  0  0  0  0
M  END
> <ChemID>
100295

> <source_casrn>
207-08-9

> <CAS>
207-08-9

> <SMILES>
c1c2-c3cccc4cccc(c43)-c2cc2ccccc21

> <NAME>
BENZO(K)FLUORANTHENE

> <preferred_name>
Benzo(k)fluoranthene

> <iupac>
benzo[k]fluoranthene

> <MPID>
99570

> <dsstox_substance_id>
DTXSID0023909

> <Canonical_QSARr>
c1c2-c3cccc4cccc(c43)-c2cc2ccccc21

> <InChI_Code_QSARr>
InChI=1S/C20H12/c1-2-6-15-12-19-17-10-4-8-13-7-3-9-16(20(13)17)18(19)11-14(15)5-1/h1-12H

> <InChI Key_QSARr>
HAXBIWFMXWRORI-UHFFFAOYSA-N

> <LogKOC>
4.34

$$$$
100297
  -INDIGO-08031722282D

 29 32  0  0  0  0  0  0  0  0999 V2000
    0.0000    0.0001    0.0000 C   0  0  0  0  0  0  0  0  0  0  0  0
    1.6000    0.0001    0.0000 C   0  0  0  0  0  0  0  0  0  0  0  0
    2.4000   -1.3856    0.0000 C   0  0  0  0  0  0  0  0  0  0  0  0
    4.0000   -1.3856    0.0000 C   0  0  0  0  0  0  0  0  0  0  0  0
    4.8000   -2.7712    0.0000 H   0  0  0  0  0  0  0  0  0  0  0  0
    4.8000    0.0001    0.0000 C   0  0  0  0  0  0  0  0  0  0  0  0
    6.4000    0.0001    0.0000 H   0  0  0  0  0  0  0  0  0  0  0  0
    4.0000    1.3856    0.0000 C   0  0  0  0  0  0  0  0  0  0  0  0
    4.8000    2.7713    0.0000 H   0  0  0  0  0  0  0  0  0  0  0  0
    2.4000    1.3856    0.0000 C   0  0  0  0  0  0  0  0  0  0  0  0
    1.6000    2.7713    0.0000 H   0  0  0  0  0  0  0  0  0  0  0  0
    1.6000   -2.7712    0.0000 C   0  0  0  0  0  0  0  0  0  0  0  0
    2.4000   -4.1569    0.0000 H   0  0  0  0  0  0  0  0  0  0  0  0
    0.0000   -2.7712    0.0000 C   0  0  0  0  0  0  0  0  0  0  0  0
   -0.8000   -4.1569    0.0000 H   0  0  0  0  0  0  0  0  0  0  0  0
   -0.8000   -1.3856    0.0000 C   0  0  0  0  0  0  0  0  0  0  0  0
   -2.4000   -1.3856    0.0000 N   0  0  0  0  0  0  0  0  0  0  0  0
   -3.2000    0.0001    0.0000 C   0  0  0  0  0  0  0  0  0  0  0  0
   -4.8000    0.0001    0.0000 C   0  0  0  0  0  0  0  0  0  0  0  0
   -5.6000   -1.3856    0.0000 H   0  0  0  0  0  0  0  0  0  0  0  0
   -5.6000    1.3856    0.0000 C   0  0  0  0  0  0  0  0  0  0  0  0
   -7.2000    1.3856    0.0000 H   0  0  0  0  0  0  0  0  0  0  0  0
   -4.8000    2.7712    0.0000 C   0  0  0  0  0  0  0  0  0  0  0  0
   -5.6000    4.1569    0.0000 H   0  0  0  0  0  0  0  0  0  0  0  0
   -3.2000    2.7712    0.0000 C   0  0  0  0  0  0  0  0  0  0  0  0
   -2.4000    4.1569    0.0000 H   0  0  0  0  0  0  0  0  0  0  0  0
   -2.4000    1.3856    0.0000 C   0  0  0  0  0  0  0  0  0  0  0  0
   -0.8000    1.3856    0.0000 C   0  0  0  0  0  0  0  0  0  0  0  0
    0.0000    2.7713    0.0000 H   0  0  0  0  0  0  0  0  0  0  0  0
  1  2  1  0  0  0  0
  2  3  1  0  0  0  0
  3  4  2  0  0  0  0
  4  5  1  0  0  0  0
  4  6  1  0  0  0  0
  6  7  1  0  0  0  0
  6  8  2  0  0  0  0
  8  9  1  0  0  0  0
  8 10  1  0  0  0  0
 10  2  2  0  0  0  0
 10 11  1  0  0  0  0
  3 12  1  0  0  0  0
 12 13  1  0  0  0  0
 12 14  2  0  0  0  0
 14 15  1  0  0  0  0
 14 16  1  0  0  0  0
 16  1  1  0  0  0  0
 16 17  2  0  0  0  0
 17 18  1  0  0  0  0
 18 19  1  0  0  0  0
 19 20  1  0  0  0  0
 19 21  2  0  0  0  0
 21 22  1  0  0  0  0
 21 23  1  0  0  0  0
 23 24  1  0  0  0  0
 23 25  2  0  0  0  0
 25 26  1  0  0  0  0
 25 27  1  0  0  0  0
 27 18  2  0  0  0  0
 27 28  1  0  0  0  0
 28  1  2  0  0  0  0
 28 29  1  0  0  0  0
M  END
> <ChemID>
100297

> <source_casrn>
225-11-6

> <CAS>
225-11-6

> <SMILES>
c4ccc3nc2ccc1ccccc1c2cc3c4

> <NAME>
BENZ(A)ACRIDINE

> <preferred_name>
Benz[a]acridine

> <iupac>
benzo[a]acridine

> <MPID>
99572

> <dsstox_substance_id>
DTXSID9075371

> <Canonical_QSARr>
c1c2c3ccccc3ccc2[n]c2ccccc21

> <InChI_Code_QSARr>
InChI=1S/C17H11N/c1-3-7-14-12(5-1)9-10-17-15(14)11-13-6-2-4-8-16(13)18-17/h1-11H

> <InChI Key_QSARr>
JEGZRTMZYUDVBF-UHFFFAOYSA-N

> <LogKOC>
4.39

$$$$
100298
  -INDIGO-08031722282D

 34 38  0  0  0  0  0  0  0  0999 V2000
   -0.0001   -0.0001    0.0000 C   0  0  0  0  0  0  0  0  0  0  0  0
   -1.0706    1.1891    0.0000 N   0  0  0  0  0  0  0  0  0  0  0  0
   -0.7379    2.7541    0.0000 H   0  0  0  0  0  0  0  0  0  0  0  0
   -2.5323    0.5382    0.0000 C   0  0  0  0  0  0  0  0  0  0  0  0
   -3.9939    1.1890    0.0000 C   0  0  0  0  0  0  0  0  0  0  0  0
   -5.2883    0.2486    0.0000 C   0  0  0  0  0  0  0  0  0  0  0  0
   -5.1212   -1.3427    0.0000 C   0  0  0  0  0  0  0  0  0  0  0  0
   -6.4157   -2.2831    0.0000 H   0  0  0  0  0  0  0  0  0  0  0  0
   -3.6594   -1.9935    0.0000 C   0  0  0  0  0  0  0  0  0  0  0  0
   -3.4921   -3.5846    0.0000 H   0  0  0  0  0  0  0  0  0  0  0  0
   -2.3650   -1.0529    0.0000 C   0  0  0  0  0  0  0  0  0  0  0  0
   -0.7999   -1.3856    0.0000 C   0  0  0  0  0  0  0  0  0  0  0  0
   -0.0001   -2.7713    0.0000 C   0  0  0  0  0  0  0  0  0  0  0  0
   -0.7999   -4.1569    0.0000 H   0  0  0  0  0  0  0  0  0  0  0  0
    1.6000   -2.7713    0.0000 C   0  0  0  0  0  0  0  0  0  0  0  0
    2.4001   -4.1569    0.0000 H   0  0  0  0  0  0  0  0  0  0  0  0
    2.4001   -1.3856    0.0000 C   0  0  0  0  0  0  0  0  0  0  0  0
    1.6000   -0.0001    0.0000 C   0  0  0  0  0  0  0  0  0  0  0  0
    2.4001    1.3856    0.0000 C   0  0  0  0  0  0  0  0  0  0  0  0
    1.6000    2.7713    0.0000 H   0  0  0  0  0  0  0  0  0  0  0  0
    4.0001    1.3856    0.0000 C   0  0  0  0  0  0  0  0  0  0  0  0
    4.8000    2.7713    0.0000 H   0  0  0  0  0  0  0  0  0  0  0  0
    4.8000   -0.0001    0.0000 C   0  0  0  0  0  0  0  0  0  0  0  0
    6.4000   -0.0001    0.0000 H   0  0  0  0  0  0  0  0  0  0  0  0
    4.0001   -1.3856    0.0000 C   0  0  0  0  0  0  0  0  0  0  0  0
    4.8000   -2.7713    0.0000 H   0  0  0  0  0  0  0  0  0  0  0  0
   -6.7501    0.8993    0.0000 C   0  0  0  0  0  0  0  0  0  0  0  0
   -8.0445   -0.0411    0.0000 H   0  0  0  0  0  0  0  0  0  0  0  0
   -6.9172    2.4906    0.0000 C   0  0  0  0  0  0  0  0  0  0  0  0
   -8.3790    3.1413    0.0000 H   0  0  0  0  0  0  0  0  0  0  0  0
   -5.6230    3.4310    0.0000 C   0  0  0  0  0  0  0  0  0  0  0  0
   -5.7901    5.0223    0.0000 H   0  0  0  0  0  0  0  0  0  0  0  0
   -4.1612    2.7802    0.0000 C   0  0  0  0  0  0  0  0  0  0  0  0
   -2.8668    3.7208    0.0000 H   0  0  0  0  0  0  0  0  0  0  0  0
  1  2  1  0  0  0  0
  2  3  1  0  0  0  0
  2  4  1  0  0  0  0
  4  5  1  0  0  0  0
  5  6  1  0  0  0  0
  6  7  1  0  0  0  0
  7  8  1  0  0  0  0
  7  9  2  0  0  0  0
  9 10  1  0  0  0  0
  9 11  1  0  0  0  0
 11  4  2  0  0  0  0
 11 12  1  0  0  0  0
 12  1  1  0  0  0  0
 12 13  2  0  0  0  0
 13 14  1  0  0  0  0
 13 15  1  0  0  0  0
 15 16  1  0  0  0  0
 15 17  2  0  0  0  0
 17 18  1  0  0  0  0
 18  1  2  0  0  0  0
 18 19  1  0  0  0  0
 19 20  1  0  0  0  0
 19 21  2  0  0  0  0
 21 22  1  0  0  0  0
 21 23  1  0  0  0  0
 23 24  1  0  0  0  0
 23 25  2  0  0  0  0
 25 17  1  0  0  0  0
 25 26  1  0  0  0  0
  6 27  2  0  0  0  0
 27 28  1  0  0  0  0
 27 29  1  0  0  0  0
 29 30  1  0  0  0  0
 29 31  2  0  0  0  0
 31 32  1  0  0  0  0
 31 33  1  0  0  0  0
 33  5  2  0  0  0  0
 33 34  1  0  0  0  0
M  END
> <ChemID>
100298

> <source_casrn>
239-64-5

> <CAS>
239-64-5

> <SMILES>
c1ccc4c(c1)ccc5c3ccc2ccccc2c3nc45

> <NAME>
13H-DIBENZO(A,I)CARBAZOLE

> <preferred_name>
1,2;7,8-Dibenzocarbazole

> <iupac>


> <MPID>
99573

> <dsstox_substance_id>
DTXSID9075373

> <Canonical_QSARr>
c1cc2c([nH]c3c4ccccc4ccc23)c2ccccc21

> <InChI_Code_QSARr>
InChI=1S/C20H13N/c1-3-7-15-13(5-1)9-11-17-18-12-10-14-6-2-4-8-16(14)20(18)21-19(15)17/h1-12,21H

> <InChI Key_QSARr>
IUILSTHMSGDSHQ-UHFFFAOYSA-N

> <LogKOC>
6.02

$$$$
100299
  -INDIGO-08031722282D

 23 25  0  0  0  0  0  0  0  0999 V2000
    0.0001   -0.0000    0.0000 C   0  0  0  0  0  0  0  0  0  0  0  0
    1.3857    0.8000    0.0000 C   0  0  0  0  0  0  0  0  0  0  0  0
    1.3857    2.4000    0.0000 H   0  0  0  0  0  0  0  0  0  0  0  0
    2.7712   -0.0000    0.0000 C   0  0  0  0  0  0  0  0  0  0  0  0
    4.1569    0.8000    0.0000 C   0  0  0  0  0  0  0  0  0  0  0  0
    4.1569    2.4000    0.0000 H   0  0  0  0  0  0  0  0  0  0  0  0
    5.5425   -0.0000    0.0000 C   0  0  0  0  0  0  0  0  0  0  0  0
    6.9282    0.8000    0.0000 H   0  0  0  0  0  0  0  0  0  0  0  0
    5.5425   -1.6000    0.0000 C   0  0  0  0  0  0  0  0  0  0  0  0
    6.9282   -2.4000    0.0000 H   0  0  0  0  0  0  0  0  0  0  0  0
    4.1569   -2.4000    0.0000 C   0  0  0  0  0  0  0  0  0  0  0  0
    4.1569   -4.0000    0.0000 H   0  0  0  0  0  0  0  0  0  0  0  0
    2.7712   -1.6000    0.0000 C   0  0  0  0  0  0  0  0  0  0  0  0
    1.3857   -2.4000    0.0000 N   0  0  0  0  0  0  0  0  0  0  0  0
    0.0001   -1.6000    0.0000 C   0  0  0  0  0  0  0  0  0  0  0  0
   -1.3856   -2.4000    0.0000 C   0  0  0  0  0  0  0  0  0  0  0  0
   -1.3856   -4.0000    0.0000 H   0  0  0  0  0  0  0  0  0  0  0  0
   -2.7713   -1.6000    0.0000 C   0  0  0  0  0  0  0  0  0  0  0  0
   -4.1569   -2.4000    0.0000 H   0  0  0  0  0  0  0  0  0  0  0  0
   -2.7713   -0.0000    0.0000 C   0  0  0  0  0  0  0  0  0  0  0  0
   -4.1569    0.8000    0.0000 H   0  0  0  0  0  0  0  0  0  0  0  0
   -1.3856    0.8000    0.0000 C   0  0  0  0  0  0  0  0  0  0  0  0
   -1.3856    2.4000    0.0000 H   0  0  0  0  0  0  0  0  0  0  0  0
  1  2  2  0  0  0  0
  2  3  1  0  0  0  0
  2  4  1  0  0  0  0
  4  5  1  0  0  0  0
  5  6  1  0  0  0  0
  5  7  2  0  0  0  0
  7  8  1  0  0  0  0
  7  9  1  0  0  0  0
  9 10  1  0  0  0  0
  9 11  2  0  0  0  0
 11 12  1  0  0  0  0
 11 13  1  0  0  0  0
 13  4  2  0  0  0  0
 13 14  1  0  0  0  0
 14 15  2  0  0  0  0
 15  1  1  0  0  0  0
 15 16  1  0  0  0  0
 16 17  1  0  0  0  0
 16 18  2  0  0  0  0
 18 19  1  0  0  0  0
 18 20  1  0  0  0  0
 20 21  1  0  0  0  0
 20 22  2  0  0  0  0
 22  1  1  0  0  0  0
 22 23  1  0  0  0  0
M  END
> <ChemID>
100299

> <source_casrn>
260-94-6

> <CAS>
260-94-6

> <SMILES>
c1c2ccccc2[n]c2ccccc21

> <NAME>
ACRIDINE

> <preferred_name>
Acridine

> <iupac>
Acridine

> <MPID>
99574

> <dsstox_substance_id>
DTXSID8059766

> <Canonical_QSARr>
c1c2ccccc2[n]c2ccccc21

> <InChI_Code_QSARr>
InChI=1S/C13H9N/c1-3-7-12-10(5-1)9-11-6-2-4-8-13(11)14-12/h1-9H

> <InChI Key_QSARr>
DZBUGLKDJFMEHC-UHFFFAOYSA-N

> <LogKOC>
4.18

$$$$
100301
  -INDIGO-08031722282D

 30 29  0  0  0  0  0  0  0  0999 V2000
    0.0001   -0.0001    0.0000 P   0  0  0  0  0  0  0  0  0  0  0  0
    1.6001   -0.0001    0.0000 S   0  0  0  0  0  0  0  0  0  0  0  0
    2.3999   -1.3857    0.0000 C   0  0  0  0  0  0  0  0  0  0  0  0
    2.1911   -2.9720    0.0000 H   0  0  0  0  0  0  0  0  0  0  0  0
    1.1306   -2.3596    0.0000 H   0  0  0  0  0  0  0  0  0  0  0  0
    3.9999   -1.3857    0.0000 S   0  0  0  0  0  0  0  0  0  0  0  0
    4.8000   -2.7712    0.0000 C   0  0  0  0  0  0  0  0  0  0  0  0
    4.5912   -4.3576    0.0000 H   0  0  0  0  0  0  0  0  0  0  0  0
    3.5306   -3.7453    0.0000 H   0  0  0  0  0  0  0  0  0  0  0  0
    6.4000   -2.7712    0.0000 C   0  0  0  0  0  0  0  0  0  0  0  0
    8.0000   -2.7712    0.0000 H   0  0  0  0  0  0  0  0  0  0  0  0
    7.2000   -4.1570    0.0000 H   0  0  0  0  0  0  0  0  0  0  0  0
    7.2000   -1.3857    0.0000 H   0  0  0  0  0  0  0  0  0  0  0  0
   -0.7999    1.3857    0.0000 S   0  0  0  0  0  0  0  0  0  0  0  0
    0.8001    1.3857    0.0000 O   0  0  0  0  0  0  0  0  0  0  0  0
    0.0001    2.7712    0.0000 C   0  0  0  0  0  0  0  0  0  0  0  0
   -1.4783    2.1590    0.0000 H   0  0  0  0  0  0  0  0  0  0  0  0
   -1.4783    3.3835    0.0000 H   0  0  0  0  0  0  0  0  0  0  0  0
    0.8001    4.1570    0.0000 C   0  0  0  0  0  0  0  0  0  0  0  0
    1.5999    5.5426    0.0000 H   0  0  0  0  0  0  0  0  0  0  0  0
    0.0001    5.5426    0.0000 H   0  0  0  0  0  0  0  0  0  0  0  0
    2.3999    4.1570    0.0000 H   0  0  0  0  0  0  0  0  0  0  0  0
   -0.7999   -1.3857    0.0000 O   0  0  0  0  0  0  0  0  0  0  0  0
   -2.4000   -1.3857    0.0000 C   0  0  0  0  0  0  0  0  0  0  0  0
   -3.6693   -0.4116    0.0000 H   0  0  0  0  0  0  0  0  0  0  0  0
   -2.6088    0.2007    0.0000 H   0  0  0  0  0  0  0  0  0  0  0  0
   -3.2000   -2.7712    0.0000 C   0  0  0  0  0  0  0  0  0  0  0  0
   -4.0000   -4.1570    0.0000 H   0  0  0  0  0  0  0  0  0  0  0  0
   -4.8000   -2.7712    0.0000 H   0  0  0  0  0  0  0  0  0  0  0  0
   -2.4000   -4.1570    0.0000 H   0  0  0  0  0  0  0  0  0  0  0  0
  1  2  1  0  0  0  0
  2  3  1  0  0  0  0
  3  4  1  0  0  0  0
  3  5  1  0  0  0  0
  3  6  1  0  0  0  0
  6  7  1  0  0  0  0
  7  8  1  0  0  0  0
  7  9  1  0  0  0  0
  7 10  1  0  0  0  0
 10 11  1  0  0  0  0
 10 12  1  0  0  0  0
 10 13  1  0  0  0  0
  1 14  2  0  0  0  0
  1 15  1  0  0  0  0
 15 16  1  0  0  0  0
 16 17  1  0  0  0  0
 16 18  1  0  0  0  0
 16 19  1  0  0  0  0
 19 20  1  0  0  0  0
 19 21  1  0  0  0  0
 19 22  1  0  0  0  0
  1 23  1  0  0  0  0
 23 24  1  0  0  0  0
 24 25  1  0  0  0  0
 24 26  1  0  0  0  0
 24 27  1  0  0  0  0
 27 28  1  0  0  0  0
 27 29  1  0  0  0  0
 27 30  1  0  0  0  0
M  END
> <ChemID>
100301

> <source_casrn>
298-02-2

> <CAS>
298-02-2

> <SMILES>
CCSCSP(=S)(OCC)OCC

> <NAME>
PHORATE

> <preferred_name>
Phorate

> <iupac>
O,O-diethyl S-[(ethylsulfanyl)methyl] phosphorodithioate

> <MPID>
99576

> <dsstox_substance_id>
DTXSID4032459

> <Canonical_QSARr>
CCSCSP(=S)(OCC)OCC

> <InChI_Code_QSARr>
InChI=1S/C7H17O2PS3/c1-4-8-10(11,9-5-2)13-7-12-6-3/h4-7H2,1-3H3

> <InChI Key_QSARr>
BULVZWIRKLYCBC-UHFFFAOYSA-N

> <LogKOC>
2.7

$$$$
100302
  -INDIGO-08031722282D

 33 32  0  0  0  0  0  0  0  0999 V2000
    0.0001    0.0001    0.0000 P   0  0  0  0  0  0  0  0  0  0  0  0
    1.3856    0.8000    0.0000 O   0  0  0  0  0  0  0  0  0  0  0  0
    2.7714    0.0001    0.0000 C   0  0  0  0  0  0  0  0  0  0  0  0
    3.3835   -1.4783    0.0000 H   0  0  0  0  0  0  0  0  0  0  0  0
    2.1591   -1.4783    0.0000 H   0  0  0  0  0  0  0  0  0  0  0  0
    4.1569    0.8000    0.0000 C   0  0  0  0  0  0  0  0  0  0  0  0
    3.5446    2.2782    0.0000 H   0  0  0  0  0  0  0  0  0  0  0  0
    4.7692    2.2782    0.0000 H   0  0  0  0  0  0  0  0  0  0  0  0
    5.5425    0.0001    0.0000 S   0  0  0  0  0  0  0  0  0  0  0  0
    6.9282    0.8000    0.0000 C   0  0  0  0  0  0  0  0  0  0  0  0
    6.3159    2.2782    0.0000 H   0  0  0  0  0  0  0  0  0  0  0  0
    7.5405    2.2782    0.0000 H   0  0  0  0  0  0  0  0  0  0  0  0
    8.3139    0.0001    0.0000 C   0  0  0  0  0  0  0  0  0  0  0  0
    9.6995   -0.8000    0.0000 H   0  0  0  0  0  0  0  0  0  0  0  0
    9.6995    0.8000    0.0000 H   0  0  0  0  0  0  0  0  0  0  0  0
    8.3139   -1.6000    0.0000 H   0  0  0  0  0  0  0  0  0  0  0  0
    0.0001   -1.6000    0.0000 S   0  0  0  0  0  0  0  0  0  0  0  0
   -1.3856   -0.8000    0.0000 O   0  0  0  0  0  0  0  0  0  0  0  0
   -1.3856   -2.4000    0.0000 C   0  0  0  0  0  0  0  0  0  0  0  0
    0.2008   -2.6089    0.0000 H   0  0  0  0  0  0  0  0  0  0  0  0
   -0.4116   -3.6694    0.0000 H   0  0  0  0  0  0  0  0  0  0  0  0
   -2.7712   -3.2001    0.0000 C   0  0  0  0  0  0  0  0  0  0  0  0
   -4.1569   -4.0000    0.0000 H   0  0  0  0  0  0  0  0  0  0  0  0
   -2.7712   -4.8000    0.0000 H   0  0  0  0  0  0  0  0  0  0  0  0
   -4.1569   -2.4000    0.0000 H   0  0  0  0  0  0  0  0  0  0  0  0
   -1.3856    0.8000    0.0000 O   0  0  0  0  0  0  0  0  0  0  0  0
   -1.3856    2.4000    0.0000 C   0  0  0  0  0  0  0  0  0  0  0  0
   -0.4116    3.6694    0.0000 H   0  0  0  0  0  0  0  0  0  0  0  0
    0.2008    2.6089    0.0000 H   0  0  0  0  0  0  0  0  0  0  0  0
   -2.7714    3.2001    0.0000 C   0  0  0  0  0  0  0  0  0  0  0  0
   -4.1569    4.0000    0.0000 H   0  0  0  0  0  0  0  0  0  0  0  0
   -2.7714    4.8000    0.0000 H   0  0  0  0  0  0  0  0  0  0  0  0
   -4.1569    2.4000    0.0000 H   0  0  0  0  0  0  0  0  0  0  0  0
  1  2  1  0  0  0  0
  2  3  1  0  0  0  0
  3  4  1  0  0  0  0
  3  5  1  0  0  0  0
  3  6  1  0  0  0  0
  6  7  1  0  0  0  0
  6  8  1  0  0  0  0
  6  9  1  0  0  0  0
  9 10  1  0  0  0  0
 10 11  1  0  0  0  0
 10 12  1  0  0  0  0
 10 13  1  0  0  0  0
 13 14  1  0  0  0  0
 13 15  1  0  0  0  0
 13 16  1  0  0  0  0
  1 17  2  0  0  0  0
  1 18  1  0  0  0  0
 18 19  1  0  0  0  0
 19 20  1  0  0  0  0
 19 21  1  0  0  0  0
 19 22  1  0  0  0  0
 22 23  1  0  0  0  0
 22 24  1  0  0  0  0
 22 25  1  0  0  0  0
  1 26  1  0  0  0  0
 26 27  1  0  0  0  0
 27 28  1  0  0  0  0
 27 29  1  0  0  0  0
 27 30  1  0  0  0  0
 30 31  1  0  0  0  0
 30 32  1  0  0  0  0
 30 33  1  0  0  0  0
M  END
> <ChemID>
100302

> <source_casrn>
298-03-3

> <CAS>
298-03-3

> <SMILES>
CCSCCOP(=S)(OCC)OCC

> <NAME>
Demeton-O

> <preferred_name>
Demeton-O

> <iupac>
O,O-diethyl O-[2-(ethylsulfanyl)ethyl] phosphorothioate

> <MPID>
99577

> <dsstox_substance_id>
DTXSID7041839

> <Canonical_QSARr>
CCSCCOP(=S)(OCC)OCC

> <InChI_Code_QSARr>
InChI=1S/C8H19O3PS2/c1-4-9-12(13,10-5-2)11-7-8-14-6-3/h4-8H2,1-3H3

> <InChI Key_QSARr>
DGLIBALSRMUQDD-UHFFFAOYSA-N

> <LogKOC>
2.59

$$$$
100303
  -INDIGO-08031722282D

 33 32  0  0  0  0  0  0  0  0999 V2000
    2.7714    3.2001    0.0000 C   0  0  0  0  0  0  0  0  0  0  0  0
    4.1569    4.0000    0.0000 H   0  0  0  0  0  0  0  0  0  0  0  0
    2.7714    4.8000    0.0000 H   0  0  0  0  0  0  0  0  0  0  0  0
    4.1569    2.4000    0.0000 H   0  0  0  0  0  0  0  0  0  0  0  0
    1.3856    2.4000    0.0000 C   0  0  0  0  0  0  0  0  0  0  0  0
    0.4116    3.6694    0.0000 H   0  0  0  0  0  0  0  0  0  0  0  0
   -0.2008    2.6089    0.0000 H   0  0  0  0  0  0  0  0  0  0  0  0
    1.3856    0.8000    0.0000 O   0  0  0  0  0  0  0  0  0  0  0  0
    0.0001    0.0001    0.0000 P   0  0  0  0  0  0  0  0  0  0  0  0
    1.3856   -0.8000    0.0000 O   0  0  0  0  0  0  0  0  0  0  0  0
    1.3856   -2.4000    0.0000 C   0  0  0  0  0  0  0  0  0  0  0  0
   -0.2008   -2.6089    0.0000 H   0  0  0  0  0  0  0  0  0  0  0  0
    0.4116   -3.6694    0.0000 H   0  0  0  0  0  0  0  0  0  0  0  0
    2.7714   -3.2001    0.0000 C   0  0  0  0  0  0  0  0  0  0  0  0
    4.1569   -4.0000    0.0000 H   0  0  0  0  0  0  0  0  0  0  0  0
    2.7714   -4.8000    0.0000 H   0  0  0  0  0  0  0  0  0  0  0  0
    4.1569   -2.4000    0.0000 H   0  0  0  0  0  0  0  0  0  0  0  0
    0.0001   -1.6000    0.0000 S   0  0  0  0  0  0  0  0  0  0  0  0
   -1.3856    0.8000    0.0000 S   0  0  0  0  0  0  0  0  0  0  0  0
   -2.7712    0.0001    0.0000 C   0  0  0  0  0  0  0  0  0  0  0  0
   -3.3835   -1.4783    0.0000 H   0  0  0  0  0  0  0  0  0  0  0  0
   -2.1591   -1.4783    0.0000 H   0  0  0  0  0  0  0  0  0  0  0  0
   -4.1569    0.8000    0.0000 C   0  0  0  0  0  0  0  0  0  0  0  0
   -3.5446    2.2782    0.0000 H   0  0  0  0  0  0  0  0  0  0  0  0
   -4.7692    2.2782    0.0000 H   0  0  0  0  0  0  0  0  0  0  0  0
   -5.5425    0.0001    0.0000 S   0  0  0  0  0  0  0  0  0  0  0  0
   -6.9282    0.8000    0.0000 C   0  0  0  0  0  0  0  0  0  0  0  0
   -6.3159    2.2782    0.0000 H   0  0  0  0  0  0  0  0  0  0  0  0
   -7.5405    2.2782    0.0000 H   0  0  0  0  0  0  0  0  0  0  0  0
   -8.3137    0.0001    0.0000 C   0  0  0  0  0  0  0  0  0  0  0  0
   -9.6995   -0.8000    0.0000 H   0  0  0  0  0  0  0  0  0  0  0  0
   -9.6995    0.8000    0.0000 H   0  0  0  0  0  0  0  0  0  0  0  0
   -8.3137   -1.6000    0.0000 H   0  0  0  0  0  0  0  0  0  0  0  0
  1  2  1  0  0  0  0
  1  3  1  0  0  0  0
  1  4  1  0  0  0  0
  1  5  1  0  0  0  0
  5  6  1  0  0  0  0
  5  7  1  0  0  0  0
  5  8  1  0  0  0  0
  8  9  1  0  0  0  0
  9 10  1  0  0  0  0
 10 11  1  0  0  0  0
 11 12  1  0  0  0  0
 11 13  1  0  0  0  0
 11 14  1  0  0  0  0
 14 15  1  0  0  0  0
 14 16  1  0  0  0  0
 14 17  1  0  0  0  0
  9 18  2  0  0  0  0
  9 19  1  0  0  0  0
 19 20  1  0  0  0  0
 20 21  1  0  0  0  0
 20 22  1  0  0  0  0
 20 23  1  0  0  0  0
 23 24  1  0  0  0  0
 23 25  1  0  0  0  0
 23 26  1  0  0  0  0
 26 27  1  0  0  0  0
 27 28  1  0  0  0  0
 27 29  1  0  0  0  0
 27 30  1  0  0  0  0
 30 31  1  0  0  0  0
 30 32  1  0  0  0  0
 30 33  1  0  0  0  0
M  END
> <ChemID>
100303

> <source_casrn>
298-04-4

> <CAS>
298-04-4

> <SMILES>
CCSCCSP(=S)(OCC)OCC

> <NAME>
DISULFOTON

> <preferred_name>
Disulfoton

> <iupac>
O,O-diethyl S-[2-(ethylsulfanyl)ethyl] phosphorodithioate

> <MPID>
99578

> <dsstox_substance_id>
DTXSID0022018

> <Canonical_QSARr>
CCSCCSP(=S)(OCC)OCC

> <InChI_Code_QSARr>
InChI=1S/C8H19O2PS3/c1-4-9-11(12,10-5-2)14-8-7-13-6-3/h4-8H2,1-3H3

> <InChI Key_QSARr>
DOFZAZXDOSGAJZ-UHFFFAOYSA-N

> <LogKOC>
3.22

$$$$
100305
  -INDIGO-08031722282D

 28 27  0  0  0  0  0  0  0  0999 V2000
    4.1569    0.7999    0.0000 C   0  0  0  0  0  0  0  0  0  0  0  0
    5.5426    1.6000    0.0000 H   0  0  0  0  0  0  0  0  0  0  0  0
    5.5426    0.0000    0.0000 H   0  0  0  0  0  0  0  0  0  0  0  0
    4.1569    2.3999    0.0000 H   0  0  0  0  0  0  0  0  0  0  0  0
    2.7713    0.0000    0.0000 C   0  0  0  0  0  0  0  0  0  0  0  0
    2.1590   -1.4782    0.0000 H   0  0  0  0  0  0  0  0  0  0  0  0
    3.3835   -1.4782    0.0000 H   0  0  0  0  0  0  0  0  0  0  0  0
    1.3856    0.7999    0.0000 S   0  0  0  0  0  0  0  0  0  0  0  0
    1.3856    2.3999    0.0000 O   0  0  0  0  0  0  0  0  0  0  0  0
   -0.0001    0.0000    0.0000 C   0  0  0  0  0  0  0  0  0  0  0  0
   -0.6122   -1.4782    0.0000 H   0  0  0  0  0  0  0  0  0  0  0  0
    0.6123   -1.4782    0.0000 H   0  0  0  0  0  0  0  0  0  0  0  0
   -1.3856    0.7999    0.0000 C   0  0  0  0  0  0  0  0  0  0  0  0
   -0.7734    2.2782    0.0000 H   0  0  0  0  0  0  0  0  0  0  0  0
   -1.9979    2.2782    0.0000 H   0  0  0  0  0  0  0  0  0  0  0  0
   -2.7713    0.0000    0.0000 S   0  0  0  0  0  0  0  0  0  0  0  0
   -4.1570    0.8001    0.0000 P   0  0  0  0  0  0  0  0  0  0  0  0
   -4.1570    2.4001    0.0000 O   0  0  0  0  0  0  0  0  0  0  0  0
   -5.5425    1.6000    0.0000 O   0  0  0  0  0  0  0  0  0  0  0  0
   -5.5425    3.2000    0.0000 C   0  0  0  0  0  0  0  0  0  0  0  0
   -6.9282    4.0001    0.0000 H   0  0  0  0  0  0  0  0  0  0  0  0
   -5.5425    4.8000    0.0000 H   0  0  0  0  0  0  0  0  0  0  0  0
   -4.1570    4.0001    0.0000 H   0  0  0  0  0  0  0  0  0  0  0  0
   -5.5425    0.0000    0.0000 O   0  0  0  0  0  0  0  0  0  0  0  0
   -5.5425   -1.6000    0.0000 C   0  0  0  0  0  0  0  0  0  0  0  0
   -5.5425   -3.2000    0.0000 H   0  0  0  0  0  0  0  0  0  0  0  0
   -6.9282   -2.4001    0.0000 H   0  0  0  0  0  0  0  0  0  0  0  0
   -4.1570   -2.3999    0.0000 H   0  0  0  0  0  0  0  0  0  0  0  0
  1  2  1  0  0  0  0
  1  3  1  0  0  0  0
  1  4  1  0  0  0  0
  1  5  1  0  0  0  0
  5  6  1  0  0  0  0
  5  7  1  0  0  0  0
  5  8  1  0  0  0  0
  8  9  2  0  0  0  0
  8 10  1  0  0  0  0
 10 11  1  0  0  0  0
 10 12  1  0  0  0  0
 10 13  1  0  0  0  0
 13 14  1  0  0  0  0
 13 15  1  0  0  0  0
 13 16  1  0  0  0  0
 16 17  1  0  0  0  0
 17 18  2  0  0  0  0
 17 19  1  0  0  0  0
 19 20  1  0  0  0  0
 20 21  1  0  0  0  0
 20 22  1  0  0  0  0
 20 23  1  0  0  0  0
 17 24  1  0  0  0  0
 24 25  1  0  0  0  0
 25 26  1  0  0  0  0
 25 27  1  0  0  0  0
 25 28  1  0  0  0  0
M  END
> <ChemID>
100305

> <source_casrn>
301-12-2

> <CAS>
301-12-2

> <SMILES>
CCS(=O)CCSP(=O)(OC)OC

> <NAME>
OXYDEMETON METHYL

> <preferred_name>
Oxydemeton-methyl

> <iupac>
S-[2-(ethylsulfinyl)ethyl] O,O-dimethyl phosphorothioate

> <MPID>
99580

> <dsstox_substance_id>
DTXSID8025541

> <Canonical_QSARr>
CCS(=O)CCSP(=O)(OC)OC

> <InChI_Code_QSARr>
InChI=1S/C6H15O4PS2/c1-4-13(8)6-5-12-11(7,9-2)10-3/h4-6H2,1-3H3

> <InChI Key_QSARr>
PMCVMORKVPSKHZ-UHFFFAOYSA-N

> <LogKOC>
1.0

$$$$
100306
  -INDIGO-08031722282D

 26 29  0  0  0  0  0  0  0  0999 V2000
   -0.0000    0.0000    0.0000 C   0  0  0  0  0  0  0  0  0  0  0  0
    0.3326    1.5651    0.0000 H   0  0  0  0  0  0  0  0  0  0  0  0
    1.5912    0.1672    0.0000 C   0  0  0  0  0  0  0  0  0  0  0  0
    1.9239    1.7323    0.0000 H   0  0  0  0  0  0  0  0  0  0  0  0
    2.9769   -0.6327    0.0000 C   0  0  0  0  0  0  0  0  0  0  0  0
    4.4385    0.0181    0.0000 H   0  0  0  0  0  0  0  0  0  0  0  0
    2.6442   -2.1978    0.0000 C   0  0  0  0  0  0  0  0  0  0  0  0
    3.7148   -3.3868    0.0000 H   0  0  0  0  0  0  0  0  0  0  0  0
    1.0530   -2.3650    0.0000 C   0  0  0  0  0  0  0  0  0  0  0  0
    0.7204   -3.9301    0.0000 H   0  0  0  0  0  0  0  0  0  0  0  0
    2.2420   -1.2945    0.0000 C   0  0  0  0  0  0  0  0  0  0  0  0
    3.8177   -1.0166    0.0000 H   0  0  0  0  0  0  0  0  0  0  0  0
    3.5685   -2.1891    0.0000 H   0  0  0  0  0  0  0  0  0  0  0  0
   -0.3326   -1.5650    0.0000 C   0  0  0  0  0  0  0  0  0  0  0  0
   -0.6653   -3.1301    0.0000 H   0  0  0  0  0  0  0  0  0  0  0  0
   -1.9239   -1.7323    0.0000 C   0  0  0  0  0  0  0  0  0  0  0  0
   -3.3095   -0.9323    0.0000 C   0  0  0  0  0  0  0  0  0  0  0  0
   -4.7712   -1.5831    0.0000 Cl  0  0  0  0  0  0  0  0  0  0  0  0
   -2.9769    0.6327    0.0000 C   0  0  0  0  0  0  0  0  0  0  0  0
   -4.0475    1.8218    0.0000 Cl  0  0  0  0  0  0  0  0  0  0  0  0
   -1.3857    0.8000    0.0000 C   0  0  0  0  0  0  0  0  0  0  0  0
   -1.0530    2.3650    0.0000 Cl  0  0  0  0  0  0  0  0  0  0  0  0
   -2.5747   -0.2706    0.0000 C   0  0  0  0  0  0  0  0  0  0  0  0
   -4.1503   -0.5485    0.0000 Cl  0  0  0  0  0  0  0  0  0  0  0  0
   -3.9012    0.6241    0.0000 Cl  0  0  0  0  0  0  0  0  0  0  0  0
   -2.2565   -3.2973    0.0000 Cl  0  0  0  0  0  0  0  0  0  0  0  0
  1  2  1  0  0  0  0
  1  3  1  0  0  0  0
  3  4  1  0  0  0  0
  3  5  1  0  0  0  0
  5  6  1  0  0  0  0
  5  7  2  0  0  0  0
  7  8  1  0  0  0  0
  7  9  1  0  0  0  0
  9 10  1  0  0  0  0
  9 11  1  0  0  0  0
 11  3  1  0  0  0  0
 11 12  1  0  0  0  0
 11 13  1  0  0  0  0
  9 14  1  0  0  0  0
 14  1  1  0  0  0  0
 14 15  1  0  0  0  0
 14 16  1  0  0  0  0
 16 17  1  0  0  0  0
 17 18  1  0  0  0  0
 17 19  2  0  0  0  0
 19 20  1  0  0  0  0
 19 21  1  0  0  0  0
 21  1  1  0  0  0  0
 21 22  1  0  0  0  0
 21 23  1  0  0  0  0
 23 16  1  0  0  0  0
 23 24  1  0  0  0  0
 23 25  1  0  0  0  0
 16 26  1  0  0  0  0
M  END
> <ChemID>
100306

> <source_casrn>
309-00-2

> <CAS>
309-00-2

> <SMILES>
ClC1(Cl)[C@@]2(Cl)[C@@H]3[C@@H]4C[C@@H](C=C4)[C@@H]3[C@]1(Cl)C(Cl)=C2Cl |&1:3,5,6,8,11,12|

> <NAME>
ALDRIN

> <preferred_name>
Aldrin

> <iupac>
C12H8Cl6

> <MPID>
99581

> <dsstox_substance_id>
DTXSID8020040

> <Canonical_QSARr>
ClC1(Cl)C2(Cl)C3C4CC(C=C4)C3C1(Cl)C(Cl)=C2Cl

> <InChI_Code_QSARr>
InChI=1S/C12H8Cl6/c13-8-9(14)11(16)7-5-2-1-4(3-5)6(7)10(8,15)12(11,17)18/h1-2,4-7H,3H2

> <InChI Key_QSARr>
QBYJBZPUGVGKQQ-UHFFFAOYSA-N

> <LogKOC>
4.69

$$$$
100307
  -INDIGO-08031722282D

 27 27  0  0  0  0  0  0  0  0999 V2000
    4.8001    2.7713    0.0000 Br  0  0  0  0  0  0  0  0  0  0  0  0
    4.0000    1.3857    0.0000 C   0  0  0  0  0  0  0  0  0  0  0  0
    4.8001   -0.0000    0.0000 C   0  0  0  0  0  0  0  0  0  0  0  0
    6.4000   -0.0000    0.0000 C   0  0  0  0  0  0  0  0  0  0  0  0
    8.0000   -0.0000    0.0000 H   0  0  0  0  0  0  0  0  0  0  0  0
    7.2001   -1.3857    0.0000 H   0  0  0  0  0  0  0  0  0  0  0  0
    7.2001    1.3857    0.0000 H   0  0  0  0  0  0  0  0  0  0  0  0
    4.0000   -1.3857    0.0000 N   0  0  0  0  0  0  0  0  0  0  0  0
    4.8001   -2.7713    0.0000 H   0  0  0  0  0  0  0  0  0  0  0  0
    2.3999   -1.3857    0.0000 C   0  0  0  0  0  0  0  0  0  0  0  0
    1.6000   -2.7713    0.0000 O   0  0  0  0  0  0  0  0  0  0  0  0
    1.6000   -0.0000    0.0000 N   0  0  0  0  0  0  0  0  0  0  0  0
   -0.0001   -0.0000    0.0000 C   0  0  0  0  0  0  0  0  0  0  0  0
   -0.0001   -1.6000    0.0000 H   0  0  0  0  0  0  0  0  0  0  0  0
   -0.0001    1.6000    0.0000 C   0  0  0  0  0  0  0  0  0  0  0  0
   -1.3856    2.4000    0.0000 H   0  0  0  0  0  0  0  0  0  0  0  0
   -0.0001    3.2000    0.0000 H   0  0  0  0  0  0  0  0  0  0  0  0
   -1.3856    0.8000    0.0000 H   0  0  0  0  0  0  0  0  0  0  0  0
   -1.3856   -0.8000    0.0000 C   0  0  0  0  0  0  0  0  0  0  0  0
   -2.3597    0.4694    0.0000 H   0  0  0  0  0  0  0  0  0  0  0  0
   -2.9720   -0.5911    0.0000 H   0  0  0  0  0  0  0  0  0  0  0  0
   -1.3856   -2.4000    0.0000 C   0  0  0  0  0  0  0  0  0  0  0  0
   -1.3856   -4.0000    0.0000 H   0  0  0  0  0  0  0  0  0  0  0  0
   -2.7712   -3.2000    0.0000 H   0  0  0  0  0  0  0  0  0  0  0  0
   -0.0001   -3.2000    0.0000 H   0  0  0  0  0  0  0  0  0  0  0  0
    2.3999    1.3857    0.0000 C   0  0  0  0  0  0  0  0  0  0  0  0
    1.6000    2.7713    0.0000 O   0  0  0  0  0  0  0  0  0  0  0  0
  1  2  1  0  0  0  0
  2  3  2  0  0  0  0
  3  4  1  0  0  0  0
  4  5  1  0  0  0  0
  4  6  1  0  0  0  0
  4  7  1  0  0  0  0
  3  8  1  0  0  0  0
  8  9  1  0  0  0  0
  8 10  1  0  0  0  0
 10 11  2  0  0  0  0
 10 12  1  0  0  0  0
 12 13  1  0  0  0  0
 13 14  1  0  0  0  0
 13 15  1  0  0  0  0
 15 16  1  0  0  0  0
 15 17  1  0  0  0  0
 15 18  1  0  0  0  0
 13 19  1  0  0  0  0
 19 20  1  0  0  0  0
 19 21  1  0  0  0  0
 19 22  1  0  0  0  0
 22 23  1  0  0  0  0
 22 24  1  0  0  0  0
 22 25  1  0  0  0  0
 12 26  1  0  0  0  0
 26  2  1  0  0  0  0
 26 27  2  0  0  0  0
M  END
> <ChemID>
100307

> <source_casrn>
314-40-9

> <CAS>
314-40-9

> <SMILES>
CC1NC(=O)N(C(C)CC)C(=O)C=1Br

> <NAME>
BROMACIL

> <preferred_name>
Bromacil

> <iupac>
5-bromo-3-(butan-2-yl)-6-methylpyrimidine-2,4(1H,3H)-dione

> <MPID>
99582

> <dsstox_substance_id>
DTXSID4022020

> <Canonical_QSARr>
CC1NC(=O)N(C(C)CC)C(=O)C=1Br

> <InChI_Code_QSARr>
InChI=1S/C9H13BrN2O2/c1-4-5(2)12-8(13)7(10)6(3)11-9(12)14/h5H,4H2,1-3H3,(H,11,14)

> <InChI Key_QSARr>
CTSLUCNDVMMDHG-UHFFFAOYSA-N

> <LogKOC>
1.6

$$$$
100309
  -INDIGO-08031722282D

 34 34  0  0  0  0  0  0  0  0999 V2000
    1.3856    2.4000    0.0000 C   0  0  0  0  0  0  0  0  0  0  0  0
    2.7714    3.2001    0.0000 H   0  0  0  0  0  0  0  0  0  0  0  0
    1.3856    4.0000    0.0000 H   0  0  0  0  0  0  0  0  0  0  0  0
    2.7714    1.6001    0.0000 H   0  0  0  0  0  0  0  0  0  0  0  0
    0.0001    1.6001    0.0000 C   0  0  0  0  0  0  0  0  0  0  0  0
    0.0001    0.0001    0.0000 C   0  0  0  0  0  0  0  0  0  0  0  0
    1.3856   -0.8000    0.0000 N   0  0  0  0  0  0  0  0  0  0  0  0
    2.7714   -0.0001    0.0000 C   0  0  0  0  0  0  0  0  0  0  0  0
    4.1569   -0.8000    0.0000 H   0  0  0  0  0  0  0  0  0  0  0  0
    4.1569    0.8000    0.0000 H   0  0  0  0  0  0  0  0  0  0  0  0
    2.7714   -1.6001    0.0000 H   0  0  0  0  0  0  0  0  0  0  0  0
    1.3856   -2.4000    0.0000 C   0  0  0  0  0  0  0  0  0  0  0  0
    1.3856   -4.0000    0.0000 H   0  0  0  0  0  0  0  0  0  0  0  0
    2.7714   -3.2001    0.0000 H   0  0  0  0  0  0  0  0  0  0  0  0
    0.0001   -1.5999    0.0000 H   0  0  0  0  0  0  0  0  0  0  0  0
   -1.3856   -0.8000    0.0000 C   0  0  0  0  0  0  0  0  0  0  0  0
   -1.3856   -2.4000    0.0000 C   0  0  0  0  0  0  0  0  0  0  0  0
   -1.3856   -4.0000    0.0000 H   0  0  0  0  0  0  0  0  0  0  0  0
   -2.7712   -3.1999    0.0000 H   0  0  0  0  0  0  0  0  0  0  0  0
    0.0001   -3.1999    0.0000 H   0  0  0  0  0  0  0  0  0  0  0  0
   -2.7712    0.0001    0.0000 C   0  0  0  0  0  0  0  0  0  0  0  0
   -4.1569   -0.8000    0.0000 H   0  0  0  0  0  0  0  0  0  0  0  0
   -2.7712    1.6001    0.0000 C   0  0  0  0  0  0  0  0  0  0  0  0
   -4.1569    2.4000    0.0000 O   0  0  0  0  0  0  0  0  0  0  0  0
   -5.5427    1.6001    0.0000 C   0  0  0  0  0  0  0  0  0  0  0  0
   -5.5427    0.0001    0.0000 O   0  0  0  0  0  0  0  0  0  0  0  0
   -6.9282    2.4000    0.0000 N   0  0  0  0  0  0  0  0  0  0  0  0
   -6.9282    4.0000    0.0000 H   0  0  0  0  0  0  0  0  0  0  0  0
   -8.3137    1.6001    0.0000 C   0  0  0  0  0  0  0  0  0  0  0  0
   -9.6995    0.8000    0.0000 H   0  0  0  0  0  0  0  0  0  0  0  0
   -9.6995    2.4000    0.0000 H   0  0  0  0  0  0  0  0  0  0  0  0
   -8.3137    0.0001    0.0000 H   0  0  0  0  0  0  0  0  0  0  0  0
   -1.3856    2.4000    0.0000 C   0  0  0  0  0  0  0  0  0  0  0  0
   -1.3856    4.0000    0.0000 H   0  0  0  0  0  0  0  0  0  0  0  0
  1  2  1  0  0  0  0
  1  3  1  0  0  0  0
  1  4  1  0  0  0  0
  1  5  1  0  0  0  0
  5  6  1  0  0  0  0
  6  7  1  0  0  0  0
  7  8  1  0  0  0  0
  8  9  1  0  0  0  0
  8 10  1  0  0  0  0
  8 11  1  0  0  0  0
  7 12  1  0  0  0  0
 12 13  1  0  0  0  0
 12 14  1  0  0  0  0
 12 15  1  0  0  0  0
  6 16  2  0  0  0  0
 16 17  1  0  0  0  0
 17 18  1  0  0  0  0
 17 19  1  0  0  0  0
 17 20  1  0  0  0  0
 16 21  1  0  0  0  0
 21 22  1  0  0  0  0
 21 23  2  0  0  0  0
 23 24  1  0  0  0  0
 24 25  1  0  0  0  0
 25 26  2  0  0  0  0
 25 27  1  0  0  0  0
 27 28  1  0  0  0  0
 27 29  1  0  0  0  0
 29 30  1  0  0  0  0
 29 31  1  0  0  0  0
 29 32  1  0  0  0  0
 23 33  1  0  0  0  0
 33  5  2  0  0  0  0
 33 34  1  0  0  0  0
M  END
> <ChemID>
100309

> <source_casrn>
315-18-4

> <CAS>
315-18-4

> <SMILES>
CN(C)c1c(C)cc(cc1C)OC(=O)NC

> <NAME>
MEXACARBATE

> <preferred_name>
Mexacarbate

> <iupac>
4-(dimethylamino)-3,5-dimethylphenyl methylcarbamate

> <MPID>
99584

> <dsstox_substance_id>
DTXSID7020893

> <Canonical_QSARr>
CN(C)c1c(C)cc(cc1C)OC(=O)NC

> <InChI_Code_QSARr>
InChI=1S/C12H18N2O2/c1-8-6-10(16-12(15)13-3)7-9(2)11(8)14(4)5/h6-7H,1-5H3,(H,13,15)

> <InChI Key_QSARr>
YNEVBPNZHBAYOA-UHFFFAOYSA-N

> <LogKOC>
2.48

$$$$
100311
  -INDIGO-08031722282D

 29 29  0  0  0  0  0  0  0  0999 V2000
   -0.0001    0.0000    0.0000 P   0  0  0  0  0  0  0  0  0  0  0  0
   -0.0001    1.6000    0.0000 S   0  0  0  0  0  0  0  0  0  0  0  0
   -1.3856    0.8000    0.0000 O   0  0  0  0  0  0  0  0  0  0  0  0
   -2.7712    0.0000    0.0000 C   0  0  0  0  0  0  0  0  0  0  0  0
   -4.1569    0.8000    0.0000 C   0  0  0  0  0  0  0  0  0  0  0  0
   -4.1569    2.4000    0.0000 Cl  0  0  0  0  0  0  0  0  0  0  0  0
   -5.5425    0.0000    0.0000 C   0  0  0  0  0  0  0  0  0  0  0  0
   -6.9282    0.8000    0.0000 H   0  0  0  0  0  0  0  0  0  0  0  0
   -5.5425   -1.6000    0.0000 C   0  0  0  0  0  0  0  0  0  0  0  0
   -6.9282   -2.4000    0.0000 Cl  0  0  0  0  0  0  0  0  0  0  0  0
   -4.1569   -2.4000    0.0000 C   0  0  0  0  0  0  0  0  0  0  0  0
   -4.1569   -4.0000    0.0000 Cl  0  0  0  0  0  0  0  0  0  0  0  0
   -2.7712   -1.6000    0.0000 C   0  0  0  0  0  0  0  0  0  0  0  0
   -1.3856   -2.4000    0.0000 H   0  0  0  0  0  0  0  0  0  0  0  0
    1.3856   -0.8000    0.0000 O   0  0  0  0  0  0  0  0  0  0  0  0
    1.3856   -2.4000    0.0000 C   0  0  0  0  0  0  0  0  0  0  0  0
    0.4116   -3.6694    0.0000 H   0  0  0  0  0  0  0  0  0  0  0  0
   -0.2007   -2.6089    0.0000 H   0  0  0  0  0  0  0  0  0  0  0  0
    2.7713   -3.2000    0.0000 C   0  0  0  0  0  0  0  0  0  0  0  0
    4.1569   -4.0000    0.0000 H   0  0  0  0  0  0  0  0  0  0  0  0
    2.7713   -4.8000    0.0000 H   0  0  0  0  0  0  0  0  0  0  0  0
    4.1569   -2.4000    0.0000 H   0  0  0  0  0  0  0  0  0  0  0  0
    1.3856    0.8000    0.0000 C   0  0  0  0  0  0  0  0  0  0  0  0
    0.7733    2.2782    0.0000 H   0  0  0  0  0  0  0  0  0  0  0  0
    1.9979    2.2782    0.0000 H   0  0  0  0  0  0  0  0  0  0  0  0
    2.7713    0.0000    0.0000 C   0  0  0  0  0  0  0  0  0  0  0  0
    4.1569    0.8000    0.0000 H   0  0  0  0  0  0  0  0  0  0  0  0
    4.1569   -0.8000    0.0000 H   0  0  0  0  0  0  0  0  0  0  0  0
    2.7713    1.6000    0.0000 H   0  0  0  0  0  0  0  0  0  0  0  0
  1  2  2  0  0  0  0
  1  3  1  0  0  0  0
  3  4  1  0  0  0  0
  4  5  1  0  0  0  0
  5  6  1  0  0  0  0
  5  7  2  0  0  0  0
  7  8  1  0  0  0  0
  7  9  1  0  0  0  0
  9 10  1  0  0  0  0
  9 11  2  0  0  0  0
 11 12  1  0  0  0  0
 11 13  1  0  0  0  0
 13  4  2  0  0  0  0
 13 14  1  0  0  0  0
  1 15  1  0  0  0  0
 15 16  1  0  0  0  0
 16 17  1  0  0  0  0
 16 18  1  0  0  0  0
 16 19  1  0  0  0  0
 19 20  1  0  0  0  0
 19 21  1  0  0  0  0
 19 22  1  0  0  0  0
  1 23  1  0  0  0  0
 23 24  1  0  0  0  0
 23 25  1  0  0  0  0
 23 26  1  0  0  0  0
 26 27  1  0  0  0  0
 26 28  1  0  0  0  0
 26 29  1  0  0  0  0
M  END
> <ChemID>
100311

> <source_casrn>
327-98-0

> <CAS>
327-98-0

> <SMILES>
CCP(=S)(Oc1cc(Cl)c(Cl)cc1Cl)OCC

> <NAME>
TRICHLORONATE

> <preferred_name>
Trichloronat

> <iupac>
C10H12Cl3O2PS

> <MPID>
99586

> <dsstox_substance_id>
DTXSID9038420

> <Canonical_QSARr>
CCP(=S)(Oc1cc(Cl)c(Cl)cc1Cl)OCC

> <InChI_Code_QSARr>
InChI=1S/C10H12Cl3O2PS/c1-3-14-16(17,4-2)15-10-6-8(12)7(11)5-9(10)13/h5-6H,3-4H2,1-2H3

> <InChI Key_QSARr>
ANIAQSUBRGXWLS-UHFFFAOYSA-N

> <LogKOC>
2.6

$$$$
100312
  -INDIGO-08031722282D

 24 24  0  0  0  0  0  0  0  0999 V2000
   -7.2000    4.1569    0.0000 F   0  0  0  0  0  0  0  0  0  0  0  0
   -6.4000    2.7713    0.0000 C   0  0  0  0  0  0  0  0  0  0  0  0
   -4.8001    2.7713    0.0000 C   0  0  0  0  0  0  0  0  0  0  0  0
   -4.0001    4.1569    0.0000 H   0  0  0  0  0  0  0  0  0  0  0  0
   -4.0001    1.3856    0.0000 C   0  0  0  0  0  0  0  0  0  0  0  0
   -2.3999    1.3856    0.0000 N   0  0  0  0  0  0  0  0  0  0  0  0
   -1.5999    2.7713    0.0000 H   0  0  0  0  0  0  0  0  0  0  0  0
   -1.5999    0.0000    0.0000 C   0  0  0  0  0  0  0  0  0  0  0  0
   -2.3999   -1.3856    0.0000 O   0  0  0  0  0  0  0  0  0  0  0  0
    0.0000    0.0000    0.0000 N   0  0  0  0  0  0  0  0  0  0  0  0
    0.8000   -1.3856    0.0000 C   0  0  0  0  0  0  0  0  0  0  0  0
    1.6000   -2.7713    0.0000 H   0  0  0  0  0  0  0  0  0  0  0  0
    2.4000   -1.3856    0.0000 H   0  0  0  0  0  0  0  0  0  0  0  0
    0.0000   -2.7713    0.0000 H   0  0  0  0  0  0  0  0  0  0  0  0
    0.8000    1.3856    0.0000 C   0  0  0  0  0  0  0  0  0  0  0  0
    1.6000    2.7713    0.0000 H   0  0  0  0  0  0  0  0  0  0  0  0
    2.4000    1.3856    0.0000 H   0  0  0  0  0  0  0  0  0  0  0  0
    0.0000    2.7713    0.0000 H   0  0  0  0  0  0  0  0  0  0  0  0
   -4.8001    0.0000    0.0000 C   0  0  0  0  0  0  0  0  0  0  0  0
   -4.0001   -1.3856    0.0000 H   0  0  0  0  0  0  0  0  0  0  0  0
   -6.4000    0.0000    0.0000 C   0  0  0  0  0  0  0  0  0  0  0  0
   -7.2000   -1.3856    0.0000 H   0  0  0  0  0  0  0  0  0  0  0  0
   -7.2000    1.3856    0.0000 C   0  0  0  0  0  0  0  0  0  0  0  0
   -8.8000    1.3856    0.0000 H   0  0  0  0  0  0  0  0  0  0  0  0
  1  2  1  0  0  0  0
  2  3  1  0  0  0  0
  3  4  1  0  0  0  0
  3  5  2  0  0  0  0
  5  6  1  0  0  0  0
  6  7  1  0  0  0  0
  6  8  1  0  0  0  0
  8  9  2  0  0  0  0
  8 10  1  0  0  0  0
 10 11  1  0  0  0  0
 11 12  1  0  0  0  0
 11 13  1  0  0  0  0
 11 14  1  0  0  0  0
 10 15  1  0  0  0  0
 15 16  1  0  0  0  0
 15 17  1  0  0  0  0
 15 18  1  0  0  0  0
  5 19  1  0  0  0  0
 19 20  1  0  0  0  0
 19 21  2  0  0  0  0
 21 22  1  0  0  0  0
 21 23  1  0  0  0  0
 23  2  2  0  0  0  0
 23 24  1  0  0  0  0
M  END
> <ChemID>
100312

> <source_casrn>
330-39-2

> <CAS>
330-39-2

> <SMILES>
CN(C)C(=O)Nc1cccc(F)c1

> <NAME>
1,1-DIMETHYL-3-M-FLUOROPHENYLUREA

> <preferred_name>
Urea, 3-(m-fluorophenyl)-1,1-dimethyl-

> <iupac>
3-(3-fluorophenyl)-1,1-dimethylurea

> <MPID>
99587

> <dsstox_substance_id>
DTXSID80186634

> <Canonical_QSARr>
CN(C)C(=O)Nc1cccc(F)c1

> <InChI_Code_QSARr>
InChI=1S/C9H11FN2O/c1-12(2)9(13)11-8-5-3-4-7(10)6-8/h3-6H,1-2H3,(H,11,13)

> <InChI Key_QSARr>
ANWCBSUPTRJETC-UHFFFAOYSA-N

> <LogKOC>
1.73

$$$$
100314
  -INDIGO-08031722282D

 25 25  0  0  0  0  0  0  0  0999 V2000
    2.3999   -1.3856    0.0000 C   0  0  0  0  0  0  0  0  0  0  0  0
    1.6001    0.0000    0.0000 N   0  0  0  0  0  0  0  0  0  0  0  0
    2.3999    1.3856    0.0000 H   0  0  0  0  0  0  0  0  0  0  0  0
    0.0001    0.0000    0.0000 C   0  0  0  0  0  0  0  0  0  0  0  0
   -0.7999    1.3856    0.0000 C   0  0  0  0  0  0  0  0  0  0  0  0
    0.0001    2.7713    0.0000 H   0  0  0  0  0  0  0  0  0  0  0  0
   -2.4000    1.3856    0.0000 C   0  0  0  0  0  0  0  0  0  0  0  0
   -3.2000    2.7713    0.0000 Cl  0  0  0  0  0  0  0  0  0  0  0  0
   -3.2000    0.0000    0.0000 C   0  0  0  0  0  0  0  0  0  0  0  0
   -4.8000    0.0000    0.0000 Cl  0  0  0  0  0  0  0  0  0  0  0  0
   -2.4000   -1.3856    0.0000 C   0  0  0  0  0  0  0  0  0  0  0  0
   -3.2000   -2.7713    0.0000 H   0  0  0  0  0  0  0  0  0  0  0  0
   -0.7999   -1.3856    0.0000 C   0  0  0  0  0  0  0  0  0  0  0  0
    0.0001   -2.7713    0.0000 H   0  0  0  0  0  0  0  0  0  0  0  0
    3.9999   -1.3856    0.0000 N   0  0  0  0  0  0  0  0  0  0  0  0
    4.8000    0.0000    0.0000 O   0  0  0  0  0  0  0  0  0  0  0  0
    6.4000    0.0000    0.0000 C   0  0  0  0  0  0  0  0  0  0  0  0
    8.0000    0.0000    0.0000 H   0  0  0  0  0  0  0  0  0  0  0  0
    7.2000    1.3856    0.0000 H   0  0  0  0  0  0  0  0  0  0  0  0
    5.6000    1.3856    0.0000 H   0  0  0  0  0  0  0  0  0  0  0  0
    4.8000   -2.7713    0.0000 C   0  0  0  0  0  0  0  0  0  0  0  0
    5.6000   -4.1569    0.0000 H   0  0  0  0  0  0  0  0  0  0  0  0
    6.4000   -2.7713    0.0000 H   0  0  0  0  0  0  0  0  0  0  0  0
    3.9999   -4.1569    0.0000 H   0  0  0  0  0  0  0  0  0  0  0  0
    1.6001   -2.7713    0.0000 O   0  0  0  0  0  0  0  0  0  0  0  0
  1  2  1  0  0  0  0
  2  3  1  0  0  0  0
  2  4  1  0  0  0  0
  4  5  1  0  0  0  0
  5  6  1  0  0  0  0
  5  7  2  0  0  0  0
  7  8  1  0  0  0  0
  7  9  1  0  0  0  0
  9 10  1  0  0  0  0
  9 11  2  0  0  0  0
 11 12  1  0  0  0  0
 11 13  1  0  0  0  0
 13  4  2  0  0  0  0
 13 14  1  0  0  0  0
  1 15  1  0  0  0  0
 15 16  1  0  0  0  0
 16 17  1  0  0  0  0
 17 18  1  0  0  0  0
 17 19  1  0  0  0  0
 17 20  1  0  0  0  0
 15 21  1  0  0  0  0
 21 22  1  0  0  0  0
 21 23  1  0  0  0  0
 21 24  1  0  0  0  0
  1 25  2  0  0  0  0
M  END
> <ChemID>
100314

> <source_casrn>
330-55-2

> <CAS>
330-55-2

> <SMILES>
CON(C)C(=O)Nc1cc(Cl)c(Cl)cc1

> <NAME>
LINURON

> <preferred_name>
Linuron

> <iupac>
3-(3,4-dichlorophenyl)-1-methoxy-1-methylurea

> <MPID>
99589

> <dsstox_substance_id>
DTXSID2024163

> <Canonical_QSARr>
CON(C)C(=O)Nc1cc(Cl)c(Cl)cc1

> <InChI_Code_QSARr>
InChI=1S/C9H10Cl2N2O2/c1-13(15-2)9(14)12-6-3-4-7(10)8(11)5-6/h3-5H,1-2H3,(H,12,14)

> <InChI Key_QSARr>
XKJMBINCVNINCA-UHFFFAOYSA-N

> <LogKOC>
2.7

$$$$
100315
  -INDIGO-08031722282D

 24 24  0  0  0  0  0  0  0  0999 V2000
   -8.8000   -1.3856    0.0000 F   0  0  0  0  0  0  0  0  0  0  0  0
   -7.2000   -1.3856    0.0000 C   0  0  0  0  0  0  0  0  0  0  0  0
   -6.4000    0.0000    0.0000 C   0  0  0  0  0  0  0  0  0  0  0  0
   -7.2000    1.3856    0.0000 H   0  0  0  0  0  0  0  0  0  0  0  0
   -4.8001    0.0000    0.0000 C   0  0  0  0  0  0  0  0  0  0  0  0
   -4.0001    1.3856    0.0000 H   0  0  0  0  0  0  0  0  0  0  0  0
   -4.0001   -1.3856    0.0000 C   0  0  0  0  0  0  0  0  0  0  0  0
   -2.3999   -1.3856    0.0000 N   0  0  0  0  0  0  0  0  0  0  0  0
   -1.5999   -2.7713    0.0000 H   0  0  0  0  0  0  0  0  0  0  0  0
   -1.5999    0.0000    0.0000 C   0  0  0  0  0  0  0  0  0  0  0  0
   -2.3999    1.3856    0.0000 O   0  0  0  0  0  0  0  0  0  0  0  0
    0.0000    0.0000    0.0000 N   0  0  0  0  0  0  0  0  0  0  0  0
    0.8000    1.3856    0.0000 C   0  0  0  0  0  0  0  0  0  0  0  0
    1.6000    2.7713    0.0000 H   0  0  0  0  0  0  0  0  0  0  0  0
    2.4000    1.3856    0.0000 H   0  0  0  0  0  0  0  0  0  0  0  0
    0.0000    2.7713    0.0000 H   0  0  0  0  0  0  0  0  0  0  0  0
    0.8000   -1.3856    0.0000 C   0  0  0  0  0  0  0  0  0  0  0  0
    1.6000   -2.7713    0.0000 H   0  0  0  0  0  0  0  0  0  0  0  0
    2.4000   -1.3856    0.0000 H   0  0  0  0  0  0  0  0  0  0  0  0
    0.0000   -2.7713    0.0000 H   0  0  0  0  0  0  0  0  0  0  0  0
   -4.8001   -2.7713    0.0000 C   0  0  0  0  0  0  0  0  0  0  0  0
   -4.0001   -4.1569    0.0000 H   0  0  0  0  0  0  0  0  0  0  0  0
   -6.4000   -2.7713    0.0000 C   0  0  0  0  0  0  0  0  0  0  0  0
   -7.2000   -4.1569    0.0000 H   0  0  0  0  0  0  0  0  0  0  0  0
  1  2  1  0  0  0  0
  2  3  1  0  0  0  0
  3  4  1  0  0  0  0
  3  5  2  0  0  0  0
  5  6  1  0  0  0  0
  5  7  1  0  0  0  0
  7  8  1  0  0  0  0
  8  9  1  0  0  0  0
  8 10  1  0  0  0  0
 10 11  2  0  0  0  0
 10 12  1  0  0  0  0
 12 13  1  0  0  0  0
 13 14  1  0  0  0  0
 13 15  1  0  0  0  0
 13 16  1  0  0  0  0
 12 17  1  0  0  0  0
 17 18  1  0  0  0  0
 17 19  1  0  0  0  0
 17 20  1  0  0  0  0
  7 21  2  0  0  0  0
 21 22  1  0  0  0  0
 21 23  1  0  0  0  0
 23  2  2  0  0  0  0
 23 24  1  0  0  0  0
M  END
> <ChemID>
100315

> <source_casrn>
332-33-2

> <CAS>
332-33-2

> <SMILES>
CN(C)C(=O)Nc1ccc(F)cc1

> <NAME>
1,1-DIMETHYL-3-P-FLUOROPHENYLUREA

> <preferred_name>
Urea, 1,1-dimethyl-3-(p-fluorophenyl)-

> <iupac>
3-(4-fluorophenyl)-1,1-dimethylurea

> <MPID>
99590

> <dsstox_substance_id>
DTXSID50186843

> <Canonical_QSARr>
CN(C)C(=O)Nc1ccc(F)cc1

> <InChI_Code_QSARr>
InChI=1S/C9H11FN2O/c1-12(2)9(13)11-8-5-3-7(10)4-6-8/h3-6H,1-2H3,(H,11,13)

> <InChI Key_QSARr>
GNIZUUCYAIPGKZ-UHFFFAOYSA-N

> <LogKOC>
1.43

$$$$
100316
  -INDIGO-08031722282D

 40 40  0  0  0  0  0  0  0  0999 V2000
   -4.8000    0.0000    0.0000 S   0  0  0  0  0  0  0  0  0  0  0  0
   -5.6000   -1.3856    0.0000 P   0  0  0  0  0  0  0  0  0  0  0  0
   -4.8000   -2.7713    0.0000 O   0  0  0  0  0  0  0  0  0  0  0  0
   -3.2000   -2.7713    0.0000 C   0  0  0  0  0  0  0  0  0  0  0  0
   -2.4000   -1.3856    0.0000 N   0  0  0  0  0  0  0  0  0  0  0  0
   -0.8000   -1.3856    0.0000 C   0  0  0  0  0  0  0  0  0  0  0  0
    0.0000    0.0000    0.0000 C   0  0  0  0  0  0  0  0  0  0  0  0
    1.3856   -0.8001    0.0000 H   0  0  0  0  0  0  0  0  0  0  0  0
    0.8000    1.3857    0.0000 C   0  0  0  0  0  0  0  0  0  0  0  0
    1.6000    2.7713    0.0000 H   0  0  0  0  0  0  0  0  0  0  0  0
    2.4000    1.3857    0.0000 H   0  0  0  0  0  0  0  0  0  0  0  0
    0.0000    2.7713    0.0000 H   0  0  0  0  0  0  0  0  0  0  0  0
   -1.3856    0.8000    0.0000 C   0  0  0  0  0  0  0  0  0  0  0  0
   -2.7713    1.6000    0.0000 H   0  0  0  0  0  0  0  0  0  0  0  0
   -1.3856    2.3999    0.0000 H   0  0  0  0  0  0  0  0  0  0  0  0
   -2.7713    0.0000    0.0000 H   0  0  0  0  0  0  0  0  0  0  0  0
    0.0000   -2.7713    0.0000 N   0  0  0  0  0  0  0  0  0  0  0  0
   -0.8000   -4.1570    0.0000 C   0  0  0  0  0  0  0  0  0  0  0  0
    0.0000   -5.5426    0.0000 C   0  0  0  0  0  0  0  0  0  0  0  0
    0.8000   -6.9282    0.0000 H   0  0  0  0  0  0  0  0  0  0  0  0
    1.6000   -5.5426    0.0000 H   0  0  0  0  0  0  0  0  0  0  0  0
   -0.8000   -6.9282    0.0000 H   0  0  0  0  0  0  0  0  0  0  0  0
   -2.4000   -4.1570    0.0000 C   0  0  0  0  0  0  0  0  0  0  0  0
   -3.2000   -5.5426    0.0000 H   0  0  0  0  0  0  0  0  0  0  0  0
   -7.2000   -1.3856    0.0000 O   0  0  0  0  0  0  0  0  0  0  0  0
   -8.0000   -2.7713    0.0000 C   0  0  0  0  0  0  0  0  0  0  0  0
   -7.7912   -4.3577    0.0000 H   0  0  0  0  0  0  0  0  0  0  0  0
   -6.7306   -3.7454    0.0000 H   0  0  0  0  0  0  0  0  0  0  0  0
   -9.6000   -2.7713    0.0000 C   0  0  0  0  0  0  0  0  0  0  0  0
  -11.2000   -2.7713    0.0000 H   0  0  0  0  0  0  0  0  0  0  0  0
  -10.4000   -4.1570    0.0000 H   0  0  0  0  0  0  0  0  0  0  0  0
  -10.4000   -1.3856    0.0000 H   0  0  0  0  0  0  0  0  0  0  0  0
   -6.4000    0.0000    0.0000 O   0  0  0  0  0  0  0  0  0  0  0  0
   -8.0000    0.0000    0.0000 C   0  0  0  0  0  0  0  0  0  0  0  0
   -9.2694   -0.9740    0.0000 H   0  0  0  0  0  0  0  0  0  0  0  0
   -8.2088   -1.5863    0.0000 H   0  0  0  0  0  0  0  0  0  0  0  0
   -8.8000    1.3857    0.0000 C   0  0  0  0  0  0  0  0  0  0  0  0
   -9.6000    2.7713    0.0000 H   0  0  0  0  0  0  0  0  0  0  0  0
  -10.4000    1.3857    0.0000 H   0  0  0  0  0  0  0  0  0  0  0  0
   -8.0000    2.7713    0.0000 H   0  0  0  0  0  0  0  0  0  0  0  0
  1  2  2  0  0  0  0
  2  3  1  0  0  0  0
  3  4  1  0  0  0  0
  4  5  1  0  0  0  0
  5  6  2  0  0  0  0
  6  7  1  0  0  0  0
  7  8  1  0  0  0  0
  7  9  1  0  0  0  0
  9 10  1  0  0  0  0
  9 11  1  0  0  0  0
  9 12  1  0  0  0  0
  7 13  1  0  0  0  0
 13 14  1  0  0  0  0
 13 15  1  0  0  0  0
 13 16  1  0  0  0  0
  6 17  1  0  0  0  0
 17 18  2  0  0  0  0
 18 19  1  0  0  0  0
 19 20  1  0  0  0  0
 19 21  1  0  0  0  0
 19 22  1  0  0  0  0
 18 23  1  0  0  0  0
 23  4  2  0  0  0  0
 23 24  1  0  0  0  0
  2 25  1  0  0  0  0
 25 26  1  0  0  0  0
 26 27  1  0  0  0  0
 26 28  1  0  0  0  0
 26 29  1  0  0  0  0
 29 30  1  0  0  0  0
 29 31  1  0  0  0  0
 29 32  1  0  0  0  0
  2 33  1  0  0  0  0
 33 34  1  0  0  0  0
 34 35  1  0  0  0  0
 34 36  1  0  0  0  0
 34 37  1  0  0  0  0
 37 38  1  0  0  0  0
 37 39  1  0  0  0  0
 37 40  1  0  0  0  0
M  END
> <ChemID>
100316

> <source_casrn>
333-41-5

> <CAS>
333-41-5

> <SMILES>
Cc1cc([n]c([n]1)C(C)C)OP(=S)(OCC)OCC

> <NAME>
DIAZINON

> <preferred_name>
Diazinon

> <iupac>
O,O-diethyl O-[6-methyl-2-(propan-2-yl)pyrimidin-4-yl] phosphorothioate

> <MPID>
99591

> <dsstox_substance_id>
DTXSID9020407

> <Canonical_QSARr>
Cc1cc([n]c([n]1)C(C)C)OP(=S)(OCC)OCC

> <InChI_Code_QSARr>
InChI=1S/C12H21N2O3PS/c1-6-15-18(19,16-7-2)17-11-8-10(5)13-12(14-11)9(3)4/h8-9H,6-7H2,1-5H3

> <InChI Key_QSARr>
FHIVAFMUCKRCQO-UHFFFAOYSA-N

> <LogKOC>
2.75

$$$$
100318
  -INDIGO-08031722282D

 22 22  0  0  0  0  0  0  0  0999 V2000
    1.3856    2.4000    0.0000 F   0  0  0  0  0  0  0  0  0  0  0  0
    1.3856    0.8000    0.0000 C   0  0  0  0  0  0  0  0  0  0  0  0
    2.7713    1.6000    0.0000 F   0  0  0  0  0  0  0  0  0  0  0  0
    2.7713   -0.0000    0.0000 F   0  0  0  0  0  0  0  0  0  0  0  0
   -0.0000   -0.0000    0.0000 C   0  0  0  0  0  0  0  0  0  0  0  0
   -1.3857    0.8000    0.0000 C   0  0  0  0  0  0  0  0  0  0  0  0
   -1.3857    2.4000    0.0000 H   0  0  0  0  0  0  0  0  0  0  0  0
   -2.7712   -0.0000    0.0000 C   0  0  0  0  0  0  0  0  0  0  0  0
   -4.1569    0.8000    0.0000 N   0  0  0  0  0  0  0  0  0  0  0  0
   -4.1569    2.4000    0.0000 H   0  0  0  0  0  0  0  0  0  0  0  0
   -5.5425   -0.0000    0.0000 C   0  0  0  0  0  0  0  0  0  0  0  0
   -5.5425   -1.6000    0.0000 O   0  0  0  0  0  0  0  0  0  0  0  0
   -6.9282    0.8000    0.0000 C   0  0  0  0  0  0  0  0  0  0  0  0
   -8.3138    1.6000    0.0000 H   0  0  0  0  0  0  0  0  0  0  0  0
   -8.3138   -0.0000    0.0000 H   0  0  0  0  0  0  0  0  0  0  0  0
   -6.9282    2.4000    0.0000 H   0  0  0  0  0  0  0  0  0  0  0  0
   -2.7712   -1.6000    0.0000 C   0  0  0  0  0  0  0  0  0  0  0  0
   -4.1569   -2.4000    0.0000 H   0  0  0  0  0  0  0  0  0  0  0  0
   -1.3857   -2.4000    0.0000 C   0  0  0  0  0  0  0  0  0  0  0  0
   -1.3857   -4.0000    0.0000 H   0  0  0  0  0  0  0  0  0  0  0  0
   -0.0000   -1.6000    0.0000 C   0  0  0  0  0  0  0  0  0  0  0  0
    1.3856   -2.4000    0.0000 H   0  0  0  0  0  0  0  0  0  0  0  0
  1  2  1  0  0  0  0
  2  3  1  0  0  0  0
  2  4  1  0  0  0  0
  2  5  1  0  0  0  0
  5  6  1  0  0  0  0
  6  7  1  0  0  0  0
  6  8  2  0  0  0  0
  8  9  1  0  0  0  0
  9 10  1  0  0  0  0
  9 11  1  0  0  0  0
 11 12  2  0  0  0  0
 11 13  1  0  0  0  0
 13 14  1  0  0  0  0
 13 15  1  0  0  0  0
 13 16  1  0  0  0  0
  8 17  1  0  0  0  0
 17 18  1  0  0  0  0
 17 19  2  0  0  0  0
 19 20  1  0  0  0  0
 19 21  1  0  0  0  0
 21  5  2  0  0  0  0
 21 22  1  0  0  0  0
M  END
> <ChemID>
100318

> <source_casrn>
351-36-0

> <CAS>
351-36-0

> <SMILES>
CC(=O)Nc1cccc(c1)C(F)(F)F

> <NAME>
M-(TRIFLUOROME)ACETANILIDE

> <preferred_name>
Acetamide, N-(3-(trifluoromethyl)phenyl)- (9CI)

> <iupac>
N-[3-(trifluoromethyl)phenyl]acetamide

> <MPID>
99593

> <dsstox_substance_id>
DTXSID60188595

> <Canonical_QSARr>
CC(=O)Nc1cc(ccc1)C(F)(F)F

> <InChI_Code_QSARr>
InChI=1S/C9H8F3NO/c1-6(14)13-8-4-2-3-7(5-8)9(10,11)12/h2-5H,1H3,(H,13,14)

> <InChI Key_QSARr>
HNIPNANLYHXYDE-UHFFFAOYSA-N

> <LogKOC>
1.75

$$$$
100319
  -INDIGO-08031722282D

 19 19  0  0  0  0  0  0  0  0999 V2000
   -4.8000   -0.0000    0.0000 F   0  0  0  0  0  0  0  0  0  0  0  0
   -3.2000   -0.0000    0.0000 C   0  0  0  0  0  0  0  0  0  0  0  0
   -2.4001    1.3856    0.0000 C   0  0  0  0  0  0  0  0  0  0  0  0
   -3.2000    2.7713    0.0000 H   0  0  0  0  0  0  0  0  0  0  0  0
   -0.8000    1.3856    0.0000 C   0  0  0  0  0  0  0  0  0  0  0  0
    0.0000    2.7713    0.0000 H   0  0  0  0  0  0  0  0  0  0  0  0
    0.0000   -0.0000    0.0000 C   0  0  0  0  0  0  0  0  0  0  0  0
    1.6000   -0.0000    0.0000 N   0  0  0  0  0  0  0  0  0  0  0  0
    2.3999   -1.3856    0.0000 H   0  0  0  0  0  0  0  0  0  0  0  0
    2.3999    1.3856    0.0000 C   0  0  0  0  0  0  0  0  0  0  0  0
    1.6000    2.7713    0.0000 O   0  0  0  0  0  0  0  0  0  0  0  0
    4.0000    1.3856    0.0000 C   0  0  0  0  0  0  0  0  0  0  0  0
    5.6000    1.3856    0.0000 H   0  0  0  0  0  0  0  0  0  0  0  0
    4.8000    2.7713    0.0000 H   0  0  0  0  0  0  0  0  0  0  0  0
    4.8000   -0.0000    0.0000 H   0  0  0  0  0  0  0  0  0  0  0  0
   -0.8000   -1.3856    0.0000 C   0  0  0  0  0  0  0  0  0  0  0  0
    0.0000   -2.7713    0.0000 H   0  0  0  0  0  0  0  0  0  0  0  0
   -2.4001   -1.3856    0.0000 C   0  0  0  0  0  0  0  0  0  0  0  0
   -3.2000   -2.7713    0.0000 H   0  0  0  0  0  0  0  0  0  0  0  0
  1  2  1  0  0  0  0
  2  3  1  0  0  0  0
  3  4  1  0  0  0  0
  3  5  2  0  0  0  0
  5  6  1  0  0  0  0
  5  7  1  0  0  0  0
  7  8  1  0  0  0  0
  8  9  1  0  0  0  0
  8 10  1  0  0  0  0
 10 11  2  0  0  0  0
 10 12  1  0  0  0  0
 12 13  1  0  0  0  0
 12 14  1  0  0  0  0
 12 15  1  0  0  0  0
  7 16  2  0  0  0  0
 16 17  1  0  0  0  0
 16 18  1  0  0  0  0
 18  2  2  0  0  0  0
 18 19  1  0  0  0  0
M  END
> <ChemID>
100319

> <source_casrn>
351-83-7

> <CAS>
351-83-7

> <SMILES>
CC(=O)Nc1ccc(F)cc1

> <NAME>
4-FLUOROACETANILIDE

> <preferred_name>
4-Fluoroacetanilide

> <iupac>
N-(4-FLUOROPHENYL)ACETAMIDE

> <MPID>
99594

> <dsstox_substance_id>
DTXSID40188598

> <Canonical_QSARr>
CC(=O)Nc1ccc(F)cc1

> <InChI_Code_QSARr>
InChI=1S/C8H8FNO/c1-6(11)10-8-4-2-7(9)3-5-8/h2-5H,1H3,(H,10,11)

> <InChI Key_QSARr>
JHEFOJNPLXSWNZ-UHFFFAOYSA-N

> <LogKOC>
1.48

$$$$
100320
  -INDIGO-08031722282D

 20 21  0  0  0  0  0  0  0  0999 V2000
   -0.8001    1.3856    0.0000 N   0  0  0  0  0  0  0  0  0  0  0  0
   -0.0001   -0.0000    0.0000 C   0  0  0  0  0  0  0  0  0  0  0  0
    1.6001    0.0000    0.0000 C   0  0  0  0  0  0  0  0  0  0  0  0
    2.4001    1.3856    0.0000 N   0  0  0  0  0  0  0  0  0  0  0  0
    4.0000    1.3856    0.0000 C   0  0  0  0  0  0  0  0  0  0  0  0
    4.8000    2.7713    0.0000 H   0  0  0  0  0  0  0  0  0  0  0  0
    4.8000    0.0000    0.0000 C   0  0  0  0  0  0  0  0  0  0  0  0
    6.4000    0.0000    0.0000 H   0  0  0  0  0  0  0  0  0  0  0  0
    4.0000   -1.3856    0.0000 C   0  0  0  0  0  0  0  0  0  0  0  0
    4.8000   -2.7713    0.0000 H   0  0  0  0  0  0  0  0  0  0  0  0
    2.4001   -1.3856    0.0000 C   0  0  0  0  0  0  0  0  0  0  0  0
    1.6001   -2.7713    0.0000 H   0  0  0  0  0  0  0  0  0  0  0  0
   -0.8001   -1.3856    0.0000 C   0  0  0  0  0  0  0  0  0  0  0  0
   -0.0001   -2.7713    0.0000 H   0  0  0  0  0  0  0  0  0  0  0  0
   -2.4000   -1.3856    0.0000 C   0  0  0  0  0  0  0  0  0  0  0  0
   -3.2000   -2.7713    0.0000 H   0  0  0  0  0  0  0  0  0  0  0  0
   -3.2000   -0.0000    0.0000 C   0  0  0  0  0  0  0  0  0  0  0  0
   -4.8000   -0.0000    0.0000 H   0  0  0  0  0  0  0  0  0  0  0  0
   -2.4000    1.3856    0.0000 C   0  0  0  0  0  0  0  0  0  0  0  0
   -3.2000    2.7713    0.0000 H   0  0  0  0  0  0  0  0  0  0  0  0
  1  2  1  0  0  0  0
  2  3  1  0  0  0  0
  3  4  1  0  0  0  0
  4  5  2  0  0  0  0
  5  6  1  0  0  0  0
  5  7  1  0  0  0  0
  7  8  1  0  0  0  0
  7  9  2  0  0  0  0
  9 10  1  0  0  0  0
  9 11  1  0  0  0  0
 11  3  2  0  0  0  0
 11 12  1  0  0  0  0
  2 13  2  0  0  0  0
 13 14  1  0  0  0  0
 13 15  1  0  0  0  0
 15 16  1  0  0  0  0
 15 17  2  0  0  0  0
 17 18  1  0  0  0  0
 17 19  1  0  0  0  0
 19  1  2  0  0  0  0
 19 20  1  0  0  0  0
M  END
> <ChemID>
100320

> <source_casrn>
366-18-7

> <CAS>
366-18-7

> <SMILES>
c1ccc[n]c1-c1cccc[n]1

> <NAME>
2,2-BIPYRIDINE

> <preferred_name>
2,2'-Dipyridyl

> <iupac>
2,2'-bipyridine

> <MPID>
99595

> <dsstox_substance_id>
DTXSID9040635

> <Canonical_QSARr>
c1ccc[n]c1-c1cccc[n]1

> <InChI_Code_QSARr>
InChI=1S/C10H8N2/c1-3-7-11-9(5-1)10-6-2-4-8-12-10/h1-8H

> <InChI Key_QSARr>
ROFVEXUMMXZLPA-UHFFFAOYSA-N

> <LogKOC>
1.6

$$$$
100323
  -INDIGO-08031722282D

 41 42  0  0  0  0  0  0  0  0999 V2000
    4.1569    2.4000    0.0000 C   0  0  0  0  0  0  0  0  0  0  0  0
    5.7325    2.1222    0.0000 C   0  0  0  0  0  0  0  0  0  0  0  0
    6.2799    0.6187    0.0000 C   0  0  0  0  0  0  0  0  0  0  0  0
    5.2514   -0.6070    0.0000 H   0  0  0  0  0  0  0  0  0  0  0  0
    7.8554    0.3408    0.0000 C   0  0  0  0  0  0  0  0  0  0  0  0
    8.4028   -1.1627    0.0000 H   0  0  0  0  0  0  0  0  0  0  0  0
    8.8839    1.5665    0.0000 C   0  0  0  0  0  0  0  0  0  0  0  0
   10.4598    1.2886    0.0000 N   0  0  0  0  0  0  0  0  0  0  0  0
   11.0069   -0.2149    0.0000 C   0  0  0  0  0  0  0  0  0  0  0  0
   11.5542   -1.7184    0.0000 H   0  0  0  0  0  0  0  0  0  0  0  0
   12.5827   -0.4926    0.0000 H   0  0  0  0  0  0  0  0  0  0  0  0
    9.9784   -1.4405    0.0000 H   0  0  0  0  0  0  0  0  0  0  0  0
   11.4883    2.5143    0.0000 C   0  0  0  0  0  0  0  0  0  0  0  0
   12.5165    3.7401    0.0000 H   0  0  0  0  0  0  0  0  0  0  0  0
   13.0638    2.2364    0.0000 H   0  0  0  0  0  0  0  0  0  0  0  0
   10.9409    4.0178    0.0000 H   0  0  0  0  0  0  0  0  0  0  0  0
    8.3368    3.0700    0.0000 C   0  0  0  0  0  0  0  0  0  0  0  0
    9.3653    4.2957    0.0000 H   0  0  0  0  0  0  0  0  0  0  0  0
    6.7610    3.3478    0.0000 C   0  0  0  0  0  0  0  0  0  0  0  0
    6.2139    4.8514    0.0000 H   0  0  0  0  0  0  0  0  0  0  0  0
    2.7713    1.6000    0.0000 C   0  0  0  0  0  0  0  0  0  0  0  0
    2.7713    0.0001    0.0000 C   0  0  0  0  0  0  0  0  0  0  0  0
    4.1569   -0.7999    0.0000 H   0  0  0  0  0  0  0  0  0  0  0  0
    1.3857   -0.7999    0.0000 C   0  0  0  0  0  0  0  0  0  0  0  0
    1.3857   -2.4000    0.0000 H   0  0  0  0  0  0  0  0  0  0  0  0
    0.0001    0.0001    0.0000 C   0  0  0  0  0  0  0  0  0  0  0  0
   -1.3857   -0.7999    0.0000 N   0  0  0  0  0  0  0  0  0  0  0  0
   -1.3857   -2.4000    0.0000 C   0  0  0  0  0  0  0  0  0  0  0  0
   -1.3857   -4.0000    0.0000 H   0  0  0  0  0  0  0  0  0  0  0  0
   -2.7713   -3.2000    0.0000 H   0  0  0  0  0  0  0  0  0  0  0  0
    0.0001   -3.2000    0.0000 H   0  0  0  0  0  0  0  0  0  0  0  0
   -2.7713    0.0001    0.0000 C   0  0  0  0  0  0  0  0  0  0  0  0
   -4.1569    0.7999    0.0000 H   0  0  0  0  0  0  0  0  0  0  0  0
   -4.1569   -0.7999    0.0000 H   0  0  0  0  0  0  0  0  0  0  0  0
   -2.7713    1.6000    0.0000 H   0  0  0  0  0  0  0  0  0  0  0  0
    0.0001    1.6000    0.0000 C   0  0  0  0  0  0  0  0  0  0  0  0
   -1.3857    2.4000    0.0000 H   0  0  0  0  0  0  0  0  0  0  0  0
    1.3857    2.4000    0.0000 C   0  0  0  0  0  0  0  0  0  0  0  0
    1.3857    4.0000    0.0000 H   0  0  0  0  0  0  0  0  0  0  0  0
    3.6096    3.9035    0.0000 N   0  0  0  0  0  0  0  0  0  0  0  0
    4.6381    5.1292    0.0000 H   0  0  0  0  0  0  0  0  0  0  0  0
  1  2  1  0  0  0  0
  2  3  1  0  0  0  0
  3  4  1  0  0  0  0
  3  5  2  0  0  0  0
  5  6  1  0  0  0  0
  5  7  1  0  0  0  0
  7  8  1  0  0  0  0
  8  9  1  0  0  0  0
  9 10  1  0  0  0  0
  9 11  1  0  0  0  0
  9 12  1  0  0  0  0
  8 13  1  0  0  0  0
 13 14  1  0  0  0  0
 13 15  1  0  0  0  0
 13 16  1  0  0  0  0
  7 17  2  0  0  0  0
 17 18  1  0  0  0  0
 17 19  1  0  0  0  0
 19  2  2  0  0  0  0
 19 20  1  0  0  0  0
  1 21  1  0  0  0  0
 21 22  1  0  0  0  0
 22 23  1  0  0  0  0
 22 24  2  0  0  0  0
 24 25  1  0  0  0  0
 24 26  1  0  0  0  0
 26 27  1  0  0  0  0
 27 28  1  0  0  0  0
 28 29  1  0  0  0  0
 28 30  1  0  0  0  0
 28 31  1  0  0  0  0
 27 32  1  0  0  0  0
 32 33  1  0  0  0  0
 32 34  1  0  0  0  0
 32 35  1  0  0  0  0
 26 36  2  0  0  0  0
 36 37  1  0  0  0  0
 36 38  1  0  0  0  0
 38 21  2  0  0  0  0
 38 39  1  0  0  0  0
  1 40  2  0  0  0  0
 40 41  1  0  0  0  0
M  END
> <ChemID>
100323

> <source_casrn>
492-80-8

> <CAS>
492-80-8

> <SMILES>
CN(C)c1ccc(cc1)C(=N)c1ccc(cc1)N(C)C

> <NAME>
AURAMINE

> <preferred_name>
Auramine

> <iupac>
4,4'-carbonimidoylbis(N,N-dimethylaniline)

> <MPID>
99597

> <dsstox_substance_id>
DTXSID7043821

> <Canonical_QSARr>
CN(C)c1ccc(cc1)C(=N)c1ccc(cc1)N(C)C

> <InChI_Code_QSARr>
InChI=1S/C17H21N3/c1-19(2)15-9-5-13(6-10-15)17(18)14-7-11-16(12-8-14)20(3)4/h5-12,18H,1-4H3

> <InChI Key_QSARr>
JPIYZTWMUGTEHX-UHFFFAOYSA-N

> <LogKOC>
3.31

$$$$
100324
  -INDIGO-08031722282D

 25 26  0  0  0  0  0  0  0  0999 V2000
   -2.7712    0.0000    0.0000 N   0  0  0  0  0  0  0  0  0  0  0  0
   -1.3857    0.8000    0.0000 N   0  0  0  0  0  0  0  0  0  0  0  0
    0.0000    0.0000    0.0000 C   0  0  0  0  0  0  0  0  0  0  0  0
    0.0000   -1.6000    0.0000 C   0  0  0  0  0  0  0  0  0  0  0  0
   -1.3857   -2.4001    0.0000 H   0  0  0  0  0  0  0  0  0  0  0  0
    1.3857   -2.4001    0.0000 C   0  0  0  0  0  0  0  0  0  0  0  0
    1.3857   -4.0000    0.0000 H   0  0  0  0  0  0  0  0  0  0  0  0
    2.7712   -1.6000    0.0000 C   0  0  0  0  0  0  0  0  0  0  0  0
    4.1569   -2.4001    0.0000 H   0  0  0  0  0  0  0  0  0  0  0  0
    2.7712    0.0000    0.0000 C   0  0  0  0  0  0  0  0  0  0  0  0
    4.1569    0.8000    0.0000 H   0  0  0  0  0  0  0  0  0  0  0  0
    1.3857    0.8000    0.0000 C   0  0  0  0  0  0  0  0  0  0  0  0
    1.3857    2.4000    0.0000 H   0  0  0  0  0  0  0  0  0  0  0  0
   -1.3857    2.4000    0.0000 O   0  0  0  0  0  0  0  0  0  0  0  0
   -4.1569    0.8000    0.0000 C   0  0  0  0  0  0  0  0  0  0  0  0
   -4.1569    2.4000    0.0000 C   0  0  0  0  0  0  0  0  0  0  0  0
   -2.7712    3.2001    0.0000 H   0  0  0  0  0  0  0  0  0  0  0  0
   -5.5426    3.2001    0.0000 C   0  0  0  0  0  0  0  0  0  0  0  0
   -5.5426    4.8000    0.0000 H   0  0  0  0  0  0  0  0  0  0  0  0
   -6.9281    2.4000    0.0000 C   0  0  0  0  0  0  0  0  0  0  0  0
   -8.3138    3.2001    0.0000 H   0  0  0  0  0  0  0  0  0  0  0  0
   -6.9281    0.8000    0.0000 C   0  0  0  0  0  0  0  0  0  0  0  0
   -8.3138    0.0000    0.0000 H   0  0  0  0  0  0  0  0  0  0  0  0
   -5.5426    0.0000    0.0000 C   0  0  0  0  0  0  0  0  0  0  0  0
   -5.5426   -1.6000    0.0000 H   0  0  0  0  0  0  0  0  0  0  0  0
  1  2  2  0  0  0  0
  2  3  1  0  0  0  0
  3  4  1  0  0  0  0
  4  5  1  0  0  0  0
  4  6  2  0  0  0  0
  6  7  1  0  0  0  0
  6  8  1  0  0  0  0
  8  9  1  0  0  0  0
  8 10  2  0  0  0  0
 10 11  1  0  0  0  0
 10 12  1  0  0  0  0
 12  3  2  0  0  0  0
 12 13  1  0  0  0  0
  2 14  1  0  0  0  0
  1 15  1  0  0  0  0
 15 16  1  0  0  0  0
 16 17  1  0  0  0  0
 16 18  2  0  0  0  0
 18 19  1  0  0  0  0
 18 20  1  0  0  0  0
 20 21  1  0  0  0  0
 20 22  2  0  0  0  0
 22 23  1  0  0  0  0
 22 24  1  0  0  0  0
 24 15  2  0  0  0  0
 24 25  1  0  0  0  0
M  CHG  2   2   1  14  -1
M  END
> <ChemID>
100324

> <source_casrn>
495-48-7

> <CAS>
495-48-7

> <SMILES>
[O-][N+](=Nc1ccccc1)c1ccccc1

> <NAME>
Azoxybenzene

> <preferred_name>
Azoxybenzene

> <iupac>
diphenyldiazene oxide

> <MPID>
99598

> <dsstox_substance_id>
DTXSID0024555

> <Canonical_QSARr>
[O-][N+](=Nc1ccccc1)c1ccccc1

> <InChI_Code_QSARr>
InChI=1S/C12H10N2O/c15-14(12-9-5-2-6-10-12)13-11-7-3-1-4-8-11/h1-10H/b14-13-

> <InChI Key_QSARr>
GAUZCKBSTZFWCT-YPKPFQOOSA-N

> <LogKOC>
3.5

$$$$
100325
  -INDIGO-08031722282D

 35 36  0  0  0  0  0  0  0  0999 V2000
   -1.3857   -0.8001    0.0000 O   0  0  0  0  0  0  0  0  0  0  0  0
   -1.3857   -2.4000    0.0000 H   0  0  0  0  0  0  0  0  0  0  0  0
   -0.0000   -0.0000    0.0000 C   0  0  0  0  0  0  0  0  0  0  0  0
   -1.2257    1.0285    0.0000 C   0  0  0  0  0  0  0  0  0  0  0  0
   -1.2257    2.6284    0.0000 C   0  0  0  0  0  0  0  0  0  0  0  0
   -0.0000    3.6569    0.0000 H   0  0  0  0  0  0  0  0  0  0  0  0
   -2.6114    3.4285    0.0000 C   0  0  0  0  0  0  0  0  0  0  0  0
   -2.6114    5.0285    0.0000 H   0  0  0  0  0  0  0  0  0  0  0  0
   -3.9969    2.6284    0.0000 C   0  0  0  0  0  0  0  0  0  0  0  0
   -5.3826    3.4285    0.0000 Cl  0  0  0  0  0  0  0  0  0  0  0  0
   -3.9969    1.0285    0.0000 C   0  0  0  0  0  0  0  0  0  0  0  0
   -5.3826    0.2284    0.0000 H   0  0  0  0  0  0  0  0  0  0  0  0
   -2.6114    0.2284    0.0000 C   0  0  0  0  0  0  0  0  0  0  0  0
   -2.6114   -1.3716    0.0000 H   0  0  0  0  0  0  0  0  0  0  0  0
    0.7999   -1.3856    0.0000 C   0  0  0  0  0  0  0  0  0  0  0  0
   -0.0000   -2.7712    0.0000 C   0  0  0  0  0  0  0  0  0  0  0  0
   -1.3857   -3.5713    0.0000 H   0  0  0  0  0  0  0  0  0  0  0  0
    0.7999   -4.1570    0.0000 C   0  0  0  0  0  0  0  0  0  0  0  0
   -0.0000   -5.5426    0.0000 H   0  0  0  0  0  0  0  0  0  0  0  0
    2.4001   -4.1570    0.0000 C   0  0  0  0  0  0  0  0  0  0  0  0
    3.2000   -5.5426    0.0000 Cl  0  0  0  0  0  0  0  0  0  0  0  0
    3.2000   -2.7712    0.0000 C   0  0  0  0  0  0  0  0  0  0  0  0
    4.8000   -2.7712    0.0000 H   0  0  0  0  0  0  0  0  0  0  0  0
    2.4001   -1.3856    0.0000 C   0  0  0  0  0  0  0  0  0  0  0  0
    3.2000   -0.0000    0.0000 H   0  0  0  0  0  0  0  0  0  0  0  0
    1.0285    1.2257    0.0000 C   0  0  0  0  0  0  0  0  0  0  0  0
    0.4812    2.7292    0.0000 O   0  0  0  0  0  0  0  0  0  0  0  0
    2.6041    0.9478    0.0000 O   0  0  0  0  0  0  0  0  0  0  0  0
    3.6326    2.1735    0.0000 C   0  0  0  0  0  0  0  0  0  0  0  0
    2.5517    3.3532    0.0000 H   0  0  0  0  0  0  0  0  0  0  0  0
    3.7024    3.7719    0.0000 H   0  0  0  0  0  0  0  0  0  0  0  0
    5.2084    1.8956    0.0000 C   0  0  0  0  0  0  0  0  0  0  0  0
    6.2367    3.1214    0.0000 H   0  0  0  0  0  0  0  0  0  0  0  0
    6.7840    1.6179    0.0000 H   0  0  0  0  0  0  0  0  0  0  0  0
    4.6611    3.3991    0.0000 H   0  0  0  0  0  0  0  0  0  0  0  0
  1  2  1  0  0  0  0
  1  3  1  0  0  0  0
  3  4  1  0  0  0  0
  4  5  1  0  0  0  0
  5  6  1  0  0  0  0
  5  7  2  0  0  0  0
  7  8  1  0  0  0  0
  7  9  1  0  0  0  0
  9 10  1  0  0  0  0
  9 11  2  0  0  0  0
 11 12  1  0  0  0  0
 11 13  1  0  0  0  0
 13  4  2  0  0  0  0
 13 14  1  0  0  0  0
  3 15  1  0  0  0  0
 15 16  1  0  0  0  0
 16 17  1  0  0  0  0
 16 18  2  0  0  0  0
 18 19  1  0  0  0  0
 18 20  1  0  0  0  0
 20 21  1  0  0  0  0
 20 22  2  0  0  0  0
 22 23  1  0  0  0  0
 22 24  1  0  0  0  0
 24 15  2  0  0  0  0
 24 25  1  0  0  0  0
  3 26  1  0  0  0  0
 26 27  2  0  0  0  0
 26 28  1  0  0  0  0
 28 29  1  0  0  0  0
 29 30  1  0  0  0  0
 29 31  1  0  0  0  0
 29 32  1  0  0  0  0
 32 33  1  0  0  0  0
 32 34  1  0  0  0  0
 32 35  1  0  0  0  0
M  END
> <ChemID>
100325

> <source_casrn>
510-15-6

> <CAS>
510-15-6

> <SMILES>
CCOC(=O)C(O)(c1ccc(Cl)cc1)c1ccc(Cl)cc1

> <NAME>
CHLOROBENZILATE

> <preferred_name>
Chlorobenzilate

> <iupac>
ethyl bis(4-chlorophenyl)(hydroxy)acetate

> <MPID>
99599

> <dsstox_substance_id>
DTXSID9020299

> <Canonical_QSARr>
CCOC(=O)C(O)(c1ccc(Cl)cc1)c1ccc(Cl)cc1

> <InChI_Code_QSARr>
InChI=1S/C16H14Cl2O3/c1-2-21-15(19)16(20,11-3-7-13(17)8-4-11)12-5-9-14(18)10-6-12/h3-10,20H,2H2,1H3

> <InChI Key_QSARr>
RAPBNVDSDCTNRC-UHFFFAOYSA-N

> <LogKOC>
3.3

$$$$
100327
  -INDIGO-08031722282D

 14 14  0  0  0  0  0  0  0  0999 V2000
    0.0000   -0.0000    0.0000 C   0  0  0  0  0  0  0  0  0  0  0  0
   -0.8000    1.3856    0.0000 C   0  0  0  0  0  0  0  0  0  0  0  0
    0.0000    2.7713    0.0000 Cl  0  0  0  0  0  0  0  0  0  0  0  0
   -2.4000    1.3856    0.0000 C   0  0  0  0  0  0  0  0  0  0  0  0
   -3.2000    2.7713    0.0000 Cl  0  0  0  0  0  0  0  0  0  0  0  0
   -3.2000   -0.0000    0.0000 C   0  0  0  0  0  0  0  0  0  0  0  0
   -4.8000   -0.0000    0.0000 Cl  0  0  0  0  0  0  0  0  0  0  0  0
   -2.4000   -1.3856    0.0000 C   0  0  0  0  0  0  0  0  0  0  0  0
   -3.2000   -2.7713    0.0000 Cl  0  0  0  0  0  0  0  0  0  0  0  0
   -0.8000   -1.3856    0.0000 C   0  0  0  0  0  0  0  0  0  0  0  0
    0.0000   -2.7713    0.0000 Cl  0  0  0  0  0  0  0  0  0  0  0  0
    1.6000   -0.0000    0.0000 N   0  0  0  0  0  0  0  0  0  0  0  0
    2.4000    1.3856    0.0000 H   0  0  0  0  0  0  0  0  0  0  0  0
    2.4000   -1.3856    0.0000 H   0  0  0  0  0  0  0  0  0  0  0  0
  1  2  1  0  0  0  0
  2  3  1  0  0  0  0
  2  4  2  0  0  0  0
  4  5  1  0  0  0  0
  4  6  1  0  0  0  0
  6  7  1  0  0  0  0
  6  8  2  0  0  0  0
  8  9  1  0  0  0  0
  8 10  1  0  0  0  0
 10  1  2  0  0  0  0
 10 11  1  0  0  0  0
  1 12  1  0  0  0  0
 12 13  1  0  0  0  0
 12 14  1  0  0  0  0
M  END
> <ChemID>
100327

> <source_casrn>
527-20-8

> <CAS>
527-20-8

> <SMILES>
Nc1c(Cl)c(Cl)c(Cl)c(Cl)c1Cl

> <NAME>
PENTACHLOROANILINE

> <preferred_name>
Pentachloroaniline

> <iupac>
pentachloroaniline

> <MPID>
99601

> <dsstox_substance_id>
DTXSID4037584

> <Canonical_QSARr>
Nc1c(Cl)c(Cl)c(Cl)c(Cl)c1Cl

> <InChI_Code_QSARr>
InChI=1S/C6H2Cl5N/c7-1-2(8)4(10)6(12)5(11)3(1)9/h12H2

> <InChI Key_QSARr>
KHCZSJXTDDHLGJ-UHFFFAOYSA-N

> <LogKOC>
4.62

$$$$
100328
  -INDIGO-08031722282D

 19 19  0  0  0  0  0  0  0  0999 V2000
    0.0000   -0.0000    0.0000 C   0  0  0  0  0  0  0  0  0  0  0  0
    0.0000   -1.6000    0.0000 C   0  0  0  0  0  0  0  0  0  0  0  0
    1.3857   -2.4000    0.0000 N   0  0  0  0  0  0  0  0  0  0  0  0
    1.3857   -4.0000    0.0000 O   0  0  0  0  0  0  0  0  0  0  0  0
    2.7713   -1.6000    0.0000 O   0  0  0  0  0  0  0  0  0  0  0  0
   -1.3856   -2.4000    0.0000 C   0  0  0  0  0  0  0  0  0  0  0  0
   -1.3856   -4.0000    0.0000 H   0  0  0  0  0  0  0  0  0  0  0  0
   -2.7713   -1.6000    0.0000 C   0  0  0  0  0  0  0  0  0  0  0  0
   -4.1570   -2.4000    0.0000 H   0  0  0  0  0  0  0  0  0  0  0  0
   -2.7713   -0.0000    0.0000 C   0  0  0  0  0  0  0  0  0  0  0  0
   -4.1570    0.8000    0.0000 C   0  0  0  0  0  0  0  0  0  0  0  0
   -5.5426   -0.0000    0.0000 O   0  0  0  0  0  0  0  0  0  0  0  0
   -6.9282    0.8000    0.0000 H   0  0  0  0  0  0  0  0  0  0  0  0
   -4.1570    2.4000    0.0000 O   0  0  0  0  0  0  0  0  0  0  0  0
   -1.3856    0.8000    0.0000 C   0  0  0  0  0  0  0  0  0  0  0  0
   -1.3856    2.4000    0.0000 H   0  0  0  0  0  0  0  0  0  0  0  0
    1.3857    0.8000    0.0000 N   0  0  0  0  0  0  0  0  0  0  0  0
    2.7713   -0.0000    0.0000 O   0  0  0  0  0  0  0  0  0  0  0  0
    1.3857    2.4000    0.0000 O   0  0  0  0  0  0  0  0  0  0  0  0
  1  2  1  0  0  0  0
  2  3  1  0  0  0  0
  3  4  2  0  0  0  0
  3  5  1  0  0  0  0
  2  6  2  0  0  0  0
  6  7  1  0  0  0  0
  6  8  1  0  0  0  0
  8  9  1  0  0  0  0
  8 10  2  0  0  0  0
 10 11  1  0  0  0  0
 11 12  1  0  0  0  0
 12 13  1  0  0  0  0
 11 14  2  0  0  0  0
 10 15  1  0  0  0  0
 15  1  2  0  0  0  0
 15 16  1  0  0  0  0
  1 17  1  0  0  0  0
 17 18  2  0  0  0  0
 17 19  1  0  0  0  0
M  CHG  4   3   1   5  -1  17   1  19  -1
M  END
> <ChemID>
100328

> <source_casrn>
528-45-0

> <CAS>
528-45-0

> <SMILES>
[O-][N+](=O)c1ccc(cc1[N+]([O-])=O)C(O)=O

> <NAME>
3,4-DINITROBENZOIC ACID

> <preferred_name>
Benzoic acid, 3,4-dinitro-

> <iupac>
3,4-Dinitrobenzoic acid

> <MPID>
99602

> <dsstox_substance_id>
DTXSID1060180

> <Canonical_QSARr>
[O-][N+](=O)c1ccc(cc1[N+]([O-])=O)C(O)=O

> <InChI_Code_QSARr>
InChI=1S/C7H4N2O6/c10-7(11)4-1-2-5(8(12)13)6(3-4)9(14)15/h1-3H,(H,10,11)

> <InChI Key_QSARr>
OMVRRHJJQILIJX-UHFFFAOYSA-N

> <LogKOC>
1.53

$$$$
100329
  -INDIGO-08031722282D

 19 19  0  0  0  0  0  0  0  0999 V2000
   -0.0001   -0.0000    0.0000 C   0  0  0  0  0  0  0  0  0  0  0  0
   -0.0001   -1.6000    0.0000 C   0  0  0  0  0  0  0  0  0  0  0  0
    1.3857   -2.4000    0.0000 Cl  0  0  0  0  0  0  0  0  0  0  0  0
   -1.3857   -2.4000    0.0000 C   0  0  0  0  0  0  0  0  0  0  0  0
   -1.3857   -4.0000    0.0000 H   0  0  0  0  0  0  0  0  0  0  0  0
   -2.7713   -1.6000    0.0000 C   0  0  0  0  0  0  0  0  0  0  0  0
   -4.1569   -2.4000    0.0000 H   0  0  0  0  0  0  0  0  0  0  0  0
   -2.7713   -0.0000    0.0000 C   0  0  0  0  0  0  0  0  0  0  0  0
   -4.1569    0.8000    0.0000 H   0  0  0  0  0  0  0  0  0  0  0  0
   -1.3857    0.8000    0.0000 C   0  0  0  0  0  0  0  0  0  0  0  0
   -1.3857    2.4000    0.0000 H   0  0  0  0  0  0  0  0  0  0  0  0
    1.3857    0.8000    0.0000 N   0  0  0  0  0  0  0  0  0  0  0  0
    1.3857    2.4000    0.0000 H   0  0  0  0  0  0  0  0  0  0  0  0
    2.7713   -0.0000    0.0000 C   0  0  0  0  0  0  0  0  0  0  0  0
    4.1569    0.8000    0.0000 C   0  0  0  0  0  0  0  0  0  0  0  0
    5.5426    1.6000    0.0000 H   0  0  0  0  0  0  0  0  0  0  0  0
    5.5426   -0.0000    0.0000 H   0  0  0  0  0  0  0  0  0  0  0  0
    4.1569    2.4000    0.0000 H   0  0  0  0  0  0  0  0  0  0  0  0
    2.7713   -1.6000    0.0000 O   0  0  0  0  0  0  0  0  0  0  0  0
  1  2  1  0  0  0  0
  2  3  1  0  0  0  0
  2  4  2  0  0  0  0
  4  5  1  0  0  0  0
  4  6  1  0  0  0  0
  6  7  1  0  0  0  0
  6  8  2  0  0  0  0
  8  9  1  0  0  0  0
  8 10  1  0  0  0  0
 10  1  2  0  0  0  0
 10 11  1  0  0  0  0
  1 12  1  0  0  0  0
 12 13  1  0  0  0  0
 12 14  1  0  0  0  0
 14 15  1  0  0  0  0
 15 16  1  0  0  0  0
 15 17  1  0  0  0  0
 15 18  1  0  0  0  0
 14 19  2  0  0  0  0
M  END
> <ChemID>
100329

> <source_casrn>
533-17-5

> <CAS>
533-17-5

> <SMILES>
O=C(Nc(c(ccc1)Cl)c1)C

> <NAME>
2-CHLOROACETANILIDE

> <preferred_name>
Acetamide, N-(2-chlorophenyl)-

> <iupac>
N-(2-Chlorophenyl)acetamide

> <MPID>
99603

> <dsstox_substance_id>
DTXSID2060200

> <Canonical_QSARr>
CC(=O)Nc1ccccc1Cl

> <InChI_Code_QSARr>
InChI=1S/C8H8ClNO/c1-6(11)10-8-5-3-2-4-7(8)9/h2-5H,1H3,(H,10,11)

> <InChI Key_QSARr>
KNVQTRVKSOEHPU-UHFFFAOYSA-N

> <LogKOC>
1.58

$$$$
100331
  -INDIGO-08031722282D

 20 20  0  0  0  0  0  0  0  0999 V2000
    1.3856   -2.4000    0.0000 O   0  0  0  0  0  0  0  0  0  0  0  0
    1.3856   -4.0000    0.0000 H   0  0  0  0  0  0  0  0  0  0  0  0
    0.0000   -1.6000    0.0000 C   0  0  0  0  0  0  0  0  0  0  0  0
    0.0000    0.0000    0.0000 C   0  0  0  0  0  0  0  0  0  0  0  0
    1.3857    0.8000    0.0000 C   0  0  0  0  0  0  0  0  0  0  0  0
    2.7713    1.6000    0.0000 H   0  0  0  0  0  0  0  0  0  0  0  0
    1.3857    2.4000    0.0000 H   0  0  0  0  0  0  0  0  0  0  0  0
    2.7713    0.0000    0.0000 H   0  0  0  0  0  0  0  0  0  0  0  0
   -1.3857    0.8000    0.0000 C   0  0  0  0  0  0  0  0  0  0  0  0
   -1.3856    2.4000    0.0000 H   0  0  0  0  0  0  0  0  0  0  0  0
   -2.7713    0.0000    0.0000 C   0  0  0  0  0  0  0  0  0  0  0  0
   -4.1570    0.8000    0.0000 N   0  0  0  0  0  0  0  0  0  0  0  0
   -5.5426    0.0000    0.0000 O   0  0  0  0  0  0  0  0  0  0  0  0
   -4.1570    2.4000    0.0000 O   0  0  0  0  0  0  0  0  0  0  0  0
   -2.7713   -1.6000    0.0000 C   0  0  0  0  0  0  0  0  0  0  0  0
   -4.1570   -2.4000    0.0000 H   0  0  0  0  0  0  0  0  0  0  0  0
   -1.3857   -2.4000    0.0000 C   0  0  0  0  0  0  0  0  0  0  0  0
   -1.3856   -4.0000    0.0000 N   0  0  0  0  0  0  0  0  0  0  0  0
   -2.7713   -4.8000    0.0000 O   0  0  0  0  0  0  0  0  0  0  0  0
    0.0000   -4.8000    0.0000 O   0  0  0  0  0  0  0  0  0  0  0  0
  1  2  1  0  0  0  0
  1  3  1  0  0  0  0
  3  4  1  0  0  0  0
  4  5  1  0  0  0  0
  5  6  1  0  0  0  0
  5  7  1  0  0  0  0
  5  8  1  0  0  0  0
  4  9  2  0  0  0  0
  9 10  1  0  0  0  0
  9 11  1  0  0  0  0
 11 12  1  0  0  0  0
 12 13  1  0  0  0  0
 12 14  2  0  0  0  0
 11 15  2  0  0  0  0
 15 16  1  0  0  0  0
 15 17  1  0  0  0  0
 17  3  2  0  0  0  0
 17 18  1  0  0  0  0
 18 19  1  0  0  0  0
 18 20  2  0  0  0  0
M  CHG  4  12   1  13  -1  18   1  19  -1
M  END
> <ChemID>
100331

> <source_casrn>
534-52-1

> <CAS>
534-52-1

> <SMILES>
Cc1cc(cc(c1O)[N+]([O-])=O)[N+]([O-])=O

> <NAME>
4,6-DINITRO-O-CRESOL

> <preferred_name>
2-Methyl-4,6-dinitrophenol

> <iupac>
2-methyl-4,6-dinitrophenol

> <MPID>
99605

> <dsstox_substance_id>
DTXSID1022053

> <Canonical_QSARr>
Cc1cc(cc(c1O)[N+]([O-])=O)[N+]([O-])=O

> <InChI_Code_QSARr>
InChI=1S/C7H6N2O5/c1-4-2-5(8(11)12)3-6(7(4)10)9(13)14/h2-3,10H,1H3

> <InChI Key_QSARr>
ZXVONLUNISGICL-UHFFFAOYSA-N

> <LogKOC>
2.41

$$$$
100332
  -INDIGO-08031722282D

 22 22  0  0  0  0  0  0  0  0999 V2000
   -4.1569    0.8000    0.0000 N   0  0  0  0  0  0  0  0  0  0  0  0
   -4.1569    2.4000    0.0000 H   0  0  0  0  0  0  0  0  0  0  0  0
   -5.5425   -0.0000    0.0000 C   0  0  0  0  0  0  0  0  0  0  0  0
   -6.9282    0.8000    0.0000 C   0  0  0  0  0  0  0  0  0  0  0  0
   -8.3138    1.6000    0.0000 H   0  0  0  0  0  0  0  0  0  0  0  0
   -8.3138   -0.0000    0.0000 H   0  0  0  0  0  0  0  0  0  0  0  0
   -6.9282    2.4000    0.0000 H   0  0  0  0  0  0  0  0  0  0  0  0
   -5.5425   -1.6000    0.0000 O   0  0  0  0  0  0  0  0  0  0  0  0
   -2.7712   -0.0000    0.0000 C   0  0  0  0  0  0  0  0  0  0  0  0
   -2.7712   -1.6000    0.0000 C   0  0  0  0  0  0  0  0  0  0  0  0
   -4.1569   -2.4000    0.0000 H   0  0  0  0  0  0  0  0  0  0  0  0
   -1.3857   -2.4000    0.0000 C   0  0  0  0  0  0  0  0  0  0  0  0
   -1.3857   -4.0000    0.0000 H   0  0  0  0  0  0  0  0  0  0  0  0
   -0.0000   -1.6000    0.0000 C   0  0  0  0  0  0  0  0  0  0  0  0
    1.3856   -2.4000    0.0000 H   0  0  0  0  0  0  0  0  0  0  0  0
   -0.0000   -0.0000    0.0000 C   0  0  0  0  0  0  0  0  0  0  0  0
    1.3856    0.8000    0.0000 C   0  0  0  0  0  0  0  0  0  0  0  0
    2.7713    1.6000    0.0000 H   0  0  0  0  0  0  0  0  0  0  0  0
    2.7713   -0.0000    0.0000 H   0  0  0  0  0  0  0  0  0  0  0  0
    1.3856    2.4000    0.0000 H   0  0  0  0  0  0  0  0  0  0  0  0
   -1.3857    0.8000    0.0000 C   0  0  0  0  0  0  0  0  0  0  0  0
   -1.3857    2.4000    0.0000 H   0  0  0  0  0  0  0  0  0  0  0  0
  1  2  1  0  0  0  0
  1  3  1  0  0  0  0
  3  4  1  0  0  0  0
  4  5  1  0  0  0  0
  4  6  1  0  0  0  0
  4  7  1  0  0  0  0
  3  8  2  0  0  0  0
  1  9  1  0  0  0  0
  9 10  1  0  0  0  0
 10 11  1  0  0  0  0
 10 12  2  0  0  0  0
 12 13  1  0  0  0  0
 12 14  1  0  0  0  0
 14 15  1  0  0  0  0
 14 16  2  0  0  0  0
 16 17  1  0  0  0  0
 17 18  1  0  0  0  0
 17 19  1  0  0  0  0
 17 20  1  0  0  0  0
 16 21  1  0  0  0  0
 21  9  2  0  0  0  0
 21 22  1  0  0  0  0
M  END
> <ChemID>
100332

> <source_casrn>
537-92-8

> <CAS>
537-92-8

> <SMILES>
Cc1cccc(c1)NC(C)=O

> <NAME>
3-METHYLACETANILIDE

> <preferred_name>
N-Acetyl-m-toluidine

> <iupac>
N-(3-methylphenyl)acetamide

> <MPID>
99606

> <dsstox_substance_id>
DTXSID6024412

> <Canonical_QSARr>
Cc1cccc(c1)NC(C)=O

> <InChI_Code_QSARr>
InChI=1S/C9H11NO/c1-7-4-3-5-9(6-7)10-8(2)11/h3-6H,1-2H3,(H,10,11)

> <InChI Key_QSARr>
ALMHSXDYCFOZQD-UHFFFAOYSA-N

> <LogKOC>
1.45

$$$$
100333
  -INDIGO-08031722282D

 23 22  0  0  0  0  0  0  0  0999 V2000
   -2.7712    0.0000    0.0000 C   0  0  0  0  0  0  0  0  0  0  0  0
   -1.3857    0.8000    0.0000 C   0  0  0  0  0  0  0  0  0  0  0  0
   -1.9979    2.2782    0.0000 H   0  0  0  0  0  0  0  0  0  0  0  0
   -0.7733    2.2782    0.0000 H   0  0  0  0  0  0  0  0  0  0  0  0
    0.0000    0.0000    0.0000 C   0  0  0  0  0  0  0  0  0  0  0  0
    0.6124   -1.4782    0.0000 H   0  0  0  0  0  0  0  0  0  0  0  0
   -0.6124   -1.4782    0.0000 H   0  0  0  0  0  0  0  0  0  0  0  0
    1.3857    0.8000    0.0000 C   0  0  0  0  0  0  0  0  0  0  0  0
    0.7733    2.2782    0.0000 H   0  0  0  0  0  0  0  0  0  0  0  0
    1.9979    2.2782    0.0000 H   0  0  0  0  0  0  0  0  0  0  0  0
    2.7712    0.0000    0.0000 C   0  0  0  0  0  0  0  0  0  0  0  0
    4.1569   -0.8000    0.0000 H   0  0  0  0  0  0  0  0  0  0  0  0
    4.1569    0.8000    0.0000 H   0  0  0  0  0  0  0  0  0  0  0  0
    2.7712   -1.6000    0.0000 H   0  0  0  0  0  0  0  0  0  0  0  0
   -4.1569    0.8000    0.0000 O   0  0  0  0  0  0  0  0  0  0  0  0
   -5.5426    0.0000    0.0000 C   0  0  0  0  0  0  0  0  0  0  0  0
   -4.9303   -1.4782    0.0000 H   0  0  0  0  0  0  0  0  0  0  0  0
   -6.1548   -1.4782    0.0000 H   0  0  0  0  0  0  0  0  0  0  0  0
   -6.9281    0.8000    0.0000 C   0  0  0  0  0  0  0  0  0  0  0  0
   -8.3138    1.6000    0.0000 H   0  0  0  0  0  0  0  0  0  0  0  0
   -8.3138    0.0000    0.0000 H   0  0  0  0  0  0  0  0  0  0  0  0
   -6.9281    2.4000    0.0000 H   0  0  0  0  0  0  0  0  0  0  0  0
   -2.7712   -1.6000    0.0000 O   0  0  0  0  0  0  0  0  0  0  0  0
  1  2  1  0  0  0  0
  2  3  1  0  0  0  0
  2  4  1  0  0  0  0
  2  5  1  0  0  0  0
  5  6  1  0  0  0  0
  5  7  1  0  0  0  0
  5  8  1  0  0  0  0
  8  9  1  0  0  0  0
  8 10  1  0  0  0  0
  8 11  1  0  0  0  0
 11 12  1  0  0  0  0
 11 13  1  0  0  0  0
 11 14  1  0  0  0  0
  1 15  1  0  0  0  0
 15 16  1  0  0  0  0
 16 17  1  0  0  0  0
 16 18  1  0  0  0  0
 16 19  1  0  0  0  0
 19 20  1  0  0  0  0
 19 21  1  0  0  0  0
 19 22  1  0  0  0  0
  1 23  2  0  0  0  0
M  END
> <ChemID>
100333

> <source_casrn>
539-82-2

> <CAS>
539-82-2

> <SMILES>
CCCCC(=O)OCC

> <NAME>
ETHYL VALERATE

> <preferred_name>
Ethyl valerate

> <iupac>
ethyl pentanoate

> <MPID>
99607

> <dsstox_substance_id>
DTXSID6040161

> <Canonical_QSARr>
CCCCC(=O)OCC

> <InChI_Code_QSARr>
InChI=1S/C7H14O2/c1-3-5-6-7(8)9-4-2/h3-6H2,1-2H3

> <InChI Key_QSARr>
ICMAFTSLXCXHRK-UHFFFAOYSA-N

> <LogKOC>
1.97

$$$$
100335
  -INDIGO-08031722282D

 12 12  0  0  0  0  0  0  0  0999 V2000
    0.8000    1.3856    0.0000 Cl  0  0  0  0  0  0  0  0  0  0  0  0
   -0.0000   -0.0000    0.0000 C   0  0  0  0  0  0  0  0  0  0  0  0
    0.8000   -1.3857    0.0000 C   0  0  0  0  0  0  0  0  0  0  0  0
    2.4000   -1.3857    0.0000 H   0  0  0  0  0  0  0  0  0  0  0  0
   -0.0000   -2.7713    0.0000 C   0  0  0  0  0  0  0  0  0  0  0  0
    0.8000   -4.1569    0.0000 Cl  0  0  0  0  0  0  0  0  0  0  0  0
   -1.6000   -2.7713    0.0000 C   0  0  0  0  0  0  0  0  0  0  0  0
   -2.4000   -4.1569    0.0000 H   0  0  0  0  0  0  0  0  0  0  0  0
   -2.4000   -1.3856    0.0000 C   0  0  0  0  0  0  0  0  0  0  0  0
   -4.0000   -1.3856    0.0000 H   0  0  0  0  0  0  0  0  0  0  0  0
   -1.6000   -0.0000    0.0000 C   0  0  0  0  0  0  0  0  0  0  0  0
   -2.4000    1.3856    0.0000 H   0  0  0  0  0  0  0  0  0  0  0  0
  1  2  1  0  0  0  0
  2  3  1  0  0  0  0
  3  4  1  0  0  0  0
  3  5  2  0  0  0  0
  5  6  1  0  0  0  0
  5  7  1  0  0  0  0
  7  8  1  0  0  0  0
  7  9  2  0  0  0  0
  9 10  1  0  0  0  0
  9 11  1  0  0  0  0
 11  2  2  0  0  0  0
 11 12  1  0  0  0  0
M  END
> <ChemID>
100335

> <source_casrn>
541-73-1

> <CAS>
541-73-1

> <SMILES>
c(cccc1Cl)(c1)Cl

> <NAME>
3-DICHLOROBENZENE

> <preferred_name>
1,3-Dichlorobenzene

> <iupac>
1,3-dichlorobenzene

> <MPID>
99609

> <dsstox_substance_id>
DTXSID6022056

> <Canonical_QSARr>
Clc1cc(Cl)ccc1

> <InChI_Code_QSARr>
InChI=1S/C6H4Cl2/c7-5-2-1-3-6(8)4-5/h1-4H

> <InChI Key_QSARr>
ZPQOPVIELGIULI-UHFFFAOYSA-N

> <LogKOC>
2.58

$$$$
100336
  -INDIGO-08031722282D

  9  8  0  0  0  0  0  0  0  0999 V2000
    1.3857   -0.8000    0.0000 C   0  0  0  0  0  0  0  0  0  0  0  0
    1.3857   -2.4000    0.0000 H   0  0  0  0  0  0  0  0  0  0  0  0
    2.7713    0.0000    0.0000 C   0  0  0  0  0  0  0  0  0  0  0  0
    4.1569   -0.8000    0.0000 H   0  0  0  0  0  0  0  0  0  0  0  0
    2.7713    1.6000    0.0000 Cl  0  0  0  0  0  0  0  0  0  0  0  0
    0.0000    0.0000    0.0000 C   0  0  0  0  0  0  0  0  0  0  0  0
   -1.3856    0.8000    0.0000 H   0  0  0  0  0  0  0  0  0  0  0  0
    0.0000    1.6000    0.0000 H   0  0  0  0  0  0  0  0  0  0  0  0
   -1.3856   -0.8000    0.0000 Cl  0  0  0  0  0  0  0  0  0  0  0  0
  1  2  1  0  0  0  0
  1  3  2  0  0  0  0
  3  4  1  0  0  0  0
  3  5  1  0  0  0  0
  1  6  1  0  0  0  0
  6  7  1  0  0  0  0
  6  8  1  0  0  0  0
  6  9  1  0  0  0  0
M  END
> <ChemID>
100336

> <source_casrn>
542-75-6|10061-02-6

> <CAS>
542-75-6|10061-02-6

> <SMILES>
C(=CCl)CCl

> <NAME>
1,3-DICHLOROPROPENE (isomer mix), 1,3-DICHLOROPROPENE (TRANS)

> <preferred_name>
1,3-Dichloropropene

> <iupac>
1,3-dichloroprop-1-ene

> <MPID>
99610|99798

> <dsstox_substance_id>
DTXSID1022057|DTXSID2042480

> <Canonical_QSARr>
ClC=CCCl

> <InChI_Code_QSARr>
InChI=1S/C3H4Cl2/c4-2-1-3-5/h1-2H,3H2/b2-1-

> <InChI Key_QSARr>
UOORRWUZONOOLO-UPHRSURJSA-N

> <LogKOC>
1.665

$$$$
100337
  -INDIGO-08031722282D

 14 14  0  0  0  0  0  0  0  0999 V2000
    0.0000    2.7713    0.0000 Cl  0  0  0  0  0  0  0  0  0  0  0  0
    0.8000    1.3856    0.0000 C   0  0  0  0  0  0  0  0  0  0  0  0
    2.4000    1.3856    0.0000 C   0  0  0  0  0  0  0  0  0  0  0  0
    3.2000    2.7713    0.0000 H   0  0  0  0  0  0  0  0  0  0  0  0
    3.2000   -0.0000    0.0000 C   0  0  0  0  0  0  0  0  0  0  0  0
    4.8000    0.0000    0.0000 Cl  0  0  0  0  0  0  0  0  0  0  0  0
    2.4000   -1.3856    0.0000 C   0  0  0  0  0  0  0  0  0  0  0  0
    3.2000   -2.7713    0.0000 H   0  0  0  0  0  0  0  0  0  0  0  0
    0.8000   -1.3856    0.0000 C   0  0  0  0  0  0  0  0  0  0  0  0
    0.0000   -2.7713    0.0000 H   0  0  0  0  0  0  0  0  0  0  0  0
    0.0000   -0.0000    0.0000 C   0  0  0  0  0  0  0  0  0  0  0  0
   -1.6000    0.0000    0.0000 N   0  0  0  0  0  0  0  0  0  0  0  0
   -2.4000   -1.3856    0.0000 H   0  0  0  0  0  0  0  0  0  0  0  0
   -2.4000    1.3856    0.0000 H   0  0  0  0  0  0  0  0  0  0  0  0
  1  2  1  0  0  0  0
  2  3  1  0  0  0  0
  3  4  1  0  0  0  0
  3  5  2  0  0  0  0
  5  6  1  0  0  0  0
  5  7  1  0  0  0  0
  7  8  1  0  0  0  0
  7  9  2  0  0  0  0
  9 10  1  0  0  0  0
  9 11  1  0  0  0  0
 11  2  2  0  0  0  0
 11 12  1  0  0  0  0
 12 13  1  0  0  0  0
 12 14  1  0  0  0  0
M  END
> <ChemID>
100337

> <source_casrn>
554-00-7

> <CAS>
554-00-7

> <SMILES>
Nc1ccc(Cl)cc1Cl

> <NAME>
2,4-DICHLOROANILINE

> <preferred_name>
2,4-Dichloroaniline

> <iupac>
2,4-dichloroaniline

> <MPID>
99611

> <dsstox_substance_id>
DTXSID1024966

> <Canonical_QSARr>
Nc1ccc(Cl)cc1Cl

> <InChI_Code_QSARr>
InChI=1S/C6H5Cl2N/c7-4-1-2-6(9)5(8)3-4/h1-3H,9H2

> <InChI Key_QSARr>
KQCMTOWTPBNWDB-UHFFFAOYSA-N

> <LogKOC>
2.72

$$$$
100339
  -INDIGO-08031722282D

  7  6  0  0  0  0  0  0  0  0999 V2000
   -0.0000    0.0000    0.0000 C   0  0  0  0  0  0  0  0  0  0  0  0
    1.3856    0.8000    0.0000 H   0  0  0  0  0  0  0  0  0  0  0  0
   -0.0000    1.6000    0.0000 H   0  0  0  0  0  0  0  0  0  0  0  0
    1.3856   -0.8000    0.0000 H   0  0  0  0  0  0  0  0  0  0  0  0
   -1.3856   -0.8000    0.0000 N   0  0  0  0  0  0  0  0  0  0  0  0
   -2.7713    0.0000    0.0000 C   0  0  0  0  0  0  0  0  0  0  0  0
   -4.1569    0.8000    0.0000 S   0  0  0  0  0  0  0  0  0  0  0  0
  1  2  1  0  0  0  0
  1  3  1  0  0  0  0
  1  4  1  0  0  0  0
  1  5  1  0  0  0  0
  5  6  2  0  0  0  0
  6  7  2  0  0  0  0
M  END
> <ChemID>
100339

> <source_casrn>
556-61-6

> <CAS>
556-61-6

> <SMILES>
CN=C=S

> <NAME>
METHYL ISOTHIOCYANATE

> <preferred_name>
Methyl isothiocyanate

> <iupac>
isothiocyanatomethane

> <MPID>
99613

> <dsstox_substance_id>
DTXSID2027204

> <Canonical_QSARr>
CN=C=S

> <InChI_Code_QSARr>
InChI=1S/C2H3NS/c1-3-2-4/h1H3

> <InChI Key_QSARr>
LGDSHSYDSCRFAB-UHFFFAOYSA-N

> <LogKOC>
0.97

$$$$
100340
  -INDIGO-08031722282D

 41 40  0  0  0  0  0  0  0  0999 V2000
   -0.0001    0.0001    0.0000 P   0  0  0  0  0  0  0  0  0  0  0  0
    1.3856    0.8001    0.0000 S   0  0  0  0  0  0  0  0  0  0  0  0
    2.7712    0.0001    0.0000 C   0  0  0  0  0  0  0  0  0  0  0  0
    3.3836   -1.4782    0.0000 H   0  0  0  0  0  0  0  0  0  0  0  0
    2.1590   -1.4782    0.0000 H   0  0  0  0  0  0  0  0  0  0  0  0
    4.1569    0.8001    0.0000 S   0  0  0  0  0  0  0  0  0  0  0  0
    5.5425    0.0001    0.0000 P   0  0  0  0  0  0  0  0  0  0  0  0
    5.5425   -1.6001    0.0000 S   0  0  0  0  0  0  0  0  0  0  0  0
    6.9282   -0.8001    0.0000 O   0  0  0  0  0  0  0  0  0  0  0  0
    8.3138    0.0001    0.0000 C   0  0  0  0  0  0  0  0  0  0  0  0
    7.7016    1.4782    0.0000 H   0  0  0  0  0  0  0  0  0  0  0  0
    8.9262    1.4782    0.0000 H   0  0  0  0  0  0  0  0  0  0  0  0
    9.6995   -0.8001    0.0000 C   0  0  0  0  0  0  0  0  0  0  0  0
   11.0851   -1.6001    0.0000 H   0  0  0  0  0  0  0  0  0  0  0  0
   11.0851    0.0001    0.0000 H   0  0  0  0  0  0  0  0  0  0  0  0
    9.6995   -2.4000    0.0000 H   0  0  0  0  0  0  0  0  0  0  0  0
    6.9282    0.8001    0.0000 O   0  0  0  0  0  0  0  0  0  0  0  0
    6.9282    2.4000    0.0000 C   0  0  0  0  0  0  0  0  0  0  0  0
    5.3420    2.6089    0.0000 H   0  0  0  0  0  0  0  0  0  0  0  0
    5.9541    3.6693    0.0000 H   0  0  0  0  0  0  0  0  0  0  0  0
    8.3138    3.2000    0.0000 C   0  0  0  0  0  0  0  0  0  0  0  0
    9.6995    4.0000    0.0000 H   0  0  0  0  0  0  0  0  0  0  0  0
    8.3138    4.8000    0.0000 H   0  0  0  0  0  0  0  0  0  0  0  0
    9.6995    2.4000    0.0000 H   0  0  0  0  0  0  0  0  0  0  0  0
   -1.3857    0.8001    0.0000 S   0  0  0  0  0  0  0  0  0  0  0  0
   -0.0001    1.6001    0.0000 O   0  0  0  0  0  0  0  0  0  0  0  0
   -1.3857    2.4000    0.0000 C   0  0  0  0  0  0  0  0  0  0  0  0
   -2.3596    1.1306    0.0000 H   0  0  0  0  0  0  0  0  0  0  0  0
   -2.9720    2.1912    0.0000 H   0  0  0  0  0  0  0  0  0  0  0  0
   -1.3857    4.0000    0.0000 C   0  0  0  0  0  0  0  0  0  0  0  0
   -1.3857    5.6000    0.0000 H   0  0  0  0  0  0  0  0  0  0  0  0
   -2.7712    4.8000    0.0000 H   0  0  0  0  0  0  0  0  0  0  0  0
   -0.0001    4.8000    0.0000 H   0  0  0  0  0  0  0  0  0  0  0  0
   -0.0001   -1.6001    0.0000 O   0  0  0  0  0  0  0  0  0  0  0  0
   -1.3857   -2.4000    0.0000 C   0  0  0  0  0  0  0  0  0  0  0  0
   -2.9720   -2.1912    0.0000 H   0  0  0  0  0  0  0  0  0  0  0  0
   -2.3596   -1.1306    0.0000 H   0  0  0  0  0  0  0  0  0  0  0  0
   -1.3857   -4.0000    0.0000 C   0  0  0  0  0  0  0  0  0  0  0  0
   -1.3857   -5.6000    0.0000 H   0  0  0  0  0  0  0  0  0  0  0  0
   -2.7712   -4.8000    0.0000 H   0  0  0  0  0  0  0  0  0  0  0  0
   -0.0001   -4.8000    0.0000 H   0  0  0  0  0  0  0  0  0  0  0  0
  1  2  1  0  0  0  0
  2  3  1  0  0  0  0
  3  4  1  0  0  0  0
  3  5  1  0  0  0  0
  3  6  1  0  0  0  0
  6  7  1  0  0  0  0
  7  8  2  0  0  0  0
  7  9  1  0  0  0  0
  9 10  1  0  0  0  0
 10 11  1  0  0  0  0
 10 12  1  0  0  0  0
 10 13  1  0  0  0  0
 13 14  1  0  0  0  0
 13 15  1  0  0  0  0
 13 16  1  0  0  0  0
  7 17  1  0  0  0  0
 17 18  1  0  0  0  0
 18 19  1  0  0  0  0
 18 20  1  0  0  0  0
 18 21  1  0  0  0  0
 21 22  1  0  0  0  0
 21 23  1  0  0  0  0
 21 24  1  0  0  0  0
  1 25  2  0  0  0  0
  1 26  1  0  0  0  0
 26 27  1  0  0  0  0
 27 28  1  0  0  0  0
 27 29  1  0  0  0  0
 27 30  1  0  0  0  0
 30 31  1  0  0  0  0
 30 32  1  0  0  0  0
 30 33  1  0  0  0  0
  1 34  1  0  0  0  0
 34 35  1  0  0  0  0
 35 36  1  0  0  0  0
 35 37  1  0  0  0  0
 35 38  1  0  0  0  0
 38 39  1  0  0  0  0
 38 40  1  0  0  0  0
 38 41  1  0  0  0  0
M  END
> <ChemID>
100340

> <source_casrn>
563-12-2

> <CAS>
563-12-2

> <SMILES>
CCOP(=S)(OCC)SCSP(=S)(OCC)OCC

> <NAME>
ETHION

> <preferred_name>
Ethion

> <iupac>
O,O,O',O'-tetraethyl S,S'-methanediyl bis(phosphorodithioate)

> <MPID>
99614

> <dsstox_substance_id>
DTXSID2024086

> <Canonical_QSARr>
CCOP(=S)(OCC)SCSP(=S)(OCC)OCC

> <InChI_Code_QSARr>
InChI=1S/C9H22O4P2S4/c1-5-10-14(16,11-6-2)18-9-19-15(17,12-7-3)13-8-4/h5-9H2,1-4H3

> <InChI Key_QSARr>
RIZMRRKBZQXFOY-UHFFFAOYSA-N

> <LogKOC>
4.06

$$$$
100341
  -INDIGO-08031722282D

 13 13  0  0  0  0  0  0  0  0999 V2000
    2.4000    1.3856    0.0000 Cl  0  0  0  0  0  0  0  0  0  0  0  0
    1.6000   -0.0000    0.0000 C   0  0  0  0  0  0  0  0  0  0  0  0
    2.4000   -1.3857    0.0000 C   0  0  0  0  0  0  0  0  0  0  0  0
    4.0000   -1.3857    0.0000 Cl  0  0  0  0  0  0  0  0  0  0  0  0
    1.6000   -2.7713    0.0000 C   0  0  0  0  0  0  0  0  0  0  0  0
    2.4000   -4.1569    0.0000 H   0  0  0  0  0  0  0  0  0  0  0  0
    0.0000   -2.7713    0.0000 C   0  0  0  0  0  0  0  0  0  0  0  0
   -0.8000   -4.1569    0.0000 H   0  0  0  0  0  0  0  0  0  0  0  0
   -0.8000   -1.3856    0.0000 C   0  0  0  0  0  0  0  0  0  0  0  0
   -2.4000   -1.3856    0.0000 H   0  0  0  0  0  0  0  0  0  0  0  0
    0.0000   -0.0000    0.0000 C   0  0  0  0  0  0  0  0  0  0  0  0
   -0.8000    1.3856    0.0000 O   0  0  0  0  0  0  0  0  0  0  0  0
   -2.4000    1.3856    0.0000 H   0  0  0  0  0  0  0  0  0  0  0  0
  1  2  1  0  0  0  0
  2  3  1  0  0  0  0
  3  4  1  0  0  0  0
  3  5  2  0  0  0  0
  5  6  1  0  0  0  0
  5  7  1  0  0  0  0
  7  8  1  0  0  0  0
  7  9  2  0  0  0  0
  9 10  1  0  0  0  0
  9 11  1  0  0  0  0
 11  2  2  0  0  0  0
 11 12  1  0  0  0  0
 12 13  1  0  0  0  0
M  END
> <ChemID>
100341

> <source_casrn>
576-24-9

> <CAS>
576-24-9

> <SMILES>
Oc1cccc(Cl)c1Cl

> <NAME>
2,3-DICHLOROPHENOL

> <preferred_name>
2,3-Dichlorophenol

> <iupac>
2,3-dichlorophenol

> <MPID>
99615

> <dsstox_substance_id>
DTXSID7025001

> <Canonical_QSARr>
Oc1cccc(Cl)c1Cl

> <InChI_Code_QSARr>
InChI=1S/C6H4Cl2O/c7-4-2-1-3-5(9)6(4)8/h1-3,9H

> <InChI Key_QSARr>
UMPSXRYVXUPCOS-UHFFFAOYSA-N

> <LogKOC>
2.66

$$$$
100343
  -INDIGO-08031722282D

 24 24  0  0  0  0  0  0  0  0999 V2000
   -4.1569   -0.7999    0.0000 C   0  0  0  0  0  0  0  0  0  0  0  0
   -2.7712    0.0000    0.0000 N   0  0  0  0  0  0  0  0  0  0  0  0
   -2.7714    1.6000    0.0000 H   0  0  0  0  0  0  0  0  0  0  0  0
   -1.3857   -0.7999    0.0000 C   0  0  0  0  0  0  0  0  0  0  0  0
   -0.0000    0.0000    0.0000 N   0  0  0  0  0  0  0  0  0  0  0  0
    1.3856   -0.7999    0.0000 C   0  0  0  0  0  0  0  0  0  0  0  0
    2.7713   -1.6000    0.0000 H   0  0  0  0  0  0  0  0  0  0  0  0
    2.7713    0.0000    0.0000 H   0  0  0  0  0  0  0  0  0  0  0  0
    1.3856   -2.3999    0.0000 H   0  0  0  0  0  0  0  0  0  0  0  0
   -0.0000    1.6000    0.0000 C   0  0  0  0  0  0  0  0  0  0  0  0
   -0.0000    3.2000    0.0000 H   0  0  0  0  0  0  0  0  0  0  0  0
    1.3856    2.4001    0.0000 H   0  0  0  0  0  0  0  0  0  0  0  0
   -1.3857    2.4001    0.0000 H   0  0  0  0  0  0  0  0  0  0  0  0
   -1.3857   -2.3999    0.0000 O   0  0  0  0  0  0  0  0  0  0  0  0
   -4.1569   -2.4001    0.0000 C   0  0  0  0  0  0  0  0  0  0  0  0
   -2.7712   -3.2000    0.0000 H   0  0  0  0  0  0  0  0  0  0  0  0
   -5.5425   -3.2000    0.0000 C   0  0  0  0  0  0  0  0  0  0  0  0
   -5.5425   -4.8000    0.0000 Cl  0  0  0  0  0  0  0  0  0  0  0  0
   -6.9282   -2.3999    0.0000 C   0  0  0  0  0  0  0  0  0  0  0  0
   -8.3138   -3.2000    0.0000 H   0  0  0  0  0  0  0  0  0  0  0  0
   -6.9282   -0.7999    0.0000 C   0  0  0  0  0  0  0  0  0  0  0  0
   -8.3138    0.0000    0.0000 H   0  0  0  0  0  0  0  0  0  0  0  0
   -5.5425    0.0000    0.0000 C   0  0  0  0  0  0  0  0  0  0  0  0
   -5.5425    1.6000    0.0000 H   0  0  0  0  0  0  0  0  0  0  0  0
  1  2  1  0  0  0  0
  2  3  1  0  0  0  0
  2  4  1  0  0  0  0
  4  5  1  0  0  0  0
  5  6  1  0  0  0  0
  6  7  1  0  0  0  0
  6  8  1  0  0  0  0
  6  9  1  0  0  0  0
  5 10  1  0  0  0  0
 10 11  1  0  0  0  0
 10 12  1  0  0  0  0
 10 13  1  0  0  0  0
  4 14  2  0  0  0  0
  1 15  1  0  0  0  0
 15 16  1  0  0  0  0
 15 17  2  0  0  0  0
 17 18  1  0  0  0  0
 17 19  1  0  0  0  0
 19 20  1  0  0  0  0
 19 21  2  0  0  0  0
 21 22  1  0  0  0  0
 21 23  1  0  0  0  0
 23  1  2  0  0  0  0
 23 24  1  0  0  0  0
M  END
> <ChemID>
100343

> <source_casrn>
587-34-8

> <CAS>
587-34-8

> <SMILES>
CN(C)C(=O)Nc1cccc(Cl)c1

> <NAME>
1,1-DIMETHYL-3(M-CHLOROPHENYL)

> <preferred_name>
Urea, N'-(3-chlorophenyl)-N,N-dimethyl-

> <iupac>
3-(3-chlorophenyl)-1,1-dimethylurea

> <MPID>
99617

> <dsstox_substance_id>
DTXSID2074667

> <Canonical_QSARr>
CN(C)C(=O)Nc1cccc(Cl)c1

> <InChI_Code_QSARr>
InChI=1S/C9H11ClN2O/c1-12(2)9(13)11-8-5-3-4-7(10)6-8/h3-6H,1-2H3,(H,11,13)

> <InChI Key_QSARr>
QLQDWOFJALEHSP-UHFFFAOYSA-N

> <LogKOC>
1.79

$$$$
100344
  -INDIGO-08031722282D

 19 19  0  0  0  0  0  0  0  0999 V2000
   -0.0001   -0.0000    0.0000 C   0  0  0  0  0  0  0  0  0  0  0  0
   -0.0001   -1.6000    0.0000 C   0  0  0  0  0  0  0  0  0  0  0  0
    1.3857   -2.4000    0.0000 H   0  0  0  0  0  0  0  0  0  0  0  0
   -1.3857   -2.4000    0.0000 C   0  0  0  0  0  0  0  0  0  0  0  0
   -1.3857   -4.0000    0.0000 Cl  0  0  0  0  0  0  0  0  0  0  0  0
   -2.7713   -1.6000    0.0000 C   0  0  0  0  0  0  0  0  0  0  0  0
   -4.1569   -2.4000    0.0000 H   0  0  0  0  0  0  0  0  0  0  0  0
   -2.7713   -0.0000    0.0000 C   0  0  0  0  0  0  0  0  0  0  0  0
   -4.1569    0.8000    0.0000 H   0  0  0  0  0  0  0  0  0  0  0  0
   -1.3857    0.8000    0.0000 C   0  0  0  0  0  0  0  0  0  0  0  0
   -1.3857    2.4000    0.0000 H   0  0  0  0  0  0  0  0  0  0  0  0
    1.3857    0.8000    0.0000 N   0  0  0  0  0  0  0  0  0  0  0  0
    1.3857    2.4000    0.0000 H   0  0  0  0  0  0  0  0  0  0  0  0
    2.7713   -0.0000    0.0000 C   0  0  0  0  0  0  0  0  0  0  0  0
    4.1569    0.8000    0.0000 C   0  0  0  0  0  0  0  0  0  0  0  0
    5.5426    1.6000    0.0000 H   0  0  0  0  0  0  0  0  0  0  0  0
    5.5426   -0.0000    0.0000 H   0  0  0  0  0  0  0  0  0  0  0  0
    4.1569    2.4000    0.0000 H   0  0  0  0  0  0  0  0  0  0  0  0
    2.7713   -1.6000    0.0000 O   0  0  0  0  0  0  0  0  0  0  0  0
  1  2  1  0  0  0  0
  2  3  1  0  0  0  0
  2  4  2  0  0  0  0
  4  5  1  0  0  0  0
  4  6  1  0  0  0  0
  6  7  1  0  0  0  0
  6  8  2  0  0  0  0
  8  9  1  0  0  0  0
  8 10  1  0  0  0  0
 10  1  2  0  0  0  0
 10 11  1  0  0  0  0
  1 12  1  0  0  0  0
 12 13  1  0  0  0  0
 12 14  1  0  0  0  0
 14 15  1  0  0  0  0
 15 16  1  0  0  0  0
 15 17  1  0  0  0  0
 15 18  1  0  0  0  0
 14 19  2  0  0  0  0
M  END
> <ChemID>
100344

> <source_casrn>
588-07-8

> <CAS>
588-07-8

> <SMILES>
CC(=O)Nc1cccc(Cl)c1

> <NAME>
3-CHLOROACETANILIDE

> <preferred_name>
Acetamide, N-(3-chlorophenyl)-

> <iupac>
N-(3-Chlorophenyl)acetamide

> <MPID>
99618

> <dsstox_substance_id>
DTXSID6060420

> <Canonical_QSARr>
CC(=O)Nc1cccc(Cl)c1

> <InChI_Code_QSARr>
InChI=1S/C8H8ClNO/c1-6(11)10-8-4-2-3-7(9)5-8/h2-5H,1H3,(H,10,11)

> <InChI Key_QSARr>
MUUQHCOAOLLHIL-UHFFFAOYSA-N

> <LogKOC>
1.86

$$$$
100345
  -INDIGO-08031722282D

 13 13  0  0  0  0  0  0  0  0999 V2000
   -0.0000   -0.0000    0.0000 C   0  0  0  0  0  0  0  0  0  0  0  0
    0.8000   -1.3857    0.0000 C   0  0  0  0  0  0  0  0  0  0  0  0
    2.4000   -1.3857    0.0000 H   0  0  0  0  0  0  0  0  0  0  0  0
   -0.0000   -2.7713    0.0000 C   0  0  0  0  0  0  0  0  0  0  0  0
    0.8000   -4.1569    0.0000 Cl  0  0  0  0  0  0  0  0  0  0  0  0
   -1.6000   -2.7713    0.0000 C   0  0  0  0  0  0  0  0  0  0  0  0
   -2.4000   -4.1569    0.0000 H   0  0  0  0  0  0  0  0  0  0  0  0
   -2.4000   -1.3856    0.0000 C   0  0  0  0  0  0  0  0  0  0  0  0
   -4.0000   -1.3856    0.0000 Cl  0  0  0  0  0  0  0  0  0  0  0  0
   -1.6000   -0.0000    0.0000 C   0  0  0  0  0  0  0  0  0  0  0  0
   -2.4000    1.3856    0.0000 H   0  0  0  0  0  0  0  0  0  0  0  0
    0.8000    1.3856    0.0000 O   0  0  0  0  0  0  0  0  0  0  0  0
    2.4000    1.3856    0.0000 H   0  0  0  0  0  0  0  0  0  0  0  0
  1  2  1  0  0  0  0
  2  3  1  0  0  0  0
  2  4  2  0  0  0  0
  4  5  1  0  0  0  0
  4  6  1  0  0  0  0
  6  7  1  0  0  0  0
  6  8  2  0  0  0  0
  8  9  1  0  0  0  0
  8 10  1  0  0  0  0
 10  1  2  0  0  0  0
 10 11  1  0  0  0  0
  1 12  1  0  0  0  0
 12 13  1  0  0  0  0
M  END
> <ChemID>
100345

> <source_casrn>
591-35-5

> <CAS>
591-35-5

> <SMILES>
Oc1cc(Cl)cc(Cl)c1

> <NAME>
3,5-DICHLOROPHENOL

> <preferred_name>
3,5-Dichlorophenol

> <iupac>
3,5-dichlorophenol

> <MPID>
99619

> <dsstox_substance_id>
DTXSID2025006

> <Canonical_QSARr>
Oc1cc(Cl)cc(Cl)c1

> <InChI_Code_QSARr>
InChI=1S/C6H4Cl2O/c7-4-1-5(8)3-6(9)2-4/h1-3,9H

> <InChI Key_QSARr>
VPOMSPZBQMDLTM-UHFFFAOYSA-N

> <LogKOC>
2.83

$$$$
100347
  -INDIGO-08031722282D

  9  8  0  0  0  0  0  0  0  0999 V2000
   -1.3856   -0.8000    0.0000 Cl  0  0  0  0  0  0  0  0  0  0  0  0
    0.0000    0.0000    0.0000 C   0  0  0  0  0  0  0  0  0  0  0  0
   -1.3856    0.8000    0.0000 Cl  0  0  0  0  0  0  0  0  0  0  0  0
    0.0000    1.6000    0.0000 Cl  0  0  0  0  0  0  0  0  0  0  0  0
    1.3857   -0.8000    0.0000 C   0  0  0  0  0  0  0  0  0  0  0  0
    2.7713    0.0000    0.0000 N   0  0  0  0  0  0  0  0  0  0  0  0
    4.1569   -0.8000    0.0000 H   0  0  0  0  0  0  0  0  0  0  0  0
    2.7713    1.6000    0.0000 H   0  0  0  0  0  0  0  0  0  0  0  0
    1.3857   -2.4000    0.0000 O   0  0  0  0  0  0  0  0  0  0  0  0
  1  2  1  0  0  0  0
  2  3  1  0  0  0  0
  2  4  1  0  0  0  0
  2  5  1  0  0  0  0
  5  6  1  0  0  0  0
  6  7  1  0  0  0  0
  6  8  1  0  0  0  0
  5  9  2  0  0  0  0
M  END
> <ChemID>
100347

> <source_casrn>
594-65-0

> <CAS>
594-65-0

> <SMILES>
NC(=O)C(Cl)(Cl)Cl

> <NAME>
TRICHLOROACETAMIDE

> <preferred_name>
2,2,2-Trichloroacetamide

> <iupac>
2,2,2-trichloroacetamide

> <MPID>
99621

> <dsstox_substance_id>
DTXSID5021671

> <Canonical_QSARr>
NC(=O)C(Cl)(Cl)Cl

> <InChI_Code_QSARr>
InChI=1S/C2H2Cl3NO/c3-2(4,5)1(6)7/h(H2,6,7)

> <InChI Key_QSARr>
UPQQXPKAYZYUKO-UHFFFAOYSA-N

> <LogKOC>
0.99

$$$$
100348
  -INDIGO-08031722282D

 34 36  0  0  0  0  0  0  0  0999 V2000
   -0.4812    2.7292    0.0000 C   0  0  0  0  0  0  0  0  0  0  0  0
    1.1187    2.7292    0.0000 H   0  0  0  0  0  0  0  0  0  0  0  0
   -1.5097    3.9548    0.0000 C   0  0  0  0  0  0  0  0  0  0  0  0
   -0.9625    5.4584    0.0000 H   0  0  0  0  0  0  0  0  0  0  0  0
   -3.0854    3.6770    0.0000 C   0  0  0  0  0  0  0  0  0  0  0  0
   -4.1139    4.9027    0.0000 H   0  0  0  0  0  0  0  0  0  0  0  0
   -3.6325    2.1734    0.0000 C   0  0  0  0  0  0  0  0  0  0  0  0
   -5.2083    1.8956    0.0000 H   0  0  0  0  0  0  0  0  0  0  0  0
   -2.6042    0.9479    0.0000 C   0  0  0  0  0  0  0  0  0  0  0  0
   -2.8820   -0.6279    0.0000 H   0  0  0  0  0  0  0  0  0  0  0  0
   -1.0285    1.2257    0.0000 C   0  0  0  0  0  0  0  0  0  0  0  0
    0.0000   -0.0001    0.0000 N   0  0  0  0  0  0  0  0  0  0  0  0
    1.5035    0.5472    0.0000 C   0  0  0  0  0  0  0  0  0  0  0  0
    2.7291   -0.4811    0.0000 C   0  0  0  0  0  0  0  0  0  0  0  0
    2.4513   -2.0569    0.0000 H   0  0  0  0  0  0  0  0  0  0  0  0
    4.2328    0.0661    0.0000 C   0  0  0  0  0  0  0  0  0  0  0  0
    5.4584   -0.9624    0.0000 H   0  0  0  0  0  0  0  0  0  0  0  0
    4.5105    1.6417    0.0000 C   0  0  0  0  0  0  0  0  0  0  0  0
    6.0140    2.1889    0.0000 H   0  0  0  0  0  0  0  0  0  0  0  0
    3.2848    2.6702    0.0000 C   0  0  0  0  0  0  0  0  0  0  0  0
    3.5627    4.2459    0.0000 H   0  0  0  0  0  0  0  0  0  0  0  0
    1.7813    2.1229    0.0000 C   0  0  0  0  0  0  0  0  0  0  0  0
    1.2342    3.6265    0.0000 H   0  0  0  0  0  0  0  0  0  0  0  0
   -0.8000   -1.3856    0.0000 C   0  0  0  0  0  0  0  0  0  0  0  0
    0.0000   -2.7713    0.0000 C   0  0  0  0  0  0  0  0  0  0  0  0
    1.5999   -2.7713    0.0000 H   0  0  0  0  0  0  0  0  0  0  0  0
   -0.8000   -4.1569    0.0000 C   0  0  0  0  0  0  0  0  0  0  0  0
    0.0000   -5.5426    0.0000 H   0  0  0  0  0  0  0  0  0  0  0  0
   -2.3999   -4.1569    0.0000 C   0  0  0  0  0  0  0  0  0  0  0  0
   -3.2000   -5.5426    0.0000 H   0  0  0  0  0  0  0  0  0  0  0  0
   -3.2000   -2.7713    0.0000 C   0  0  0  0  0  0  0  0  0  0  0  0
   -4.8001   -2.7713    0.0000 H   0  0  0  0  0  0  0  0  0  0  0  0
   -2.3999   -1.3856    0.0000 C   0  0  0  0  0  0  0  0  0  0  0  0
   -3.7856   -0.5856    0.0000 H   0  0  0  0  0  0  0  0  0  0  0  0
  1  2  1  0  0  0  0
  1  3  1  0  0  0  0
  3  4  1  0  0  0  0
  3  5  2  0  0  0  0
  5  6  1  0  0  0  0
  5  7  1  0  0  0  0
  7  8  1  0  0  0  0
  7  9  2  0  0  0  0
  9 10  1  0  0  0  0
  9 11  1  0  0  0  0
 11  1  2  0  0  0  0
 11 12  1  0  0  0  0
 12 13  1  0  0  0  0
 13 14  1  0  0  0  0
 14 15  1  0  0  0  0
 14 16  2  0  0  0  0
 16 17  1  0  0  0  0
 16 18  1  0  0  0  0
 18 19  1  0  0  0  0
 18 20  2  0  0  0  0
 20 21  1  0  0  0  0
 20 22  1  0  0  0  0
 22 13  2  0  0  0  0
 22 23  1  0  0  0  0
 12 24  1  0  0  0  0
 24 25  1  0  0  0  0
 25 26  1  0  0  0  0
 25 27  2  0  0  0  0
 27 28  1  0  0  0  0
 27 29  1  0  0  0  0
 29 30  1  0  0  0  0
 29 31  2  0  0  0  0
 31 32  1  0  0  0  0
 31 33  1  0  0  0  0
 33 24  2  0  0  0  0
 33 34  1  0  0  0  0
M  END
> <ChemID>
100348

> <source_casrn>
603-34-9

> <CAS>
603-34-9

> <SMILES>
c1ccccc1N(c1ccccc1)c1ccccc1

> <NAME>
TRIPHENYLAMINE

> <preferred_name>
Triphenylamine

> <iupac>
N,N-diphenylaniline

> <MPID>
99622

> <dsstox_substance_id>
DTXSID4022076

> <Canonical_QSARr>
c1ccccc1N(c1ccccc1)c1ccccc1

> <InChI_Code_QSARr>
InChI=1S/C18H15N/c1-4-10-16(11-5-1)19(17-12-6-2-7-13-17)18-14-8-3-9-15-18/h1-15H

> <InChI Key_QSARr>
ODHXBMXNKOYIBV-UHFFFAOYSA-N

> <LogKOC>
2.26

$$$$
100349
  -INDIGO-08031722282D

 14 14  0  0  0  0  0  0  0  0999 V2000
    1.6000   -0.0000    0.0000 N   0  0  0  0  0  0  0  0  0  0  0  0
    2.4000    1.3856    0.0000 H   0  0  0  0  0  0  0  0  0  0  0  0
    2.4000   -1.3856    0.0000 H   0  0  0  0  0  0  0  0  0  0  0  0
    0.0000   -0.0000    0.0000 C   0  0  0  0  0  0  0  0  0  0  0  0
   -0.8000    1.3856    0.0000 C   0  0  0  0  0  0  0  0  0  0  0  0
    0.0000    2.7713    0.0000 Cl  0  0  0  0  0  0  0  0  0  0  0  0
   -2.4000    1.3856    0.0000 C   0  0  0  0  0  0  0  0  0  0  0  0
   -3.2000    2.7713    0.0000 H   0  0  0  0  0  0  0  0  0  0  0  0
   -3.2000   -0.0000    0.0000 C   0  0  0  0  0  0  0  0  0  0  0  0
   -4.8000   -0.0000    0.0000 H   0  0  0  0  0  0  0  0  0  0  0  0
   -2.4000   -1.3856    0.0000 C   0  0  0  0  0  0  0  0  0  0  0  0
   -3.2000   -2.7713    0.0000 H   0  0  0  0  0  0  0  0  0  0  0  0
   -0.8000   -1.3856    0.0000 C   0  0  0  0  0  0  0  0  0  0  0  0
    0.0000   -2.7713    0.0000 Cl  0  0  0  0  0  0  0  0  0  0  0  0
  1  2  1  0  0  0  0
  1  3  1  0  0  0  0
  1  4  1  0  0  0  0
  4  5  1  0  0  0  0
  5  6  1  0  0  0  0
  5  7  2  0  0  0  0
  7  8  1  0  0  0  0
  7  9  1  0  0  0  0
  9 10  1  0  0  0  0
  9 11  2  0  0  0  0
 11 12  1  0  0  0  0
 11 13  1  0  0  0  0
 13  4  2  0  0  0  0
 13 14  1  0  0  0  0
M  END
> <ChemID>
100349

> <source_casrn>
608-31-1

> <CAS>
608-31-1

> <SMILES>
Nc1c(Cl)cccc1Cl

> <NAME>
2,6-DICHLOROANILINE

> <preferred_name>
2,6-Dichloroaniline

> <iupac>
2,6-dichloroaniline

> <MPID>
99623

> <dsstox_substance_id>
DTXSID5044449

> <Canonical_QSARr>
Nc1c(Cl)cccc1Cl

> <InChI_Code_QSARr>
InChI=1S/C6H5Cl2N/c7-4-2-1-3-5(8)6(4)9/h1-3H,9H2

> <InChI Key_QSARr>
JDMFXJULNGEPOI-UHFFFAOYSA-N

> <LogKOC>
3.25

$$$$
100351
  -INDIGO-08031722282D

 13 13  0  0  0  0  0  0  0  0999 V2000
    0.8000    1.3856    0.0000 O   0  0  0  0  0  0  0  0  0  0  0  0
    2.4000    1.3856    0.0000 H   0  0  0  0  0  0  0  0  0  0  0  0
   -0.0000   -0.0000    0.0000 C   0  0  0  0  0  0  0  0  0  0  0  0
    0.8000   -1.3857    0.0000 C   0  0  0  0  0  0  0  0  0  0  0  0
    2.4000   -1.3857    0.0000 H   0  0  0  0  0  0  0  0  0  0  0  0
   -0.0000   -2.7713    0.0000 C   0  0  0  0  0  0  0  0  0  0  0  0
    0.8000   -4.1569    0.0000 Cl  0  0  0  0  0  0  0  0  0  0  0  0
   -1.6000   -2.7713    0.0000 C   0  0  0  0  0  0  0  0  0  0  0  0
   -2.4000   -4.1569    0.0000 Cl  0  0  0  0  0  0  0  0  0  0  0  0
   -2.4000   -1.3856    0.0000 C   0  0  0  0  0  0  0  0  0  0  0  0
   -4.0000   -1.3856    0.0000 Cl  0  0  0  0  0  0  0  0  0  0  0  0
   -1.6000   -0.0000    0.0000 C   0  0  0  0  0  0  0  0  0  0  0  0
   -2.4000    1.3856    0.0000 H   0  0  0  0  0  0  0  0  0  0  0  0
  1  2  1  0  0  0  0
  1  3  1  0  0  0  0
  3  4  1  0  0  0  0
  4  5  1  0  0  0  0
  4  6  2  0  0  0  0
  6  7  1  0  0  0  0
  6  8  1  0  0  0  0
  8  9  1  0  0  0  0
  8 10  2  0  0  0  0
 10 11  1  0  0  0  0
 10 12  1  0  0  0  0
 12  3  2  0  0  0  0
 12 13  1  0  0  0  0
M  END
> <ChemID>
100351

> <source_casrn>
609-19-8

> <CAS>
609-19-8

> <SMILES>
Oc1cc(Cl)c(Cl)c(Cl)c1

> <NAME>
3,4,5-TRICHLOROPHENOL

> <preferred_name>
3,4,5-Trichlorophenol

> <iupac>
C6H3Cl3O

> <MPID>
99625

> <dsstox_substance_id>
DTXSID4026212

> <Canonical_QSARr>
Oc1cc(Cl)c(Cl)c(Cl)c1

> <InChI_Code_QSARr>
InChI=1S/C6H3Cl3O/c7-4-1-3(10)2-5(8)6(4)9/h1-2,10H

> <InChI Key_QSARr>
GBNHEBQXJVDXSW-UHFFFAOYSA-N

> <LogKOC>
3.56

$$$$
100352
  -INDIGO-08031722282D

 16 16  0  0  0  0  0  0  0  0999 V2000
    0.0001   -0.0000    0.0000 C   0  0  0  0  0  0  0  0  0  0  0  0
    0.0001   -1.6000    0.0000 C   0  0  0  0  0  0  0  0  0  0  0  0
    1.3856   -2.4000    0.0000 Cl  0  0  0  0  0  0  0  0  0  0  0  0
   -1.3856   -2.4000    0.0000 C   0  0  0  0  0  0  0  0  0  0  0  0
   -1.3856   -4.0000    0.0000 H   0  0  0  0  0  0  0  0  0  0  0  0
   -2.7712   -1.6000    0.0000 C   0  0  0  0  0  0  0  0  0  0  0  0
   -4.1569   -2.4000    0.0000 H   0  0  0  0  0  0  0  0  0  0  0  0
   -2.7712   -0.0000    0.0000 C   0  0  0  0  0  0  0  0  0  0  0  0
   -4.1569    0.8000    0.0000 H   0  0  0  0  0  0  0  0  0  0  0  0
   -1.3856    0.8000    0.0000 C   0  0  0  0  0  0  0  0  0  0  0  0
   -1.3856    2.4000    0.0000 H   0  0  0  0  0  0  0  0  0  0  0  0
    1.3856    0.8000    0.0000 C   0  0  0  0  0  0  0  0  0  0  0  0
    2.7713   -0.0000    0.0000 N   0  0  0  0  0  0  0  0  0  0  0  0
    4.1569    0.8000    0.0000 H   0  0  0  0  0  0  0  0  0  0  0  0
    2.7713   -1.6000    0.0000 H   0  0  0  0  0  0  0  0  0  0  0  0
    1.3856    2.4000    0.0000 O   0  0  0  0  0  0  0  0  0  0  0  0
  1  2  1  0  0  0  0
  2  3  1  0  0  0  0
  2  4  2  0  0  0  0
  4  5  1  0  0  0  0
  4  6  1  0  0  0  0
  6  7  1  0  0  0  0
  6  8  2  0  0  0  0
  8  9  1  0  0  0  0
  8 10  1  0  0  0  0
 10  1  2  0  0  0  0
 10 11  1  0  0  0  0
  1 12  1  0  0  0  0
 12 13  1  0  0  0  0
 13 14  1  0  0  0  0
 13 15  1  0  0  0  0
 12 16  2  0  0  0  0
M  END
> <ChemID>
100352

> <source_casrn>
609-66-5

> <CAS>
609-66-5

> <SMILES>
NC(=O)c1ccccc1Cl

> <NAME>
2-CHLOROBENZAMIDE

> <preferred_name>
2-Chlorobenzamide

> <iupac>
2-chlorobenzamide

> <MPID>
99626

> <dsstox_substance_id>
DTXSID3052278

> <Canonical_QSARr>
NC(=O)c1ccccc1Cl

> <InChI_Code_QSARr>
InChI=1S/C7H6ClNO/c8-6-4-2-1-3-5(6)7(9)10/h1-4H,(H2,9,10)

> <InChI Key_QSARr>
RBGDLYUEXLWQBZ-UHFFFAOYSA-N

> <LogKOC>
1.51

$$$$
100353
  -INDIGO-08031722282D

 18 18  0  0  0  0  0  0  0  0999 V2000
    0.8000    1.3856    0.0000 C   0  0  0  0  0  0  0  0  0  0  0  0
    2.4000    1.3856    0.0000 N   0  0  0  0  0  0  0  0  0  0  0  0
    3.2000    2.7713    0.0000 H   0  0  0  0  0  0  0  0  0  0  0  0
    3.2000    0.0000    0.0000 H   0  0  0  0  0  0  0  0  0  0  0  0
   -0.0000    2.7713    0.0000 O   0  0  0  0  0  0  0  0  0  0  0  0
   -0.0000    0.0000    0.0000 C   0  0  0  0  0  0  0  0  0  0  0  0
    0.8000   -1.3856    0.0000 C   0  0  0  0  0  0  0  0  0  0  0  0
    2.4000   -1.3856    0.0000 H   0  0  0  0  0  0  0  0  0  0  0  0
   -0.0000   -2.7713    0.0000 C   0  0  0  0  0  0  0  0  0  0  0  0
    0.8000   -4.1569    0.0000 H   0  0  0  0  0  0  0  0  0  0  0  0
   -1.6000   -2.7713    0.0000 C   0  0  0  0  0  0  0  0  0  0  0  0
   -2.4000   -4.1569    0.0000 H   0  0  0  0  0  0  0  0  0  0  0  0
   -2.4000   -1.3856    0.0000 C   0  0  0  0  0  0  0  0  0  0  0  0
   -4.0000   -1.3856    0.0000 H   0  0  0  0  0  0  0  0  0  0  0  0
   -1.6000    0.0000    0.0000 C   0  0  0  0  0  0  0  0  0  0  0  0
   -2.4000    1.3856    0.0000 N   0  0  0  0  0  0  0  0  0  0  0  0
   -4.0000    1.3856    0.0000 O   0  0  0  0  0  0  0  0  0  0  0  0
   -1.6000    2.7713    0.0000 O   0  0  0  0  0  0  0  0  0  0  0  0
  1  2  1  0  0  0  0
  2  3  1  0  0  0  0
  2  4  1  0  0  0  0
  1  5  2  0  0  0  0
  1  6  1  0  0  0  0
  6  7  1  0  0  0  0
  7  8  1  0  0  0  0
  7  9  2  0  0  0  0
  9 10  1  0  0  0  0
  9 11  1  0  0  0  0
 11 12  1  0  0  0  0
 11 13  2  0  0  0  0
 13 14  1  0  0  0  0
 13 15  1  0  0  0  0
 15  6  2  0  0  0  0
 15 16  1  0  0  0  0
 16 17  2  0  0  0  0
 16 18  1  0  0  0  0
M  CHG  2  16   1  18  -1
M  END
> <ChemID>
100353

> <source_casrn>
610-15-1

> <CAS>
610-15-1

> <SMILES>
NC(=O)c1ccccc1[N+]([O-])=O

> <NAME>
2-NITROBENZAMIDE

> <preferred_name>
2-Nitrobenzamide

> <iupac>
2-nitrobenzamide

> <MPID>
99627

> <dsstox_substance_id>
DTXSID0025733

> <Canonical_QSARr>
NC(=O)c1ccccc1[N+]([O-])=O

> <InChI_Code_QSARr>
InChI=1S/C7H6N2O3/c8-7(10)5-3-1-2-4-6(5)9(11)12/h1-4H,(H2,8,10)

> <InChI Key_QSARr>
KLGQWSOYKYFBTR-UHFFFAOYSA-N

> <LogKOC>
1.45

$$$$
100355
  -INDIGO-08031722282D

 22 22  0  0  0  0  0  0  0  0999 V2000
   -2.7713   -0.0000    0.0000 C   0  0  0  0  0  0  0  0  0  0  0  0
   -1.3856    0.8000    0.0000 C   0  0  0  0  0  0  0  0  0  0  0  0
    0.0000   -0.0000    0.0000 N   0  0  0  0  0  0  0  0  0  0  0  0
    1.3857    0.8000    0.0000 C   0  0  0  0  0  0  0  0  0  0  0  0
    2.7713    1.6000    0.0000 H   0  0  0  0  0  0  0  0  0  0  0  0
    2.7713   -0.0000    0.0000 H   0  0  0  0  0  0  0  0  0  0  0  0
    1.3857    2.4000    0.0000 H   0  0  0  0  0  0  0  0  0  0  0  0
    0.0000   -1.6000    0.0000 C   0  0  0  0  0  0  0  0  0  0  0  0
    1.3857   -2.4000    0.0000 H   0  0  0  0  0  0  0  0  0  0  0  0
    0.0000   -3.2000    0.0000 H   0  0  0  0  0  0  0  0  0  0  0  0
    1.3857   -0.8000    0.0000 H   0  0  0  0  0  0  0  0  0  0  0  0
   -1.3856    2.4000    0.0000 O   0  0  0  0  0  0  0  0  0  0  0  0
   -2.7713   -1.6000    0.0000 C   0  0  0  0  0  0  0  0  0  0  0  0
   -1.3856   -2.4000    0.0000 H   0  0  0  0  0  0  0  0  0  0  0  0
   -4.1570   -2.4000    0.0000 C   0  0  0  0  0  0  0  0  0  0  0  0
   -4.1570   -4.0000    0.0000 H   0  0  0  0  0  0  0  0  0  0  0  0
   -5.5426   -1.6000    0.0000 C   0  0  0  0  0  0  0  0  0  0  0  0
   -6.9282   -2.4000    0.0000 H   0  0  0  0  0  0  0  0  0  0  0  0
   -5.5426   -0.0000    0.0000 C   0  0  0  0  0  0  0  0  0  0  0  0
   -6.9282    0.8000    0.0000 H   0  0  0  0  0  0  0  0  0  0  0  0
   -4.1570    0.8000    0.0000 C   0  0  0  0  0  0  0  0  0  0  0  0
   -4.1570    2.4000    0.0000 H   0  0  0  0  0  0  0  0  0  0  0  0
  1  2  1  0  0  0  0
  2  3  1  0  0  0  0
  3  4  1  0  0  0  0
  4  5  1  0  0  0  0
  4  6  1  0  0  0  0
  4  7  1  0  0  0  0
  3  8  1  0  0  0  0
  8  9  1  0  0  0  0
  8 10  1  0  0  0  0
  8 11  1  0  0  0  0
  2 12  2  0  0  0  0
  1 13  1  0  0  0  0
 13 14  1  0  0  0  0
 13 15  2  0  0  0  0
 15 16  1  0  0  0  0
 15 17  1  0  0  0  0
 17 18  1  0  0  0  0
 17 19  2  0  0  0  0
 19 20  1  0  0  0  0
 19 21  1  0  0  0  0
 21  1  2  0  0  0  0
 21 22  1  0  0  0  0
M  END
> <ChemID>
100355

> <source_casrn>
611-74-5

> <CAS>
611-74-5

> <SMILES>
CN(C)C(=O)c1ccccc1

> <NAME>
N,N-DIMETHYLBENZAMIDE

> <preferred_name>
Benzamide, N,N-dimethyl-

> <iupac>
N,N-Dimethylbenzamide

> <MPID>
99629

> <dsstox_substance_id>
DTXSID4060602

> <Canonical_QSARr>
CN(C)C(=O)c1ccccc1

> <InChI_Code_QSARr>
InChI=1S/C9H11NO/c1-10(2)9(11)8-6-4-3-5-7-8/h3-7H,1-2H3

> <InChI Key_QSARr>
IMNDHOCGZLYMRO-UHFFFAOYSA-N

> <LogKOC>
1.6

$$$$
100356
  -INDIGO-08031722282D

 26 28  0  0  0  0  0  0  0  0999 V2000
    4.1569    0.8000    0.0000 N   0  0  0  0  0  0  0  0  0  0  0  0
    5.5426   -0.0000    0.0000 H   0  0  0  0  0  0  0  0  0  0  0  0
    4.1569    2.4000    0.0000 H   0  0  0  0  0  0  0  0  0  0  0  0
    2.7713   -0.0000    0.0000 C   0  0  0  0  0  0  0  0  0  0  0  0
    2.7713   -1.6000    0.0000 C   0  0  0  0  0  0  0  0  0  0  0  0
    4.1569   -2.4000    0.0000 H   0  0  0  0  0  0  0  0  0  0  0  0
    1.3856   -2.4000    0.0000 C   0  0  0  0  0  0  0  0  0  0  0  0
    1.3856   -4.0000    0.0000 H   0  0  0  0  0  0  0  0  0  0  0  0
   -0.0001   -1.6000    0.0000 C   0  0  0  0  0  0  0  0  0  0  0  0
   -0.0001   -0.0000    0.0000 C   0  0  0  0  0  0  0  0  0  0  0  0
   -1.3856    0.8000    0.0000 C   0  0  0  0  0  0  0  0  0  0  0  0
   -1.3856    2.4000    0.0000 H   0  0  0  0  0  0  0  0  0  0  0  0
   -2.7713   -0.0000    0.0000 C   0  0  0  0  0  0  0  0  0  0  0  0
   -2.7713   -1.6000    0.0000 C   0  0  0  0  0  0  0  0  0  0  0  0
   -1.3856   -2.4000    0.0000 C   0  0  0  0  0  0  0  0  0  0  0  0
   -1.3856   -4.0000    0.0000 H   0  0  0  0  0  0  0  0  0  0  0  0
   -4.1570   -2.4000    0.0000 C   0  0  0  0  0  0  0  0  0  0  0  0
   -4.1570   -4.0000    0.0000 H   0  0  0  0  0  0  0  0  0  0  0  0
   -5.5425   -1.6000    0.0000 C   0  0  0  0  0  0  0  0  0  0  0  0
   -6.9282   -2.4000    0.0000 H   0  0  0  0  0  0  0  0  0  0  0  0
   -5.5425   -0.0000    0.0000 C   0  0  0  0  0  0  0  0  0  0  0  0
   -6.9282    0.8000    0.0000 H   0  0  0  0  0  0  0  0  0  0  0  0
   -4.1570    0.8000    0.0000 C   0  0  0  0  0  0  0  0  0  0  0  0
   -4.1570    2.4000    0.0000 H   0  0  0  0  0  0  0  0  0  0  0  0
    1.3856    0.8000    0.0000 C   0  0  0  0  0  0  0  0  0  0  0  0
    1.3856    2.4000    0.0000 H   0  0  0  0  0  0  0  0  0  0  0  0
  1  2  1  0  0  0  0
  1  3  1  0  0  0  0
  1  4  1  0  0  0  0
  4  5  1  0  0  0  0
  5  6  1  0  0  0  0
  5  7  2  0  0  0  0
  7  8  1  0  0  0  0
  7  9  1  0  0  0  0
  9 10  1  0  0  0  0
 10 11  2  0  0  0  0
 11 12  1  0  0  0  0
 11 13  1  0  0  0  0
 13 14  1  0  0  0  0
 14 15  1  0  0  0  0
 15  9  2  0  0  0  0
 15 16  1  0  0  0  0
 14 17  2  0  0  0  0
 17 18  1  0  0  0  0
 17 19  1  0  0  0  0
 19 20  1  0  0  0  0
 19 21  2  0  0  0  0
 21 22  1  0  0  0  0
 21 23  1  0  0  0  0
 23 13  2  0  0  0  0
 23 24  1  0  0  0  0
 10 25  1  0  0  0  0
 25  4  2  0  0  0  0
 25 26  1  0  0  0  0
M  END
> <ChemID>
100356

> <source_casrn>
613-13-8

> <CAS>
613-13-8

> <SMILES>
Nc1cc2cc3ccccc3cc2cc1

> <NAME>
2-AMINOANTHRACENE

> <preferred_name>
2-Aminoanthracene

> <iupac>
anthracen-2-amine

> <MPID>
99630

> <dsstox_substance_id>
DTXSID2024458

> <Canonical_QSARr>
Nc1cc2cc3ccccc3cc2cc1

> <InChI_Code_QSARr>
InChI=1S/C14H11N/c15-14-6-5-12-7-10-3-1-2-4-11(10)8-13(12)9-14/h1-9H,15H2

> <InChI Key_QSARr>
YCSBALJAGZKWFF-UHFFFAOYSA-N

> <LogKOC>
4.45

$$$$
100357
  -INDIGO-08031722282D

 19 19  0  0  0  0  0  0  0  0999 V2000
    1.6000   -0.0000    0.0000 C   0  0  0  0  0  0  0  0  0  0  0  0
    2.3999    1.3856    0.0000 O   0  0  0  0  0  0  0  0  0  0  0  0
    2.3999   -1.3856    0.0000 N   0  0  0  0  0  0  0  0  0  0  0  0
    1.6000   -2.7713    0.0000 H   0  0  0  0  0  0  0  0  0  0  0  0
    4.0000   -1.3856    0.0000 C   0  0  0  0  0  0  0  0  0  0  0  0
    5.6000   -1.3856    0.0000 H   0  0  0  0  0  0  0  0  0  0  0  0
    4.8000   -2.7713    0.0000 H   0  0  0  0  0  0  0  0  0  0  0  0
    4.8000   -0.0000    0.0000 H   0  0  0  0  0  0  0  0  0  0  0  0
    0.0000    0.0000    0.0000 C   0  0  0  0  0  0  0  0  0  0  0  0
   -0.8000    1.3856    0.0000 C   0  0  0  0  0  0  0  0  0  0  0  0
    0.0000    2.7713    0.0000 H   0  0  0  0  0  0  0  0  0  0  0  0
   -2.4001    1.3856    0.0000 C   0  0  0  0  0  0  0  0  0  0  0  0
   -3.2000    2.7713    0.0000 H   0  0  0  0  0  0  0  0  0  0  0  0
   -3.2000    0.0000    0.0000 C   0  0  0  0  0  0  0  0  0  0  0  0
   -4.8000   -0.0000    0.0000 H   0  0  0  0  0  0  0  0  0  0  0  0
   -2.4001   -1.3856    0.0000 C   0  0  0  0  0  0  0  0  0  0  0  0
   -3.2000   -2.7713    0.0000 H   0  0  0  0  0  0  0  0  0  0  0  0
   -0.8000   -1.3856    0.0000 C   0  0  0  0  0  0  0  0  0  0  0  0
    0.0000   -2.7713    0.0000 H   0  0  0  0  0  0  0  0  0  0  0  0
  1  2  2  0  0  0  0
  1  3  1  0  0  0  0
  3  4  1  0  0  0  0
  3  5  1  0  0  0  0
  5  6  1  0  0  0  0
  5  7  1  0  0  0  0
  5  8  1  0  0  0  0
  1  9  1  0  0  0  0
  9 10  1  0  0  0  0
 10 11  1  0  0  0  0
 10 12  2  0  0  0  0
 12 13  1  0  0  0  0
 12 14  1  0  0  0  0
 14 15  1  0  0  0  0
 14 16  2  0  0  0  0
 16 17  1  0  0  0  0
 16 18  1  0  0  0  0
 18  9  2  0  0  0  0
 18 19  1  0  0  0  0
M  END
> <ChemID>
100357

> <source_casrn>
613-93-4

> <CAS>
613-93-4

> <SMILES>
CNC(=O)c1ccccc1

> <NAME>
N-METHYLBENZAMIDE

> <preferred_name>
N-Methylbenzamide

> <iupac>
N-methylbenzamide

> <MPID>
99631

> <dsstox_substance_id>
DTXSID5025570

> <Canonical_QSARr>
CNC(=O)c1ccccc1

> <InChI_Code_QSARr>
InChI=1S/C8H9NO/c1-9-8(10)7-5-3-2-4-6-7/h2-6H,1H3,(H,9,10)

> <InChI Key_QSARr>
NCCHARWOCKOHIH-UHFFFAOYSA-N

> <LogKOC>
1.68

$$$$
100359
  -INDIGO-08031722282D

 18 18  0  0  0  0  0  0  0  0999 V2000
    1.3857    0.8000    0.0000 N   0  0  0  0  0  0  0  0  0  0  0  0
    1.3857    2.4000    0.0000 H   0  0  0  0  0  0  0  0  0  0  0  0
    2.7713    0.0000    0.0000 H   0  0  0  0  0  0  0  0  0  0  0  0
    0.0000    0.0000    0.0000 C   0  0  0  0  0  0  0  0  0  0  0  0
   -1.3857    0.8000    0.0000 C   0  0  0  0  0  0  0  0  0  0  0  0
   -1.3857    2.4000    0.0000 H   0  0  0  0  0  0  0  0  0  0  0  0
   -2.7713    0.0000    0.0000 C   0  0  0  0  0  0  0  0  0  0  0  0
   -4.1570    0.8000    0.0000 N   0  0  0  0  0  0  0  0  0  0  0  0
   -5.5426    0.0000    0.0000 O   0  0  0  0  0  0  0  0  0  0  0  0
   -4.1569    2.4000    0.0000 O   0  0  0  0  0  0  0  0  0  0  0  0
   -2.7713   -1.6000    0.0000 C   0  0  0  0  0  0  0  0  0  0  0  0
   -4.1569   -2.4000    0.0000 H   0  0  0  0  0  0  0  0  0  0  0  0
   -1.3856   -2.4000    0.0000 C   0  0  0  0  0  0  0  0  0  0  0  0
   -1.3856   -4.0000    0.0000 N   0  0  0  0  0  0  0  0  0  0  0  0
    0.0000   -4.8000    0.0000 O   0  0  0  0  0  0  0  0  0  0  0  0
   -2.7713   -4.8000    0.0000 O   0  0  0  0  0  0  0  0  0  0  0  0
    0.0000   -1.6000    0.0000 C   0  0  0  0  0  0  0  0  0  0  0  0
    1.3857   -2.4000    0.0000 H   0  0  0  0  0  0  0  0  0  0  0  0
  1  2  1  0  0  0  0
  1  3  1  0  0  0  0
  1  4  1  0  0  0  0
  4  5  1  0  0  0  0
  5  6  1  0  0  0  0
  5  7  2  0  0  0  0
  7  8  1  0  0  0  0
  8  9  1  0  0  0  0
  8 10  2  0  0  0  0
  7 11  1  0  0  0  0
 11 12  1  0  0  0  0
 11 13  2  0  0  0  0
 13 14  1  0  0  0  0
 14 15  1  0  0  0  0
 14 16  2  0  0  0  0
 13 17  1  0  0  0  0
 17  4  2  0  0  0  0
 17 18  1  0  0  0  0
M  CHG  4   8   1   9  -1  14   1  15  -1
M  END
> <ChemID>
100359

> <source_casrn>
618-87-1

> <CAS>
618-87-1

> <SMILES>
Nc1cc(cc(c1)[N+]([O-])=O)[N+]([O-])=O

> <NAME>
3,5-DINITROANILINE

> <preferred_name>
3,5-Dinitroaniline

> <iupac>
3,5-dinitroaniline

> <MPID>
99633

> <dsstox_substance_id>
DTXSID0044151

> <Canonical_QSARr>
Nc1cc(cc(c1)[N+]([O-])=O)[N+]([O-])=O

> <InChI_Code_QSARr>
InChI=1S/C6H5N3O4/c7-4-1-5(8(10)11)3-6(2-4)9(12)13/h1-3H,7H2

> <InChI Key_QSARr>
MPBZUKLDHPOCLS-UHFFFAOYSA-N

> <LogKOC>
2.55

$$$$
100360
  -INDIGO-08031722282D

 19 19  0  0  0  0  0  0  0  0999 V2000
    5.6000   -1.3856    0.0000 O   0  0  0  0  0  0  0  0  0  0  0  0
    4.8001   -0.0000    0.0000 C   0  0  0  0  0  0  0  0  0  0  0  0
    5.6000    1.3856    0.0000 N   0  0  0  0  0  0  0  0  0  0  0  0
    7.2000    1.3856    0.0000 H   0  0  0  0  0  0  0  0  0  0  0  0
    4.8001    2.7713    0.0000 H   0  0  0  0  0  0  0  0  0  0  0  0
    3.2000   -0.0000    0.0000 C   0  0  0  0  0  0  0  0  0  0  0  0
    2.4000    1.3856    0.0000 C   0  0  0  0  0  0  0  0  0  0  0  0
    3.2000    2.7713    0.0000 H   0  0  0  0  0  0  0  0  0  0  0  0
    0.8000    1.3856    0.0000 C   0  0  0  0  0  0  0  0  0  0  0  0
    0.0001    2.7713    0.0000 H   0  0  0  0  0  0  0  0  0  0  0  0
    0.0001   -0.0000    0.0000 C   0  0  0  0  0  0  0  0  0  0  0  0
   -1.6000   -0.0000    0.0000 C   0  0  0  0  0  0  0  0  0  0  0  0
   -3.2000   -0.0000    0.0000 H   0  0  0  0  0  0  0  0  0  0  0  0
   -2.4000   -1.3856    0.0000 H   0  0  0  0  0  0  0  0  0  0  0  0
   -2.4000    1.3856    0.0000 H   0  0  0  0  0  0  0  0  0  0  0  0
    0.8000   -1.3856    0.0000 C   0  0  0  0  0  0  0  0  0  0  0  0
    0.0001   -2.7713    0.0000 H   0  0  0  0  0  0  0  0  0  0  0  0
    2.4000   -1.3856    0.0000 C   0  0  0  0  0  0  0  0  0  0  0  0
    3.2000   -2.7713    0.0000 H   0  0  0  0  0  0  0  0  0  0  0  0
  1  2  2  0  0  0  0
  2  3  1  0  0  0  0
  3  4  1  0  0  0  0
  3  5  1  0  0  0  0
  2  6  1  0  0  0  0
  6  7  1  0  0  0  0
  7  8  1  0  0  0  0
  7  9  2  0  0  0  0
  9 10  1  0  0  0  0
  9 11  1  0  0  0  0
 11 12  1  0  0  0  0
 12 13  1  0  0  0  0
 12 14  1  0  0  0  0
 12 15  1  0  0  0  0
 11 16  2  0  0  0  0
 16 17  1  0  0  0  0
 16 18  1  0  0  0  0
 18  6  2  0  0  0  0
 18 19  1  0  0  0  0
M  END
> <ChemID>
100360

> <source_casrn>
619-55-6

> <CAS>
619-55-6

> <SMILES>
Cc1ccc(cc1)C(N)=O

> <NAME>
4-METHYLBENZAMIDE

> <preferred_name>
Benzamide, 4-methyl-

> <iupac>
4-Methylbenzamide

> <MPID>
99634

> <dsstox_substance_id>
DTXSID2060705

> <Canonical_QSARr>
Cc1ccc(cc1)C(N)=O

> <InChI_Code_QSARr>
InChI=1S/C8H9NO/c1-6-2-4-7(5-3-6)8(9)10/h2-5H,1H3,(H2,9,10)

> <InChI Key_QSARr>
UHBGYFCCKRAEHA-UHFFFAOYSA-N

> <LogKOC>
1.78

$$$$
100361
  -INDIGO-08031722282D

 18 18  0  0  0  0  0  0  0  0999 V2000
   -0.7999    1.3856    0.0000 C   0  0  0  0  0  0  0  0  0  0  0  0
    0.0000    2.7713    0.0000 H   0  0  0  0  0  0  0  0  0  0  0  0
   -2.4000    1.3856    0.0000 C   0  0  0  0  0  0  0  0  0  0  0  0
   -3.2000    2.7713    0.0000 H   0  0  0  0  0  0  0  0  0  0  0  0
   -3.2000   -0.0000    0.0000 C   0  0  0  0  0  0  0  0  0  0  0  0
   -4.8000    0.0000    0.0000 N   0  0  0  0  0  0  0  0  0  0  0  0
   -5.6000    1.3856    0.0000 O   0  0  0  0  0  0  0  0  0  0  0  0
   -5.6000   -1.3856    0.0000 O   0  0  0  0  0  0  0  0  0  0  0  0
   -2.4000   -1.3856    0.0000 C   0  0  0  0  0  0  0  0  0  0  0  0
   -3.2000   -2.7713    0.0000 H   0  0  0  0  0  0  0  0  0  0  0  0
   -0.7999   -1.3856    0.0000 C   0  0  0  0  0  0  0  0  0  0  0  0
    0.0000   -2.7713    0.0000 H   0  0  0  0  0  0  0  0  0  0  0  0
    0.0000   -0.0000    0.0000 C   0  0  0  0  0  0  0  0  0  0  0  0
    1.6000    0.0000    0.0000 C   0  0  0  0  0  0  0  0  0  0  0  0
    2.4001    1.3856    0.0000 O   0  0  0  0  0  0  0  0  0  0  0  0
    2.4001   -1.3856    0.0000 N   0  0  0  0  0  0  0  0  0  0  0  0
    4.0000   -1.3856    0.0000 H   0  0  0  0  0  0  0  0  0  0  0  0
    1.6000   -2.7713    0.0000 H   0  0  0  0  0  0  0  0  0  0  0  0
  1  2  1  0  0  0  0
  1  3  1  0  0  0  0
  3  4  1  0  0  0  0
  3  5  2  0  0  0  0
  5  6  1  0  0  0  0
  6  7  1  0  0  0  0
  6  8  2  0  0  0  0
  5  9  1  0  0  0  0
  9 10  1  0  0  0  0
  9 11  2  0  0  0  0
 11 12  1  0  0  0  0
 11 13  1  0  0  0  0
 13  1  2  0  0  0  0
 13 14  1  0  0  0  0
 14 15  2  0  0  0  0
 14 16  1  0  0  0  0
 16 17  1  0  0  0  0
 16 18  1  0  0  0  0
M  CHG  2   6   1   7  -1
M  END
> <ChemID>
100361

> <source_casrn>
619-80-7

> <CAS>
619-80-7

> <SMILES>
NC(=O)c1ccc(cc1)[N+]([O-])=O

> <NAME>
4-NITROBENZAMIDE

> <preferred_name>
4-Nitrobenzamide

> <iupac>
4-nitrobenzamide

> <MPID>
99635

> <dsstox_substance_id>
DTXSID8022086

> <Canonical_QSARr>
NC(=O)c1ccc(cc1)[N+]([O-])=O

> <InChI_Code_QSARr>
InChI=1S/C7H6N2O3/c8-7(10)5-1-3-6(4-2-5)9(11)12/h1-4H,(H2,8,10)

> <InChI Key_QSARr>
ZESWUEBPRPGMTP-UHFFFAOYSA-N

> <LogKOC>
1.93

$$$$
100363
  -INDIGO-08031722282D

 14 14  0  0  0  0  0  0  0  0999 V2000
    1.6000   -0.0000    0.0000 N   0  0  0  0  0  0  0  0  0  0  0  0
    2.4000    1.3856    0.0000 H   0  0  0  0  0  0  0  0  0  0  0  0
    2.4000   -1.3856    0.0000 H   0  0  0  0  0  0  0  0  0  0  0  0
    0.0000   -0.0000    0.0000 C   0  0  0  0  0  0  0  0  0  0  0  0
   -0.8000    1.3856    0.0000 C   0  0  0  0  0  0  0  0  0  0  0  0
    0.0000    2.7713    0.0000 H   0  0  0  0  0  0  0  0  0  0  0  0
   -2.4000    1.3856    0.0000 C   0  0  0  0  0  0  0  0  0  0  0  0
   -3.2000    2.7713    0.0000 Cl  0  0  0  0  0  0  0  0  0  0  0  0
   -3.2000   -0.0000    0.0000 C   0  0  0  0  0  0  0  0  0  0  0  0
   -4.8000   -0.0000    0.0000 H   0  0  0  0  0  0  0  0  0  0  0  0
   -2.4000   -1.3856    0.0000 C   0  0  0  0  0  0  0  0  0  0  0  0
   -3.2000   -2.7713    0.0000 Cl  0  0  0  0  0  0  0  0  0  0  0  0
   -0.8000   -1.3856    0.0000 C   0  0  0  0  0  0  0  0  0  0  0  0
    0.0000   -2.7713    0.0000 H   0  0  0  0  0  0  0  0  0  0  0  0
  1  2  1  0  0  0  0
  1  3  1  0  0  0  0
  1  4  1  0  0  0  0
  4  5  1  0  0  0  0
  5  6  1  0  0  0  0
  5  7  2  0  0  0  0
  7  8  1  0  0  0  0
  7  9  1  0  0  0  0
  9 10  1  0  0  0  0
  9 11  2  0  0  0  0
 11 12  1  0  0  0  0
 11 13  1  0  0  0  0
 13  4  2  0  0  0  0
 13 14  1  0  0  0  0
M  END
> <ChemID>
100363

> <source_casrn>
626-43-7

> <CAS>
626-43-7

> <SMILES>
Nc1cc(Cl)cc(Cl)c1

> <NAME>
3,5-DICHLOROANILINE

> <preferred_name>
3,5-Dichloroaniline

> <iupac>
3,5-dichloroaniline

> <MPID>
99637

> <dsstox_substance_id>
DTXSID7030307

> <Canonical_QSARr>
Nc1cc(Cl)cc(Cl)c1

> <InChI_Code_QSARr>
InChI=1S/C6H5Cl2N/c7-4-1-5(8)3-6(9)2-4/h1-3H,9H2

> <InChI Key_QSARr>
UQRLKWGPEVNVHT-UHFFFAOYSA-N

> <LogKOC>
2.49

$$$$
100364
  -INDIGO-08031722282D

 18 18  0  0  0  0  0  0  0  0999 V2000
    0.0000    0.0000    0.0000 C   0  0  0  0  0  0  0  0  0  0  0  0
    1.6000    0.0000    0.0000 C   0  0  0  0  0  0  0  0  0  0  0  0
    2.4001    1.3856    0.0000 C   0  0  0  0  0  0  0  0  0  0  0  0
    4.0001    1.3856    0.0000 O   0  0  0  0  0  0  0  0  0  0  0  0
    4.8000    2.7713    0.0000 H   0  0  0  0  0  0  0  0  0  0  0  0
    1.6000    2.7713    0.0000 O   0  0  0  0  0  0  0  0  0  0  0  0
    2.3999   -1.3856    0.0000 C   0  0  0  0  0  0  0  0  0  0  0  0
    3.9999   -1.3856    0.0000 Cl  0  0  0  0  0  0  0  0  0  0  0  0
    1.6000   -2.7713    0.0000 C   0  0  0  0  0  0  0  0  0  0  0  0
    2.3999   -4.1569    0.0000 Cl  0  0  0  0  0  0  0  0  0  0  0  0
    0.0000   -2.7713    0.0000 C   0  0  0  0  0  0  0  0  0  0  0  0
   -0.7999   -4.1569    0.0000 Cl  0  0  0  0  0  0  0  0  0  0  0  0
   -0.7999   -1.3856    0.0000 C   0  0  0  0  0  0  0  0  0  0  0  0
   -2.3999   -1.3856    0.0000 Cl  0  0  0  0  0  0  0  0  0  0  0  0
   -0.8001    1.3856    0.0000 C   0  0  0  0  0  0  0  0  0  0  0  0
   -2.3999    1.3856    0.0000 O   0  0  0  0  0  0  0  0  0  0  0  0
   -3.2000    2.7713    0.0000 H   0  0  0  0  0  0  0  0  0  0  0  0
    0.0000    2.7713    0.0000 O   0  0  0  0  0  0  0  0  0  0  0  0
  1  2  1  0  0  0  0
  2  3  1  0  0  0  0
  3  4  1  0  0  0  0
  4  5  1  0  0  0  0
  3  6  2  0  0  0  0
  2  7  2  0  0  0  0
  7  8  1  0  0  0  0
  7  9  1  0  0  0  0
  9 10  1  0  0  0  0
  9 11  2  0  0  0  0
 11 12  1  0  0  0  0
 11 13  1  0  0  0  0
 13  1  2  0  0  0  0
 13 14  1  0  0  0  0
  1 15  1  0  0  0  0
 15 16  1  0  0  0  0
 16 17  1  0  0  0  0
 15 18  2  0  0  0  0
M  END
> <ChemID>
100364

> <source_casrn>
632-58-6

> <CAS>
632-58-6

> <SMILES>
OC(=O)c1c(c(Cl)c(Cl)c(Cl)c1Cl)C(O)=O

> <NAME>
TETRACHLOROPHTHALIC ACID

> <preferred_name>
Tetrachlorophthalic acid

> <iupac>
3,4,5,6-tetrachlorophthalic acid

> <MPID>
99638

> <dsstox_substance_id>
DTXSID6060896

> <Canonical_QSARr>
OC(=O)c1c(c(Cl)c(Cl)c(Cl)c1Cl)C(O)=O

> <InChI_Code_QSARr>
InChI=1S/C8H2Cl4O4/c9-3-1(7(13)14)2(8(15)16)4(10)6(12)5(3)11/h(H,13,14)(H,15,16)

> <InChI Key_QSARr>
WZHHYIOUKQNLQM-UHFFFAOYSA-N

> <LogKOC>
3.3

$$$$
100365
  -INDIGO-08031722282D

 12 12  0  0  0  0  0  0  0  0999 V2000
    0.8000    1.3856    0.0000 Cl  0  0  0  0  0  0  0  0  0  0  0  0
   -0.0000   -0.0000    0.0000 C   0  0  0  0  0  0  0  0  0  0  0  0
    0.8000   -1.3857    0.0000 C   0  0  0  0  0  0  0  0  0  0  0  0
    2.4000   -1.3857    0.0000 Cl  0  0  0  0  0  0  0  0  0  0  0  0
   -0.0000   -2.7713    0.0000 C   0  0  0  0  0  0  0  0  0  0  0  0
    0.8000   -4.1569    0.0000 H   0  0  0  0  0  0  0  0  0  0  0  0
   -1.6000   -2.7713    0.0000 C   0  0  0  0  0  0  0  0  0  0  0  0
   -2.4000   -4.1569    0.0000 H   0  0  0  0  0  0  0  0  0  0  0  0
   -2.4000   -1.3856    0.0000 C   0  0  0  0  0  0  0  0  0  0  0  0
   -4.0000   -1.3856    0.0000 Cl  0  0  0  0  0  0  0  0  0  0  0  0
   -1.6000   -0.0000    0.0000 C   0  0  0  0  0  0  0  0  0  0  0  0
   -2.4000    1.3856    0.0000 Cl  0  0  0  0  0  0  0  0  0  0  0  0
  1  2  1  0  0  0  0
  2  3  1  0  0  0  0
  3  4  1  0  0  0  0
  3  5  2  0  0  0  0
  5  6  1  0  0  0  0
  5  7  1  0  0  0  0
  7  8  1  0  0  0  0
  7  9  2  0  0  0  0
  9 10  1  0  0  0  0
  9 11  1  0  0  0  0
 11  2  2  0  0  0  0
 11 12  1  0  0  0  0
M  END
> <ChemID>
100365

> <source_casrn>
634-66-2

> <CAS>
634-66-2

> <SMILES>
Clc1ccc(Cl)c(Cl)c1Cl

> <NAME>
1,2,3,4-TETRACHLOROBENZENE

> <preferred_name>
1,2,3,4-Tetrachlorobenzene

> <iupac>
1,2,3,4-tetrachlorobenzene

> <MPID>
99639

> <dsstox_substance_id>
DTXSID6026088

> <Canonical_QSARr>
Clc1ccc(Cl)c(Cl)c1Cl

> <InChI_Code_QSARr>
InChI=1S/C6H2Cl4/c7-3-1-2-4(8)6(10)5(3)9/h1-2H

> <InChI Key_QSARr>
GBDZXPJXOMHESU-UHFFFAOYSA-N

> <LogKOC>
3.84

$$$$
100367
  -INDIGO-08031722282D

 14 14  0  0  0  0  0  0  0  0999 V2000
    0.0000    2.7713    0.0000 Cl  0  0  0  0  0  0  0  0  0  0  0  0
   -0.8000    1.3856    0.0000 C   0  0  0  0  0  0  0  0  0  0  0  0
    0.0000   -0.0000    0.0000 C   0  0  0  0  0  0  0  0  0  0  0  0
    1.6000   -0.0000    0.0000 N   0  0  0  0  0  0  0  0  0  0  0  0
    2.4000    1.3856    0.0000 H   0  0  0  0  0  0  0  0  0  0  0  0
    2.4000   -1.3856    0.0000 H   0  0  0  0  0  0  0  0  0  0  0  0
   -0.8000   -1.3856    0.0000 C   0  0  0  0  0  0  0  0  0  0  0  0
    0.0000   -2.7713    0.0000 H   0  0  0  0  0  0  0  0  0  0  0  0
   -2.4000   -1.3856    0.0000 C   0  0  0  0  0  0  0  0  0  0  0  0
   -3.2000   -2.7713    0.0000 Cl  0  0  0  0  0  0  0  0  0  0  0  0
   -3.2000   -0.0000    0.0000 C   0  0  0  0  0  0  0  0  0  0  0  0
   -4.8000   -0.0000    0.0000 Cl  0  0  0  0  0  0  0  0  0  0  0  0
   -2.4000    1.3856    0.0000 C   0  0  0  0  0  0  0  0  0  0  0  0
   -3.2000    2.7713    0.0000 Cl  0  0  0  0  0  0  0  0  0  0  0  0
  1  2  1  0  0  0  0
  2  3  1  0  0  0  0
  3  4  1  0  0  0  0
  4  5  1  0  0  0  0
  4  6  1  0  0  0  0
  3  7  2  0  0  0  0
  7  8  1  0  0  0  0
  7  9  1  0  0  0  0
  9 10  1  0  0  0  0
  9 11  2  0  0  0  0
 11 12  1  0  0  0  0
 11 13  1  0  0  0  0
 13  2  2  0  0  0  0
 13 14  1  0  0  0  0
M  END
> <ChemID>
100367

> <source_casrn>
634-83-3

> <CAS>
634-83-3

> <SMILES>
Nc1cc(Cl)c(Cl)c(Cl)c1Cl

> <NAME>
2,3,4,5-TETRACHLOROANILINE

> <preferred_name>
2,3,4,5-Tetrachloroaniline

> <iupac>
2,3,4,5-TETRACHLOROANILINE

> <MPID>
99641

> <dsstox_substance_id>
DTXSID70212810

> <Canonical_QSARr>
Nc1cc(Cl)c(Cl)c(Cl)c1Cl

> <InChI_Code_QSARr>
InChI=1S/C6H3Cl4N/c7-2-1-3(11)5(9)6(10)4(2)8/h1H,11H2

> <InChI Key_QSARr>
GBKZRUCVLTWAML-UHFFFAOYSA-N

> <LogKOC>
3.03

$$$$
100368
  -INDIGO-08031722282D

 12 12  0  0  0  0  0  0  0  0999 V2000
    0.8000    1.3856    0.0000 Cl  0  0  0  0  0  0  0  0  0  0  0  0
   -0.0000   -0.0000    0.0000 C   0  0  0  0  0  0  0  0  0  0  0  0
    0.8000   -1.3857    0.0000 C   0  0  0  0  0  0  0  0  0  0  0  0
    2.4000   -1.3857    0.0000 Cl  0  0  0  0  0  0  0  0  0  0  0  0
   -0.0000   -2.7713    0.0000 C   0  0  0  0  0  0  0  0  0  0  0  0
    0.8000   -4.1569    0.0000 H   0  0  0  0  0  0  0  0  0  0  0  0
   -1.6000   -2.7713    0.0000 C   0  0  0  0  0  0  0  0  0  0  0  0
   -2.4000   -4.1569    0.0000 Cl  0  0  0  0  0  0  0  0  0  0  0  0
   -2.4000   -1.3856    0.0000 C   0  0  0  0  0  0  0  0  0  0  0  0
   -4.0000   -1.3856    0.0000 H   0  0  0  0  0  0  0  0  0  0  0  0
   -1.6000   -0.0000    0.0000 C   0  0  0  0  0  0  0  0  0  0  0  0
   -2.4000    1.3856    0.0000 Cl  0  0  0  0  0  0  0  0  0  0  0  0
  1  2  1  0  0  0  0
  2  3  1  0  0  0  0
  3  4  1  0  0  0  0
  3  5  2  0  0  0  0
  5  6  1  0  0  0  0
  5  7  1  0  0  0  0
  7  8  1  0  0  0  0
  7  9  2  0  0  0  0
  9 10  1  0  0  0  0
  9 11  1  0  0  0  0
 11  2  2  0  0  0  0
 11 12  1  0  0  0  0
M  END
> <ChemID>
100368

> <source_casrn>
634-90-2

> <CAS>
634-90-2

> <SMILES>
Clc1cc(Cl)c(Cl)c(Cl)c1

> <NAME>
1,2,3,5-TETRACHLOROBENZENE

> <preferred_name>
1,2,3,5-Tetrachlorobenzene

> <iupac>
1,2,3,5-tetrachlorobenzene

> <MPID>
99642

> <dsstox_substance_id>
DTXSID1026089

> <Canonical_QSARr>
Clc1cc(Cl)c(Cl)c(Cl)c1

> <InChI_Code_QSARr>
InChI=1S/C6H2Cl4/c7-3-1-4(8)6(10)5(9)2-3/h1-2H

> <InChI Key_QSARr>
QZYNWJQFTJXIRN-UHFFFAOYSA-N

> <LogKOC>
3.2

$$$$
100369
  -INDIGO-08031722282D

 18 18  0  0  0  0  0  0  0  0999 V2000
    1.3857    0.8000    0.0000 C   0  0  0  0  0  0  0  0  0  0  0  0
    2.7713   -0.0000    0.0000 N   0  0  0  0  0  0  0  0  0  0  0  0
    4.1569    0.8000    0.0000 H   0  0  0  0  0  0  0  0  0  0  0  0
    2.7713   -1.6000    0.0000 H   0  0  0  0  0  0  0  0  0  0  0  0
    1.3857    2.4000    0.0000 O   0  0  0  0  0  0  0  0  0  0  0  0
    0.0001   -0.0000    0.0000 C   0  0  0  0  0  0  0  0  0  0  0  0
    0.0001   -1.6000    0.0000 C   0  0  0  0  0  0  0  0  0  0  0  0
    1.3857   -2.4000    0.0000 H   0  0  0  0  0  0  0  0  0  0  0  0
   -1.3857   -2.4000    0.0000 C   0  0  0  0  0  0  0  0  0  0  0  0
   -1.3857   -4.0000    0.0000 H   0  0  0  0  0  0  0  0  0  0  0  0
   -2.7713   -1.6000    0.0000 C   0  0  0  0  0  0  0  0  0  0  0  0
   -4.1569   -2.4000    0.0000 H   0  0  0  0  0  0  0  0  0  0  0  0
   -2.7713   -0.0000    0.0000 C   0  0  0  0  0  0  0  0  0  0  0  0
   -4.1569    0.8000    0.0000 N   0  0  0  0  0  0  0  0  0  0  0  0
   -5.5426   -0.0000    0.0000 O   0  0  0  0  0  0  0  0  0  0  0  0
   -4.1569    2.4000    0.0000 O   0  0  0  0  0  0  0  0  0  0  0  0
   -1.3857    0.8000    0.0000 C   0  0  0  0  0  0  0  0  0  0  0  0
   -1.3857    2.4000    0.0000 H   0  0  0  0  0  0  0  0  0  0  0  0
  1  2  1  0  0  0  0
  2  3  1  0  0  0  0
  2  4  1  0  0  0  0
  1  5  2  0  0  0  0
  1  6  1  0  0  0  0
  6  7  1  0  0  0  0
  7  8  1  0  0  0  0
  7  9  2  0  0  0  0
  9 10  1  0  0  0  0
  9 11  1  0  0  0  0
 11 12  1  0  0  0  0
 11 13  2  0  0  0  0
 13 14  1  0  0  0  0
 14 15  2  0  0  0  0
 14 16  1  0  0  0  0
 13 17  1  0  0  0  0
 17  6  2  0  0  0  0
 17 18  1  0  0  0  0
M  CHG  2  14   1  16  -1
M  END
> <ChemID>
100369

> <source_casrn>
645-09-0

> <CAS>
645-09-0

> <SMILES>
NC(=O)c1cc(ccc1)[N+]([O-])=O

> <NAME>
M-NITROBENZAMIDE

> <preferred_name>
3-Nitrobenzamide

> <iupac>
3-nitrobenzamide

> <MPID>
99643

> <dsstox_substance_id>
DTXSID5025732

> <Canonical_QSARr>
NC(=O)c1cc(ccc1)[N+]([O-])=O

> <InChI_Code_QSARr>
InChI=1S/C7H6N2O3/c8-7(10)5-2-1-3-6(4-5)9(11)12/h1-4H,(H2,8,10)

> <InChI Key_QSARr>
KWAYEPXDGHYGRW-UHFFFAOYSA-N

> <LogKOC>
1.95

$$$$
100371
  -INDIGO-08031722282D

 18 18  0  0  0  0  0  0  0  0999 V2000
   -0.0001    2.7713    0.0000 F   0  0  0  0  0  0  0  0  0  0  0  0
   -0.8000    1.3856    0.0000 C   0  0  0  0  0  0  0  0  0  0  0  0
    0.0001   -0.0000    0.0000 C   0  0  0  0  0  0  0  0  0  0  0  0
    1.6000   -0.0000    0.0000 N   0  0  0  0  0  0  0  0  0  0  0  0
    2.4000   -1.3856    0.0000 H   0  0  0  0  0  0  0  0  0  0  0  0
    2.4000    1.3856    0.0000 C   0  0  0  0  0  0  0  0  0  0  0  0
    1.6000    2.7713    0.0000 O   0  0  0  0  0  0  0  0  0  0  0  0
    4.0000    1.3856    0.0000 N   0  0  0  0  0  0  0  0  0  0  0  0
    4.8000    2.7713    0.0000 H   0  0  0  0  0  0  0  0  0  0  0  0
    4.8000   -0.0000    0.0000 H   0  0  0  0  0  0  0  0  0  0  0  0
   -0.8000   -1.3856    0.0000 C   0  0  0  0  0  0  0  0  0  0  0  0
    0.0001   -2.7713    0.0000 H   0  0  0  0  0  0  0  0  0  0  0  0
   -2.4000   -1.3856    0.0000 C   0  0  0  0  0  0  0  0  0  0  0  0
   -3.2001   -2.7713    0.0000 H   0  0  0  0  0  0  0  0  0  0  0  0
   -3.2001   -0.0000    0.0000 C   0  0  0  0  0  0  0  0  0  0  0  0
   -4.8000   -0.0000    0.0000 H   0  0  0  0  0  0  0  0  0  0  0  0
   -2.4000    1.3856    0.0000 C   0  0  0  0  0  0  0  0  0  0  0  0
   -3.1999    2.7713    0.0000 H   0  0  0  0  0  0  0  0  0  0  0  0
  1  2  1  0  0  0  0
  2  3  1  0  0  0  0
  3  4  1  0  0  0  0
  4  5  1  0  0  0  0
  4  6  1  0  0  0  0
  6  7  2  0  0  0  0
  6  8  1  0  0  0  0
  8  9  1  0  0  0  0
  8 10  1  0  0  0  0
  3 11  2  0  0  0  0
 11 12  1  0  0  0  0
 11 13  1  0  0  0  0
 13 14  1  0  0  0  0
 13 15  2  0  0  0  0
 15 16  1  0  0  0  0
 15 17  1  0  0  0  0
 17  2  2  0  0  0  0
 17 18  1  0  0  0  0
M  END
> <ChemID>
100371

> <source_casrn>
656-31-5

> <CAS>
656-31-5

> <SMILES>
NC(=O)Nc1ccccc1F

> <NAME>
O-FLUOROPHENYLUREA

> <preferred_name>
(2-Fluorophenyl)urea

> <iupac>
(2-Fluorophenyl)urea

> <MPID>
99645

> <dsstox_substance_id>
DTXSID00215854

> <Canonical_QSARr>
NC(=O)Nc1ccccc1F

> <InChI_Code_QSARr>
InChI=1S/C7H7FN2O/c8-5-3-1-2-4-6(5)10-7(9)11/h1-4H,(H3,9,10,11)

> <InChI Key_QSARr>
PAWVOCWEWJXILY-UHFFFAOYSA-N

> <LogKOC>
1.32

$$$$
100372
  -INDIGO-08031722282D

 18 18  0  0  0  0  0  0  0  0999 V2000
   -4.8000   -0.0000    0.0000 F   0  0  0  0  0  0  0  0  0  0  0  0
   -3.2001   -0.0000    0.0000 C   0  0  0  0  0  0  0  0  0  0  0  0
   -2.4000    1.3856    0.0000 C   0  0  0  0  0  0  0  0  0  0  0  0
   -3.2001    2.7713    0.0000 H   0  0  0  0  0  0  0  0  0  0  0  0
   -0.8000    1.3856    0.0000 C   0  0  0  0  0  0  0  0  0  0  0  0
   -0.0001    2.7713    0.0000 H   0  0  0  0  0  0  0  0  0  0  0  0
   -0.0001   -0.0000    0.0000 C   0  0  0  0  0  0  0  0  0  0  0  0
    1.6000   -0.0000    0.0000 N   0  0  0  0  0  0  0  0  0  0  0  0
    2.4000   -1.3856    0.0000 H   0  0  0  0  0  0  0  0  0  0  0  0
    2.4000    1.3856    0.0000 C   0  0  0  0  0  0  0  0  0  0  0  0
    1.6000    2.7713    0.0000 O   0  0  0  0  0  0  0  0  0  0  0  0
    4.0000    1.3856    0.0000 N   0  0  0  0  0  0  0  0  0  0  0  0
    4.8000    2.7713    0.0000 H   0  0  0  0  0  0  0  0  0  0  0  0
    4.8000   -0.0000    0.0000 H   0  0  0  0  0  0  0  0  0  0  0  0
   -0.8000   -1.3856    0.0000 C   0  0  0  0  0  0  0  0  0  0  0  0
   -0.0001   -2.7713    0.0000 H   0  0  0  0  0  0  0  0  0  0  0  0
   -2.4000   -1.3856    0.0000 C   0  0  0  0  0  0  0  0  0  0  0  0
   -3.2001   -2.7713    0.0000 H   0  0  0  0  0  0  0  0  0  0  0  0
  1  2  1  0  0  0  0
  2  3  1  0  0  0  0
  3  4  1  0  0  0  0
  3  5  2  0  0  0  0
  5  6  1  0  0  0  0
  5  7  1  0  0  0  0
  7  8  1  0  0  0  0
  8  9  1  0  0  0  0
  8 10  1  0  0  0  0
 10 11  2  0  0  0  0
 10 12  1  0  0  0  0
 12 13  1  0  0  0  0
 12 14  1  0  0  0  0
  7 15  2  0  0  0  0
 15 16  1  0  0  0  0
 15 17  1  0  0  0  0
 17  2  2  0  0  0  0
 17 18  1  0  0  0  0
M  END
> <ChemID>
100372

> <source_casrn>
659-30-3

> <CAS>
659-30-3

> <SMILES>
NC(=O)Nc1ccc(F)cc1

> <NAME>
P-FLUOROPHENYLUREA

> <preferred_name>
Urea, 1-(p-fluorophenyl)-

> <iupac>
(4-Fluorophenyl)urea

> <MPID>
99646

> <dsstox_substance_id>
DTXSID20216106

> <Canonical_QSARr>
NC(=O)Nc1ccc(F)cc1

> <InChI_Code_QSARr>
InChI=1S/C7H7FN2O/c8-5-1-3-6(4-2-5)10-7(9)11/h1-4H,(H3,9,10,11)

> <InChI Key_QSARr>
IQZBVVPYTDHTIP-UHFFFAOYSA-N

> <LogKOC>
1.52

$$$$
100373
  -INDIGO-08031722282D

 29 29  0  0  0  0  0  0  0  0999 V2000
   -2.7713    4.8001    0.0000 C   0  0  0  0  0  0  0  0  0  0  0  0
   -2.7713    6.4000    0.0000 H   0  0  0  0  0  0  0  0  0  0  0  0
   -1.3855    5.6000    0.0000 H   0  0  0  0  0  0  0  0  0  0  0  0
   -1.3855    4.0000    0.0000 H   0  0  0  0  0  0  0  0  0  0  0  0
   -4.1568    4.0000    0.0000 O   0  0  0  0  0  0  0  0  0  0  0  0
   -4.1568    2.4000    0.0000 C   0  0  0  0  0  0  0  0  0  0  0  0
   -5.5426    1.6000    0.0000 N   0  0  0  0  0  0  0  0  0  0  0  0
   -5.5426   -0.0000    0.0000 C   0  0  0  0  0  0  0  0  0  0  0  0
   -6.9281   -0.8001    0.0000 N   0  0  0  0  0  0  0  0  0  0  0  0
   -6.9281   -2.4000    0.0000 H   0  0  0  0  0  0  0  0  0  0  0  0
   -8.3138   -0.0000    0.0000 C   0  0  0  0  0  0  0  0  0  0  0  0
   -8.9262    1.4783    0.0000 H   0  0  0  0  0  0  0  0  0  0  0  0
   -7.7015    1.4783    0.0000 H   0  0  0  0  0  0  0  0  0  0  0  0
   -9.6994   -0.8001    0.0000 C   0  0  0  0  0  0  0  0  0  0  0  0
  -11.0851   -1.6000    0.0000 H   0  0  0  0  0  0  0  0  0  0  0  0
  -11.0851   -0.0000    0.0000 H   0  0  0  0  0  0  0  0  0  0  0  0
   -9.6994   -2.4000    0.0000 H   0  0  0  0  0  0  0  0  0  0  0  0
   -4.1568   -0.8001    0.0000 N   0  0  0  0  0  0  0  0  0  0  0  0
   -2.7713   -0.0000    0.0000 C   0  0  0  0  0  0  0  0  0  0  0  0
   -1.3855   -0.8001    0.0000 N   0  0  0  0  0  0  0  0  0  0  0  0
   -1.3855   -2.4000    0.0000 H   0  0  0  0  0  0  0  0  0  0  0  0
    0.0000   -0.0000    0.0000 C   0  0  0  0  0  0  0  0  0  0  0  0
   -0.6123    1.4783    0.0000 H   0  0  0  0  0  0  0  0  0  0  0  0
    0.6123    1.4783    0.0000 H   0  0  0  0  0  0  0  0  0  0  0  0
    1.3857   -0.8001    0.0000 C   0  0  0  0  0  0  0  0  0  0  0  0
    2.7713   -1.6000    0.0000 H   0  0  0  0  0  0  0  0  0  0  0  0
    2.7713   -0.0000    0.0000 H   0  0  0  0  0  0  0  0  0  0  0  0
    1.3857   -2.4000    0.0000 H   0  0  0  0  0  0  0  0  0  0  0  0
   -2.7713    1.6000    0.0000 N   0  0  0  0  0  0  0  0  0  0  0  0
  1  2  1  0  0  0  0
  1  3  1  0  0  0  0
  1  4  1  0  0  0  0
  1  5  1  0  0  0  0
  5  6  1  0  0  0  0
  6  7  1  0  0  0  0
  7  8  2  0  0  0  0
  8  9  1  0  0  0  0
  9 10  1  0  0  0  0
  9 11  1  0  0  0  0
 11 12  1  0  0  0  0
 11 13  1  0  0  0  0
 11 14  1  0  0  0  0
 14 15  1  0  0  0  0
 14 16  1  0  0  0  0
 14 17  1  0  0  0  0
  8 18  1  0  0  0  0
 18 19  2  0  0  0  0
 19 20  1  0  0  0  0
 20 21  1  0  0  0  0
 20 22  1  0  0  0  0
 22 23  1  0  0  0  0
 22 24  1  0  0  0  0
 22 25  1  0  0  0  0
 25 26  1  0  0  0  0
 25 27  1  0  0  0  0
 25 28  1  0  0  0  0
 19 29  1  0  0  0  0
 29  6  2  0  0  0  0
M  END
> <ChemID>
100373

> <source_casrn>
673-04-1

> <CAS>
673-04-1

> <SMILES>
COc1[n]c(NCC)[n]c(NCC)[n]1

> <NAME>
SIMETONE

> <preferred_name>
Simetone

> <iupac>
N,N'-diethyl-6-methoxy-1,3,5-triazine-2,4-diamine

> <MPID>
99647

> <dsstox_substance_id>
DTXSID9042388

> <Canonical_QSARr>
COc1[n]c(NCC)[n]c(NCC)[n]1

> <InChI_Code_QSARr>
InChI=1S/C8H15N5O/c1-4-9-6-11-7(10-5-2)13-8(12-6)14-3/h4-5H2,1-3H3,(H2,9,10,11,12,13)

> <InChI Key_QSARr>
HKAMKLBXTLTVCN-UHFFFAOYSA-N

> <LogKOC>
2.34

$$$$
100375
  -INDIGO-08031722282D

 22 22  0  0  0  0  0  0  0  0999 V2000
    1.3857    0.8000    0.0000 C   0  0  0  0  0  0  0  0  0  0  0  0
    1.3857    2.4000    0.0000 O   0  0  0  0  0  0  0  0  0  0  0  0
    2.7713    3.2000    0.0000 H   0  0  0  0  0  0  0  0  0  0  0  0
    0.0000   -0.0000    0.0000 C   0  0  0  0  0  0  0  0  0  0  0  0
   -1.3856    0.8000    0.0000 C   0  0  0  0  0  0  0  0  0  0  0  0
   -2.7713    1.6000    0.0000 H   0  0  0  0  0  0  0  0  0  0  0  0
   -1.3857    2.4000    0.0000 H   0  0  0  0  0  0  0  0  0  0  0  0
   -2.7713   -0.0000    0.0000 H   0  0  0  0  0  0  0  0  0  0  0  0
    0.0000   -1.6000    0.0000 C   0  0  0  0  0  0  0  0  0  0  0  0
   -1.3856   -2.4000    0.0000 C   0  0  0  0  0  0  0  0  0  0  0  0
   -2.7713   -3.2000    0.0000 H   0  0  0  0  0  0  0  0  0  0  0  0
   -1.3856   -4.0000    0.0000 H   0  0  0  0  0  0  0  0  0  0  0  0
   -2.7713   -1.6000    0.0000 H   0  0  0  0  0  0  0  0  0  0  0  0
    1.3857   -2.4000    0.0000 C   0  0  0  0  0  0  0  0  0  0  0  0
    1.3857   -4.0000    0.0000 H   0  0  0  0  0  0  0  0  0  0  0  0
    2.7713   -1.6000    0.0000 C   0  0  0  0  0  0  0  0  0  0  0  0
    4.1570   -2.4000    0.0000 C   0  0  0  0  0  0  0  0  0  0  0  0
    5.5426   -3.2000    0.0000 H   0  0  0  0  0  0  0  0  0  0  0  0
    5.5426   -1.6000    0.0000 H   0  0  0  0  0  0  0  0  0  0  0  0
    4.1570   -4.0000    0.0000 H   0  0  0  0  0  0  0  0  0  0  0  0
    2.7713   -0.0000    0.0000 C   0  0  0  0  0  0  0  0  0  0  0  0
    4.1569    0.8000    0.0000 H   0  0  0  0  0  0  0  0  0  0  0  0
  1  2  1  0  0  0  0
  2  3  1  0  0  0  0
  1  4  1  0  0  0  0
  4  5  1  0  0  0  0
  5  6  1  0  0  0  0
  5  7  1  0  0  0  0
  5  8  1  0  0  0  0
  4  9  2  0  0  0  0
  9 10  1  0  0  0  0
 10 11  1  0  0  0  0
 10 12  1  0  0  0  0
 10 13  1  0  0  0  0
  9 14  1  0  0  0  0
 14 15  1  0  0  0  0
 14 16  2  0  0  0  0
 16 17  1  0  0  0  0
 17 18  1  0  0  0  0
 17 19  1  0  0  0  0
 17 20  1  0  0  0  0
 16 21  1  0  0  0  0
 21  1  2  0  0  0  0
 21 22  1  0  0  0  0
M  END
> <ChemID>
100375

> <source_casrn>
697-82-5

> <CAS>
697-82-5

> <SMILES>
Cc1cc(O)c(C)c(C)c1

> <NAME>
2,3,5-TRIMETHYLPHENOL

> <preferred_name>
2,3,5-Trimethylphenol

> <iupac>
2,3,5-trimethylphenol

> <MPID>
99649

> <dsstox_substance_id>
DTXSID3047184

> <Canonical_QSARr>
Cc1cc(O)c(C)c(C)c1

> <InChI_Code_QSARr>
InChI=1S/C9H12O/c1-6-4-7(2)8(3)9(10)5-6/h4-5,10H,1-3H3

> <InChI Key_QSARr>
OGRAOKJKVGDSFR-UHFFFAOYSA-N

> <LogKOC>
3.61

$$$$
100376
  -INDIGO-08031722282D

 22 22  0  0  0  0  0  0  0  0999 V2000
   -5.5425   -0.0000    0.0000 C   0  0  0  0  0  0  0  0  0  0  0  0
   -5.5425    1.6000    0.0000 H   0  0  0  0  0  0  0  0  0  0  0  0
   -6.9282   -0.8000    0.0000 C   0  0  0  0  0  0  0  0  0  0  0  0
   -8.3138   -0.0000    0.0000 Cl  0  0  0  0  0  0  0  0  0  0  0  0
   -6.9282   -2.4000    0.0000 C   0  0  0  0  0  0  0  0  0  0  0  0
   -8.3138   -3.2000    0.0000 Cl  0  0  0  0  0  0  0  0  0  0  0  0
   -5.5425   -3.2000    0.0000 C   0  0  0  0  0  0  0  0  0  0  0  0
   -5.5425   -4.8000    0.0000 H   0  0  0  0  0  0  0  0  0  0  0  0
   -4.1569   -2.4000    0.0000 C   0  0  0  0  0  0  0  0  0  0  0  0
   -2.7712   -3.2000    0.0000 H   0  0  0  0  0  0  0  0  0  0  0  0
   -4.1569   -0.8000    0.0000 C   0  0  0  0  0  0  0  0  0  0  0  0
   -2.7712   -0.0000    0.0000 N   0  0  0  0  0  0  0  0  0  0  0  0
   -2.7712    1.6000    0.0000 H   0  0  0  0  0  0  0  0  0  0  0  0
   -1.3857   -0.8000    0.0000 C   0  0  0  0  0  0  0  0  0  0  0  0
   -1.3857   -2.4000    0.0000 O   0  0  0  0  0  0  0  0  0  0  0  0
   -0.0000   -0.0000    0.0000 C   0  0  0  0  0  0  0  0  0  0  0  0
   -0.6124    1.4782    0.0000 H   0  0  0  0  0  0  0  0  0  0  0  0
    0.6123    1.4782    0.0000 H   0  0  0  0  0  0  0  0  0  0  0  0
    1.3856   -0.8000    0.0000 C   0  0  0  0  0  0  0  0  0  0  0  0
    2.7713   -1.6000    0.0000 H   0  0  0  0  0  0  0  0  0  0  0  0
    2.7713   -0.0000    0.0000 H   0  0  0  0  0  0  0  0  0  0  0  0
    1.3856   -2.4000    0.0000 H   0  0  0  0  0  0  0  0  0  0  0  0
  1  2  1  0  0  0  0
  1  3  1  0  0  0  0
  3  4  1  0  0  0  0
  3  5  2  0  0  0  0
  5  6  1  0  0  0  0
  5  7  1  0  0  0  0
  7  8  1  0  0  0  0
  7  9  2  0  0  0  0
  9 10  1  0  0  0  0
  9 11  1  0  0  0  0
 11  1  2  0  0  0  0
 11 12  1  0  0  0  0
 12 13  1  0  0  0  0
 12 14  1  0  0  0  0
 14 15  2  0  0  0  0
 14 16  1  0  0  0  0
 16 17  1  0  0  0  0
 16 18  1  0  0  0  0
 16 19  1  0  0  0  0
 19 20  1  0  0  0  0
 19 21  1  0  0  0  0
 19 22  1  0  0  0  0
M  END
> <ChemID>
100376

> <source_casrn>
709-98-8

> <CAS>
709-98-8

> <SMILES>
CCC(=O)Nc1cc(Cl)c(Cl)cc1

> <NAME>
PROPANIL

> <preferred_name>
Propanil

> <iupac>
N-(3,4-dichlorophenyl)propanamide

> <MPID>
99650

> <dsstox_substance_id>
DTXSID8022111

> <Canonical_QSARr>
CCC(=O)Nc1cc(Cl)c(Cl)cc1

> <InChI_Code_QSARr>
InChI=1S/C9H9Cl2NO/c1-2-9(13)12-6-3-4-7(10)8(11)5-6/h3-5H,2H2,1H3,(H,12,13)

> <InChI Key_QSARr>
LFULEKSKNZEWOE-UHFFFAOYSA-N

> <LogKOC>
2.17

$$$$
100377
  -INDIGO-08031722282D

 27 29  0  0  0  0  0  0  0  0999 V2000
    3.2000    0.0000    0.0000 C   0  0  0  0  0  0  0  0  0  0  0  0
    4.8000    0.0000    0.0000 H   0  0  0  0  0  0  0  0  0  0  0  0
    2.4000   -1.3856    0.0000 C   0  0  0  0  0  0  0  0  0  0  0  0
    3.2000   -2.7713    0.0000 H   0  0  0  0  0  0  0  0  0  0  0  0
    0.8001   -1.3856    0.0000 C   0  0  0  0  0  0  0  0  0  0  0  0
    0.0001   -2.7713    0.0000 H   0  0  0  0  0  0  0  0  0  0  0  0
    0.0001    0.0000    0.0000 C   0  0  0  0  0  0  0  0  0  0  0  0
   -1.6001    0.0000    0.0000 C   0  0  0  0  0  0  0  0  0  0  0  0
   -2.4001    1.3857    0.0000 C   0  0  0  0  0  0  0  0  0  0  0  0
   -4.0000    1.3857    0.0000 C   0  0  0  0  0  0  0  0  0  0  0  0
   -4.8000    0.0000    0.0000 H   0  0  0  0  0  0  0  0  0  0  0  0
   -4.8000    2.7713    0.0000 C   0  0  0  0  0  0  0  0  0  0  0  0
   -6.4000    2.7713    0.0000 H   0  0  0  0  0  0  0  0  0  0  0  0
   -4.0000    4.1569    0.0000 C   0  0  0  0  0  0  0  0  0  0  0  0
   -4.8000    5.5426    0.0000 H   0  0  0  0  0  0  0  0  0  0  0  0
   -2.4001    4.1569    0.0000 C   0  0  0  0  0  0  0  0  0  0  0  0
   -1.6001    5.5426    0.0000 H   0  0  0  0  0  0  0  0  0  0  0  0
   -1.6001    2.7713    0.0000 C   0  0  0  0  0  0  0  0  0  0  0  0
    0.0001    2.7713    0.0000 C   0  0  0  0  0  0  0  0  0  0  0  0
    0.8001    4.1570    0.0000 H   0  0  0  0  0  0  0  0  0  0  0  0
    0.8001    1.3856    0.0000 C   0  0  0  0  0  0  0  0  0  0  0  0
    2.4000    1.3856    0.0000 C   0  0  0  0  0  0  0  0  0  0  0  0
    3.2000    2.7713    0.0000 H   0  0  0  0  0  0  0  0  0  0  0  0
   -2.4001   -1.3857    0.0000 C   0  0  0  0  0  0  0  0  0  0  0  0
   -1.6001   -2.7713    0.0000 O   0  0  0  0  0  0  0  0  0  0  0  0
   -4.0000   -1.3856    0.0000 O   0  0  0  0  0  0  0  0  0  0  0  0
   -4.8000   -2.7713    0.0000 H   0  0  0  0  0  0  0  0  0  0  0  0
  1  2  1  0  0  0  0
  1  3  1  0  0  0  0
  3  4  1  0  0  0  0
  3  5  2  0  0  0  0
  5  6  1  0  0  0  0
  5  7  1  0  0  0  0
  7  8  1  0  0  0  0
  8  9  2  0  0  0  0
  9 10  1  0  0  0  0
 10 11  1  0  0  0  0
 10 12  2  0  0  0  0
 12 13  1  0  0  0  0
 12 14  1  0  0  0  0
 14 15  1  0  0  0  0
 14 16  2  0  0  0  0
 16 17  1  0  0  0  0
 16 18  1  0  0  0  0
 18  9  1  0  0  0  0
 18 19  2  0  0  0  0
 19 20  1  0  0  0  0
 19 21  1  0  0  0  0
 21  7  2  0  0  0  0
 21 22  1  0  0  0  0
 22  1  2  0  0  0  0
 22 23  1  0  0  0  0
  8 24  1  0  0  0  0
 24 25  2  0  0  0  0
 24 26  1  0  0  0  0
 26 27  1  0  0  0  0
M  END
> <ChemID>
100377

> <source_casrn>
723-62-6

> <CAS>
723-62-6

> <SMILES>
OC(=O)c1c2ccccc2cc2ccccc21

> <NAME>
ANTHRACENE-9-CARBOXYLIC ACID

> <preferred_name>
9-Anthracenecarboxylic acid

> <iupac>
anthracene-9-carboxylic acid

> <MPID>
99651

> <dsstox_substance_id>
DTXSID7049427

> <Canonical_QSARr>
OC(=O)c1c2ccccc2cc2ccccc21

> <InChI_Code_QSARr>
InChI=1S/C15H10O2/c16-15(17)14-12-7-3-1-5-10(12)9-11-6-2-4-8-13(11)14/h1-9H,(H,16,17)

> <InChI Key_QSARr>
XGWFJBFNAQHLEF-UHFFFAOYSA-N

> <LogKOC>
2.74

$$$$
100379
  -INDIGO-08031722282D

 47 47  0  0  0  0  0  0  0  0999 V2000
   -0.0000   -2.7714    0.0000 P   0  0  0  0  0  0  0  0  0  0  0  0
    1.6000   -2.7714    0.0000 O   0  0  0  0  0  0  0  0  0  0  0  0
    2.6285   -3.9970    0.0000 C   0  0  0  0  0  0  0  0  0  0  0  0
    1.4028   -5.0254    0.0000 H   0  0  0  0  0  0  0  0  0  0  0  0
    3.6570   -5.2227    0.0000 C   0  0  0  0  0  0  0  0  0  0  0  0
    4.6855   -6.4483    0.0000 H   0  0  0  0  0  0  0  0  0  0  0  0
    5.2327   -4.9447    0.0000 H   0  0  0  0  0  0  0  0  0  0  0  0
    3.1098   -6.7260    0.0000 H   0  0  0  0  0  0  0  0  0  0  0  0
    3.8540   -2.9684    0.0000 C   0  0  0  0  0  0  0  0  0  0  0  0
    5.0797   -1.9400    0.0000 H   0  0  0  0  0  0  0  0  0  0  0  0
    3.5764   -1.3928    0.0000 H   0  0  0  0  0  0  0  0  0  0  0  0
    5.3576   -3.5158    0.0000 H   0  0  0  0  0  0  0  0  0  0  0  0
    0.7999   -1.3857    0.0000 O   0  0  0  0  0  0  0  0  0  0  0  0
   -0.0000   -0.0000    0.0000 C   0  0  0  0  0  0  0  0  0  0  0  0
   -1.3856   -0.7999    0.0000 H   0  0  0  0  0  0  0  0  0  0  0  0
   -0.7999    1.3856    0.0000 C   0  0  0  0  0  0  0  0  0  0  0  0
   -1.6001    2.7713    0.0000 H   0  0  0  0  0  0  0  0  0  0  0  0
   -0.0000    2.7713    0.0000 H   0  0  0  0  0  0  0  0  0  0  0  0
   -2.4000    1.3856    0.0000 H   0  0  0  0  0  0  0  0  0  0  0  0
    1.3856    0.8000    0.0000 C   0  0  0  0  0  0  0  0  0  0  0  0
    2.7712    1.5999    0.0000 H   0  0  0  0  0  0  0  0  0  0  0  0
    1.3856    2.4000    0.0000 H   0  0  0  0  0  0  0  0  0  0  0  0
    2.7712   -0.0000    0.0000 H   0  0  0  0  0  0  0  0  0  0  0  0
    0.7999   -4.1569    0.0000 S   0  0  0  0  0  0  0  0  0  0  0  0
   -1.6001   -2.7714    0.0000 S   0  0  0  0  0  0  0  0  0  0  0  0
   -2.4000   -4.1569    0.0000 C   0  0  0  0  0  0  0  0  0  0  0  0
   -1.1307   -5.1310    0.0000 H   0  0  0  0  0  0  0  0  0  0  0  0
   -2.1911   -5.7433    0.0000 H   0  0  0  0  0  0  0  0  0  0  0  0
   -4.0000   -4.1569    0.0000 C   0  0  0  0  0  0  0  0  0  0  0  0
   -5.2693   -3.1829    0.0000 H   0  0  0  0  0  0  0  0  0  0  0  0
   -4.2090   -2.5706    0.0000 H   0  0  0  0  0  0  0  0  0  0  0  0
   -4.7999   -5.5425    0.0000 N   0  0  0  0  0  0  0  0  0  0  0  0
   -4.0000   -6.9282    0.0000 H   0  0  0  0  0  0  0  0  0  0  0  0
   -6.4000   -5.5425    0.0000 S   0  0  0  0  0  0  0  0  0  0  0  0
   -6.4000   -3.9425    0.0000 O   0  0  0  0  0  0  0  0  0  0  0  0
   -6.4000   -7.1425    0.0000 O   0  0  0  0  0  0  0  0  0  0  0  0
   -8.0001   -5.5425    0.0000 C   0  0  0  0  0  0  0  0  0  0  0  0
   -8.8000   -4.1569    0.0000 C   0  0  0  0  0  0  0  0  0  0  0  0
   -8.0001   -2.7712    0.0000 H   0  0  0  0  0  0  0  0  0  0  0  0
  -10.4000   -4.1569    0.0000 C   0  0  0  0  0  0  0  0  0  0  0  0
  -11.1999   -2.7712    0.0000 H   0  0  0  0  0  0  0  0  0  0  0  0
  -11.1999   -5.5425    0.0000 C   0  0  0  0  0  0  0  0  0  0  0  0
  -12.8000   -5.5425    0.0000 H   0  0  0  0  0  0  0  0  0  0  0  0
  -10.4000   -6.9282    0.0000 C   0  0  0  0  0  0  0  0  0  0  0  0
  -11.1999   -8.3138    0.0000 H   0  0  0  0  0  0  0  0  0  0  0  0
   -8.8000   -6.9282    0.0000 C   0  0  0  0  0  0  0  0  0  0  0  0
   -8.0001   -8.3138    0.0000 H   0  0  0  0  0  0  0  0  0  0  0  0
  1  2  1  0  0  0  0
  2  3  1  0  0  0  0
  3  4  1  0  0  0  0
  3  5  1  0  0  0  0
  5  6  1  0  0  0  0
  5  7  1  0  0  0  0
  5  8  1  0  0  0  0
  3  9  1  0  0  0  0
  9 10  1  0  0  0  0
  9 11  1  0  0  0  0
  9 12  1  0  0  0  0
  1 13  1  0  0  0  0
 13 14  1  0  0  0  0
 14 15  1  0  0  0  0
 14 16  1  0  0  0  0
 16 17  1  0  0  0  0
 16 18  1  0  0  0  0
 16 19  1  0  0  0  0
 14 20  1  0  0  0  0
 20 21  1  0  0  0  0
 20 22  1  0  0  0  0
 20 23  1  0  0  0  0
  1 24  2  0  0  0  0
  1 25  1  0  0  0  0
 25 26  1  0  0  0  0
 26 27  1  0  0  0  0
 26 28  1  0  0  0  0
 26 29  1  0  0  0  0
 29 30  1  0  0  0  0
 29 31  1  0  0  0  0
 29 32  1  0  0  0  0
 32 33  1  0  0  0  0
 32 34  1  0  0  0  0
 34 35  2  0  0  0  0
 34 36  2  0  0  0  0
 34 37  1  0  0  0  0
 37 38  1  0  0  0  0
 38 39  1  0  0  0  0
 38 40  2  0  0  0  0
 40 41  1  0  0  0  0
 40 42  1  0  0  0  0
 42 43  1  0  0  0  0
 42 44  2  0  0  0  0
 44 45  1  0  0  0  0
 44 46  1  0  0  0  0
 46 37  2  0  0  0  0
 46 47  1  0  0  0  0
M  END
> <ChemID>
100379

> <source_casrn>
741-58-2

> <CAS>
741-58-2

> <SMILES>
CC(C)OP(=S)(OC(C)C)SCCNS(=O)(=O)c1ccccc1

> <NAME>
BENSULIDE

> <preferred_name>
Bensulide

> <iupac>
S-{2-[(phenylsulfonyl)amino]ethyl} O,O-dipropan-2-yl phosphorodithioate

> <MPID>
99653

> <dsstox_substance_id>
DTXSID9032329

> <Canonical_QSARr>
CC(C)OP(=S)(OC(C)C)SCCNS(=O)(=O)c1ccccc1

> <InChI_Code_QSARr>
InChI=1S/C14H24NO4PS3/c1-12(2)18-20(21,19-13(3)4)22-11-10-15-23(16,17)14-8-6-5-7-9-14/h5-9,12-13,15H,10-11H2,1-4H3

> <InChI Key_QSARr>
RRNIZKPFKNDSRS-UHFFFAOYSA-N

> <LogKOC>
3.0

$$$$
100380
  -INDIGO-08031722282D

 31 30  0  0  0  0  0  0  0  0999 V2000
   -0.8000   -1.3856    0.0000 C   0  0  0  0  0  0  0  0  0  0  0  0
    0.0000    0.0000    0.0000 N   0  0  0  0  0  0  0  0  0  0  0  0
   -0.8000    1.3857    0.0000 C   0  0  0  0  0  0  0  0  0  0  0  0
   -0.5911    2.9719    0.0000 H   0  0  0  0  0  0  0  0  0  0  0  0
    0.4693    2.3597    0.0000 H   0  0  0  0  0  0  0  0  0  0  0  0
   -2.4000    1.3857    0.0000 C   0  0  0  0  0  0  0  0  0  0  0  0
   -2.6089   -0.2007    0.0000 H   0  0  0  0  0  0  0  0  0  0  0  0
   -3.6693    0.4116    0.0000 H   0  0  0  0  0  0  0  0  0  0  0  0
   -3.2000    2.7713    0.0000 C   0  0  0  0  0  0  0  0  0  0  0  0
   -4.0000    4.1569    0.0000 H   0  0  0  0  0  0  0  0  0  0  0  0
   -4.8000    2.7713    0.0000 H   0  0  0  0  0  0  0  0  0  0  0  0
   -2.4000    4.1569    0.0000 H   0  0  0  0  0  0  0  0  0  0  0  0
    1.6000    0.0000    0.0000 C   0  0  0  0  0  0  0  0  0  0  0  0
    1.8089    1.5863    0.0000 H   0  0  0  0  0  0  0  0  0  0  0  0
    2.8693    0.9741    0.0000 H   0  0  0  0  0  0  0  0  0  0  0  0
    2.4000   -1.3856    0.0000 C   0  0  0  0  0  0  0  0  0  0  0  0
    2.1911   -2.9720    0.0000 H   0  0  0  0  0  0  0  0  0  0  0  0
    1.1307   -2.3596    0.0000 H   0  0  0  0  0  0  0  0  0  0  0  0
    4.0000   -1.3856    0.0000 C   0  0  0  0  0  0  0  0  0  0  0  0
    5.6000   -1.3856    0.0000 H   0  0  0  0  0  0  0  0  0  0  0  0
    4.8000   -2.7712    0.0000 H   0  0  0  0  0  0  0  0  0  0  0  0
    4.8000    0.0000    0.0000 H   0  0  0  0  0  0  0  0  0  0  0  0
    0.0000   -2.7712    0.0000 O   0  0  0  0  0  0  0  0  0  0  0  0
   -2.4000   -1.3856    0.0000 S   0  0  0  0  0  0  0  0  0  0  0  0
   -3.2000   -2.7712    0.0000 C   0  0  0  0  0  0  0  0  0  0  0  0
   -1.9307   -3.7453    0.0000 H   0  0  0  0  0  0  0  0  0  0  0  0
   -2.9911   -4.3576    0.0000 H   0  0  0  0  0  0  0  0  0  0  0  0
   -4.8000   -2.7712    0.0000 C   0  0  0  0  0  0  0  0  0  0  0  0
   -6.4000   -2.7712    0.0000 H   0  0  0  0  0  0  0  0  0  0  0  0
   -5.6000   -4.1569    0.0000 H   0  0  0  0  0  0  0  0  0  0  0  0
   -5.6000   -1.3856    0.0000 H   0  0  0  0  0  0  0  0  0  0  0  0
  1  2  1  0  0  0  0
  2  3  1  0  0  0  0
  3  4  1  0  0  0  0
  3  5  1  0  0  0  0
  3  6  1  0  0  0  0
  6  7  1  0  0  0  0
  6  8  1  0  0  0  0
  6  9  1  0  0  0  0
  9 10  1  0  0  0  0
  9 11  1  0  0  0  0
  9 12  1  0  0  0  0
  2 13  1  0  0  0  0
 13 14  1  0  0  0  0
 13 15  1  0  0  0  0
 13 16  1  0  0  0  0
 16 17  1  0  0  0  0
 16 18  1  0  0  0  0
 16 19  1  0  0  0  0
 19 20  1  0  0  0  0
 19 21  1  0  0  0  0
 19 22  1  0  0  0  0
  1 23  2  0  0  0  0
  1 24  1  0  0  0  0
 24 25  1  0  0  0  0
 25 26  1  0  0  0  0
 25 27  1  0  0  0  0
 25 28  1  0  0  0  0
 28 29  1  0  0  0  0
 28 30  1  0  0  0  0
 28 31  1  0  0  0  0
M  END
> <ChemID>
100380

> <source_casrn>
759-94-4

> <CAS>
759-94-4

> <SMILES>
O=C(N(CCC)CCC)SCC

> <NAME>
EPTAM (EPTC)

> <preferred_name>
EPTC

> <iupac>
S-ethyl dipropylcarbamothioate

> <MPID>
99654

> <dsstox_substance_id>
DTXSID1024091

> <Canonical_QSARr>
CCSC(=O)N(CCC)CCC

> <InChI_Code_QSARr>
InChI=1S/C9H19NOS/c1-4-7-10(8-5-2)9(11)12-6-3/h4-8H2,1-3H3

> <InChI Key_QSARr>
GUVLYNGULCJVDO-UHFFFAOYSA-N

> <LogKOC>
2.38

$$$$
100381
  -INDIGO-08031722282D

 18 18  0  0  0  0  0  0  0  0999 V2000
   -3.1999    2.7713    0.0000 F   0  0  0  0  0  0  0  0  0  0  0  0
   -2.4000    1.3856    0.0000 C   0  0  0  0  0  0  0  0  0  0  0  0
   -0.8000    1.3856    0.0000 C   0  0  0  0  0  0  0  0  0  0  0  0
    0.0001    2.7713    0.0000 H   0  0  0  0  0  0  0  0  0  0  0  0
    0.0001    0.0000    0.0000 C   0  0  0  0  0  0  0  0  0  0  0  0
    1.6000    0.0000    0.0000 N   0  0  0  0  0  0  0  0  0  0  0  0
    2.4000    1.3856    0.0000 H   0  0  0  0  0  0  0  0  0  0  0  0
    2.4000   -1.3856    0.0000 C   0  0  0  0  0  0  0  0  0  0  0  0
    1.6000   -2.7713    0.0000 O   0  0  0  0  0  0  0  0  0  0  0  0
    4.0000   -1.3856    0.0000 N   0  0  0  0  0  0  0  0  0  0  0  0
    4.8000   -2.7713    0.0000 H   0  0  0  0  0  0  0  0  0  0  0  0
    4.8000   -0.0000    0.0000 H   0  0  0  0  0  0  0  0  0  0  0  0
   -0.8000   -1.3856    0.0000 C   0  0  0  0  0  0  0  0  0  0  0  0
   -0.0001   -2.7713    0.0000 H   0  0  0  0  0  0  0  0  0  0  0  0
   -2.4000   -1.3856    0.0000 C   0  0  0  0  0  0  0  0  0  0  0  0
   -3.1999   -2.7713    0.0000 H   0  0  0  0  0  0  0  0  0  0  0  0
   -3.1999   -0.0000    0.0000 C   0  0  0  0  0  0  0  0  0  0  0  0
   -4.8000    0.0000    0.0000 H   0  0  0  0  0  0  0  0  0  0  0  0
  1  2  1  0  0  0  0
  2  3  1  0  0  0  0
  3  4  1  0  0  0  0
  3  5  2  0  0  0  0
  5  6  1  0  0  0  0
  6  7  1  0  0  0  0
  6  8  1  0  0  0  0
  8  9  2  0  0  0  0
  8 10  1  0  0  0  0
 10 11  1  0  0  0  0
 10 12  1  0  0  0  0
  5 13  1  0  0  0  0
 13 14  1  0  0  0  0
 13 15  2  0  0  0  0
 15 16  1  0  0  0  0
 15 17  1  0  0  0  0
 17  2  2  0  0  0  0
 17 18  1  0  0  0  0
M  END
> <ChemID>
100381

> <source_casrn>
770-19-4

> <CAS>
770-19-4

> <SMILES>
NC(=O)Nc1cccc(F)c1

> <NAME>
M-FLUOROPHENYLUREA

> <preferred_name>
Urea, (m-fluorophenyl)-

> <iupac>
(3-fluorophenyl)urea

> <MPID>
99655

> <dsstox_substance_id>
DTXSID40227815

> <Canonical_QSARr>
NC(=O)Nc1cccc(F)c1

> <InChI_Code_QSARr>
InChI=1S/C7H7FN2O/c8-5-2-1-3-6(4-5)10-7(9)11/h1-4H,(H3,9,10,11)

> <InChI Key_QSARr>
OLVWURSZQFCLCZ-UHFFFAOYSA-N

> <LogKOC>
1.77

$$$$
100383
  -INDIGO-08031722282D

 34 34  0  0  0  0  0  0  0  0999 V2000
   -9.6995    2.4001    0.0000 Cl  0  0  0  0  0  0  0  0  0  0  0  0
   -8.3138    1.6000    0.0000 C   0  0  0  0  0  0  0  0  0  0  0  0
   -6.9283    2.4001    0.0000 C   0  0  0  0  0  0  0  0  0  0  0  0
   -6.9283    4.0000    0.0000 H   0  0  0  0  0  0  0  0  0  0  0  0
   -5.5426    1.6000    0.0000 C   0  0  0  0  0  0  0  0  0  0  0  0
   -4.1569    2.4001    0.0000 H   0  0  0  0  0  0  0  0  0  0  0  0
   -5.5426   -0.0000    0.0000 C   0  0  0  0  0  0  0  0  0  0  0  0
   -4.1569   -0.8000    0.0000 S   0  0  0  0  0  0  0  0  0  0  0  0
   -2.7712   -0.0000    0.0000 C   0  0  0  0  0  0  0  0  0  0  0  0
   -2.1591    1.4782    0.0000 H   0  0  0  0  0  0  0  0  0  0  0  0
   -3.3836    1.4782    0.0000 H   0  0  0  0  0  0  0  0  0  0  0  0
   -1.3857   -0.8000    0.0000 S   0  0  0  0  0  0  0  0  0  0  0  0
   -0.0000   -0.0000    0.0000 P   0  0  0  0  0  0  0  0  0  0  0  0
   -0.0000    1.6000    0.0000 S   0  0  0  0  0  0  0  0  0  0  0  0
    1.3857    0.8000    0.0000 O   0  0  0  0  0  0  0  0  0  0  0  0
    2.7714   -0.0000    0.0000 C   0  0  0  0  0  0  0  0  0  0  0  0
    2.1590   -1.4782    0.0000 H   0  0  0  0  0  0  0  0  0  0  0  0
    3.3835   -1.4782    0.0000 H   0  0  0  0  0  0  0  0  0  0  0  0
    4.1569    0.8000    0.0000 C   0  0  0  0  0  0  0  0  0  0  0  0
    5.5426    1.6000    0.0000 H   0  0  0  0  0  0  0  0  0  0  0  0
    5.5426   -0.0000    0.0000 H   0  0  0  0  0  0  0  0  0  0  0  0
    4.1569    2.4001    0.0000 H   0  0  0  0  0  0  0  0  0  0  0  0
    1.3857   -0.8000    0.0000 O   0  0  0  0  0  0  0  0  0  0  0  0
    1.3857   -2.4000    0.0000 C   0  0  0  0  0  0  0  0  0  0  0  0
   -0.2007   -2.6088    0.0000 H   0  0  0  0  0  0  0  0  0  0  0  0
    0.4116   -3.6694    0.0000 H   0  0  0  0  0  0  0  0  0  0  0  0
    2.7714   -3.2001    0.0000 C   0  0  0  0  0  0  0  0  0  0  0  0
    2.7714   -4.8000    0.0000 H   0  0  0  0  0  0  0  0  0  0  0  0
    4.1569   -4.0000    0.0000 H   0  0  0  0  0  0  0  0  0  0  0  0
    4.1569   -2.4000    0.0000 H   0  0  0  0  0  0  0  0  0  0  0  0
   -6.9283   -0.8000    0.0000 C   0  0  0  0  0  0  0  0  0  0  0  0
   -6.9283   -2.4000    0.0000 H   0  0  0  0  0  0  0  0  0  0  0  0
   -8.3138   -0.0000    0.0000 C   0  0  0  0  0  0  0  0  0  0  0  0
   -9.6995   -0.8000    0.0000 H   0  0  0  0  0  0  0  0  0  0  0  0
  1  2  1  0  0  0  0
  2  3  1  0  0  0  0
  3  4  1  0  0  0  0
  3  5  2  0  0  0  0
  5  6  1  0  0  0  0
  5  7  1  0  0  0  0
  7  8  1  0  0  0  0
  8  9  1  0  0  0  0
  9 10  1  0  0  0  0
  9 11  1  0  0  0  0
  9 12  1  0  0  0  0
 12 13  1  0  0  0  0
 13 14  2  0  0  0  0
 13 15  1  0  0  0  0
 15 16  1  0  0  0  0
 16 17  1  0  0  0  0
 16 18  1  0  0  0  0
 16 19  1  0  0  0  0
 19 20  1  0  0  0  0
 19 21  1  0  0  0  0
 19 22  1  0  0  0  0
 13 23  1  0  0  0  0
 23 24  1  0  0  0  0
 24 25  1  0  0  0  0
 24 26  1  0  0  0  0
 24 27  1  0  0  0  0
 27 28  1  0  0  0  0
 27 29  1  0  0  0  0
 27 30  1  0  0  0  0
  7 31  2  0  0  0  0
 31 32  1  0  0  0  0
 31 33  1  0  0  0  0
 33  2  2  0  0  0  0
 33 34  1  0  0  0  0
M  END
> <ChemID>
100383

> <source_casrn>
786-19-6

> <CAS>
786-19-6

> <SMILES>
CCOP(=S)(OCC)SCSc1ccc(Cl)cc1

> <NAME>
CARBOPHENTHION

> <preferred_name>
Carbophenothion

> <iupac>
S-{[(4-chlorophenyl)sulfanyl]methyl} O,O-diethyl phosphorodithioate

> <MPID>
99657

> <dsstox_substance_id>
DTXSID7022120

> <Canonical_QSARr>
CCOP(=S)(OCC)SCSc1ccc(Cl)cc1

> <InChI_Code_QSARr>
InChI=1S/C11H16ClO2PS3/c1-3-13-15(16,14-4-2)18-9-17-11-7-5-10(12)6-8-11/h5-8H,3-4,9H2,1-2H3

> <InChI Key_QSARr>
VEDTXTNSFWUXGQ-UHFFFAOYSA-N

> <LogKOC>
4.66

$$$$
100384
  -INDIGO-08031722282D

 32 32  0  0  0  0  0  0  0  0999 V2000
    0.8001    1.3857    0.0000 C   0  0  0  0  0  0  0  0  0  0  0  0
    1.5999    2.7713    0.0000 H   0  0  0  0  0  0  0  0  0  0  0  0
    2.4000    1.3857    0.0000 H   0  0  0  0  0  0  0  0  0  0  0  0
    0.0000    2.7713    0.0000 H   0  0  0  0  0  0  0  0  0  0  0  0
    0.0000   -0.0000    0.0000 C   0  0  0  0  0  0  0  0  0  0  0  0
   -0.8001   -1.3856    0.0000 H   0  0  0  0  0  0  0  0  0  0  0  0
    1.3857   -0.8000    0.0000 C   0  0  0  0  0  0  0  0  0  0  0  0
    2.7713   -1.6000    0.0000 H   0  0  0  0  0  0  0  0  0  0  0  0
    2.7713   -0.0000    0.0000 H   0  0  0  0  0  0  0  0  0  0  0  0
    1.3857   -2.4000    0.0000 H   0  0  0  0  0  0  0  0  0  0  0  0
   -1.3855    0.8000    0.0000 N   0  0  0  0  0  0  0  0  0  0  0  0
   -1.3855    2.4000    0.0000 H   0  0  0  0  0  0  0  0  0  0  0  0
   -2.7713   -0.0000    0.0000 C   0  0  0  0  0  0  0  0  0  0  0  0
   -4.1568    0.8000    0.0000 N   0  0  0  0  0  0  0  0  0  0  0  0
   -5.5426   -0.0000    0.0000 C   0  0  0  0  0  0  0  0  0  0  0  0
   -6.9281    0.8000    0.0000 N   0  0  0  0  0  0  0  0  0  0  0  0
   -6.9281    2.4000    0.0000 H   0  0  0  0  0  0  0  0  0  0  0  0
   -8.3138   -0.0000    0.0000 C   0  0  0  0  0  0  0  0  0  0  0  0
   -7.7015   -1.4781    0.0000 H   0  0  0  0  0  0  0  0  0  0  0  0
   -8.9262   -1.4781    0.0000 H   0  0  0  0  0  0  0  0  0  0  0  0
   -9.6994    0.8000    0.0000 C   0  0  0  0  0  0  0  0  0  0  0  0
  -11.0851    1.5999    0.0000 H   0  0  0  0  0  0  0  0  0  0  0  0
  -11.0851   -0.0000    0.0000 H   0  0  0  0  0  0  0  0  0  0  0  0
   -9.6994    2.4000    0.0000 H   0  0  0  0  0  0  0  0  0  0  0  0
   -5.5426   -1.6000    0.0000 N   0  0  0  0  0  0  0  0  0  0  0  0
   -4.1568   -2.4000    0.0000 C   0  0  0  0  0  0  0  0  0  0  0  0
   -4.1568   -3.9999    0.0000 S   0  0  0  0  0  0  0  0  0  0  0  0
   -5.5426   -4.8000    0.0000 C   0  0  0  0  0  0  0  0  0  0  0  0
   -5.5426   -6.4000    0.0000 H   0  0  0  0  0  0  0  0  0  0  0  0
   -6.9281   -5.5999    0.0000 H   0  0  0  0  0  0  0  0  0  0  0  0
   -6.9281   -3.9999    0.0000 H   0  0  0  0  0  0  0  0  0  0  0  0
   -2.7713   -1.6000    0.0000 N   0  0  0  0  0  0  0  0  0  0  0  0
  1  2  1  0  0  0  0
  1  3  1  0  0  0  0
  1  4  1  0  0  0  0
  1  5  1  0  0  0  0
  5  6  1  0  0  0  0
  5  7  1  0  0  0  0
  7  8  1  0  0  0  0
  7  9  1  0  0  0  0
  7 10  1  0  0  0  0
  5 11  1  0  0  0  0
 11 12  1  0  0  0  0
 11 13  1  0  0  0  0
 13 14  1  0  0  0  0
 14 15  2  0  0  0  0
 15 16  1  0  0  0  0
 16 17  1  0  0  0  0
 16 18  1  0  0  0  0
 18 19  1  0  0  0  0
 18 20  1  0  0  0  0
 18 21  1  0  0  0  0
 21 22  1  0  0  0  0
 21 23  1  0  0  0  0
 21 24  1  0  0  0  0
 15 25  1  0  0  0  0
 25 26  2  0  0  0  0
 26 27  1  0  0  0  0
 27 28  1  0  0  0  0
 28 29  1  0  0  0  0
 28 30  1  0  0  0  0
 28 31  1  0  0  0  0
 26 32  1  0  0  0  0
 32 13  2  0  0  0  0
M  END
> <ChemID>
100384

> <source_casrn>
834-12-8

> <CAS>
834-12-8

> <SMILES>
CCNc1[n]c(NC(C)C)[n]c([n]1)SC

> <NAME>
AMETRYNE

> <preferred_name>
Ametryn

> <iupac>
N-ethyl-6-(methylsulfanyl)-N'-(propan-2-yl)-1,3,5-triazine-2,4-diamine

> <MPID>
99658

> <dsstox_substance_id>
DTXSID1023869

> <Canonical_QSARr>
CCNc1[n]c(NC(C)C)[n]c([n]1)SC

> <InChI_Code_QSARr>
InChI=1S/C9H17N5S/c1-5-10-7-12-8(11-6(2)3)14-9(13-7)15-4/h6H,5H2,1-4H3,(H2,10,11,12,13,14)

> <InChI Key_QSARr>
RQVYBGPQFYCBGX-UHFFFAOYSA-N

> <LogKOC>
2.59

$$$$
100385
  -INDIGO-08031722282D

 31 33  0  0  0  0  0  0  0  0999 V2000
    2.7712    3.2001    0.0000 O   0  0  0  0  0  0  0  0  0  0  0  0
    2.7714    4.8000    0.0000 H   0  0  0  0  0  0  0  0  0  0  0  0
    1.3856    2.4000    0.0000 C   0  0  0  0  0  0  0  0  0  0  0  0
   -0.0001    3.2001    0.0000 C   0  0  0  0  0  0  0  0  0  0  0  0
   -0.0001    4.8000    0.0000 H   0  0  0  0  0  0  0  0  0  0  0  0
   -1.3856    2.4000    0.0000 C   0  0  0  0  0  0  0  0  0  0  0  0
   -2.7714    3.2001    0.0000 H   0  0  0  0  0  0  0  0  0  0  0  0
   -1.3856    0.8000    0.0000 C   0  0  0  0  0  0  0  0  0  0  0  0
   -0.0001    0.0000    0.0000 C   0  0  0  0  0  0  0  0  0  0  0  0
   -0.0001   -1.6000    0.0000 C   0  0  0  0  0  0  0  0  0  0  0  0
    1.3856   -2.4001    0.0000 H   0  0  0  0  0  0  0  0  0  0  0  0
   -1.3856   -2.4001    0.0000 C   0  0  0  0  0  0  0  0  0  0  0  0
   -1.3856   -4.0000    0.0000 H   0  0  0  0  0  0  0  0  0  0  0  0
   -2.7712   -1.6000    0.0000 C   0  0  0  0  0  0  0  0  0  0  0  0
   -4.1569   -2.4001    0.0000 H   0  0  0  0  0  0  0  0  0  0  0  0
   -2.7712    0.0000    0.0000 C   0  0  0  0  0  0  0  0  0  0  0  0
   -4.1569    0.8000    0.0000 H   0  0  0  0  0  0  0  0  0  0  0  0
    1.3856    0.8000    0.0000 C   0  0  0  0  0  0  0  0  0  0  0  0
    2.7712    0.0000    0.0000 N   0  0  0  0  0  0  0  0  0  0  0  0
    4.1569    0.8000    0.0000 N   0  0  0  0  0  0  0  0  0  0  0  0
    5.5425    0.0000    0.0000 C   0  0  0  0  0  0  0  0  0  0  0  0
    5.5425   -1.6000    0.0000 C   0  0  0  0  0  0  0  0  0  0  0  0
    4.1569   -2.4001    0.0000 H   0  0  0  0  0  0  0  0  0  0  0  0
    6.9282   -2.4001    0.0000 C   0  0  0  0  0  0  0  0  0  0  0  0
    6.9282   -4.0000    0.0000 H   0  0  0  0  0  0  0  0  0  0  0  0
    8.3140   -1.6000    0.0000 C   0  0  0  0  0  0  0  0  0  0  0  0
    9.6995   -2.4001    0.0000 H   0  0  0  0  0  0  0  0  0  0  0  0
    8.3140    0.0000    0.0000 C   0  0  0  0  0  0  0  0  0  0  0  0
    9.6995    0.8000    0.0000 H   0  0  0  0  0  0  0  0  0  0  0  0
    6.9282    0.8000    0.0000 C   0  0  0  0  0  0  0  0  0  0  0  0
    6.9282    2.4000    0.0000 H   0  0  0  0  0  0  0  0  0  0  0  0
  1  2  1  0  0  0  0
  1  3  1  0  0  0  0
  3  4  1  0  0  0  0
  4  5  1  0  0  0  0
  4  6  2  0  0  0  0
  6  7  1  0  0  0  0
  6  8  1  0  0  0  0
  8  9  1  0  0  0  0
  9 10  2  0  0  0  0
 10 11  1  0  0  0  0
 10 12  1  0  0  0  0
 12 13  1  0  0  0  0
 12 14  2  0  0  0  0
 14 15  1  0  0  0  0
 14 16  1  0  0  0  0
 16  8  2  0  0  0  0
 16 17  1  0  0  0  0
  9 18  1  0  0  0  0
 18  3  2  0  0  0  0
 18 19  1  0  0  0  0
 19 20  2  0  0  0  0
 20 21  1  0  0  0  0
 21 22  1  0  0  0  0
 22 23  1  0  0  0  0
 22 24  2  0  0  0  0
 24 25  1  0  0  0  0
 24 26  1  0  0  0  0
 26 27  1  0  0  0  0
 26 28  2  0  0  0  0
 28 29  1  0  0  0  0
 28 30  1  0  0  0  0
 30 21  2  0  0  0  0
 30 31  1  0  0  0  0
M  END
> <ChemID>
100385

> <source_casrn>
842-07-9

> <CAS>
40339-35-3

> <SMILES>
Oc1ccc2ccccc2c1/N=N/c1ccccc1

> <NAME>
1-(PHENYLAZO)-2-NAPHTHALENOL

> <preferred_name>
C.I. Solvent Yellow 14

> <iupac>
1-[(E)-phenyldiazenyl]naphthalen-2-ol

> <MPID>
99659

> <dsstox_substance_id>
DTXSID90873447

> <Canonical_QSARr>
Oc1ccc2ccccc2c1N=Nc1ccccc1

> <InChI_Code_QSARr>
InChI=1S/C16H12N2O/c19-15-11-10-12-6-4-5-9-14(12)16(15)18-17-13-7-2-1-3-8-13/h1-11,19H/b18-17+

> <InChI Key_QSARr>
MRQIXHXHHPWVIL-ISLYRVAYSA-N

> <LogKOC>
3.58

$$$$
100387
  -INDIGO-08031722282D

 35 35  0  0  0  0  0  0  0  0999 V2000
   -0.7999   -1.3856    0.0000 C   0  0  0  0  0  0  0  0  0  0  0  0
    0.0000   -2.7712    0.0000 H   0  0  0  0  0  0  0  0  0  0  0  0
   -1.6001   -2.7712    0.0000 H   0  0  0  0  0  0  0  0  0  0  0  0
    0.7999   -1.3856    0.0000 H   0  0  0  0  0  0  0  0  0  0  0  0
    0.0000   -0.0000    0.0000 C   0  0  0  0  0  0  0  0  0  0  0  0
    1.5035   -0.5472    0.0000 C   0  0  0  0  0  0  0  0  0  0  0  0
    3.0070   -1.0944    0.0000 H   0  0  0  0  0  0  0  0  0  0  0  0
    2.7292    0.4812    0.0000 H   0  0  0  0  0  0  0  0  0  0  0  0
    1.7813   -2.1229    0.0000 H   0  0  0  0  0  0  0  0  0  0  0  0
    0.7999    1.3857    0.0000 C   0  0  0  0  0  0  0  0  0  0  0  0
    1.6001    2.7713    0.0000 H   0  0  0  0  0  0  0  0  0  0  0  0
    2.4000    1.3857    0.0000 H   0  0  0  0  0  0  0  0  0  0  0  0
    0.0000    2.7713    0.0000 H   0  0  0  0  0  0  0  0  0  0  0  0
   -1.3857    0.8000    0.0000 N   0  0  0  0  0  0  0  0  0  0  0  0
   -1.3857    2.4000    0.0000 H   0  0  0  0  0  0  0  0  0  0  0  0
   -2.7713   -0.0000    0.0000 C   0  0  0  0  0  0  0  0  0  0  0  0
   -4.1570    0.8000    0.0000 N   0  0  0  0  0  0  0  0  0  0  0  0
   -5.5427   -0.0000    0.0000 C   0  0  0  0  0  0  0  0  0  0  0  0
   -6.9281    0.8000    0.0000 N   0  0  0  0  0  0  0  0  0  0  0  0
   -6.9281    2.4000    0.0000 H   0  0  0  0  0  0  0  0  0  0  0  0
   -8.3138   -0.0000    0.0000 C   0  0  0  0  0  0  0  0  0  0  0  0
   -7.7016   -1.4781    0.0000 H   0  0  0  0  0  0  0  0  0  0  0  0
   -8.9262   -1.4781    0.0000 H   0  0  0  0  0  0  0  0  0  0  0  0
   -9.6995    0.8000    0.0000 C   0  0  0  0  0  0  0  0  0  0  0  0
  -11.0851    1.5999    0.0000 H   0  0  0  0  0  0  0  0  0  0  0  0
  -11.0851   -0.0000    0.0000 H   0  0  0  0  0  0  0  0  0  0  0  0
   -9.6995    2.4000    0.0000 H   0  0  0  0  0  0  0  0  0  0  0  0
   -5.5427   -1.6000    0.0000 N   0  0  0  0  0  0  0  0  0  0  0  0
   -4.1570   -2.4000    0.0000 C   0  0  0  0  0  0  0  0  0  0  0  0
   -4.1570   -3.9999    0.0000 S   0  0  0  0  0  0  0  0  0  0  0  0
   -5.5427   -4.8000    0.0000 C   0  0  0  0  0  0  0  0  0  0  0  0
   -5.5427   -6.4000    0.0000 H   0  0  0  0  0  0  0  0  0  0  0  0
   -6.9281   -5.5999    0.0000 H   0  0  0  0  0  0  0  0  0  0  0  0
   -6.9281   -3.9999    0.0000 H   0  0  0  0  0  0  0  0  0  0  0  0
   -2.7713   -1.6000    0.0000 N   0  0  0  0  0  0  0  0  0  0  0  0
  1  2  1  0  0  0  0
  1  3  1  0  0  0  0
  1  4  1  0  0  0  0
  1  5  1  0  0  0  0
  5  6  1  0  0  0  0
  6  7  1  0  0  0  0
  6  8  1  0  0  0  0
  6  9  1  0  0  0  0
  5 10  1  0  0  0  0
 10 11  1  0  0  0  0
 10 12  1  0  0  0  0
 10 13  1  0  0  0  0
  5 14  1  0  0  0  0
 14 15  1  0  0  0  0
 14 16  1  0  0  0  0
 16 17  1  0  0  0  0
 17 18  2  0  0  0  0
 18 19  1  0  0  0  0
 19 20  1  0  0  0  0
 19 21  1  0  0  0  0
 21 22  1  0  0  0  0
 21 23  1  0  0  0  0
 21 24  1  0  0  0  0
 24 25  1  0  0  0  0
 24 26  1  0  0  0  0
 24 27  1  0  0  0  0
 18 28  1  0  0  0  0
 28 29  2  0  0  0  0
 29 30  1  0  0  0  0
 30 31  1  0  0  0  0
 31 32  1  0  0  0  0
 31 33  1  0  0  0  0
 31 34  1  0  0  0  0
 29 35  1  0  0  0  0
 35 16  2  0  0  0  0
M  END
> <ChemID>
100387

> <source_casrn>
886-50-0

> <CAS>
886-50-0

> <SMILES>
CCNc1[n]c(NC(C)(C)C)[n]c([n]1)SC

> <NAME>
TERBUTRYN

> <preferred_name>
Terbutryn

> <iupac>
N-tert-butyl-N'-ethyl-6-(methylsulfanyl)-1,3,5-triazine-2,4-diamine

> <MPID>
99661

> <dsstox_substance_id>
DTXSID3024318

> <Canonical_QSARr>
CCNc1[n]c(NC(C)(C)C)[n]c([n]1)SC

> <InChI_Code_QSARr>
InChI=1S/C10H19N5S/c1-6-11-7-12-8(15-10(2,3)4)14-9(13-7)16-5/h6H2,1-5H3,(H2,11,12,13,14,15)

> <InChI Key_QSARr>
IROINLKCQGIITA-UHFFFAOYSA-N

> <LogKOC>
2.85

$$$$
100388
  -INDIGO-08031722282D

 34 35  0  0  0  0  0  0  0  0999 V2000
    2.7713    0.0000    0.0000 C   0  0  0  0  0  0  0  0  0  0  0  0
    2.7713   -1.6000    0.0000 O   0  0  0  0  0  0  0  0  0  0  0  0
    1.3856    0.8000    0.0000 N   0  0  0  0  0  0  0  0  0  0  0  0
    1.6634    2.3757    0.0000 H   0  0  0  0  0  0  0  0  0  0  0  0
   -0.0001    0.0000    0.0000 C   0  0  0  0  0  0  0  0  0  0  0  0
    1.2257   -1.0285    0.0000 H   0  0  0  0  0  0  0  0  0  0  0  0
   -0.7999    1.3856    0.0000 C   0  0  0  0  0  0  0  0  0  0  0  0
    0.7034    1.9329    0.0000 H   0  0  0  0  0  0  0  0  0  0  0  0
   -1.0777    2.9613    0.0000 H   0  0  0  0  0  0  0  0  0  0  0  0
   -2.4001    1.3856    0.0000 C   0  0  0  0  0  0  0  0  0  0  0  0
   -2.1222    2.9613    0.0000 H   0  0  0  0  0  0  0  0  0  0  0  0
   -3.9034    1.9329    0.0000 H   0  0  0  0  0  0  0  0  0  0  0  0
   -3.1999    0.0000    0.0000 C   0  0  0  0  0  0  0  0  0  0  0  0
   -4.4257    1.0285    0.0000 H   0  0  0  0  0  0  0  0  0  0  0  0
   -4.4257   -1.0285    0.0000 H   0  0  0  0  0  0  0  0  0  0  0  0
   -2.4001   -1.3856    0.0000 C   0  0  0  0  0  0  0  0  0  0  0  0
   -3.9034   -1.9329    0.0000 H   0  0  0  0  0  0  0  0  0  0  0  0
   -2.1222   -2.9613    0.0000 H   0  0  0  0  0  0  0  0  0  0  0  0
   -0.7999   -1.3856    0.0000 C   0  0  0  0  0  0  0  0  0  0  0  0
   -1.0777   -2.9613    0.0000 H   0  0  0  0  0  0  0  0  0  0  0  0
    0.7034   -1.9329    0.0000 H   0  0  0  0  0  0  0  0  0  0  0  0
    4.1570    0.8000    0.0000 N   0  0  0  0  0  0  0  0  0  0  0  0
    4.1570    2.4001    0.0000 H   0  0  0  0  0  0  0  0  0  0  0  0
    5.5427    0.0000    0.0000 C   0  0  0  0  0  0  0  0  0  0  0  0
    5.5427   -1.6000    0.0000 C   0  0  0  0  0  0  0  0  0  0  0  0
    4.1570   -2.4000    0.0000 H   0  0  0  0  0  0  0  0  0  0  0  0
    6.9281   -2.4000    0.0000 C   0  0  0  0  0  0  0  0  0  0  0  0
    6.9281   -4.0000    0.0000 H   0  0  0  0  0  0  0  0  0  0  0  0
    8.3138   -1.6000    0.0000 C   0  0  0  0  0  0  0  0  0  0  0  0
    9.6995   -2.4000    0.0000 H   0  0  0  0  0  0  0  0  0  0  0  0
    8.3138    0.0000    0.0000 C   0  0  0  0  0  0  0  0  0  0  0  0
    9.6995    0.8000    0.0000 H   0  0  0  0  0  0  0  0  0  0  0  0
    6.9281    0.8000    0.0000 C   0  0  0  0  0  0  0  0  0  0  0  0
    6.9281    2.4001    0.0000 H   0  0  0  0  0  0  0  0  0  0  0  0
  1  2  2  0  0  0  0
  1  3  1  0  0  0  0
  3  4  1  0  0  0  0
  3  5  1  0  0  0  0
  5  6  1  0  0  0  0
  5  7  1  0  0  0  0
  7  8  1  0  0  0  0
  7  9  1  0  0  0  0
  7 10  1  0  0  0  0
 10 11  1  0  0  0  0
 10 12  1  0  0  0  0
 10 13  1  0  0  0  0
 13 14  1  0  0  0  0
 13 15  1  0  0  0  0
 13 16  1  0  0  0  0
 16 17  1  0  0  0  0
 16 18  1  0  0  0  0
 16 19  1  0  0  0  0
 19  5  1  0  0  0  0
 19 20  1  0  0  0  0
 19 21  1  0  0  0  0
  1 22  1  0  0  0  0
 22 23  1  0  0  0  0
 22 24  1  0  0  0  0
 24 25  1  0  0  0  0
 25 26  1  0  0  0  0
 25 27  2  0  0  0  0
 27 28  1  0  0  0  0
 27 29  1  0  0  0  0
 29 30  1  0  0  0  0
 29 31  2  0  0  0  0
 31 32  1  0  0  0  0
 31 33  1  0  0  0  0
 33 24  2  0  0  0  0
 33 34  1  0  0  0  0
M  END
> <ChemID>
100388

> <source_casrn>
886-59-9

> <CAS>
886-59-9

> <SMILES>
O=C(NC1CCCCC1)Nc2ccccc2

> <NAME>
3-PHENYL-1-CYCLOHEXYLUREA

> <preferred_name>


> <iupac>


> <MPID>
99662

> <dsstox_substance_id>
DTXSID90877268

> <Canonical_QSARr>
O=C(Nc1ccccc1)NC1CCCCC1

> <InChI_Code_QSARr>
InChI=1S/C13H18N2O/c16-13(14-11-7-3-1-4-8-11)15-12-9-5-2-6-10-12/h1,3-4,7-8,12H,2,5-6,9-10H2,(H2,14,15,16)

> <InChI Key_QSARr>
WPLYTRWMCWBZEN-UHFFFAOYSA-N

> <LogKOC>
2.07

$$$$
100389
  -INDIGO-08031722282D

 27 26  0  0  0  0  0  0  0  0999 V2000
   -2.7713    0.0001    0.0000 P   0  0  0  0  0  0  0  0  0  0  0  0
   -2.7713   -1.5999    0.0000 O   0  0  0  0  0  0  0  0  0  0  0  0
   -4.1569   -0.8000    0.0000 O   0  0  0  0  0  0  0  0  0  0  0  0
   -4.1569   -2.4000    0.0000 C   0  0  0  0  0  0  0  0  0  0  0  0
   -5.5426   -3.1999    0.0000 H   0  0  0  0  0  0  0  0  0  0  0  0
   -4.1569   -4.0000    0.0000 H   0  0  0  0  0  0  0  0  0  0  0  0
   -2.7713   -3.1999    0.0000 H   0  0  0  0  0  0  0  0  0  0  0  0
   -4.1569    0.8000    0.0000 O   0  0  0  0  0  0  0  0  0  0  0  0
   -4.1569    2.4000    0.0000 C   0  0  0  0  0  0  0  0  0  0  0  0
   -4.1569    4.0000    0.0000 H   0  0  0  0  0  0  0  0  0  0  0  0
   -5.5426    3.2001    0.0000 H   0  0  0  0  0  0  0  0  0  0  0  0
   -2.7713    3.2001    0.0000 H   0  0  0  0  0  0  0  0  0  0  0  0
   -1.3856    0.8000    0.0000 S   0  0  0  0  0  0  0  0  0  0  0  0
    0.0001    0.0001    0.0000 C   0  0  0  0  0  0  0  0  0  0  0  0
    0.6122   -1.4782    0.0000 H   0  0  0  0  0  0  0  0  0  0  0  0
   -0.6123   -1.4782    0.0000 H   0  0  0  0  0  0  0  0  0  0  0  0
    1.3856    0.8000    0.0000 C   0  0  0  0  0  0  0  0  0  0  0  0
    0.7734    2.2782    0.0000 H   0  0  0  0  0  0  0  0  0  0  0  0
    1.9979    2.2782    0.0000 H   0  0  0  0  0  0  0  0  0  0  0  0
    2.7713    0.0001    0.0000 S   0  0  0  0  0  0  0  0  0  0  0  0
    4.1570    0.8000    0.0000 C   0  0  0  0  0  0  0  0  0  0  0  0
    3.5446    2.2782    0.0000 H   0  0  0  0  0  0  0  0  0  0  0  0
    4.7692    2.2782    0.0000 H   0  0  0  0  0  0  0  0  0  0  0  0
    5.5425    0.0001    0.0000 C   0  0  0  0  0  0  0  0  0  0  0  0
    6.9282   -0.8000    0.0000 H   0  0  0  0  0  0  0  0  0  0  0  0
    6.9282    0.8000    0.0000 H   0  0  0  0  0  0  0  0  0  0  0  0
    5.5425   -1.5999    0.0000 H   0  0  0  0  0  0  0  0  0  0  0  0
  1  2  2  0  0  0  0
  1  3  1  0  0  0  0
  3  4  1  0  0  0  0
  4  5  1  0  0  0  0
  4  6  1  0  0  0  0
  4  7  1  0  0  0  0
  1  8  1  0  0  0  0
  8  9  1  0  0  0  0
  9 10  1  0  0  0  0
  9 11  1  0  0  0  0
  9 12  1  0  0  0  0
  1 13  1  0  0  0  0
 13 14  1  0  0  0  0
 14 15  1  0  0  0  0
 14 16  1  0  0  0  0
 14 17  1  0  0  0  0
 17 18  1  0  0  0  0
 17 19  1  0  0  0  0
 17 20  1  0  0  0  0
 20 21  1  0  0  0  0
 21 22  1  0  0  0  0
 21 23  1  0  0  0  0
 21 24  1  0  0  0  0
 24 25  1  0  0  0  0
 24 26  1  0  0  0  0
 24 27  1  0  0  0  0
M  END
> <ChemID>
100389

> <source_casrn>
919-86-8

> <CAS>
919-86-8

> <SMILES>
CCSCCSP(=O)(OC)OC

> <NAME>
DEMETON-S-METHYL

> <preferred_name>
Demeton-S-methyl

> <iupac>
S-[2-(ethylsulfanyl)ethyl] O,O-dimethyl phosphorothioate

> <MPID>
99663

> <dsstox_substance_id>
DTXSID5037521

> <Canonical_QSARr>
CCSCCSP(=O)(OC)OC

> <InChI_Code_QSARr>
InChI=1S/C6H15O3PS2/c1-4-11-5-6-12-10(7,8-2)9-3/h4-6H2,1-3H3

> <InChI Key_QSARr>
WEBQKRLKWNIYKK-UHFFFAOYSA-N

> <LogKOC>
1.49

$$$$
100391
  -INDIGO-08031722282D

 24 25  0  0  0  0  0  0  0  0999 V2000
   -2.7712   -0.0000    0.0000 C   0  0  0  0  0  0  0  0  0  0  0  0
   -1.3856    0.8000    0.0000 C   0  0  0  0  0  0  0  0  0  0  0  0
   -1.3856    2.4000    0.0000 H   0  0  0  0  0  0  0  0  0  0  0  0
   -0.0001   -0.0000    0.0000 C   0  0  0  0  0  0  0  0  0  0  0  0
    1.3856    0.8000    0.0000 C   0  0  0  0  0  0  0  0  0  0  0  0
    1.9979    2.2782    0.0000 H   0  0  0  0  0  0  0  0  0  0  0  0
    0.7733    2.2782    0.0000 H   0  0  0  0  0  0  0  0  0  0  0  0
    2.7713   -0.0000    0.0000 C   0  0  0  0  0  0  0  0  0  0  0  0
    4.1569    0.8000    0.0000 H   0  0  0  0  0  0  0  0  0  0  0  0
    4.1569   -0.8000    0.0000 H   0  0  0  0  0  0  0  0  0  0  0  0
    2.7713    1.6000    0.0000 H   0  0  0  0  0  0  0  0  0  0  0  0
   -0.0001   -1.6000    0.0000 C   0  0  0  0  0  0  0  0  0  0  0  0
    1.3856   -2.4000    0.0000 H   0  0  0  0  0  0  0  0  0  0  0  0
   -1.3856   -2.4000    0.0000 C   0  0  0  0  0  0  0  0  0  0  0  0
   -1.3856   -4.0000    0.0000 H   0  0  0  0  0  0  0  0  0  0  0  0
   -2.7712   -1.6000    0.0000 C   0  0  0  0  0  0  0  0  0  0  0  0
   -4.1569   -2.4000    0.0000 C   0  0  0  0  0  0  0  0  0  0  0  0
   -4.1569   -4.0000    0.0000 H   0  0  0  0  0  0  0  0  0  0  0  0
   -5.5425   -1.6000    0.0000 C   0  0  0  0  0  0  0  0  0  0  0  0
   -6.9282   -2.4000    0.0000 H   0  0  0  0  0  0  0  0  0  0  0  0
   -5.5425   -0.0000    0.0000 C   0  0  0  0  0  0  0  0  0  0  0  0
   -6.9282    0.8000    0.0000 H   0  0  0  0  0  0  0  0  0  0  0  0
   -4.1569    0.8000    0.0000 C   0  0  0  0  0  0  0  0  0  0  0  0
   -4.1569    2.4000    0.0000 H   0  0  0  0  0  0  0  0  0  0  0  0
  1  2  1  0  0  0  0
  2  3  1  0  0  0  0
  2  4  2  0  0  0  0
  4  5  1  0  0  0  0
  5  6  1  0  0  0  0
  5  7  1  0  0  0  0
  5  8  1  0  0  0  0
  8  9  1  0  0  0  0
  8 10  1  0  0  0  0
  8 11  1  0  0  0  0
  4 12  1  0  0  0  0
 12 13  1  0  0  0  0
 12 14  2  0  0  0  0
 14 15  1  0  0  0  0
 14 16  1  0  0  0  0
 16  1  1  0  0  0  0
 16 17  2  0  0  0  0
 17 18  1  0  0  0  0
 17 19  1  0  0  0  0
 19 20  1  0  0  0  0
 19 21  2  0  0  0  0
 21 22  1  0  0  0  0
 21 23  1  0  0  0  0
 23  1  2  0  0  0  0
 23 24  1  0  0  0  0
M  END
> <ChemID>
100391

> <source_casrn>
939-27-5

> <CAS>
939-27-5

> <SMILES>
CCc1cc2ccccc2cc1

> <NAME>
2-ETHYLNAPHTHALENE

> <preferred_name>
2-Ethylnaphthalene

> <iupac>
2-Ethylnaphthalene

> <MPID>
99665

> <dsstox_substance_id>
DTXSID9061330

> <Canonical_QSARr>
CCc1cc2ccccc2cc1

> <InChI_Code_QSARr>
InChI=1S/C12H12/c1-2-10-7-8-11-5-3-4-6-12(11)9-10/h3-9H,2H2,1H3

> <InChI Key_QSARr>
RJTJVVYSTUQWNI-UHFFFAOYSA-N

> <LogKOC>
3.76

$$$$
100392
  -INDIGO-08031722282D

 29 29  0  0  0  0  0  0  0  0999 V2000
    0.0001    0.0000    0.0000 P   0  0  0  0  0  0  0  0  0  0  0  0
    1.3857    0.8000    0.0000 S   0  0  0  0  0  0  0  0  0  0  0  0
    2.7712    0.0000    0.0000 C   0  0  0  0  0  0  0  0  0  0  0  0
    4.1569    0.8000    0.0000 C   0  0  0  0  0  0  0  0  0  0  0  0
    4.1569    2.4000    0.0000 H   0  0  0  0  0  0  0  0  0  0  0  0
    5.5425    0.0000    0.0000 C   0  0  0  0  0  0  0  0  0  0  0  0
    6.9282    0.8000    0.0000 H   0  0  0  0  0  0  0  0  0  0  0  0
    5.5425   -1.6000    0.0000 C   0  0  0  0  0  0  0  0  0  0  0  0
    6.9282   -2.4000    0.0000 H   0  0  0  0  0  0  0  0  0  0  0  0
    4.1569   -2.4000    0.0000 C   0  0  0  0  0  0  0  0  0  0  0  0
    4.1569   -4.0000    0.0000 H   0  0  0  0  0  0  0  0  0  0  0  0
    2.7712   -1.6000    0.0000 C   0  0  0  0  0  0  0  0  0  0  0  0
    1.3857   -2.4000    0.0000 H   0  0  0  0  0  0  0  0  0  0  0  0
   -1.3856   -0.8000    0.0000 O   0  0  0  0  0  0  0  0  0  0  0  0
   -1.3856   -2.4000    0.0000 C   0  0  0  0  0  0  0  0  0  0  0  0
   -0.4116   -3.6694    0.0000 H   0  0  0  0  0  0  0  0  0  0  0  0
    0.2007   -2.6089    0.0000 H   0  0  0  0  0  0  0  0  0  0  0  0
   -2.7713   -3.2000    0.0000 C   0  0  0  0  0  0  0  0  0  0  0  0
   -4.1569   -4.0000    0.0000 H   0  0  0  0  0  0  0  0  0  0  0  0
   -2.7713   -4.8000    0.0000 H   0  0  0  0  0  0  0  0  0  0  0  0
   -4.1569   -2.4000    0.0000 H   0  0  0  0  0  0  0  0  0  0  0  0
   -1.3856    0.8000    0.0000 C   0  0  0  0  0  0  0  0  0  0  0  0
   -0.7733    2.2782    0.0000 H   0  0  0  0  0  0  0  0  0  0  0  0
   -1.9979    2.2782    0.0000 H   0  0  0  0  0  0  0  0  0  0  0  0
   -2.7713    0.0000    0.0000 C   0  0  0  0  0  0  0  0  0  0  0  0
   -4.1569    0.8000    0.0000 H   0  0  0  0  0  0  0  0  0  0  0  0
   -4.1569   -0.8000    0.0000 H   0  0  0  0  0  0  0  0  0  0  0  0
   -2.7713    1.6000    0.0000 H   0  0  0  0  0  0  0  0  0  0  0  0
    0.0001    1.6000    0.0000 S   0  0  0  0  0  0  0  0  0  0  0  0
  1  2  1  0  0  0  0
  2  3  1  0  0  0  0
  3  4  1  0  0  0  0
  4  5  1  0  0  0  0
  4  6  2  0  0  0  0
  6  7  1  0  0  0  0
  6  8  1  0  0  0  0
  8  9  1  0  0  0  0
  8 10  2  0  0  0  0
 10 11  1  0  0  0  0
 10 12  1  0  0  0  0
 12  3  2  0  0  0  0
 12 13  1  0  0  0  0
  1 14  1  0  0  0  0
 14 15  1  0  0  0  0
 15 16  1  0  0  0  0
 15 17  1  0  0  0  0
 15 18  1  0  0  0  0
 18 19  1  0  0  0  0
 18 20  1  0  0  0  0
 18 21  1  0  0  0  0
  1 22  1  0  0  0  0
 22 23  1  0  0  0  0
 22 24  1  0  0  0  0
 22 25  1  0  0  0  0
 25 26  1  0  0  0  0
 25 27  1  0  0  0  0
 25 28  1  0  0  0  0
  1 29  2  0  0  0  0
M  END
> <ChemID>
100392

> <source_casrn>
944-22-9

> <CAS>
944-22-9

> <SMILES>
CCP(=S)(OCC)Sc1ccccc1

> <NAME>
FONOPHOS

> <preferred_name>
Fonofos

> <iupac>
O-ethyl S-phenyl ethylphosphonodithioate

> <MPID>
99666

> <dsstox_substance_id>
DTXSID2024113

> <Canonical_QSARr>
CCP(=S)(OCC)Sc1ccccc1

> <InChI_Code_QSARr>
InChI=1S/C10H15OPS2/c1-3-11-12(13,4-2)14-10-8-6-5-7-9-10/h5-9H,3-4H2,1-2H3

> <InChI Key_QSARr>
KVGLBTYUCJYMND-UHFFFAOYSA-N

> <LogKOC>
2.94

$$$$
100393
  -INDIGO-08031722282D

 27 27  0  0  0  0  0  0  0  0999 V2000
   -0.6507    1.4616    0.0000 S   0  0  0  0  0  0  0  0  0  0  0  0
   -0.0000    0.0000    0.0000 P   0  0  0  0  0  0  0  0  0  0  0  0
    1.5911   -0.1672    0.0000 S   0  0  0  0  0  0  0  0  0  0  0  0
    2.5316    1.1272    0.0000 C   0  0  0  0  0  0  0  0  0  0  0  0
    2.4899    2.7266    0.0000 H   0  0  0  0  0  0  0  0  0  0  0  0
    1.3711    2.2286    0.0000 H   0  0  0  0  0  0  0  0  0  0  0  0
    4.1230    0.9599    0.0000 N   0  0  0  0  0  0  0  0  0  0  0  0
    5.1936    2.1490    0.0000 C   0  0  0  0  0  0  0  0  0  0  0  0
    4.8610    3.7140    0.0000 O   0  0  0  0  0  0  0  0  0  0  0  0
    6.6553    1.4982    0.0000 S   0  0  0  0  0  0  0  0  0  0  0  0
    6.4879   -0.0930    0.0000 C   0  0  0  0  0  0  0  0  0  0  0  0
    7.6771   -1.1637    0.0000 O   0  0  0  0  0  0  0  0  0  0  0  0
    9.1987   -0.6693    0.0000 C   0  0  0  0  0  0  0  0  0  0  0  0
   10.7204   -0.1748    0.0000 H   0  0  0  0  0  0  0  0  0  0  0  0
   10.3877   -1.7398    0.0000 H   0  0  0  0  0  0  0  0  0  0  0  0
    9.5314    0.8958    0.0000 H   0  0  0  0  0  0  0  0  0  0  0  0
    4.9229   -0.4257    0.0000 N   0  0  0  0  0  0  0  0  0  0  0  0
   -1.5912    0.1672    0.0000 O   0  0  0  0  0  0  0  0  0  0  0  0
   -2.2421    1.6289    0.0000 C   0  0  0  0  0  0  0  0  0  0  0  0
   -3.8332    1.7961    0.0000 H   0  0  0  0  0  0  0  0  0  0  0  0
   -2.8928    3.0906    0.0000 H   0  0  0  0  0  0  0  0  0  0  0  0
   -1.3016    2.9233    0.0000 H   0  0  0  0  0  0  0  0  0  0  0  0
   -0.9405   -1.2944    0.0000 O   0  0  0  0  0  0  0  0  0  0  0  0
   -0.2896   -2.7561    0.0000 C   0  0  0  0  0  0  0  0  0  0  0  0
    0.3611   -4.2178    0.0000 H   0  0  0  0  0  0  0  0  0  0  0  0
   -1.2301   -4.0505    0.0000 H   0  0  0  0  0  0  0  0  0  0  0  0
    1.3015   -2.9233    0.0000 H   0  0  0  0  0  0  0  0  0  0  0  0
  1  2  2  0  0  0  0
  2  3  1  0  0  0  0
  3  4  1  0  0  0  0
  4  5  1  0  0  0  0
  4  6  1  0  0  0  0
  4  7  1  0  0  0  0
  7  8  1  0  0  0  0
  8  9  2  0  0  0  0
  8 10  1  0  0  0  0
 10 11  1  0  0  0  0
 11 12  1  0  0  0  0
 12 13  1  0  0  0  0
 13 14  1  0  0  0  0
 13 15  1  0  0  0  0
 13 16  1  0  0  0  0
 11 17  2  0  0  0  0
 17  7  1  0  0  0  0
  2 18  1  0  0  0  0
 18 19  1  0  0  0  0
 19 20  1  0  0  0  0
 19 21  1  0  0  0  0
 19 22  1  0  0  0  0
  2 23  1  0  0  0  0
 23 24  1  0  0  0  0
 24 25  1  0  0  0  0
 24 26  1  0  0  0  0
 24 27  1  0  0  0  0
M  END
> <ChemID>
100393

> <source_casrn>
950-37-8

> <CAS>
950-37-8

> <SMILES>
COC1=NN(CSP(=S)(OC)OC)C(=O)S1

> <NAME>
METHIDATHION

> <preferred_name>
Methidathion

> <iupac>
S-[(5-methoxy-2-oxo-1,3,4-thiadiazol-3(2H)-yl)methyl] O,O-dimethyl phosphorodithioate

> <MPID>
99667

> <dsstox_substance_id>
DTXSID5020819

> <Canonical_QSARr>
COC1=NN(CSP(=S)(OC)OC)C(=O)S1

> <InChI_Code_QSARr>
InChI=1S/C6H11N2O4PS3/c1-10-5-7-8(6(9)16-5)4-15-13(14,11-2)12-3/h4H2,1-3H3

> <InChI Key_QSARr>
MEBQXILRKZHVCX-UHFFFAOYSA-N

> <LogKOC>
1.53

$$$$
100395
  -INDIGO-08031722282D

 35 36  0  0  0  0  0  0  0  0999 V2000
   -0.5473    1.5035    0.0000 C   0  0  0  0  0  0  0  0  0  0  0  0
    0.0000   -0.0001    0.0000 C   0  0  0  0  0  0  0  0  0  0  0  0
    0.2779   -1.5757    0.0000 H   0  0  0  0  0  0  0  0  0  0  0  0
   -1.5757   -0.2779    0.0000 C   0  0  0  0  0  0  0  0  0  0  0  0
   -2.9614    0.5222    0.0000 C   0  0  0  0  0  0  0  0  0  0  0  0
   -2.9614    2.1221    0.0000 H   0  0  0  0  0  0  0  0  0  0  0  0
   -4.3469   -0.2779    0.0000 C   0  0  0  0  0  0  0  0  0  0  0  0
   -5.7326    0.5222    0.0000 H   0  0  0  0  0  0  0  0  0  0  0  0
   -4.3469   -1.8778    0.0000 C   0  0  0  0  0  0  0  0  0  0  0  0
   -5.7326   -2.6779    0.0000 H   0  0  0  0  0  0  0  0  0  0  0  0
   -2.9614   -2.6779    0.0000 C   0  0  0  0  0  0  0  0  0  0  0  0
   -2.9614   -4.2778    0.0000 H   0  0  0  0  0  0  0  0  0  0  0  0
   -1.5757   -1.8778    0.0000 C   0  0  0  0  0  0  0  0  0  0  0  0
   -0.1901   -2.6779    0.0000 H   0  0  0  0  0  0  0  0  0  0  0  0
    1.6001   -0.0001    0.0000 C   0  0  0  0  0  0  0  0  0  0  0  0
    2.4000    1.3856    0.0000 C   0  0  0  0  0  0  0  0  0  0  0  0
    1.6001    2.7713    0.0000 H   0  0  0  0  0  0  0  0  0  0  0  0
    4.0000    1.3856    0.0000 C   0  0  0  0  0  0  0  0  0  0  0  0
    4.8001    2.7713    0.0000 H   0  0  0  0  0  0  0  0  0  0  0  0
    4.8001   -0.0001    0.0000 C   0  0  0  0  0  0  0  0  0  0  0  0
    6.4000   -0.0001    0.0000 H   0  0  0  0  0  0  0  0  0  0  0  0
    4.0000   -1.3856    0.0000 C   0  0  0  0  0  0  0  0  0  0  0  0
    4.8001   -2.7713    0.0000 H   0  0  0  0  0  0  0  0  0  0  0  0
    2.4000   -1.3856    0.0000 C   0  0  0  0  0  0  0  0  0  0  0  0
    1.6001   -2.7713    0.0000 H   0  0  0  0  0  0  0  0  0  0  0  0
    0.0000    3.0070    0.0000 N   0  0  0  0  0  0  0  0  0  0  0  0
   -1.2258    4.0355    0.0000 C   0  0  0  0  0  0  0  0  0  0  0  0
   -2.4513    5.0639    0.0000 H   0  0  0  0  0  0  0  0  0  0  0  0
   -0.9479    5.6112    0.0000 H   0  0  0  0  0  0  0  0  0  0  0  0
   -2.7292    3.4882    0.0000 H   0  0  0  0  0  0  0  0  0  0  0  0
    1.3857    3.8070    0.0000 C   0  0  0  0  0  0  0  0  0  0  0  0
    0.0000    4.6070    0.0000 H   0  0  0  0  0  0  0  0  0  0  0  0
    2.7712    3.0070    0.0000 H   0  0  0  0  0  0  0  0  0  0  0  0
    1.3857    5.4070    0.0000 H   0  0  0  0  0  0  0  0  0  0  0  0
   -2.1472    1.5035    0.0000 O   0  0  0  0  0  0  0  0  0  0  0  0
  1  2  1  0  0  0  0
  2  3  1  0  0  0  0
  2  4  1  0  0  0  0
  4  5  1  0  0  0  0
  5  6  1  0  0  0  0
  5  7  2  0  0  0  0
  7  8  1  0  0  0  0
  7  9  1  0  0  0  0
  9 10  1  0  0  0  0
  9 11  2  0  0  0  0
 11 12  1  0  0  0  0
 11 13  1  0  0  0  0
 13  4  2  0  0  0  0
 13 14  1  0  0  0  0
  2 15  1  0  0  0  0
 15 16  1  0  0  0  0
 16 17  1  0  0  0  0
 16 18  2  0  0  0  0
 18 19  1  0  0  0  0
 18 20  1  0  0  0  0
 20 21  1  0  0  0  0
 20 22  2  0  0  0  0
 22 23  1  0  0  0  0
 22 24  1  0  0  0  0
 24 15  2  0  0  0  0
 24 25  1  0  0  0  0
  1 26  1  0  0  0  0
 26 27  1  0  0  0  0
 27 28  1  0  0  0  0
 27 29  1  0  0  0  0
 27 30  1  0  0  0  0
 26 31  1  0  0  0  0
 31 32  1  0  0  0  0
 31 33  1  0  0  0  0
 31 34  1  0  0  0  0
  1 35  2  0  0  0  0
M  END
> <ChemID>
100395

> <source_casrn>
957-51-7

> <CAS>
957-51-7

> <SMILES>
CN(C)C(=O)C(c1ccccc1)c1ccccc1

> <NAME>
DIPHENAMID

> <preferred_name>
Diphenamid

> <iupac>
N,N-dimethyl-2,2-diphenylacetamide

> <MPID>
99669

> <dsstox_substance_id>
DTXSID8024072

> <Canonical_QSARr>
CN(C)C(=O)C(c1ccccc1)c1ccccc1

> <InChI_Code_QSARr>
InChI=1S/C16H17NO/c1-17(2)16(18)15(13-9-5-3-6-10-13)14-11-7-4-8-12-14/h3-12,15H,1-2H3

> <InChI Key_QSARr>
QAHFOPIILNICLA-UHFFFAOYSA-N

> <LogKOC>
2.32

$$$$
100397
  -INDIGO-08031722282D

 28 28  0  0  0  0  0  0  0  0999 V2000
   -4.1569    2.4000    0.0000 Cl  0  0  0  0  0  0  0  0  0  0  0  0
   -2.7712    1.6000    0.0000 C   0  0  0  0  0  0  0  0  0  0  0  0
   -1.3857    2.4000    0.0000 C   0  0  0  0  0  0  0  0  0  0  0  0
   -1.3857    4.0000    0.0000 H   0  0  0  0  0  0  0  0  0  0  0  0
    0.0000    1.6000    0.0000 C   0  0  0  0  0  0  0  0  0  0  0  0
    1.3857    2.4000    0.0000 Cl  0  0  0  0  0  0  0  0  0  0  0  0
    0.0000    0.0000    0.0000 C   0  0  0  0  0  0  0  0  0  0  0  0
    1.3857   -0.8000    0.0000 C   0  0  0  0  0  0  0  0  0  0  0  0
    2.7712    0.0000    0.0000 O   0  0  0  0  0  0  0  0  0  0  0  0
    4.1569   -0.8000    0.0000 P   0  0  0  0  0  0  0  0  0  0  0  0
    4.1569   -2.4000    0.0000 O   0  0  0  0  0  0  0  0  0  0  0  0
    5.5426   -1.6000    0.0000 O   0  0  0  0  0  0  0  0  0  0  0  0
    6.9281   -0.8000    0.0000 C   0  0  0  0  0  0  0  0  0  0  0  0
    8.3138   -1.6000    0.0000 H   0  0  0  0  0  0  0  0  0  0  0  0
    8.3138    0.0000    0.0000 H   0  0  0  0  0  0  0  0  0  0  0  0
    6.9281   -2.4000    0.0000 H   0  0  0  0  0  0  0  0  0  0  0  0
    5.5426    0.0000    0.0000 O   0  0  0  0  0  0  0  0  0  0  0  0
    5.5426    1.6000    0.0000 C   0  0  0  0  0  0  0  0  0  0  0  0
    5.5426    3.2000    0.0000 H   0  0  0  0  0  0  0  0  0  0  0  0
    6.9281    2.4000    0.0000 H   0  0  0  0  0  0  0  0  0  0  0  0
    4.1569    2.4000    0.0000 H   0  0  0  0  0  0  0  0  0  0  0  0
    1.3857   -2.4000    0.0000 C   0  0  0  0  0  0  0  0  0  0  0  0
    2.7712   -3.2000    0.0000 H   0  0  0  0  0  0  0  0  0  0  0  0
    0.0000   -3.2000    0.0000 Cl  0  0  0  0  0  0  0  0  0  0  0  0
   -1.3857   -0.8000    0.0000 C   0  0  0  0  0  0  0  0  0  0  0  0
   -1.3857   -2.4000    0.0000 H   0  0  0  0  0  0  0  0  0  0  0  0
   -2.7712    0.0000    0.0000 C   0  0  0  0  0  0  0  0  0  0  0  0
   -4.1569   -0.8000    0.0000 Cl  0  0  0  0  0  0  0  0  0  0  0  0
  1  2  1  0  0  0  0
  2  3  1  0  0  0  0
  3  4  1  0  0  0  0
  3  5  2  0  0  0  0
  5  6  1  0  0  0  0
  5  7  1  0  0  0  0
  7  8  1  0  0  0  0
  8  9  1  0  0  0  0
  9 10  1  0  0  0  0
 10 11  2  0  0  0  0
 10 12  1  0  0  0  0
 12 13  1  0  0  0  0
 13 14  1  0  0  0  0
 13 15  1  0  0  0  0
 13 16  1  0  0  0  0
 10 17  1  0  0  0  0
 17 18  1  0  0  0  0
 18 19  1  0  0  0  0
 18 20  1  0  0  0  0
 18 21  1  0  0  0  0
  8 22  2  0  0  0  0
 22 23  1  0  0  0  0
 22 24  1  0  0  0  0
  7 25  2  0  0  0  0
 25 26  1  0  0  0  0
 25 27  1  0  0  0  0
 27  2  2  0  0  0  0
 27 28  1  0  0  0  0
M  END
> <ChemID>
100397

> <source_casrn>
961-11-5|22248-79-9

> <CAS>
961-11-5|22248-79-9

> <SMILES>
COP(=O)(OC(=CCl)c1cc(Cl)c(Cl)cc1Cl)OC

> <NAME>
STIROFOS, TETRACHLORVINPHOS

> <preferred_name>
Tetrachlorovinphos

> <iupac>
C10H9Cl4O4P

> <MPID>
99671|99839

> <dsstox_substance_id>
DTXSID1021320|DTXSID1032648

> <Canonical_QSARr>
COP(=O)(OC(=CCl)c1cc(Cl)c(Cl)cc1Cl)OC

> <InChI_Code_QSARr>
InChI=1S/C10H9Cl4O4P/c1-16-19(15,17-2)18-10(5-11)6-3-8(13)9(14)4-7(6)12/h3-5H,1-2H3/b10-5+

> <InChI Key_QSARr>
UBCKGWBNUIFUST-BJMVGYQFSA-N

> <LogKOC>
3.01

$$$$
100398
  -INDIGO-08031722282D

 21 21  0  0  0  0  0  0  0  0999 V2000
    0.0001   -0.0000    0.0000 C   0  0  0  0  0  0  0  0  0  0  0  0
    1.3857    0.8000    0.0000 N   0  0  0  0  0  0  0  0  0  0  0  0
    1.3857    2.4000    0.0000 H   0  0  0  0  0  0  0  0  0  0  0  0
    2.7712   -0.0000    0.0000 C   0  0  0  0  0  0  0  0  0  0  0  0
    4.1569    0.8000    0.0000 N   0  0  0  0  0  0  0  0  0  0  0  0
    4.1569    2.4000    0.0000 H   0  0  0  0  0  0  0  0  0  0  0  0
    5.5425   -0.0000    0.0000 C   0  0  0  0  0  0  0  0  0  0  0  0
    6.9282   -0.8000    0.0000 H   0  0  0  0  0  0  0  0  0  0  0  0
    6.9282    0.8000    0.0000 H   0  0  0  0  0  0  0  0  0  0  0  0
    5.5425   -1.6000    0.0000 H   0  0  0  0  0  0  0  0  0  0  0  0
    2.7712   -1.6000    0.0000 O   0  0  0  0  0  0  0  0  0  0  0  0
    0.0001   -1.6000    0.0000 C   0  0  0  0  0  0  0  0  0  0  0  0
    1.3857   -2.4000    0.0000 H   0  0  0  0  0  0  0  0  0  0  0  0
   -1.3856   -2.4000    0.0000 C   0  0  0  0  0  0  0  0  0  0  0  0
   -1.3856   -4.0000    0.0000 H   0  0  0  0  0  0  0  0  0  0  0  0
   -2.7713   -1.6000    0.0000 C   0  0  0  0  0  0  0  0  0  0  0  0
   -4.1569   -2.4000    0.0000 H   0  0  0  0  0  0  0  0  0  0  0  0
   -2.7713   -0.0000    0.0000 C   0  0  0  0  0  0  0  0  0  0  0  0
   -4.1569    0.8000    0.0000 H   0  0  0  0  0  0  0  0  0  0  0  0
   -1.3856    0.8000    0.0000 C   0  0  0  0  0  0  0  0  0  0  0  0
   -1.3856    2.4000    0.0000 H   0  0  0  0  0  0  0  0  0  0  0  0
  1  2  1  0  0  0  0
  2  3  1  0  0  0  0
  2  4  1  0  0  0  0
  4  5  1  0  0  0  0
  5  6  1  0  0  0  0
  5  7  1  0  0  0  0
  7  8  1  0  0  0  0
  7  9  1  0  0  0  0
  7 10  1  0  0  0  0
  4 11  2  0  0  0  0
  1 12  1  0  0  0  0
 12 13  1  0  0  0  0
 12 14  2  0  0  0  0
 14 15  1  0  0  0  0
 14 16  1  0  0  0  0
 16 17  1  0  0  0  0
 16 18  2  0  0  0  0
 18 19  1  0  0  0  0
 18 20  1  0  0  0  0
 20  1  2  0  0  0  0
 20 21  1  0  0  0  0
M  END
> <ChemID>
100398

> <source_casrn>
1007-36-9

> <CAS>
1007-36-9

> <SMILES>
CNC(=O)Nc1ccccc1

> <NAME>
1-PHENYL-3-METHYLUREA

> <preferred_name>
N-Methyl-N'-phenylurea

> <iupac>
3-methyl-1-phenylurea

> <MPID>
99672

> <dsstox_substance_id>
DTXSID1074416

> <Canonical_QSARr>
CNC(=O)Nc1ccccc1

> <InChI_Code_QSARr>
InChI=1S/C8H10N2O/c1-9-8(11)10-7-5-3-2-4-6-7/h2-6H,1H3,(H2,9,10,11)

> <InChI Key_QSARr>
SQBHGDSDVWCPHN-UHFFFAOYSA-N

> <LogKOC>
1.29

$$$$
100400
  -INDIGO-08031722282D

 23 26  0  0  0  0  0  0  0  0999 V2000
   -3.3095    0.9322    0.0000 C   0  0  0  0  0  0  0  0  0  0  0  0
   -1.9239    1.7323    0.0000 C   0  0  0  0  0  0  0  0  0  0  0  0
   -0.3327    1.5651    0.0000 C   0  0  0  0  0  0  0  0  0  0  0  0
   -0.6653    3.1301    0.0000 H   0  0  0  0  0  0  0  0  0  0  0  0
   -0.0000    0.0000    0.0000 C   0  0  0  0  0  0  0  0  0  0  0  0
    0.3326   -1.5651    0.0000 H   0  0  0  0  0  0  0  0  0  0  0  0
   -1.3857   -0.8000    0.0000 C   0  0  0  0  0  0  0  0  0  0  0  0
   -2.5747    0.2706    0.0000 C   0  0  0  0  0  0  0  0  0  0  0  0
   -4.1504    0.5484    0.0000 Cl  0  0  0  0  0  0  0  0  0  0  0  0
   -3.9011   -0.6241    0.0000 Cl  0  0  0  0  0  0  0  0  0  0  0  0
   -1.0530   -2.3650    0.0000 Cl  0  0  0  0  0  0  0  0  0  0  0  0
   -2.9769   -0.6327    0.0000 C   0  0  0  0  0  0  0  0  0  0  0  0
   -4.0475   -1.8217    0.0000 Cl  0  0  0  0  0  0  0  0  0  0  0  0
    1.5912   -0.1672    0.0000 C   0  0  0  0  0  0  0  0  0  0  0  0
    1.5912   -1.7672    0.0000 H   0  0  0  0  0  0  0  0  0  0  0  0
    2.2420    1.2944    0.0000 C   0  0  0  0  0  0  0  0  0  0  0  0
    3.4310    2.3650    0.0000 H   0  0  0  0  0  0  0  0  0  0  0  0
    3.1825    0.0000    0.0000 O   0  0  0  0  0  0  0  0  0  0  0  0
    1.0530    2.3650    0.0000 C   0  0  0  0  0  0  0  0  0  0  0  0
    2.2420    3.4356    0.0000 H   0  0  0  0  0  0  0  0  0  0  0  0
    0.1125    3.6595    0.0000 Cl  0  0  0  0  0  0  0  0  0  0  0  0
   -2.2565    3.2974    0.0000 Cl  0  0  0  0  0  0  0  0  0  0  0  0
   -4.7712    1.5831    0.0000 Cl  0  0  0  0  0  0  0  0  0  0  0  0
  1  2  1  0  0  0  0
  2  3  1  0  0  0  0
  3  4  1  0  0  0  0
  3  5  1  0  0  0  0
  5  6  1  0  0  0  0
  5  7  1  0  0  0  0
  7  8  1  0  0  0  0
  8  2  1  0  0  0  0
  8  9  1  0  0  0  0
  8 10  1  0  0  0  0
  7 11  1  0  0  0  0
  7 12  1  0  0  0  0
 12  1  2  0  0  0  0
 12 13  1  0  0  0  0
  5 14  1  0  0  0  0
 14 15  1  0  0  0  0
 14 16  1  0  0  0  0
 16 17  1  0  0  0  0
 16 18  1  0  0  0  0
 18 14  1  0  0  0  0
 16 19  1  0  0  0  0
 19  3  1  0  0  0  0
 19 20  1  0  0  0  0
 19 21  1  0  0  0  0
  2 22  1  0  0  0  0
  1 23  1  0  0  0  0
M  END
> <ChemID>
100400

> <source_casrn>
1024-57-3

> <CAS>
1024-57-3

> <SMILES>
ClC1(Cl)C2(Cl)C3C4OC4C(Cl)C3C1(Cl)C(Cl)=C2Cl

> <NAME>
HEPTACHLOR EPOXIDE

> <preferred_name>
Heptachlor epoxide

> <iupac>
2,3,4,5,6,7,7-heptachloro-1b,2,5,5a,6,6a-hexahydro-1aH-2,5-methanoindeno[1,2-b]oxirene

> <MPID>
99674

> <dsstox_substance_id>
DTXSID1024126

> <Canonical_QSARr>
ClC1(Cl)C2(Cl)C3C4OC4C(Cl)C3C1(Cl)C(Cl)=C2Cl

> <InChI_Code_QSARr>
InChI=1S/C10H5Cl7O/c11-3-1-2(4-5(3)18-4)9(15)7(13)6(12)8(1,14)10(9,16)17/h1-5H

> <InChI Key_QSARr>
ZXFXBSWRVIQKOD-UHFFFAOYSA-N

> <LogKOC>
4.02

$$$$
100401
  -INDIGO-08031722282D

 18 17  0  0  0  0  0  0  0  0999 V2000
    1.3856    0.8000    0.0000 P   0  0  0  0  0  0  0  0  0  0  0  0
    1.3856    2.4000    0.0000 O   0  0  0  0  0  0  0  0  0  0  0  0
   -0.0001    0.0000    0.0000 C   0  0  0  0  0  0  0  0  0  0  0  0
    0.6123   -1.4782    0.0000 H   0  0  0  0  0  0  0  0  0  0  0  0
   -0.6122   -1.4782    0.0000 H   0  0  0  0  0  0  0  0  0  0  0  0
   -1.3856    0.8000    0.0000 N   0  0  0  0  0  0  0  0  0  0  0  0
   -1.3857    2.4000    0.0000 H   0  0  0  0  0  0  0  0  0  0  0  0
   -2.7712    0.0000    0.0000 C   0  0  0  0  0  0  0  0  0  0  0  0
   -2.1591   -1.4782    0.0000 H   0  0  0  0  0  0  0  0  0  0  0  0
   -3.3835   -1.4782    0.0000 H   0  0  0  0  0  0  0  0  0  0  0  0
   -4.1569    0.8000    0.0000 C   0  0  0  0  0  0  0  0  0  0  0  0
   -4.1569    2.4000    0.0000 O   0  0  0  0  0  0  0  0  0  0  0  0
   -5.5425    0.0000    0.0000 O   0  0  0  0  0  0  0  0  0  0  0  0
   -6.9282    0.8000    0.0000 H   0  0  0  0  0  0  0  0  0  0  0  0
    2.7713    1.6000    0.0000 O   0  0  0  0  0  0  0  0  0  0  0  0
    4.1569    0.8000    0.0000 H   0  0  0  0  0  0  0  0  0  0  0  0
    2.7713    0.0000    0.0000 O   0  0  0  0  0  0  0  0  0  0  0  0
    2.7713   -1.6000    0.0000 H   0  0  0  0  0  0  0  0  0  0  0  0
  1  2  2  0  0  0  0
  1  3  1  0  0  0  0
  3  4  1  0  0  0  0
  3  5  1  0  0  0  0
  3  6  1  0  0  0  0
  6  7  1  0  0  0  0
  6  8  1  0  0  0  0
  8  9  1  0  0  0  0
  8 10  1  0  0  0  0
  8 11  1  0  0  0  0
 11 12  2  0  0  0  0
 11 13  1  0  0  0  0
 13 14  1  0  0  0  0
  1 15  1  0  0  0  0
 15 16  1  0  0  0  0
  1 17  1  0  0  0  0
 17 18  1  0  0  0  0
M  END
> <ChemID>
100401

> <source_casrn>
1071-83-6

> <CAS>
1071-83-6

> <SMILES>
OC(=O)CNCP(O)(O)=O

> <NAME>
GLYPHOSPHATE

> <preferred_name>
Glyphosate

> <iupac>
N-(phosphonomethyl)glycine

> <MPID>
99675

> <dsstox_substance_id>
DTXSID1024122

> <Canonical_QSARr>
OC(=O)CNCP(O)(O)=O

> <InChI_Code_QSARr>
InChI=1S/C3H8NO5P/c5-3(6)1-4-2-10(7,8)9/h4H,1-2H2,(H,5,6)(H2,7,8,9)

> <InChI Key_QSARr>
XDDAORKBJWWYJS-UHFFFAOYSA-N

> <LogKOC>
3.32

$$$$
100402
  -INDIGO-08031722282D

 34 33  0  0  0  0  0  0  0  0999 V2000
   -1.6000   -2.7713    0.0000 O   0  0  0  0  0  0  0  0  0  0  0  0
   -2.4000   -1.3857    0.0000 C   0  0  0  0  0  0  0  0  0  0  0  0
   -1.6000   -0.0000    0.0000 N   0  0  0  0  0  0  0  0  0  0  0  0
    0.0000   -0.0000    0.0000 C   0  0  0  0  0  0  0  0  0  0  0  0
    1.2694    0.9740    0.0000 H   0  0  0  0  0  0  0  0  0  0  0  0
    0.2088    1.5863    0.0000 H   0  0  0  0  0  0  0  0  0  0  0  0
    0.8000   -1.3857    0.0000 C   0  0  0  0  0  0  0  0  0  0  0  0
   -0.4694   -2.3597    0.0000 H   0  0  0  0  0  0  0  0  0  0  0  0
    0.5912   -2.9719    0.0000 H   0  0  0  0  0  0  0  0  0  0  0  0
    2.4000   -1.3857    0.0000 C   0  0  0  0  0  0  0  0  0  0  0  0
    3.6694   -0.4116    0.0000 H   0  0  0  0  0  0  0  0  0  0  0  0
    2.6088    0.2007    0.0000 H   0  0  0  0  0  0  0  0  0  0  0  0
    3.2000   -2.7713    0.0000 C   0  0  0  0  0  0  0  0  0  0  0  0
    4.0000   -4.1569    0.0000 H   0  0  0  0  0  0  0  0  0  0  0  0
    4.8000   -2.7713    0.0000 H   0  0  0  0  0  0  0  0  0  0  0  0
    2.4000   -4.1569    0.0000 H   0  0  0  0  0  0  0  0  0  0  0  0
   -2.4000    1.3856    0.0000 C   0  0  0  0  0  0  0  0  0  0  0  0
   -1.1306    2.3596    0.0000 H   0  0  0  0  0  0  0  0  0  0  0  0
   -2.1912    2.9720    0.0000 H   0  0  0  0  0  0  0  0  0  0  0  0
   -4.0000    1.3856    0.0000 C   0  0  0  0  0  0  0  0  0  0  0  0
   -4.8000    2.7712    0.0000 H   0  0  0  0  0  0  0  0  0  0  0  0
   -5.6000    1.3856    0.0000 H   0  0  0  0  0  0  0  0  0  0  0  0
   -3.2000    2.7712    0.0000 H   0  0  0  0  0  0  0  0  0  0  0  0
   -4.0000   -1.3857    0.0000 S   0  0  0  0  0  0  0  0  0  0  0  0
   -4.8000   -2.7713    0.0000 C   0  0  0  0  0  0  0  0  0  0  0  0
   -4.5912   -4.3575    0.0000 H   0  0  0  0  0  0  0  0  0  0  0  0
   -3.5306   -3.7453    0.0000 H   0  0  0  0  0  0  0  0  0  0  0  0
   -6.4000   -2.7713    0.0000 C   0  0  0  0  0  0  0  0  0  0  0  0
   -6.6088   -1.1849    0.0000 H   0  0  0  0  0  0  0  0  0  0  0  0
   -7.6694   -1.7973    0.0000 H   0  0  0  0  0  0  0  0  0  0  0  0
   -7.2000   -4.1569    0.0000 C   0  0  0  0  0  0  0  0  0  0  0  0
   -8.0000   -5.5426    0.0000 H   0  0  0  0  0  0  0  0  0  0  0  0
   -8.8000   -4.1569    0.0000 H   0  0  0  0  0  0  0  0  0  0  0  0
   -6.4000   -5.5426    0.0000 H   0  0  0  0  0  0  0  0  0  0  0  0
  1  2  2  0  0  0  0
  2  3  1  0  0  0  0
  3  4  1  0  0  0  0
  4  5  1  0  0  0  0
  4  6  1  0  0  0  0
  4  7  1  0  0  0  0
  7  8  1  0  0  0  0
  7  9  1  0  0  0  0
  7 10  1  0  0  0  0
 10 11  1  0  0  0  0
 10 12  1  0  0  0  0
 10 13  1  0  0  0  0
 13 14  1  0  0  0  0
 13 15  1  0  0  0  0
 13 16  1  0  0  0  0
  3 17  1  0  0  0  0
 17 18  1  0  0  0  0
 17 19  1  0  0  0  0
 17 20  1  0  0  0  0
 20 21  1  0  0  0  0
 20 22  1  0  0  0  0
 20 23  1  0  0  0  0
  2 24  1  0  0  0  0
 24 25  1  0  0  0  0
 25 26  1  0  0  0  0
 25 27  1  0  0  0  0
 25 28  1  0  0  0  0
 28 29  1  0  0  0  0
 28 30  1  0  0  0  0
 28 31  1  0  0  0  0
 31 32  1  0  0  0  0
 31 33  1  0  0  0  0
 31 34  1  0  0  0  0
M  END
> <ChemID>
100402

> <source_casrn>
1114-71-2

> <CAS>
1114-71-2

> <SMILES>
CCN(CCCC)C(=O)SCCC

> <NAME>
PEBULATE

> <preferred_name>
Pebulate

> <iupac>
S-propyl butyl(ethyl)carbamothioate

> <MPID>
99676

> <dsstox_substance_id>
DTXSID8021199

> <Canonical_QSARr>
CCN(CCCC)C(=O)SCCC

> <InChI_Code_QSARr>
InChI=1S/C10H21NOS/c1-4-7-8-11(6-3)10(12)13-9-5-2/h4-9H2,1-3H3

> <InChI Key_QSARr>
SGEJQUSYQTVSIU-UHFFFAOYSA-N

> <LogKOC>
2.8

$$$$
100404
  -INDIGO-08031722282D

 25 25  0  0  0  0  0  0  0  0999 V2000
   -5.5426   -0.0000    0.0000 C   0  0  0  0  0  0  0  0  0  0  0  0
   -4.1569    0.8000    0.0000 N   0  0  0  0  0  0  0  0  0  0  0  0
   -4.1569    2.4000    0.0000 H   0  0  0  0  0  0  0  0  0  0  0  0
   -2.7713   -0.0000    0.0000 C   0  0  0  0  0  0  0  0  0  0  0  0
   -1.3856    0.8000    0.0000 C   0  0  0  0  0  0  0  0  0  0  0  0
   -0.7733    2.2782    0.0000 H   0  0  0  0  0  0  0  0  0  0  0  0
   -1.9980    2.2782    0.0000 H   0  0  0  0  0  0  0  0  0  0  0  0
    0.0001   -0.0000    0.0000 C   0  0  0  0  0  0  0  0  0  0  0  0
   -0.6123   -1.4782    0.0000 H   0  0  0  0  0  0  0  0  0  0  0  0
    0.6122   -1.4782    0.0000 H   0  0  0  0  0  0  0  0  0  0  0  0
    1.3856    0.8000    0.0000 C   0  0  0  0  0  0  0  0  0  0  0  0
    2.7713    1.6000    0.0000 H   0  0  0  0  0  0  0  0  0  0  0  0
    2.7713   -0.0000    0.0000 H   0  0  0  0  0  0  0  0  0  0  0  0
    1.3856    2.4000    0.0000 H   0  0  0  0  0  0  0  0  0  0  0  0
   -2.7713   -1.6000    0.0000 O   0  0  0  0  0  0  0  0  0  0  0  0
   -5.5426   -1.6000    0.0000 C   0  0  0  0  0  0  0  0  0  0  0  0
   -4.1569   -2.4000    0.0000 H   0  0  0  0  0  0  0  0  0  0  0  0
   -6.9283   -2.4000    0.0000 C   0  0  0  0  0  0  0  0  0  0  0  0
   -6.9283   -4.0000    0.0000 H   0  0  0  0  0  0  0  0  0  0  0  0
   -8.3138   -1.6000    0.0000 C   0  0  0  0  0  0  0  0  0  0  0  0
   -9.6995   -2.4000    0.0000 H   0  0  0  0  0  0  0  0  0  0  0  0
   -8.3138   -0.0000    0.0000 C   0  0  0  0  0  0  0  0  0  0  0  0
   -9.6995    0.8000    0.0000 H   0  0  0  0  0  0  0  0  0  0  0  0
   -6.9283    0.8000    0.0000 C   0  0  0  0  0  0  0  0  0  0  0  0
   -6.9283    2.4000    0.0000 H   0  0  0  0  0  0  0  0  0  0  0  0
  1  2  1  0  0  0  0
  2  3  1  0  0  0  0
  2  4  1  0  0  0  0
  4  5  1  0  0  0  0
  5  6  1  0  0  0  0
  5  7  1  0  0  0  0
  5  8  1  0  0  0  0
  8  9  1  0  0  0  0
  8 10  1  0  0  0  0
  8 11  1  0  0  0  0
 11 12  1  0  0  0  0
 11 13  1  0  0  0  0
 11 14  1  0  0  0  0
  4 15  2  0  0  0  0
  1 16  1  0  0  0  0
 16 17  1  0  0  0  0
 16 18  2  0  0  0  0
 18 19  1  0  0  0  0
 18 20  1  0  0  0  0
 20 21  1  0  0  0  0
 20 22  2  0  0  0  0
 22 23  1  0  0  0  0
 22 24  1  0  0  0  0
 24  1  2  0  0  0  0
 24 25  1  0  0  0  0
M  END
> <ChemID>
100404

> <source_casrn>
1129-50-6

> <CAS>
1129-50-6

> <SMILES>
CCCC(=O)Nc1ccccc1

> <NAME>
BUTYRANILIDE

> <preferred_name>
Butanamide, N-phenyl-

> <iupac>
N-phenylbutanamide

> <MPID>
99678

> <dsstox_substance_id>
DTXSID9061544

> <Canonical_QSARr>
CCCC(=O)Nc1ccccc1

> <InChI_Code_QSARr>
InChI=1S/C10H13NO/c1-2-6-10(12)11-9-7-4-3-5-8-9/h3-5,7-8H,2,6H2,1H3,(H,11,12)

> <InChI Key_QSARr>
UHANVDZCDNSILX-UHFFFAOYSA-N

> <LogKOC>
1.71

$$$$
100405
  -INDIGO-08031722282D

 35 35  0  0  0  0  0  0  0  0999 V2000
   -2.6284   -1.2257    0.0000 C   0  0  0  0  0  0  0  0  0  0  0  0
   -2.0812   -2.7291    0.0000 O   0  0  0  0  0  0  0  0  0  0  0  0
   -4.2041   -0.9478    0.0000 S   0  0  0  0  0  0  0  0  0  0  0  0
   -5.2327   -2.1735    0.0000 C   0  0  0  0  0  0  0  0  0  0  0  0
   -4.1516   -3.3532    0.0000 H   0  0  0  0  0  0  0  0  0  0  0  0
   -5.3024   -3.7720    0.0000 H   0  0  0  0  0  0  0  0  0  0  0  0
   -6.8083   -1.8957    0.0000 C   0  0  0  0  0  0  0  0  0  0  0  0
   -8.3840   -1.6179    0.0000 H   0  0  0  0  0  0  0  0  0  0  0  0
   -7.8368   -3.1213    0.0000 H   0  0  0  0  0  0  0  0  0  0  0  0
   -7.3556   -0.3921    0.0000 H   0  0  0  0  0  0  0  0  0  0  0  0
   -1.6000    0.0000    0.0000 N   0  0  0  0  0  0  0  0  0  0  0  0
   -0.0000    0.0000    0.0000 C   0  0  0  0  0  0  0  0  0  0  0  0
   -0.5473    1.5035    0.0000 H   0  0  0  0  0  0  0  0  0  0  0  0
   -0.0000   -1.5999    0.0000 C   0  0  0  0  0  0  0  0  0  0  0  0
   -1.5757   -1.3222    0.0000 H   0  0  0  0  0  0  0  0  0  0  0  0
   -0.5473   -3.1035    0.0000 H   0  0  0  0  0  0  0  0  0  0  0  0
    1.3856   -2.4000    0.0000 C   0  0  0  0  0  0  0  0  0  0  0  0
    0.3572   -3.6257    0.0000 H   0  0  0  0  0  0  0  0  0  0  0  0
    2.4141   -3.6257    0.0000 H   0  0  0  0  0  0  0  0  0  0  0  0
    2.7713   -1.5999    0.0000 C   0  0  0  0  0  0  0  0  0  0  0  0
    3.3186   -3.1035    0.0000 H   0  0  0  0  0  0  0  0  0  0  0  0
    4.3470   -1.3222    0.0000 H   0  0  0  0  0  0  0  0  0  0  0  0
    2.7713    0.0000    0.0000 C   0  0  0  0  0  0  0  0  0  0  0  0
    4.3470   -0.2778    0.0000 H   0  0  0  0  0  0  0  0  0  0  0  0
    3.3186    1.5035    0.0000 H   0  0  0  0  0  0  0  0  0  0  0  0
    1.3856    0.8000    0.0000 C   0  0  0  0  0  0  0  0  0  0  0  0
    2.4141    2.0256    0.0000 H   0  0  0  0  0  0  0  0  0  0  0  0
    0.3572    2.0256    0.0000 H   0  0  0  0  0  0  0  0  0  0  0  0
   -2.3999    1.3857    0.0000 C   0  0  0  0  0  0  0  0  0  0  0  0
   -2.1911    2.9720    0.0000 H   0  0  0  0  0  0  0  0  0  0  0  0
   -1.1306    2.3597    0.0000 H   0  0  0  0  0  0  0  0  0  0  0  0
   -4.0001    1.3857    0.0000 C   0  0  0  0  0  0  0  0  0  0  0  0
   -4.8001    2.7713    0.0000 H   0  0  0  0  0  0  0  0  0  0  0  0
   -5.6000    1.3857    0.0000 H   0  0  0  0  0  0  0  0  0  0  0  0
   -3.1999    2.7713    0.0000 H   0  0  0  0  0  0  0  0  0  0  0  0
  1  2  2  0  0  0  0
  1  3  1  0  0  0  0
  3  4  1  0  0  0  0
  4  5  1  0  0  0  0
  4  6  1  0  0  0  0
  4  7  1  0  0  0  0
  7  8  1  0  0  0  0
  7  9  1  0  0  0  0
  7 10  1  0  0  0  0
  1 11  1  0  0  0  0
 11 12  1  0  0  0  0
 12 13  1  0  0  0  0
 12 14  1  0  0  0  0
 14 15  1  0  0  0  0
 14 16  1  0  0  0  0
 14 17  1  0  0  0  0
 17 18  1  0  0  0  0
 17 19  1  0  0  0  0
 17 20  1  0  0  0  0
 20 21  1  0  0  0  0
 20 22  1  0  0  0  0
 20 23  1  0  0  0  0
 23 24  1  0  0  0  0
 23 25  1  0  0  0  0
 23 26  1  0  0  0  0
 26 12  1  0  0  0  0
 26 27  1  0  0  0  0
 26 28  1  0  0  0  0
 11 29  1  0  0  0  0
 29 30  1  0  0  0  0
 29 31  1  0  0  0  0
 29 32  1  0  0  0  0
 32 33  1  0  0  0  0
 32 34  1  0  0  0  0
 32 35  1  0  0  0  0
M  END
> <ChemID>
100405

> <source_casrn>
1134-23-2

> <CAS>
1134-23-2

> <SMILES>
CCN(C1CCCCC1)C(=O)SCC

> <NAME>
CYCLOATE

> <preferred_name>
Cycloate

> <iupac>
S-ethyl cyclohexyl(ethyl)carbamothioate

> <MPID>
99679

> <dsstox_substance_id>
DTXSID6032356

> <Canonical_QSARr>
CCN(C1CCCCC1)C(=O)SCC

> <InChI_Code_QSARr>
InChI=1S/C11H21NOS/c1-3-12(11(13)14-4-2)10-8-6-5-7-9-10/h10H,3-9H2,1-2H3

> <InChI Key_QSARr>
DFCAFRGABIXSDS-UHFFFAOYSA-N

> <LogKOC>
2.54

$$$$
100406
  -INDIGO-08031722282D

 13 13  0  0  0  0  0  0  0  0999 V2000
    0.0000   -0.0000    0.0000 C   0  0  0  0  0  0  0  0  0  0  0  0
    1.6000   -0.0000    0.0000 C   0  0  0  0  0  0  0  0  0  0  0  0
    3.2000   -0.0000    0.0000 N   0  0  0  0  0  0  0  0  0  0  0  0
   -0.8001    1.3856    0.0000 C   0  0  0  0  0  0  0  0  0  0  0  0
    0.0000    2.7713    0.0000 Cl  0  0  0  0  0  0  0  0  0  0  0  0
   -2.4001    1.3856    0.0000 C   0  0  0  0  0  0  0  0  0  0  0  0
   -3.2000    2.7713    0.0000 H   0  0  0  0  0  0  0  0  0  0  0  0
   -3.2000   -0.0000    0.0000 C   0  0  0  0  0  0  0  0  0  0  0  0
   -4.8000   -0.0000    0.0000 H   0  0  0  0  0  0  0  0  0  0  0  0
   -2.4001   -1.3856    0.0000 C   0  0  0  0  0  0  0  0  0  0  0  0
   -3.2000   -2.7713    0.0000 H   0  0  0  0  0  0  0  0  0  0  0  0
   -0.8001   -1.3856    0.0000 C   0  0  0  0  0  0  0  0  0  0  0  0
    0.0000   -2.7713    0.0000 Cl  0  0  0  0  0  0  0  0  0  0  0  0
  1  2  1  0  0  0  0
  2  3  3  0  0  0  0
  1  4  1  0  0  0  0
  4  5  1  0  0  0  0
  4  6  2  0  0  0  0
  6  7  1  0  0  0  0
  6  8  1  0  0  0  0
  8  9  1  0  0  0  0
  8 10  2  0  0  0  0
 10 11  1  0  0  0  0
 10 12  1  0  0  0  0
 12  1  2  0  0  0  0
 12 13  1  0  0  0  0
M  END
> <ChemID>
100406

> <source_casrn>
1194-65-6

> <CAS>
1194-65-6

> <SMILES>
N#Cc1c(Cl)cccc1Cl

> <NAME>
2,6-DICHLOROBENZONITRILE

> <preferred_name>
Dichlobenil

> <iupac>
2,6-dichlorobenzonitrile

> <MPID>
99680

> <dsstox_substance_id>
DTXSID5032365

> <Canonical_QSARr>
N#Cc1c(Cl)cccc1Cl

> <InChI_Code_QSARr>
InChI=1S/C7H3Cl2N/c8-6-2-1-3-7(9)5(6)4-10/h1-3H

> <InChI Key_QSARr>
YOYAIZYFCNQIRF-UHFFFAOYSA-N

> <LogKOC>
2.5

$$$$
100408
  -INDIGO-08031722282D

 28 30  0  0  0  0  0  0  0  0999 V2000
    4.8000    0.0000    0.0000 C   0  0  0  0  0  0  0  0  0  0  0  0
    6.4000    0.0000    0.0000 H   0  0  0  0  0  0  0  0  0  0  0  0
    4.0000   -1.3856    0.0000 C   0  0  0  0  0  0  0  0  0  0  0  0
    4.8000   -2.7712    0.0000 H   0  0  0  0  0  0  0  0  0  0  0  0
    2.4001   -1.3856    0.0000 C   0  0  0  0  0  0  0  0  0  0  0  0
    1.6001   -2.7712    0.0000 H   0  0  0  0  0  0  0  0  0  0  0  0
    1.6001    0.0000    0.0000 C   0  0  0  0  0  0  0  0  0  0  0  0
   -0.0001    0.0000    0.0000 C   0  0  0  0  0  0  0  0  0  0  0  0
   -0.8001   -1.3856    0.0000 C   0  0  0  0  0  0  0  0  0  0  0  0
    0.4694   -2.3596    0.0000 H   0  0  0  0  0  0  0  0  0  0  0  0
   -0.5912   -2.9720    0.0000 H   0  0  0  0  0  0  0  0  0  0  0  0
   -2.4000   -1.3856    0.0000 O   0  0  0  0  0  0  0  0  0  0  0  0
   -3.2000   -2.7712    0.0000 H   0  0  0  0  0  0  0  0  0  0  0  0
   -0.8001    1.3857    0.0000 C   0  0  0  0  0  0  0  0  0  0  0  0
   -2.4000    1.3857    0.0000 C   0  0  0  0  0  0  0  0  0  0  0  0
   -3.2000    0.0000    0.0000 H   0  0  0  0  0  0  0  0  0  0  0  0
   -3.2000    2.7713    0.0000 C   0  0  0  0  0  0  0  0  0  0  0  0
   -4.8000    2.7713    0.0000 H   0  0  0  0  0  0  0  0  0  0  0  0
   -2.4000    4.1569    0.0000 C   0  0  0  0  0  0  0  0  0  0  0  0
   -3.2000    5.5426    0.0000 H   0  0  0  0  0  0  0  0  0  0  0  0
   -0.8001    4.1569    0.0000 C   0  0  0  0  0  0  0  0  0  0  0  0
   -0.0001    5.5426    0.0000 H   0  0  0  0  0  0  0  0  0  0  0  0
   -0.0001    2.7713    0.0000 C   0  0  0  0  0  0  0  0  0  0  0  0
    1.6001    2.7713    0.0000 C   0  0  0  0  0  0  0  0  0  0  0  0
    2.4001    4.1569    0.0000 H   0  0  0  0  0  0  0  0  0  0  0  0
    2.4001    1.3857    0.0000 C   0  0  0  0  0  0  0  0  0  0  0  0
    4.0000    1.3857    0.0000 C   0  0  0  0  0  0  0  0  0  0  0  0
    4.8000    2.7713    0.0000 H   0  0  0  0  0  0  0  0  0  0  0  0
  1  2  1  0  0  0  0
  1  3  1  0  0  0  0
  3  4  1  0  0  0  0
  3  5  2  0  0  0  0
  5  6  1  0  0  0  0
  5  7  1  0  0  0  0
  7  8  1  0  0  0  0
  8  9  1  0  0  0  0
  9 10  1  0  0  0  0
  9 11  1  0  0  0  0
  9 12  1  0  0  0  0
 12 13  1  0  0  0  0
  8 14  2  0  0  0  0
 14 15  1  0  0  0  0
 15 16  1  0  0  0  0
 15 17  2  0  0  0  0
 17 18  1  0  0  0  0
 17 19  1  0  0  0  0
 19 20  1  0  0  0  0
 19 21  2  0  0  0  0
 21 22  1  0  0  0  0
 21 23  1  0  0  0  0
 23 14  1  0  0  0  0
 23 24  2  0  0  0  0
 24 25  1  0  0  0  0
 24 26  1  0  0  0  0
 26  7  2  0  0  0  0
 26 27  1  0  0  0  0
 27  1  2  0  0  0  0
 27 28  1  0  0  0  0
M  END
> <ChemID>
100408

> <source_casrn>
1468-95-7

> <CAS>
1468-95-7

> <SMILES>
OCc1c2ccccc2cc2ccccc21

> <NAME>
9-Anthracenemethanol

> <preferred_name>
9-Anthracenemethanol

> <iupac>
anthracen-9-ylmethanol

> <MPID>
99682

> <dsstox_substance_id>
DTXSID1049221

> <Canonical_QSARr>
OCc1c2ccccc2cc2ccccc21

> <InChI_Code_QSARr>
InChI=1S/C15H12O/c16-10-15-13-7-3-1-5-11(13)9-12-6-2-4-8-14(12)15/h1-9,16H,10H2

> <InChI Key_QSARr>
JCJNNHDZTLRSGN-UHFFFAOYSA-N

> <LogKOC>
3.61

$$$$
100409
  -INDIGO-08031722282D

 20 21  0  0  0  0  0  0  0  0999 V2000
   -0.0000    0.0000    0.0000 C   0  0  0  0  0  0  0  0  0  0  0  0
    1.1890   -1.0706    0.0000 H   0  0  0  0  0  0  0  0  0  0  0  0
    1.1890    1.0706    0.0000 H   0  0  0  0  0  0  0  0  0  0  0  0
   -0.9404   -1.2944    0.0000 C   0  0  0  0  0  0  0  0  0  0  0  0
    0.4452   -2.0944    0.0000 H   0  0  0  0  0  0  0  0  0  0  0  0
   -1.5912   -2.7561    0.0000 H   0  0  0  0  0  0  0  0  0  0  0  0
   -2.4621   -0.8000    0.0000 C   0  0  0  0  0  0  0  0  0  0  0  0
   -2.4621    0.8000    0.0000 C   0  0  0  0  0  0  0  0  0  0  0  0
   -3.8479    1.6000    0.0000 C   0  0  0  0  0  0  0  0  0  0  0  0
   -3.8479    3.2000    0.0000 H   0  0  0  0  0  0  0  0  0  0  0  0
   -5.2335    0.8000    0.0000 C   0  0  0  0  0  0  0  0  0  0  0  0
   -6.6191    1.6000    0.0000 H   0  0  0  0  0  0  0  0  0  0  0  0
   -5.2335   -0.8000    0.0000 C   0  0  0  0  0  0  0  0  0  0  0  0
   -3.8479   -1.6000    0.0000 C   0  0  0  0  0  0  0  0  0  0  0  0
   -3.8479   -3.2000    0.0000 H   0  0  0  0  0  0  0  0  0  0  0  0
   -6.6191   -1.6000    0.0000 O   0  0  0  0  0  0  0  0  0  0  0  0
   -8.0047   -0.8000    0.0000 H   0  0  0  0  0  0  0  0  0  0  0  0
   -0.9404    1.2944    0.0000 C   0  0  0  0  0  0  0  0  0  0  0  0
   -1.5912    2.7561    0.0000 H   0  0  0  0  0  0  0  0  0  0  0  0
    0.4452    2.0944    0.0000 H   0  0  0  0  0  0  0  0  0  0  0  0
  1  2  1  0  0  0  0
  1  3  1  0  0  0  0
  1  4  1  0  0  0  0
  4  5  1  0  0  0  0
  4  6  1  0  0  0  0
  4  7  1  0  0  0  0
  7  8  1  0  0  0  0
  8  9  2  0  0  0  0
  9 10  1  0  0  0  0
  9 11  1  0  0  0  0
 11 12  1  0  0  0  0
 11 13  2  0  0  0  0
 13 14  1  0  0  0  0
 14  7  2  0  0  0  0
 14 15  1  0  0  0  0
 13 16  1  0  0  0  0
 16 17  1  0  0  0  0
  8 18  1  0  0  0  0
 18  1  1  0  0  0  0
 18 19  1  0  0  0  0
 18 20  1  0  0  0  0
M  END
> <ChemID>
100409

> <source_casrn>
1470-94-6

> <CAS>
1470-94-6

> <SMILES>
Oc1cc2CCCc2cc1

> <NAME>
5-INDANOL

> <preferred_name>
Indan-5-ol

> <iupac>
indan-5-ol

> <MPID>
99683

> <dsstox_substance_id>
DTXSID0051732

> <Canonical_QSARr>
Oc1cc2CCCc2cc1

> <InChI_Code_QSARr>
InChI=1S/C9H10O/c10-9-5-4-7-2-1-3-8(7)6-9/h4-6,10H,1-3H2

> <InChI Key_QSARr>
PEHSSTUGJUBZBI-UHFFFAOYSA-N

> <LogKOC>
3.4

$$$$
100410
  -INDIGO-08031722282D

 29 29  0  0  0  0  0  0  0  0999 V2000
   -2.7714   -0.0000    0.0000 O   0  0  0  0  0  0  0  0  0  0  0  0
   -1.3857   -0.8000    0.0000 C   0  0  0  0  0  0  0  0  0  0  0  0
   -1.9980   -2.2782    0.0000 H   0  0  0  0  0  0  0  0  0  0  0  0
   -0.7733   -2.2782    0.0000 H   0  0  0  0  0  0  0  0  0  0  0  0
    0.0000   -0.0000    0.0000 C   0  0  0  0  0  0  0  0  0  0  0  0
    0.6122    1.4782    0.0000 H   0  0  0  0  0  0  0  0  0  0  0  0
   -0.6123    1.4782    0.0000 H   0  0  0  0  0  0  0  0  0  0  0  0
    1.3857   -0.8000    0.0000 C   0  0  0  0  0  0  0  0  0  0  0  0
    0.7734   -2.2782    0.0000 H   0  0  0  0  0  0  0  0  0  0  0  0
    1.9979   -2.2782    0.0000 H   0  0  0  0  0  0  0  0  0  0  0  0
    2.7712   -0.0000    0.0000 C   0  0  0  0  0  0  0  0  0  0  0  0
    4.1569    0.8000    0.0000 H   0  0  0  0  0  0  0  0  0  0  0  0
    4.1569   -0.8000    0.0000 H   0  0  0  0  0  0  0  0  0  0  0  0
    2.7712    1.6000    0.0000 H   0  0  0  0  0  0  0  0  0  0  0  0
   -4.1568   -0.8000    0.0000 C   0  0  0  0  0  0  0  0  0  0  0  0
   -4.1568   -2.4000    0.0000 O   0  0  0  0  0  0  0  0  0  0  0  0
   -5.5425   -0.0000    0.0000 N   0  0  0  0  0  0  0  0  0  0  0  0
   -5.5425    1.6000    0.0000 H   0  0  0  0  0  0  0  0  0  0  0  0
   -6.9282   -0.8000    0.0000 C   0  0  0  0  0  0  0  0  0  0  0  0
   -6.9282   -2.4000    0.0000 C   0  0  0  0  0  0  0  0  0  0  0  0
   -5.5425   -3.2000    0.0000 H   0  0  0  0  0  0  0  0  0  0  0  0
   -8.3139   -3.2000    0.0000 C   0  0  0  0  0  0  0  0  0  0  0  0
   -8.3139   -4.8000    0.0000 H   0  0  0  0  0  0  0  0  0  0  0  0
   -9.6994   -2.4000    0.0000 C   0  0  0  0  0  0  0  0  0  0  0  0
  -11.0851   -3.2000    0.0000 H   0  0  0  0  0  0  0  0  0  0  0  0
   -9.6994   -0.8000    0.0000 C   0  0  0  0  0  0  0  0  0  0  0  0
  -11.0851   -0.0000    0.0000 H   0  0  0  0  0  0  0  0  0  0  0  0
   -8.3139   -0.0000    0.0000 C   0  0  0  0  0  0  0  0  0  0  0  0
   -8.3139    1.6000    0.0000 H   0  0  0  0  0  0  0  0  0  0  0  0
  1  2  1  0  0  0  0
  2  3  1  0  0  0  0
  2  4  1  0  0  0  0
  2  5  1  0  0  0  0
  5  6  1  0  0  0  0
  5  7  1  0  0  0  0
  5  8  1  0  0  0  0
  8  9  1  0  0  0  0
  8 10  1  0  0  0  0
  8 11  1  0  0  0  0
 11 12  1  0  0  0  0
 11 13  1  0  0  0  0
 11 14  1  0  0  0  0
  1 15  1  0  0  0  0
 15 16  2  0  0  0  0
 15 17  1  0  0  0  0
 17 18  1  0  0  0  0
 17 19  1  0  0  0  0
 19 20  1  0  0  0  0
 20 21  1  0  0  0  0
 20 22  2  0  0  0  0
 22 23  1  0  0  0  0
 22 24  1  0  0  0  0
 24 25  1  0  0  0  0
 24 26  2  0  0  0  0
 26 27  1  0  0  0  0
 26 28  1  0  0  0  0
 28 19  2  0  0  0  0
 28 29  1  0  0  0  0
M  END
> <ChemID>
100410

> <source_casrn>
1538-74-5

> <CAS>
1538-74-5

> <SMILES>
CCCCOC(=O)Nc1ccccc1

> <NAME>
BUTYL N-PHENYLCARBAMATE

> <preferred_name>
Phenylcarbamic acid butyl ester

> <iupac>
Butyl N-phenylcarbamate

> <MPID>
99684

> <dsstox_substance_id>
DTXSID60165422

> <Canonical_QSARr>
CCCCOC(=O)Nc1ccccc1

> <InChI_Code_QSARr>
InChI=1S/C11H15NO2/c1-2-3-9-14-11(13)12-10-7-5-4-6-8-10/h4-8H,2-3,9H2,1H3,(H,12,13)

> <InChI Key_QSARr>
ZTIMKJROOYMUMU-UHFFFAOYSA-N

> <LogKOC>
2.26

$$$$
100412
  -INDIGO-08031722282D

 39 39  0  0  0  0  0  0  0  0999 V2000
   -0.6186    3.5086    0.0000 O   0  0  0  0  0  0  0  0  0  0  0  0
   -2.1222    2.9614    0.0000 N   0  0  0  0  0  0  0  0  0  0  0  0
   -2.3999    1.3856    0.0000 C   0  0  0  0  0  0  0  0  0  0  0  0
   -1.5999   -0.0000    0.0000 C   0  0  0  0  0  0  0  0  0  0  0  0
   -0.0001   -0.0000    0.0000 N   0  0  0  0  0  0  0  0  0  0  0  0
    0.7999    1.3856    0.0000 C   0  0  0  0  0  0  0  0  0  0  0  0
    0.5911    2.9720    0.0000 H   0  0  0  0  0  0  0  0  0  0  0  0
   -0.4694    2.3597    0.0000 H   0  0  0  0  0  0  0  0  0  0  0  0
    2.1857    2.1857    0.0000 C   0  0  0  0  0  0  0  0  0  0  0  0
    3.1597    0.9163    0.0000 H   0  0  0  0  0  0  0  0  0  0  0  0
    3.7719    1.9768    0.0000 H   0  0  0  0  0  0  0  0  0  0  0  0
    2.1857    3.7857    0.0000 C   0  0  0  0  0  0  0  0  0  0  0  0
    2.1857    5.3856    0.0000 H   0  0  0  0  0  0  0  0  0  0  0  0
    3.5713    4.5857    0.0000 H   0  0  0  0  0  0  0  0  0  0  0  0
    0.7999    4.5857    0.0000 H   0  0  0  0  0  0  0  0  0  0  0  0
    0.7999   -1.3857    0.0000 C   0  0  0  0  0  0  0  0  0  0  0  0
   -0.4694   -2.3597    0.0000 H   0  0  0  0  0  0  0  0  0  0  0  0
    0.5911   -2.9719    0.0000 H   0  0  0  0  0  0  0  0  0  0  0  0
    2.4000   -1.3857    0.0000 C   0  0  0  0  0  0  0  0  0  0  0  0
    3.6693   -0.4117    0.0000 H   0  0  0  0  0  0  0  0  0  0  0  0
    2.3302    0.2128    0.0000 H   0  0  0  0  0  0  0  0  0  0  0  0
    3.2000   -2.7713    0.0000 C   0  0  0  0  0  0  0  0  0  0  0  0
    4.0000   -4.1569    0.0000 H   0  0  0  0  0  0  0  0  0  0  0  0
    4.8000   -2.7713    0.0000 H   0  0  0  0  0  0  0  0  0  0  0  0
    2.4000   -4.1569    0.0000 H   0  0  0  0  0  0  0  0  0  0  0  0
   -2.3999   -1.3857    0.0000 C   0  0  0  0  0  0  0  0  0  0  0  0
   -2.1222   -2.9613    0.0000 N   0  0  0  0  0  0  0  0  0  0  0  0
   -0.6186   -3.5085    0.0000 O   0  0  0  0  0  0  0  0  0  0  0  0
   -3.3478   -3.9898    0.0000 O   0  0  0  0  0  0  0  0  0  0  0  0
   -3.9999   -1.3857    0.0000 C   0  0  0  0  0  0  0  0  0  0  0  0
   -4.8000   -2.7713    0.0000 H   0  0  0  0  0  0  0  0  0  0  0  0
   -4.8000   -0.0000    0.0000 C   0  0  0  0  0  0  0  0  0  0  0  0
   -6.4000   -0.0000    0.0000 C   0  0  0  0  0  0  0  0  0  0  0  0
   -8.0000   -0.0000    0.0000 F   0  0  0  0  0  0  0  0  0  0  0  0
   -7.2000   -1.3857    0.0000 F   0  0  0  0  0  0  0  0  0  0  0  0
   -7.2000    1.3856    0.0000 F   0  0  0  0  0  0  0  0  0  0  0  0
   -3.9999    1.3856    0.0000 C   0  0  0  0  0  0  0  0  0  0  0  0
   -4.8000    2.7712    0.0000 H   0  0  0  0  0  0  0  0  0  0  0  0
   -3.3478    3.9898    0.0000 O   0  0  0  0  0  0  0  0  0  0  0  0
  1  2  2  0  0  0  0
  2  3  1  0  0  0  0
  3  4  1  0  0  0  0
  4  5  1  0  0  0  0
  5  6  1  0  0  0  0
  6  7  1  0  0  0  0
  6  8  1  0  0  0  0
  6  9  1  0  0  0  0
  9 10  1  0  0  0  0
  9 11  1  0  0  0  0
  9 12  1  0  0  0  0
 12 13  1  0  0  0  0
 12 14  1  0  0  0  0
 12 15  1  0  0  0  0
  5 16  1  0  0  0  0
 16 17  1  0  0  0  0
 16 18  1  0  0  0  0
 16 19  1  0  0  0  0
 19 20  1  0  0  0  0
 19 21  1  0  0  0  0
 19 22  1  0  0  0  0
 22 23  1  0  0  0  0
 22 24  1  0  0  0  0
 22 25  1  0  0  0  0
  4 26  2  0  0  0  0
 26 27  1  0  0  0  0
 27 28  2  0  0  0  0
 27 29  1  0  0  0  0
 26 30  1  0  0  0  0
 30 31  1  0  0  0  0
 30 32  2  0  0  0  0
 32 33  1  0  0  0  0
 33 34  1  0  0  0  0
 33 35  1  0  0  0  0
 33 36  1  0  0  0  0
 32 37  1  0  0  0  0
 37  3  2  0  0  0  0
 37 38  1  0  0  0  0
  2 39  1  0  0  0  0
M  CHG  4   2   1  27   1  29  -1  39  -1
M  END
> <ChemID>
100412

> <source_casrn>
1582-09-8

> <CAS>
1582-09-8

> <SMILES>
CCCN(CCC)c1c(cc(cc1[N+]([O-])=O)C(F)(F)F)[N+]([O-])=O

> <NAME>
TRIFLURALIN

> <preferred_name>
Trifluralin

> <iupac>
2,6-dinitro-N,N-dipropyl-4-(trifluoromethyl)aniline

> <MPID>
99686

> <dsstox_substance_id>
DTXSID4021395

> <Canonical_QSARr>
CCCN(CCC)c1c(cc(cc1[N+]([O-])=O)C(F)(F)F)[N+]([O-])=O

> <InChI_Code_QSARr>
InChI=1S/C13H16F3N3O4/c1-3-5-17(6-4-2)12-10(18(20)21)7-9(13(14,15)16)8-11(12)19(22)23/h7-8H,3-6H2,1-2H3

> <InChI Key_QSARr>
ZSDSQXJSNMTJDA-UHFFFAOYSA-N

> <LogKOC>
4.2

$$$$
100413
  -INDIGO-08031722282D

 23 22  0  0  0  0  0  0  0  0999 V2000
   -1.3856    2.4000    0.0000 O   0  0  0  0  0  0  0  0  0  0  0  0
   -1.3856    0.8000    0.0000 C   0  0  0  0  0  0  0  0  0  0  0  0
   -0.0001   -0.0000    0.0000 C   0  0  0  0  0  0  0  0  0  0  0  0
    0.6123   -1.4782    0.0000 H   0  0  0  0  0  0  0  0  0  0  0  0
   -0.6122   -1.4782    0.0000 H   0  0  0  0  0  0  0  0  0  0  0  0
    1.3856    0.8000    0.0000 C   0  0  0  0  0  0  0  0  0  0  0  0
    0.7733    2.2782    0.0000 H   0  0  0  0  0  0  0  0  0  0  0  0
    1.9980    2.2782    0.0000 H   0  0  0  0  0  0  0  0  0  0  0  0
    2.7713   -0.0000    0.0000 C   0  0  0  0  0  0  0  0  0  0  0  0
    2.7713   -1.6000    0.0000 O   0  0  0  0  0  0  0  0  0  0  0  0
    4.1569    0.8000    0.0000 O   0  0  0  0  0  0  0  0  0  0  0  0
    5.5426   -0.0000    0.0000 H   0  0  0  0  0  0  0  0  0  0  0  0
   -2.7713   -0.0000    0.0000 N   0  0  0  0  0  0  0  0  0  0  0  0
   -2.7713   -1.6000    0.0000 H   0  0  0  0  0  0  0  0  0  0  0  0
   -4.1570    0.8000    0.0000 N   0  0  0  0  0  0  0  0  0  0  0  0
   -5.5425   -0.0000    0.0000 C   0  0  0  0  0  0  0  0  0  0  0  0
   -6.9282   -0.8000    0.0000 H   0  0  0  0  0  0  0  0  0  0  0  0
   -6.9282    0.8000    0.0000 H   0  0  0  0  0  0  0  0  0  0  0  0
   -5.5425   -1.6000    0.0000 H   0  0  0  0  0  0  0  0  0  0  0  0
   -4.1570    2.4000    0.0000 C   0  0  0  0  0  0  0  0  0  0  0  0
   -4.1570    4.0000    0.0000 H   0  0  0  0  0  0  0  0  0  0  0  0
   -5.5425    3.2000    0.0000 H   0  0  0  0  0  0  0  0  0  0  0  0
   -2.7713    3.2000    0.0000 H   0  0  0  0  0  0  0  0  0  0  0  0
  1  2  2  0  0  0  0
  2  3  1  0  0  0  0
  3  4  1  0  0  0  0
  3  5  1  0  0  0  0
  3  6  1  0  0  0  0
  6  7  1  0  0  0  0
  6  8  1  0  0  0  0
  6  9  1  0  0  0  0
  9 10  2  0  0  0  0
  9 11  1  0  0  0  0
 11 12  1  0  0  0  0
  2 13  1  0  0  0  0
 13 14  1  0  0  0  0
 13 15  1  0  0  0  0
 15 16  1  0  0  0  0
 16 17  1  0  0  0  0
 16 18  1  0  0  0  0
 16 19  1  0  0  0  0
 15 20  1  0  0  0  0
 20 21  1  0  0  0  0
 20 22  1  0  0  0  0
 20 23  1  0  0  0  0
M  END
> <ChemID>
100413

> <source_casrn>
1596-84-5

> <CAS>
1596-84-5

> <SMILES>
CN(C)NC(=O)CCC(O)=O

> <NAME>
DAMINOZIDE

> <preferred_name>
Daminozide

> <iupac>
4-(2,2-dimethylhydrazinyl)-4-oxobutanoic acid

> <MPID>
99687

> <dsstox_substance_id>
DTXSID9020370

> <Canonical_QSARr>
CN(C)NC(=O)CCC(O)=O

> <InChI_Code_QSARr>
InChI=1S/C6H12N2O3/c1-8(2)7-5(9)3-4-6(10)11/h3-4H2,1-2H3,(H,7,9)(H,10,11)

> <InChI Key_QSARr>
NOQGZXFMHARMLW-UHFFFAOYSA-N

> <LogKOC>
0.95

$$$$
100414
  -INDIGO-08031722282D

 32 32  0  0  0  0  0  0  0  0999 V2000
    0.8001    1.3857    0.0000 C   0  0  0  0  0  0  0  0  0  0  0  0
    1.5999    2.7713    0.0000 H   0  0  0  0  0  0  0  0  0  0  0  0
    2.4000    1.3857    0.0000 H   0  0  0  0  0  0  0  0  0  0  0  0
    0.0000    2.7713    0.0000 H   0  0  0  0  0  0  0  0  0  0  0  0
    0.0000   -0.0000    0.0000 C   0  0  0  0  0  0  0  0  0  0  0  0
   -0.8001   -1.3856    0.0000 H   0  0  0  0  0  0  0  0  0  0  0  0
    1.3857   -0.8000    0.0000 C   0  0  0  0  0  0  0  0  0  0  0  0
    2.7713   -1.6000    0.0000 H   0  0  0  0  0  0  0  0  0  0  0  0
    2.7713   -0.0000    0.0000 H   0  0  0  0  0  0  0  0  0  0  0  0
    1.3857   -2.4000    0.0000 H   0  0  0  0  0  0  0  0  0  0  0  0
   -1.3855    0.8000    0.0000 N   0  0  0  0  0  0  0  0  0  0  0  0
   -1.3855    2.4000    0.0000 H   0  0  0  0  0  0  0  0  0  0  0  0
   -2.7713   -0.0000    0.0000 C   0  0  0  0  0  0  0  0  0  0  0  0
   -2.7713   -1.6000    0.0000 N   0  0  0  0  0  0  0  0  0  0  0  0
   -4.1568   -2.4000    0.0000 C   0  0  0  0  0  0  0  0  0  0  0  0
   -4.1568   -3.9999    0.0000 O   0  0  0  0  0  0  0  0  0  0  0  0
   -5.5426   -4.8000    0.0000 C   0  0  0  0  0  0  0  0  0  0  0  0
   -5.5426   -6.4000    0.0000 H   0  0  0  0  0  0  0  0  0  0  0  0
   -6.9281   -5.5999    0.0000 H   0  0  0  0  0  0  0  0  0  0  0  0
   -6.9281   -3.9999    0.0000 H   0  0  0  0  0  0  0  0  0  0  0  0
   -5.5426   -1.6000    0.0000 N   0  0  0  0  0  0  0  0  0  0  0  0
   -5.5426   -0.0000    0.0000 C   0  0  0  0  0  0  0  0  0  0  0  0
   -6.9281    0.8000    0.0000 N   0  0  0  0  0  0  0  0  0  0  0  0
   -6.9281    2.4000    0.0000 H   0  0  0  0  0  0  0  0  0  0  0  0
   -8.3138   -0.0000    0.0000 C   0  0  0  0  0  0  0  0  0  0  0  0
   -8.9262   -1.4781    0.0000 H   0  0  0  0  0  0  0  0  0  0  0  0
   -7.7015   -1.4781    0.0000 H   0  0  0  0  0  0  0  0  0  0  0  0
   -9.6996    0.8000    0.0000 C   0  0  0  0  0  0  0  0  0  0  0  0
  -11.0851    1.5999    0.0000 H   0  0  0  0  0  0  0  0  0  0  0  0
  -11.0851   -0.0000    0.0000 H   0  0  0  0  0  0  0  0  0  0  0  0
   -9.6994    2.4000    0.0000 H   0  0  0  0  0  0  0  0  0  0  0  0
   -4.1568    0.8000    0.0000 N   0  0  0  0  0  0  0  0  0  0  0  0
  1  2  1  0  0  0  0
  1  3  1  0  0  0  0
  1  4  1  0  0  0  0
  1  5  1  0  0  0  0
  5  6  1  0  0  0  0
  5  7  1  0  0  0  0
  7  8  1  0  0  0  0
  7  9  1  0  0  0  0
  7 10  1  0  0  0  0
  5 11  1  0  0  0  0
 11 12  1  0  0  0  0
 11 13  1  0  0  0  0
 13 14  1  0  0  0  0
 14 15  2  0  0  0  0
 15 16  1  0  0  0  0
 16 17  1  0  0  0  0
 17 18  1  0  0  0  0
 17 19  1  0  0  0  0
 17 20  1  0  0  0  0
 15 21  1  0  0  0  0
 21 22  2  0  0  0  0
 22 23  1  0  0  0  0
 23 24  1  0  0  0  0
 23 25  1  0  0  0  0
 25 26  1  0  0  0  0
 25 27  1  0  0  0  0
 25 28  1  0  0  0  0
 28 29  1  0  0  0  0
 28 30  1  0  0  0  0
 28 31  1  0  0  0  0
 22 32  1  0  0  0  0
 32 13  2  0  0  0  0
M  END
> <ChemID>
100414

> <source_casrn>
1610-17-9

> <CAS>
1610-17-9

> <SMILES>
CCNc1[n]c(NC(C)C)[n]c([n]1)OC

> <NAME>
ATRATONE

> <preferred_name>
Atraton

> <iupac>
N-ethyl-6-methoxy-N'-(propan-2-yl)-1,3,5-triazine-2,4-diamine

> <MPID>
99688

> <dsstox_substance_id>
DTXSID0037493

> <Canonical_QSARr>
CCNc1[n]c(NC(C)C)[n]c([n]1)OC

> <InChI_Code_QSARr>
InChI=1S/C9H17N5O/c1-5-10-7-12-8(11-6(2)3)14-9(13-7)15-4/h6H,5H2,1-4H3,(H2,10,11,12,13,14)

> <InChI Key_QSARr>
PXWUKZGIHQRDHL-UHFFFAOYSA-N

> <LogKOC>
2.64

$$$$
100416
  -INDIGO-08031722282D

 18 17  0  0  0  0  0  0  0  0999 V2000
    1.3856    0.8000    0.0000 N   0  0  0  0  0  0  0  0  0  0  0  0
    1.3856    2.4000    0.0000 H   0  0  0  0  0  0  0  0  0  0  0  0
    2.7713    0.0000    0.0000 N   0  0  0  0  0  0  0  0  0  0  0  0
    2.7713   -1.6000    0.0000 H   0  0  0  0  0  0  0  0  0  0  0  0
    4.1570    0.8000    0.0000 C   0  0  0  0  0  0  0  0  0  0  0  0
    3.5447    2.2782    0.0000 H   0  0  0  0  0  0  0  0  0  0  0  0
    4.7693    2.2782    0.0000 H   0  0  0  0  0  0  0  0  0  0  0  0
    5.5426    0.0000    0.0000 C   0  0  0  0  0  0  0  0  0  0  0  0
    6.9282   -0.8000    0.0000 H   0  0  0  0  0  0  0  0  0  0  0  0
    6.9282    0.8000    0.0000 H   0  0  0  0  0  0  0  0  0  0  0  0
    5.5426   -1.6000    0.0000 H   0  0  0  0  0  0  0  0  0  0  0  0
   -0.0000    0.0000    0.0000 C   0  0  0  0  0  0  0  0  0  0  0  0
    0.6123   -1.4782    0.0000 H   0  0  0  0  0  0  0  0  0  0  0  0
   -0.6123   -1.4782    0.0000 H   0  0  0  0  0  0  0  0  0  0  0  0
   -1.3857    0.8000    0.0000 C   0  0  0  0  0  0  0  0  0  0  0  0
   -2.7713    1.6000    0.0000 H   0  0  0  0  0  0  0  0  0  0  0  0
   -2.7713    0.0000    0.0000 H   0  0  0  0  0  0  0  0  0  0  0  0
   -1.3857    2.4000    0.0000 H   0  0  0  0  0  0  0  0  0  0  0  0
  1  2  1  0  0  0  0
  1  3  1  0  0  0  0
  3  4  1  0  0  0  0
  3  5  1  0  0  0  0
  5  6  1  0  0  0  0
  5  7  1  0  0  0  0
  5  8  1  0  0  0  0
  8  9  1  0  0  0  0
  8 10  1  0  0  0  0
  8 11  1  0  0  0  0
  1 12  1  0  0  0  0
 12 13  1  0  0  0  0
 12 14  1  0  0  0  0
 12 15  1  0  0  0  0
 15 16  1  0  0  0  0
 15 17  1  0  0  0  0
 15 18  1  0  0  0  0
M  END
> <ChemID>
100416

> <source_casrn>
1615-80-1

> <CAS>
1615-80-1

> <SMILES>
CCNNCC

> <NAME>
N,N'-DIETHYLHYDRAZINE

> <preferred_name>
1,2-Diethylhydrazine

> <iupac>
1,2-diethylhydrazine

> <MPID>
99690

> <dsstox_substance_id>
DTXSID1043754

> <Canonical_QSARr>
CCNNCC

> <InChI_Code_QSARr>
InChI=1S/C4H12N2/c1-3-5-6-4-2/h5-6H,3-4H2,1-2H3

> <InChI Key_QSARr>
YCBOYOYVDOUXLH-UHFFFAOYSA-N

> <LogKOC>
1.18

$$$$
100417
  -INDIGO-08031722282D

 27 26  0  0  0  0  0  0  0  0999 V2000
   -5.5426    0.0000    0.0000 C   0  0  0  0  0  0  0  0  0  0  0  0
   -5.5426    1.6000    0.0000 O   0  0  0  0  0  0  0  0  0  0  0  0
   -4.1569   -0.8000    0.0000 O   0  0  0  0  0  0  0  0  0  0  0  0
   -2.7713    0.0000    0.0000 N   0  0  0  0  0  0  0  0  0  0  0  0
   -1.3856   -0.8000    0.0000 C   0  0  0  0  0  0  0  0  0  0  0  0
   -1.3856   -2.4000    0.0000 H   0  0  0  0  0  0  0  0  0  0  0  0
    0.0001    0.0000    0.0000 C   0  0  0  0  0  0  0  0  0  0  0  0
    0.8000   -1.3856    0.0000 S   0  0  0  0  0  0  0  0  0  0  0  0
    0.0001   -2.7713    0.0000 C   0  0  0  0  0  0  0  0  0  0  0  0
    0.8000   -4.1569    0.0000 H   0  0  0  0  0  0  0  0  0  0  0  0
   -0.7999   -4.1569    0.0000 H   0  0  0  0  0  0  0  0  0  0  0  0
    1.6000   -2.7713    0.0000 H   0  0  0  0  0  0  0  0  0  0  0  0
    2.4000   -1.3856    0.0000 O   0  0  0  0  0  0  0  0  0  0  0  0
   -0.7999    1.3856    0.0000 C   0  0  0  0  0  0  0  0  0  0  0  0
   -1.5999    2.7713    0.0000 H   0  0  0  0  0  0  0  0  0  0  0  0
   -2.4001    1.3856    0.0000 H   0  0  0  0  0  0  0  0  0  0  0  0
    0.0001    2.7713    0.0000 H   0  0  0  0  0  0  0  0  0  0  0  0
    1.3856    0.8000    0.0000 C   0  0  0  0  0  0  0  0  0  0  0  0
    2.7713    1.6000    0.0000 H   0  0  0  0  0  0  0  0  0  0  0  0
    2.7713    0.0000    0.0000 H   0  0  0  0  0  0  0  0  0  0  0  0
    1.3856    2.4000    0.0000 H   0  0  0  0  0  0  0  0  0  0  0  0
   -6.9283   -0.8000    0.0000 N   0  0  0  0  0  0  0  0  0  0  0  0
   -6.9283   -2.4000    0.0000 H   0  0  0  0  0  0  0  0  0  0  0  0
   -8.3138    0.0000    0.0000 C   0  0  0  0  0  0  0  0  0  0  0  0
   -9.6995    0.8000    0.0000 H   0  0  0  0  0  0  0  0  0  0  0  0
   -9.6995   -0.8000    0.0000 H   0  0  0  0  0  0  0  0  0  0  0  0
   -8.3138    1.6000    0.0000 H   0  0  0  0  0  0  0  0  0  0  0  0
  1  2  2  0  0  0  0
  1  3  1  0  0  0  0
  3  4  1  0  0  0  0
  4  5  2  0  0  0  0
  5  6  1  0  0  0  0
  5  7  1  0  0  0  0
  7  8  1  0  0  0  0
  8  9  1  0  0  0  0
  9 10  1  0  0  0  0
  9 11  1  0  0  0  0
  9 12  1  0  0  0  0
  8 13  2  0  0  0  0
  7 14  1  0  0  0  0
 14 15  1  0  0  0  0
 14 16  1  0  0  0  0
 14 17  1  0  0  0  0
  7 18  1  0  0  0  0
 18 19  1  0  0  0  0
 18 20  1  0  0  0  0
 18 21  1  0  0  0  0
  1 22  1  0  0  0  0
 22 23  1  0  0  0  0
 22 24  1  0  0  0  0
 24 25  1  0  0  0  0
 24 26  1  0  0  0  0
 24 27  1  0  0  0  0
M  END
> <ChemID>
100417

> <source_casrn>
1646-87-3

> <CAS>
1646-87-3

> <SMILES>
CNC(=O)O/N=C/C(C)(C)S(C)=O

> <NAME>
ALDICARB SULFOXIDE

> <preferred_name>
Aldicarb sulfoxide

> <iupac>
(5E)-7,7-dimethyl-4-oxa-8-thia-2,5-diazanon-5-en-3-one 8-oxide

> <MPID>
99691

> <dsstox_substance_id>
DTXSID1033161

> <Canonical_QSARr>
CNC(=O)ON=CC(C)(C)S(C)=O

> <InChI_Code_QSARr>
InChI=1S/C7H14N2O3S/c1-7(2,13(4)11)5-9-12-6(10)8-3/h5H,1-4H3,(H,8,10)/b9-5+

> <InChI Key_QSARr>
BXPMAGSOWXBZHS-WEVVVXLNSA-N

> <LogKOC>
0.56

$$$$
100418
  -INDIGO-08031722282D

 28 27  0  0  0  0  0  0  0  0999 V2000
    1.3856   -0.8000    0.0000 C   0  0  0  0  0  0  0  0  0  0  0  0
    1.6636   -2.3757    0.0000 H   0  0  0  0  0  0  0  0  0  0  0  0
   -0.0001    0.0000    0.0000 C   0  0  0  0  0  0  0  0  0  0  0  0
    0.8001    1.3856    0.0000 C   0  0  0  0  0  0  0  0  0  0  0  0
    1.6000    2.7713    0.0000 H   0  0  0  0  0  0  0  0  0  0  0  0
    2.3999    1.3856    0.0000 H   0  0  0  0  0  0  0  0  0  0  0  0
   -0.0001    2.7713    0.0000 H   0  0  0  0  0  0  0  0  0  0  0  0
   -1.3856    0.8000    0.0000 C   0  0  0  0  0  0  0  0  0  0  0  0
   -2.7713    1.6000    0.0000 H   0  0  0  0  0  0  0  0  0  0  0  0
   -1.3856    2.4000    0.0000 H   0  0  0  0  0  0  0  0  0  0  0  0
   -2.8892    0.2528    0.0000 H   0  0  0  0  0  0  0  0  0  0  0  0
   -0.8000   -1.3856    0.0000 S   0  0  0  0  0  0  0  0  0  0  0  0
    0.5857   -2.1856    0.0000 O   0  0  0  0  0  0  0  0  0  0  0  0
   -2.1857   -0.5857    0.0000 O   0  0  0  0  0  0  0  0  0  0  0  0
   -1.5999   -2.7713    0.0000 C   0  0  0  0  0  0  0  0  0  0  0  0
   -2.4001   -4.1569    0.0000 H   0  0  0  0  0  0  0  0  0  0  0  0
   -0.8000   -4.1569    0.0000 H   0  0  0  0  0  0  0  0  0  0  0  0
   -3.2000   -2.7713    0.0000 H   0  0  0  0  0  0  0  0  0  0  0  0
    2.7713    0.0000    0.0000 N   0  0  0  0  0  0  0  0  0  0  0  0
    4.1568   -0.8000    0.0000 O   0  0  0  0  0  0  0  0  0  0  0  0
    5.5426    0.0000    0.0000 C   0  0  0  0  0  0  0  0  0  0  0  0
    5.5426    1.6000    0.0000 O   0  0  0  0  0  0  0  0  0  0  0  0
    6.9283   -0.8000    0.0000 N   0  0  0  0  0  0  0  0  0  0  0  0
    6.9283   -2.4000    0.0000 H   0  0  0  0  0  0  0  0  0  0  0  0
    8.3138    0.0000    0.0000 C   0  0  0  0  0  0  0  0  0  0  0  0
    9.6995    0.8000    0.0000 H   0  0  0  0  0  0  0  0  0  0  0  0
    9.6995   -0.8000    0.0000 H   0  0  0  0  0  0  0  0  0  0  0  0
    8.3138    1.6000    0.0000 H   0  0  0  0  0  0  0  0  0  0  0  0
  1  2  1  0  0  0  0
  1  3  1  0  0  0  0
  3  4  1  0  0  0  0
  4  5  1  0  0  0  0
  4  6  1  0  0  0  0
  4  7  1  0  0  0  0
  3  8  1  0  0  0  0
  8  9  1  0  0  0  0
  8 10  1  0  0  0  0
  8 11  1  0  0  0  0
  3 12  1  0  0  0  0
 12 13  2  0  0  0  0
 12 14  2  0  0  0  0
 12 15  1  0  0  0  0
 15 16  1  0  0  0  0
 15 17  1  0  0  0  0
 15 18  1  0  0  0  0
  1 19  2  0  0  0  0
 19 20  1  0  0  0  0
 20 21  1  0  0  0  0
 21 22  2  0  0  0  0
 21 23  1  0  0  0  0
 23 24  1  0  0  0  0
 23 25  1  0  0  0  0
 25 26  1  0  0  0  0
 25 27  1  0  0  0  0
 25 28  1  0  0  0  0
M  END
> <ChemID>
100418

> <source_casrn>
1646-88-4

> <CAS>
1646-88-4

> <SMILES>
CNC(=O)O/N=C/C(C)(C)S(C)(=O)=O

> <NAME>
ALDICARB SULFONE

> <preferred_name>
Aldoxycarb

> <iupac>
(5E)-7,7-dimethyl-4-oxa-8-thia-2,5-diazanon-5-en-3-one 8,8-dioxide

> <MPID>
99692

> <dsstox_substance_id>
DTXSID6023862

> <Canonical_QSARr>
CNC(=O)ON=CC(C)(C)S(C)(=O)=O

> <InChI_Code_QSARr>
InChI=1S/C7H14N2O4S/c1-7(2,14(4,11)12)5-9-13-6(10)8-3/h5H,1-4H3,(H,8,10)/b9-5+

> <InChI Key_QSARr>
YRRKLBAKDXSTNC-WEVVVXLNSA-N

> <LogKOC>
0.42

$$$$
100420
  -INDIGO-08031722282D

 23 24  0  0  0  0  0  0  0  0999 V2000
   -2.4000    1.3856    0.0000 N   0  0  0  0  0  0  0  0  0  0  0  0
   -1.6000   -0.0000    0.0000 N   0  0  0  0  0  0  0  0  0  0  0  0
    0.0000    0.0000    0.0000 C   0  0  0  0  0  0  0  0  0  0  0  0
    0.8000    1.3856    0.0000 C   0  0  0  0  0  0  0  0  0  0  0  0
    0.0000    2.7713    0.0000 H   0  0  0  0  0  0  0  0  0  0  0  0
    2.4000    1.3856    0.0000 C   0  0  0  0  0  0  0  0  0  0  0  0
    3.2000    2.7713    0.0000 H   0  0  0  0  0  0  0  0  0  0  0  0
    3.2000    0.0000    0.0000 C   0  0  0  0  0  0  0  0  0  0  0  0
    4.8000   -0.0000    0.0000 H   0  0  0  0  0  0  0  0  0  0  0  0
    2.4000   -1.3856    0.0000 C   0  0  0  0  0  0  0  0  0  0  0  0
    3.2000   -2.7713    0.0000 H   0  0  0  0  0  0  0  0  0  0  0  0
    0.8000   -1.3856    0.0000 C   0  0  0  0  0  0  0  0  0  0  0  0
    0.0000   -2.7713    0.0000 H   0  0  0  0  0  0  0  0  0  0  0  0
   -2.4000   -1.3856    0.0000 C   0  0  0  0  0  0  0  0  0  0  0  0
   -1.6000   -2.7713    0.0000 O   0  0  0  0  0  0  0  0  0  0  0  0
   -4.0000   -1.3856    0.0000 C   0  0  0  0  0  0  0  0  0  0  0  0
   -4.8000   -2.7713    0.0000 Cl  0  0  0  0  0  0  0  0  0  0  0  0
   -4.8000   -0.0000    0.0000 C   0  0  0  0  0  0  0  0  0  0  0  0
   -6.4000   -0.0000    0.0000 N   0  0  0  0  0  0  0  0  0  0  0  0
   -7.2000    1.3856    0.0000 H   0  0  0  0  0  0  0  0  0  0  0  0
   -7.2000   -1.3856    0.0000 H   0  0  0  0  0  0  0  0  0  0  0  0
   -4.0000    1.3856    0.0000 C   0  0  0  0  0  0  0  0  0  0  0  0
   -4.8000    2.7713    0.0000 H   0  0  0  0  0  0  0  0  0  0  0  0
  1  2  1  0  0  0  0
  2  3  1  0  0  0  0
  3  4  1  0  0  0  0
  4  5  1  0  0  0  0
  4  6  2  0  0  0  0
  6  7  1  0  0  0  0
  6  8  1  0  0  0  0
  8  9  1  0  0  0  0
  8 10  2  0  0  0  0
 10 11  1  0  0  0  0
 10 12  1  0  0  0  0
 12  3  2  0  0  0  0
 12 13  1  0  0  0  0
  2 14  1  0  0  0  0
 14 15  2  0  0  0  0
 14 16  1  0  0  0  0
 16 17  1  0  0  0  0
 16 18  2  0  0  0  0
 18 19  1  0  0  0  0
 19 20  1  0  0  0  0
 19 21  1  0  0  0  0
 18 22  1  0  0  0  0
 22  1  2  0  0  0  0
 22 23  1  0  0  0  0
M  END
> <ChemID>
100420

> <source_casrn>
1698-60-8

> <CAS>
1698-60-8

> <SMILES>
NC1C=NN(C(=O)C=1Cl)c1ccccc1

> <NAME>
CHLORIDAZON

> <preferred_name>
Chloridazon

> <iupac>
5-amino-4-chloro-2-phenylpyridazin-3(2H)-one

> <MPID>
99694

> <dsstox_substance_id>
DTXSID3034872

> <Canonical_QSARr>
NC1C=NN(C(=O)C=1Cl)c1ccccc1

> <InChI_Code_QSARr>
InChI=1S/C10H8ClN3O/c11-9-8(12)6-13-14(10(9)15)7-4-2-1-3-5-7/h1-6H,12H2

> <InChI Key_QSARr>
WYKYKTKDBLFHCY-UHFFFAOYSA-N

> <LogKOC>
2.08

$$$$
100421
  -INDIGO-08031722282D

 14 14  0  0  0  0  0  0  0  0999 V2000
    0.8000    1.3856    0.0000 N   0  0  0  0  0  0  0  0  0  0  0  0
    2.4000    1.3856    0.0000 C   0  0  0  0  0  0  0  0  0  0  0  0
    3.2001    2.7713    0.0000 Cl  0  0  0  0  0  0  0  0  0  0  0  0
    3.2001   -0.0000    0.0000 C   0  0  0  0  0  0  0  0  0  0  0  0
    4.8000    0.0000    0.0000 H   0  0  0  0  0  0  0  0  0  0  0  0
    2.4000   -1.3856    0.0000 C   0  0  0  0  0  0  0  0  0  0  0  0
    3.2001   -2.7713    0.0000 H   0  0  0  0  0  0  0  0  0  0  0  0
    0.8000   -1.3856    0.0000 C   0  0  0  0  0  0  0  0  0  0  0  0
    0.0000   -2.7713    0.0000 Cl  0  0  0  0  0  0  0  0  0  0  0  0
    0.0000   -0.0000    0.0000 C   0  0  0  0  0  0  0  0  0  0  0  0
   -1.6000    0.0000    0.0000 C   0  0  0  0  0  0  0  0  0  0  0  0
   -2.4001   -1.3856    0.0000 O   0  0  0  0  0  0  0  0  0  0  0  0
   -2.4001    1.3856    0.0000 O   0  0  0  0  0  0  0  0  0  0  0  0
   -4.0000    1.3856    0.0000 H   0  0  0  0  0  0  0  0  0  0  0  0
  1  2  1  0  0  0  0
  2  3  1  0  0  0  0
  2  4  2  0  0  0  0
  4  5  1  0  0  0  0
  4  6  1  0  0  0  0
  6  7  1  0  0  0  0
  6  8  2  0  0  0  0
  8  9  1  0  0  0  0
  8 10  1  0  0  0  0
 10  1  2  0  0  0  0
 10 11  1  0  0  0  0
 11 12  2  0  0  0  0
 11 13  1  0  0  0  0
 13 14  1  0  0  0  0
M  END
> <ChemID>
100421

> <source_casrn>
1702-17-6

> <CAS>
1702-17-6

> <SMILES>
OC(=O)c1[n]c(Cl)ccc1Cl

> <NAME>
3,6-DICHLOROPICOLINIC ACID

> <preferred_name>
Clopyralid

> <iupac>
C6H3Cl2NO2

> <MPID>
99695

> <dsstox_substance_id>
DTXSID9029221

> <Canonical_QSARr>
OC(=O)c1[n]c(Cl)ccc1Cl

> <InChI_Code_QSARr>
InChI=1S/C6H3Cl2NO2/c7-3-1-2-4(8)9-5(3)6(10)11/h1-2H,(H,10,11)

> <InChI Key_QSARr>
HUBANNPOLNYSAD-UHFFFAOYSA-N

> <LogKOC>
1.56

$$$$
100422
  -INDIGO-08031722282D

 22 24  0  0  0  0  0  0  0  0999 V2000
   -4.1569   -2.4000    0.0000 Cl  0  0  0  0  0  0  0  0  0  0  0  0
   -2.7713   -1.6000    0.0000 C   0  0  0  0  0  0  0  0  0  0  0  0
   -1.3856   -2.4000    0.0000 C   0  0  0  0  0  0  0  0  0  0  0  0
   -1.3856   -4.0000    0.0000 H   0  0  0  0  0  0  0  0  0  0  0  0
    0.0001   -1.6000    0.0000 C   0  0  0  0  0  0  0  0  0  0  0  0
    0.0001   -0.0000    0.0000 C   0  0  0  0  0  0  0  0  0  0  0  0
    1.3857    0.8000    0.0000 O   0  0  0  0  0  0  0  0  0  0  0  0
    2.7712   -0.0000    0.0000 C   0  0  0  0  0  0  0  0  0  0  0  0
    2.7712   -1.6000    0.0000 C   0  0  0  0  0  0  0  0  0  0  0  0
    1.3857   -2.4000    0.0000 O   0  0  0  0  0  0  0  0  0  0  0  0
    4.1569   -2.4000    0.0000 C   0  0  0  0  0  0  0  0  0  0  0  0
    4.1569   -4.0000    0.0000 H   0  0  0  0  0  0  0  0  0  0  0  0
    5.5425   -1.6000    0.0000 C   0  0  0  0  0  0  0  0  0  0  0  0
    6.9282   -2.4000    0.0000 Cl  0  0  0  0  0  0  0  0  0  0  0  0
    5.5425   -0.0000    0.0000 C   0  0  0  0  0  0  0  0  0  0  0  0
    6.9282    0.8000    0.0000 Cl  0  0  0  0  0  0  0  0  0  0  0  0
    4.1569    0.8000    0.0000 C   0  0  0  0  0  0  0  0  0  0  0  0
    4.1569    2.4000    0.0000 H   0  0  0  0  0  0  0  0  0  0  0  0
   -1.3856    0.8000    0.0000 C   0  0  0  0  0  0  0  0  0  0  0  0
   -1.3856    2.4000    0.0000 H   0  0  0  0  0  0  0  0  0  0  0  0
   -2.7713   -0.0000    0.0000 C   0  0  0  0  0  0  0  0  0  0  0  0
   -4.1569    0.8000    0.0000 Cl  0  0  0  0  0  0  0  0  0  0  0  0
  1  2  1  0  0  0  0
  2  3  1  0  0  0  0
  3  4  1  0  0  0  0
  3  5  2  0  0  0  0
  5  6  1  0  0  0  0
  6  7  1  0  0  0  0
  7  8  1  0  0  0  0
  8  9  1  0  0  0  0
  9 10  1  0  0  0  0
 10  5  1  0  0  0  0
  9 11  2  0  0  0  0
 11 12  1  0  0  0  0
 11 13  1  0  0  0  0
 13 14  1  0  0  0  0
 13 15  2  0  0  0  0
 15 16  1  0  0  0  0
 15 17  1  0  0  0  0
 17  8  2  0  0  0  0
 17 18  1  0  0  0  0
  6 19  2  0  0  0  0
 19 20  1  0  0  0  0
 19 21  1  0  0  0  0
 21  2  2  0  0  0  0
 21 22  1  0  0  0  0
M  END
> <ChemID>
100422

> <source_casrn>
1746-01-6

> <CAS>
1746-01-6

> <SMILES>
Clc1cc2Oc3cc(Cl)c(Cl)cc3Oc2cc1Cl

> <NAME>
2,3,7,8-TETRACHLORODIBENZO-P-DIOXIN

> <preferred_name>
2,3,7,8-Tetrachlorodibenzo-p-dioxin

> <iupac>
2,3,7,8-tetrachlorooxanthrene

> <MPID>
99696

> <dsstox_substance_id>
DTXSID2021315

> <Canonical_QSARr>
Clc1cc2Oc3cc(Cl)c(Cl)cc3Oc2cc1Cl

> <InChI_Code_QSARr>
InChI=1S/C12H4Cl4O2/c13-5-1-9-10(2-6(5)14)18-12-4-8(16)7(15)3-11(12)17-9/h1-4H

> <InChI Key_QSARr>
HGUFODBRKLSHSI-UHFFFAOYSA-N

> <LogKOC>
6.5

$$$$
100424
  -INDIGO-08031722282D

 26 26  0  0  0  0  0  0  0  0999 V2000
   -0.0001    0.0000    0.0000 P   0  0  0  0  0  0  0  0  0  0  0  0
    1.3856   -0.8000    0.0000 O   0  0  0  0  0  0  0  0  0  0  0  0
    0.7999    1.3856    0.0000 O   0  0  0  0  0  0  0  0  0  0  0  0
    2.4001    1.3856    0.0000 C   0  0  0  0  0  0  0  0  0  0  0  0
    3.2001    2.7713    0.0000 C   0  0  0  0  0  0  0  0  0  0  0  0
    2.4001    4.1569    0.0000 H   0  0  0  0  0  0  0  0  0  0  0  0
    4.8000    2.7713    0.0000 C   0  0  0  0  0  0  0  0  0  0  0  0
    5.6000    4.1569    0.0000 H   0  0  0  0  0  0  0  0  0  0  0  0
    5.6000    1.3856    0.0000 C   0  0  0  0  0  0  0  0  0  0  0  0
    7.2000    1.3856    0.0000 H   0  0  0  0  0  0  0  0  0  0  0  0
    4.8000    0.0000    0.0000 C   0  0  0  0  0  0  0  0  0  0  0  0
    5.6000   -1.3856    0.0000 H   0  0  0  0  0  0  0  0  0  0  0  0
    3.2001    0.0000    0.0000 C   0  0  0  0  0  0  0  0  0  0  0  0
    2.4001   -1.3856    0.0000 H   0  0  0  0  0  0  0  0  0  0  0  0
   -0.8000   -1.3856    0.0000 N   0  0  0  0  0  0  0  0  0  0  0  0
   -0.0001   -2.7713    0.0000 H   0  0  0  0  0  0  0  0  0  0  0  0
   -2.4000   -1.3856    0.0000 C   0  0  0  0  0  0  0  0  0  0  0  0
   -3.2000   -2.7713    0.0000 H   0  0  0  0  0  0  0  0  0  0  0  0
   -4.0000   -1.3856    0.0000 H   0  0  0  0  0  0  0  0  0  0  0  0
   -1.6000   -2.7713    0.0000 H   0  0  0  0  0  0  0  0  0  0  0  0
   -1.3856    0.8000    0.0000 N   0  0  0  0  0  0  0  0  0  0  0  0
   -2.7712    0.0000    0.0000 H   0  0  0  0  0  0  0  0  0  0  0  0
   -1.3856    2.4000    0.0000 C   0  0  0  0  0  0  0  0  0  0  0  0
   -2.7712    3.2000    0.0000 H   0  0  0  0  0  0  0  0  0  0  0  0
   -1.3856    4.0000    0.0000 H   0  0  0  0  0  0  0  0  0  0  0  0
   -0.0001    3.2000    0.0000 H   0  0  0  0  0  0  0  0  0  0  0  0
  1  2  2  0  0  0  0
  1  3  1  0  0  0  0
  3  4  1  0  0  0  0
  4  5  1  0  0  0  0
  5  6  1  0  0  0  0
  5  7  2  0  0  0  0
  7  8  1  0  0  0  0
  7  9  1  0  0  0  0
  9 10  1  0  0  0  0
  9 11  2  0  0  0  0
 11 12  1  0  0  0  0
 11 13  1  0  0  0  0
 13  4  2  0  0  0  0
 13 14  1  0  0  0  0
  1 15  1  0  0  0  0
 15 16  1  0  0  0  0
 15 17  1  0  0  0  0
 17 18  1  0  0  0  0
 17 19  1  0  0  0  0
 17 20  1  0  0  0  0
  1 21  1  0  0  0  0
 21 22  1  0  0  0  0
 21 23  1  0  0  0  0
 23 24  1  0  0  0  0
 23 25  1  0  0  0  0
 23 26  1  0  0  0  0
M  END
> <ChemID>
100424

> <source_casrn>
1754-58-1

> <CAS>
1754-58-1

> <SMILES>
O=P(NC)(NC)Oc1ccccc1

> <NAME>
o-PHENYL N,N'-DIMETHYL PHOSPHORODIAMIDATE

> <preferred_name>
Diamidafos

> <iupac>
phenyl N,N'-dimethylphosphorodiamidate

> <MPID>
99698

> <dsstox_substance_id>
DTXSID6041846

> <Canonical_QSARr>
CNP(=O)(NC)Oc1ccccc1

> <InChI_Code_QSARr>
InChI=1S/C8H13N2O2P/c1-9-13(11,10-2)12-8-6-4-3-5-7-8/h3-7H,1-2H3,(H2,9,10,11)

> <InChI Key_QSARr>
ZKIBFASDNPOJFP-UHFFFAOYSA-N

> <LogKOC>
1.51

$$$$
100425
  -INDIGO-08031722282D

 25 26  0  0  0  0  0  0  0  0999 V2000
   -3.4426   -3.2513    0.0000 Cl  0  0  0  0  0  0  0  0  0  0  0  0
   -3.9898   -1.7479    0.0000 C   0  0  0  0  0  0  0  0  0  0  0  0
   -2.9613   -0.5222    0.0000 C   0  0  0  0  0  0  0  0  0  0  0  0
   -1.3856   -0.8000    0.0000 O   0  0  0  0  0  0  0  0  0  0  0  0
    0.0000   -0.0001    0.0000 C   0  0  0  0  0  0  0  0  0  0  0  0
    0.0000    1.6000    0.0000 C   0  0  0  0  0  0  0  0  0  0  0  0
   -1.3856    2.4000    0.0000 H   0  0  0  0  0  0  0  0  0  0  0  0
    1.3856    2.4000    0.0000 C   0  0  0  0  0  0  0  0  0  0  0  0
    1.3856    4.0000    0.0000 H   0  0  0  0  0  0  0  0  0  0  0  0
    2.7712    1.6000    0.0000 C   0  0  0  0  0  0  0  0  0  0  0  0
    4.1570    2.4000    0.0000 N   0  0  0  0  0  0  0  0  0  0  0  0
    5.5426    1.6000    0.0000 O   0  0  0  0  0  0  0  0  0  0  0  0
    4.1570    4.0000    0.0000 O   0  0  0  0  0  0  0  0  0  0  0  0
    2.7712   -0.0001    0.0000 C   0  0  0  0  0  0  0  0  0  0  0  0
    4.1570   -0.8000    0.0000 H   0  0  0  0  0  0  0  0  0  0  0  0
    1.3856   -0.8000    0.0000 C   0  0  0  0  0  0  0  0  0  0  0  0
    1.3856   -2.4000    0.0000 H   0  0  0  0  0  0  0  0  0  0  0  0
   -3.5086    0.9813    0.0000 C   0  0  0  0  0  0  0  0  0  0  0  0
   -2.4800    2.2071    0.0000 H   0  0  0  0  0  0  0  0  0  0  0  0
   -5.0842    1.2591    0.0000 C   0  0  0  0  0  0  0  0  0  0  0  0
   -5.6315    2.7627    0.0000 H   0  0  0  0  0  0  0  0  0  0  0  0
   -6.1126    0.0335    0.0000 C   0  0  0  0  0  0  0  0  0  0  0  0
   -7.6884    0.3113    0.0000 Cl  0  0  0  0  0  0  0  0  0  0  0  0
   -5.5655   -1.4700    0.0000 C   0  0  0  0  0  0  0  0  0  0  0  0
   -6.5940   -2.6957    0.0000 H   0  0  0  0  0  0  0  0  0  0  0  0
  1  2  1  0  0  0  0
  2  3  1  0  0  0  0
  3  4  1  0  0  0  0
  4  5  1  0  0  0  0
  5  6  1  0  0  0  0
  6  7  1  0  0  0  0
  6  8  2  0  0  0  0
  8  9  1  0  0  0  0
  8 10  1  0  0  0  0
 10 11  1  0  0  0  0
 11 12  2  0  0  0  0
 11 13  1  0  0  0  0
 10 14  2  0  0  0  0
 14 15  1  0  0  0  0
 14 16  1  0  0  0  0
 16  5  2  0  0  0  0
 16 17  1  0  0  0  0
  3 18  2  0  0  0  0
 18 19  1  0  0  0  0
 18 20  1  0  0  0  0
 20 21  1  0  0  0  0
 20 22  2  0  0  0  0
 22 23  1  0  0  0  0
 22 24  1  0  0  0  0
 24  2  2  0  0  0  0
 24 25  1  0  0  0  0
M  CHG  2  11   1  13  -1
M  END
> <ChemID>
100425

> <source_casrn>
1836-75-5

> <CAS>
1836-75-5

> <SMILES>
[O-][N+](=O)c1ccc(cc1)Oc1ccc(Cl)cc1Cl

> <NAME>
NITROFEN

> <preferred_name>
Nitrofen

> <iupac>
2,4-dichloro-1-(4-nitrophenoxy)benzene

> <MPID>
99699

> <dsstox_substance_id>
DTXSID7020970

> <Canonical_QSARr>
[O-][N+](=O)c1ccc(cc1)Oc1ccc(Cl)cc1Cl

> <InChI_Code_QSARr>
InChI=1S/C12H7Cl2NO3/c13-8-1-6-12(11(14)7-8)18-10-4-2-9(3-5-10)15(16)17/h1-7H

> <InChI Key_QSARr>
XITQUSLLOSKDTB-UHFFFAOYSA-N

> <LogKOC>
4.0

$$$$
100426
  -INDIGO-08031722282D

 25 26  0  0  0  0  0  0  0  0999 V2000
    3.5086    0.9813    0.0000 C   0  0  0  0  0  0  0  0  0  0  0  0
    5.0842    1.2591    0.0000 C   0  0  0  0  0  0  0  0  0  0  0  0
    5.6315    2.7627    0.0000 H   0  0  0  0  0  0  0  0  0  0  0  0
    6.1126    0.0335    0.0000 C   0  0  0  0  0  0  0  0  0  0  0  0
    7.6884    0.3113    0.0000 Cl  0  0  0  0  0  0  0  0  0  0  0  0
    5.5655   -1.4700    0.0000 C   0  0  0  0  0  0  0  0  0  0  0  0
    6.5940   -2.6957    0.0000 H   0  0  0  0  0  0  0  0  0  0  0  0
    3.9898   -1.7479    0.0000 C   0  0  0  0  0  0  0  0  0  0  0  0
    3.4426   -3.2513    0.0000 Cl  0  0  0  0  0  0  0  0  0  0  0  0
    2.9613   -0.5222    0.0000 C   0  0  0  0  0  0  0  0  0  0  0  0
    1.3856   -0.8000    0.0000 O   0  0  0  0  0  0  0  0  0  0  0  0
   -0.0000   -0.0001    0.0000 C   0  0  0  0  0  0  0  0  0  0  0  0
   -0.0000    1.6000    0.0000 C   0  0  0  0  0  0  0  0  0  0  0  0
    1.3856    2.4000    0.0000 H   0  0  0  0  0  0  0  0  0  0  0  0
   -1.3856    2.4000    0.0000 C   0  0  0  0  0  0  0  0  0  0  0  0
   -1.3856    4.0000    0.0000 H   0  0  0  0  0  0  0  0  0  0  0  0
   -2.7712    1.6000    0.0000 C   0  0  0  0  0  0  0  0  0  0  0  0
   -4.1570    2.4000    0.0000 N   0  0  0  0  0  0  0  0  0  0  0  0
   -5.5426    1.6000    0.0000 O   0  0  0  0  0  0  0  0  0  0  0  0
   -4.1570    4.0000    0.0000 O   0  0  0  0  0  0  0  0  0  0  0  0
   -2.7712   -0.0001    0.0000 C   0  0  0  0  0  0  0  0  0  0  0  0
   -4.1570   -0.8000    0.0000 H   0  0  0  0  0  0  0  0  0  0  0  0
   -1.3856   -0.8000    0.0000 C   0  0  0  0  0  0  0  0  0  0  0  0
   -1.3856   -2.4000    0.0000 H   0  0  0  0  0  0  0  0  0  0  0  0
    2.4800    2.2071    0.0000 Cl  0  0  0  0  0  0  0  0  0  0  0  0
  1  2  1  0  0  0  0
  2  3  1  0  0  0  0
  2  4  2  0  0  0  0
  4  5  1  0  0  0  0
  4  6  1  0  0  0  0
  6  7  1  0  0  0  0
  6  8  2  0  0  0  0
  8  9  1  0  0  0  0
  8 10  1  0  0  0  0
 10  1  2  0  0  0  0
 10 11  1  0  0  0  0
 11 12  1  0  0  0  0
 12 13  1  0  0  0  0
 13 14  1  0  0  0  0
 13 15  2  0  0  0  0
 15 16  1  0  0  0  0
 15 17  1  0  0  0  0
 17 18  1  0  0  0  0
 18 19  1  0  0  0  0
 18 20  2  0  0  0  0
 17 21  2  0  0  0  0
 21 22  1  0  0  0  0
 21 23  1  0  0  0  0
 23 12  2  0  0  0  0
 23 24  1  0  0  0  0
  1 25  1  0  0  0  0
M  CHG  2  18   1  19  -1
M  END
> <ChemID>
100426

> <source_casrn>
1836-77-7

> <CAS>
1836-77-7

> <SMILES>
[O-][N+](=O)c1ccc(cc1)Oc1c(Cl)cc(Cl)cc1Cl

> <NAME>
CHLORNITROFEN

> <preferred_name>
Chlornitrofen

> <iupac>
4-nitrophenyl 2,4,6-trichlorophenyl ether

> <MPID>
99700

> <dsstox_substance_id>
DTXSID0041775

> <Canonical_QSARr>
[O-][N+](=O)c1ccc(cc1)Oc1c(Cl)cc(Cl)cc1Cl

> <InChI_Code_QSARr>
InChI=1S/C12H6Cl3NO3/c13-7-5-10(14)12(11(15)6-7)19-9-3-1-8(2-4-9)16(17)18/h1-6H

> <InChI Key_QSARr>
XQNAUQUKWRBODG-UHFFFAOYSA-N

> <LogKOC>
3.9

$$$$
100428
  -INDIGO-08031722282D

 39 39  0  0  0  0  0  0  0  0999 V2000
    2.4000    1.3857    0.0000 C   0  0  0  0  0  0  0  0  0  0  0  0
    2.1222    2.9614    0.0000 N   0  0  0  0  0  0  0  0  0  0  0  0
    3.3479    3.9898    0.0000 O   0  0  0  0  0  0  0  0  0  0  0  0
    0.6186    3.5086    0.0000 O   0  0  0  0  0  0  0  0  0  0  0  0
    1.5999   -0.0000    0.0000 C   0  0  0  0  0  0  0  0  0  0  0  0
    0.0001   -0.0000    0.0000 N   0  0  0  0  0  0  0  0  0  0  0  0
   -0.8000    1.3857    0.0000 C   0  0  0  0  0  0  0  0  0  0  0  0
    0.4694    2.3597    0.0000 H   0  0  0  0  0  0  0  0  0  0  0  0
   -0.5912    2.9720    0.0000 H   0  0  0  0  0  0  0  0  0  0  0  0
   -2.3036    1.9328    0.0000 C   0  0  0  0  0  0  0  0  0  0  0  0
   -3.8067    2.4800    0.0000 H   0  0  0  0  0  0  0  0  0  0  0  0
   -2.5813    3.5086    0.0000 H   0  0  0  0  0  0  0  0  0  0  0  0
   -3.5294    0.9044    0.0000 H   0  0  0  0  0  0  0  0  0  0  0  0
   -0.8000   -1.3856    0.0000 C   0  0  0  0  0  0  0  0  0  0  0  0
   -0.5912   -2.9719    0.0000 H   0  0  0  0  0  0  0  0  0  0  0  0
    0.4694   -2.3596    0.0000 H   0  0  0  0  0  0  0  0  0  0  0  0
   -2.3998   -1.3856    0.0000 C   0  0  0  0  0  0  0  0  0  0  0  0
   -2.6088    0.2007    0.0000 H   0  0  0  0  0  0  0  0  0  0  0  0
   -3.6696   -0.4116    0.0000 H   0  0  0  0  0  0  0  0  0  0  0  0
   -3.1999   -2.7713    0.0000 C   0  0  0  0  0  0  0  0  0  0  0  0
   -2.9913   -4.3576    0.0000 H   0  0  0  0  0  0  0  0  0  0  0  0
   -1.9307   -3.7453    0.0000 H   0  0  0  0  0  0  0  0  0  0  0  0
   -4.7997   -2.7713    0.0000 C   0  0  0  0  0  0  0  0  0  0  0  0
   -6.4000   -2.7713    0.0000 H   0  0  0  0  0  0  0  0  0  0  0  0
   -5.6000   -4.1570    0.0000 H   0  0  0  0  0  0  0  0  0  0  0  0
   -5.6000   -1.3856    0.0000 H   0  0  0  0  0  0  0  0  0  0  0  0
    2.4000   -1.3856    0.0000 C   0  0  0  0  0  0  0  0  0  0  0  0
    2.1222   -2.9613    0.0000 N   0  0  0  0  0  0  0  0  0  0  0  0
    0.6186   -3.5085    0.0000 O   0  0  0  0  0  0  0  0  0  0  0  0
    3.3479   -3.9897    0.0000 O   0  0  0  0  0  0  0  0  0  0  0  0
    4.0000   -1.3856    0.0000 C   0  0  0  0  0  0  0  0  0  0  0  0
    4.8001   -2.7713    0.0000 H   0  0  0  0  0  0  0  0  0  0  0  0
    4.8001   -0.0000    0.0000 C   0  0  0  0  0  0  0  0  0  0  0  0
    6.3999   -0.0000    0.0000 C   0  0  0  0  0  0  0  0  0  0  0  0
    8.0000   -0.0000    0.0000 F   0  0  0  0  0  0  0  0  0  0  0  0
    7.2000   -1.3856    0.0000 F   0  0  0  0  0  0  0  0  0  0  0  0
    7.2000    1.3857    0.0000 F   0  0  0  0  0  0  0  0  0  0  0  0
    4.0000    1.3857    0.0000 C   0  0  0  0  0  0  0  0  0  0  0  0
    4.8001    2.7713    0.0000 H   0  0  0  0  0  0  0  0  0  0  0  0
  1  2  1  0  0  0  0
  2  3  1  0  0  0  0
  2  4  2  0  0  0  0
  1  5  1  0  0  0  0
  5  6  1  0  0  0  0
  6  7  1  0  0  0  0
  7  8  1  0  0  0  0
  7  9  1  0  0  0  0
  7 10  1  0  0  0  0
 10 11  1  0  0  0  0
 10 12  1  0  0  0  0
 10 13  1  0  0  0  0
  6 14  1  0  0  0  0
 14 15  1  0  0  0  0
 14 16  1  0  0  0  0
 14 17  1  0  0  0  0
 17 18  1  0  0  0  0
 17 19  1  0  0  0  0
 17 20  1  0  0  0  0
 20 21  1  0  0  0  0
 20 22  1  0  0  0  0
 20 23  1  0  0  0  0
 23 24  1  0  0  0  0
 23 25  1  0  0  0  0
 23 26  1  0  0  0  0
  5 27  2  0  0  0  0
 27 28  1  0  0  0  0
 28 29  1  0  0  0  0
 28 30  2  0  0  0  0
 27 31  1  0  0  0  0
 31 32  1  0  0  0  0
 31 33  2  0  0  0  0
 33 34  1  0  0  0  0
 34 35  1  0  0  0  0
 34 36  1  0  0  0  0
 34 37  1  0  0  0  0
 33 38  1  0  0  0  0
 38  1  2  0  0  0  0
 38 39  1  0  0  0  0
M  CHG  4   2   1   3  -1  28   1  29  -1
M  END
> <ChemID>
100428

> <source_casrn>
1861-40-1

> <CAS>
1861-40-1

> <SMILES>
CCCCN(CC)c1c(cc(cc1[N+]([O-])=O)C(F)(F)F)[N+]([O-])=O

> <NAME>
BENEFIN

> <preferred_name>
Benfluralin

> <iupac>
N-butyl-N-ethyl-2,6-dinitro-4-(trifluoromethyl)aniline

> <MPID>
99702

> <dsstox_substance_id>
DTXSID3023899

> <Canonical_QSARr>
CCCCN(CC)c1c(cc(cc1[N+]([O-])=O)C(F)(F)F)[N+]([O-])=O

> <InChI_Code_QSARr>
InChI=1S/C13H16F3N3O4/c1-3-5-6-17(4-2)12-10(18(20)21)7-9(13(14,15)16)8-11(12)19(22)23/h7-8H,3-6H2,1-2H3

> <InChI Key_QSARr>
SMDHCQAYESWHAE-UHFFFAOYSA-N

> <LogKOC>
4.03

$$$$
100429
  -INDIGO-08031722282D

 14 14  0  0  0  0  0  0  0  0999 V2000
    1.3856    2.4000    0.0000 Cl  0  0  0  0  0  0  0  0  0  0  0  0
    1.3856    0.8000    0.0000 C   0  0  0  0  0  0  0  0  0  0  0  0
    2.7713   -0.0000    0.0000 C   0  0  0  0  0  0  0  0  0  0  0  0
    4.1570    0.8000    0.0000 C   0  0  0  0  0  0  0  0  0  0  0  0
    5.5426    1.6000    0.0000 N   0  0  0  0  0  0  0  0  0  0  0  0
    2.7713   -1.6000    0.0000 C   0  0  0  0  0  0  0  0  0  0  0  0
    4.1569   -2.4000    0.0000 Cl  0  0  0  0  0  0  0  0  0  0  0  0
    1.3856   -2.4000    0.0000 C   0  0  0  0  0  0  0  0  0  0  0  0
    1.3856   -4.0000    0.0000 Cl  0  0  0  0  0  0  0  0  0  0  0  0
    0.0000   -1.6000    0.0000 C   0  0  0  0  0  0  0  0  0  0  0  0
   -1.3857   -2.4000    0.0000 Cl  0  0  0  0  0  0  0  0  0  0  0  0
    0.0000   -0.0000    0.0000 C   0  0  0  0  0  0  0  0  0  0  0  0
   -1.3857    0.8000    0.0000 C   0  0  0  0  0  0  0  0  0  0  0  0
   -2.7713    1.6000    0.0000 N   0  0  0  0  0  0  0  0  0  0  0  0
  1  2  1  0  0  0  0
  2  3  1  0  0  0  0
  3  4  1  0  0  0  0
  4  5  3  0  0  0  0
  3  6  2  0  0  0  0
  6  7  1  0  0  0  0
  6  8  1  0  0  0  0
  8  9  1  0  0  0  0
  8 10  2  0  0  0  0
 10 11  1  0  0  0  0
 10 12  1  0  0  0  0
 12  2  2  0  0  0  0
 12 13  1  0  0  0  0
 13 14  3  0  0  0  0
M  END
> <ChemID>
100429

> <source_casrn>
1897-45-6

> <CAS>
1897-45-6

> <SMILES>
N#Cc1c(Cl)c(Cl)c(Cl)c(C#N)c1Cl

> <NAME>
CHLOROTHALONIL

> <preferred_name>
Chlorothalonil

> <iupac>
2,4,5,6-tetrachlorobenzene-1,3-dicarbonitrile

> <MPID>
99703

> <dsstox_substance_id>
DTXSID0020319

> <Canonical_QSARr>
N#Cc1c(Cl)c(Cl)c(Cl)c(C#N)c1Cl

> <InChI_Code_QSARr>
InChI=1S/C8Cl4N2/c9-5-3(1-13)6(10)8(12)7(11)4(5)2-14

> <InChI Key_QSARr>
CRQQGFGUEAVUIL-UHFFFAOYSA-N

> <LogKOC>
3.26

$$$$
100431
  -INDIGO-08031722282D

 28 28  0  0  0  0  0  0  0  0999 V2000
    4.1568    4.0000    0.0000 Cl  0  0  0  0  0  0  0  0  0  0  0  0
    4.1570    2.4000    0.0000 C   0  0  0  0  0  0  0  0  0  0  0  0
    5.5426    1.6000    0.0000 N   0  0  0  0  0  0  0  0  0  0  0  0
    5.5426   -0.0001    0.0000 C   0  0  0  0  0  0  0  0  0  0  0  0
    6.9283   -0.8000    0.0000 N   0  0  0  0  0  0  0  0  0  0  0  0
    6.9283   -2.4000    0.0000 H   0  0  0  0  0  0  0  0  0  0  0  0
    8.3138    0.0001    0.0000 C   0  0  0  0  0  0  0  0  0  0  0  0
    8.9262    1.4782    0.0000 H   0  0  0  0  0  0  0  0  0  0  0  0
    7.7015    1.4782    0.0000 H   0  0  0  0  0  0  0  0  0  0  0  0
    9.6996   -0.8000    0.0000 C   0  0  0  0  0  0  0  0  0  0  0  0
   11.0851   -1.6000    0.0000 H   0  0  0  0  0  0  0  0  0  0  0  0
   11.0851    0.0001    0.0000 H   0  0  0  0  0  0  0  0  0  0  0  0
    9.6996   -2.4000    0.0000 H   0  0  0  0  0  0  0  0  0  0  0  0
    4.1570   -0.8000    0.0000 N   0  0  0  0  0  0  0  0  0  0  0  0
    2.7713   -0.0001    0.0000 C   0  0  0  0  0  0  0  0  0  0  0  0
    1.3857   -0.8000    0.0000 N   0  0  0  0  0  0  0  0  0  0  0  0
    1.3857   -2.4000    0.0000 H   0  0  0  0  0  0  0  0  0  0  0  0
    0.0000   -0.0001    0.0000 C   0  0  0  0  0  0  0  0  0  0  0  0
    0.8001    1.3856    0.0000 H   0  0  0  0  0  0  0  0  0  0  0  0
   -1.3855    0.8000    0.0000 C   0  0  0  0  0  0  0  0  0  0  0  0
   -2.7713    1.6000    0.0000 H   0  0  0  0  0  0  0  0  0  0  0  0
   -2.7713   -0.0001    0.0000 H   0  0  0  0  0  0  0  0  0  0  0  0
   -1.3855    2.4000    0.0000 H   0  0  0  0  0  0  0  0  0  0  0  0
   -0.8001   -1.3856    0.0000 C   0  0  0  0  0  0  0  0  0  0  0  0
   -1.5999   -2.7713    0.0000 H   0  0  0  0  0  0  0  0  0  0  0  0
   -2.4000   -1.3856    0.0000 H   0  0  0  0  0  0  0  0  0  0  0  0
    0.0000   -2.7713    0.0000 H   0  0  0  0  0  0  0  0  0  0  0  0
    2.7713    1.6000    0.0000 N   0  0  0  0  0  0  0  0  0  0  0  0
  1  2  1  0  0  0  0
  2  3  1  0  0  0  0
  3  4  2  0  0  0  0
  4  5  1  0  0  0  0
  5  6  1  0  0  0  0
  5  7  1  0  0  0  0
  7  8  1  0  0  0  0
  7  9  1  0  0  0  0
  7 10  1  0  0  0  0
 10 11  1  0  0  0  0
 10 12  1  0  0  0  0
 10 13  1  0  0  0  0
  4 14  1  0  0  0  0
 14 15  2  0  0  0  0
 15 16  1  0  0  0  0
 16 17  1  0  0  0  0
 16 18  1  0  0  0  0
 18 19  1  0  0  0  0
 18 20  1  0  0  0  0
 20 21  1  0  0  0  0
 20 22  1  0  0  0  0
 20 23  1  0  0  0  0
 18 24  1  0  0  0  0
 24 25  1  0  0  0  0
 24 26  1  0  0  0  0
 24 27  1  0  0  0  0
 15 28  1  0  0  0  0
 28  2  2  0  0  0  0
M  END
> <ChemID>
100431

> <source_casrn>
1912-24-9

> <CAS>
1912-24-9

> <SMILES>
CCNc1[n]c(Cl)[n]c(NC(C)C)[n]1

> <NAME>
ATRAZINE

> <preferred_name>
Atrazine

> <iupac>
6-chloro-N-ethyl-N'-(propan-2-yl)-1,3,5-triazine-2,4-diamine

> <MPID>
99704

> <dsstox_substance_id>
DTXSID9020112

> <Canonical_QSARr>
CCNc1[n]c(Cl)[n]c(NC(C)C)[n]1

> <InChI_Code_QSARr>
InChI=1S/C8H14ClN5/c1-4-10-7-12-6(9)13-8(14-7)11-5(2)3/h5H,4H2,1-3H3,(H2,10,11,12,13,14)

> <InChI Key_QSARr>
MXWJVTOOROXGIU-UHFFFAOYSA-N

> <LogKOC>
2.24

$$$$
100433
  -INDIGO-08031722282D

 31 31  0  0  0  0  0  0  0  0999 V2000
    1.6001    0.0000    0.0000 C   0  0  0  0  0  0  0  0  0  0  0  0
    2.3999    1.3857    0.0000 N   0  0  0  0  0  0  0  0  0  0  0  0
    3.9999    1.3857    0.0000 C   0  0  0  0  0  0  0  0  0  0  0  0
    4.7999    2.7713    0.0000 N   0  0  0  0  0  0  0  0  0  0  0  0
    3.9999    4.1569    0.0000 H   0  0  0  0  0  0  0  0  0  0  0  0
    6.4000    2.7713    0.0000 C   0  0  0  0  0  0  0  0  0  0  0  0
    6.6088    1.1849    0.0000 H   0  0  0  0  0  0  0  0  0  0  0  0
    7.6693    1.7973    0.0000 H   0  0  0  0  0  0  0  0  0  0  0  0
    7.2000    4.1569    0.0000 C   0  0  0  0  0  0  0  0  0  0  0  0
    8.0000    5.5426    0.0000 H   0  0  0  0  0  0  0  0  0  0  0  0
    8.8000    4.1569    0.0000 H   0  0  0  0  0  0  0  0  0  0  0  0
    6.4000    5.5426    0.0000 H   0  0  0  0  0  0  0  0  0  0  0  0
    4.7999    0.0000    0.0000 N   0  0  0  0  0  0  0  0  0  0  0  0
    3.9999   -1.3856    0.0000 C   0  0  0  0  0  0  0  0  0  0  0  0
    4.7999   -2.7712    0.0000 Cl  0  0  0  0  0  0  0  0  0  0  0  0
    2.4001   -1.3856    0.0000 N   0  0  0  0  0  0  0  0  0  0  0  0
    0.0001    0.0000    0.0000 N   0  0  0  0  0  0  0  0  0  0  0  0
   -0.8000   -1.3856    0.0000 C   0  0  0  0  0  0  0  0  0  0  0  0
   -0.5912   -2.9720    0.0000 H   0  0  0  0  0  0  0  0  0  0  0  0
    0.4694   -2.3596    0.0000 H   0  0  0  0  0  0  0  0  0  0  0  0
   -2.4000   -1.3856    0.0000 C   0  0  0  0  0  0  0  0  0  0  0  0
   -3.2000   -2.7712    0.0000 H   0  0  0  0  0  0  0  0  0  0  0  0
   -4.0000   -1.3856    0.0000 H   0  0  0  0  0  0  0  0  0  0  0  0
   -1.6000   -2.7712    0.0000 H   0  0  0  0  0  0  0  0  0  0  0  0
   -0.8000    1.3857    0.0000 C   0  0  0  0  0  0  0  0  0  0  0  0
    0.4694    2.3597    0.0000 H   0  0  0  0  0  0  0  0  0  0  0  0
   -0.5912    2.9719    0.0000 H   0  0  0  0  0  0  0  0  0  0  0  0
   -2.4000    1.3857    0.0000 C   0  0  0  0  0  0  0  0  0  0  0  0
   -3.2000    2.7713    0.0000 H   0  0  0  0  0  0  0  0  0  0  0  0
   -4.0000    1.3857    0.0000 H   0  0  0  0  0  0  0  0  0  0  0  0
   -1.6000    2.7713    0.0000 H   0  0  0  0  0  0  0  0  0  0  0  0
  1  2  1  0  0  0  0
  2  3  2  0  0  0  0
  3  4  1  0  0  0  0
  4  5  1  0  0  0  0
  4  6  1  0  0  0  0
  6  7  1  0  0  0  0
  6  8  1  0  0  0  0
  6  9  1  0  0  0  0
  9 10  1  0  0  0  0
  9 11  1  0  0  0  0
  9 12  1  0  0  0  0
  3 13  1  0  0  0  0
 13 14  2  0  0  0  0
 14 15  1  0  0  0  0
 14 16  1  0  0  0  0
 16  1  2  0  0  0  0
  1 17  1  0  0  0  0
 17 18  1  0  0  0  0
 18 19  1  0  0  0  0
 18 20  1  0  0  0  0
 18 21  1  0  0  0  0
 21 22  1  0  0  0  0
 21 23  1  0  0  0  0
 21 24  1  0  0  0  0
 17 25  1  0  0  0  0
 25 26  1  0  0  0  0
 25 27  1  0  0  0  0
 25 28  1  0  0  0  0
 28 29  1  0  0  0  0
 28 30  1  0  0  0  0
 28 31  1  0  0  0  0
M  END
> <ChemID>
100433

> <source_casrn>
1912-26-1

> <CAS>
1912-26-1

> <SMILES>
CCNc1[n]c([n]c(Cl)[n]1)N(CC)CC

> <NAME>
TRIETAZINE

> <preferred_name>
Trietazine

> <iupac>
6-chloro-N,N,N'-triethyl-1,3,5-triazine-2,4-diamine

> <MPID>
99706

> <dsstox_substance_id>
DTXSID2042488

> <Canonical_QSARr>
CCNc1[n]c([n]c(Cl)[n]1)N(CC)CC

> <InChI_Code_QSARr>
InChI=1S/C9H16ClN5/c1-4-11-8-12-7(10)13-9(14-8)15(5-2)6-3/h4-6H2,1-3H3,(H,11,12,13,14)

> <InChI Key_QSARr>
HFBWPRKWDIRYNX-UHFFFAOYSA-N

> <LogKOC>
2.76

$$$$
100434
  -INDIGO-08031722282D

 19 19  0  0  0  0  0  0  0  0999 V2000
   -0.0000    0.0000    0.0000 C   0  0  0  0  0  0  0  0  0  0  0  0
    0.8000    1.3856    0.0000 C   0  0  0  0  0  0  0  0  0  0  0  0
   -0.0000    2.7713    0.0000 O   0  0  0  0  0  0  0  0  0  0  0  0
    2.4000    1.3856    0.0000 O   0  0  0  0  0  0  0  0  0  0  0  0
    3.2000    2.7713    0.0000 H   0  0  0  0  0  0  0  0  0  0  0  0
   -1.6000    0.0000    0.0000 C   0  0  0  0  0  0  0  0  0  0  0  0
   -2.4000    1.3856    0.0000 O   0  0  0  0  0  0  0  0  0  0  0  0
   -4.0001    1.3856    0.0000 C   0  0  0  0  0  0  0  0  0  0  0  0
   -4.8000    2.7713    0.0000 H   0  0  0  0  0  0  0  0  0  0  0  0
   -5.6000    1.3856    0.0000 H   0  0  0  0  0  0  0  0  0  0  0  0
   -3.2000    2.7713    0.0000 H   0  0  0  0  0  0  0  0  0  0  0  0
   -2.4000   -1.3856    0.0000 C   0  0  0  0  0  0  0  0  0  0  0  0
   -4.0001   -1.3856    0.0000 Cl  0  0  0  0  0  0  0  0  0  0  0  0
   -1.6000   -2.7713    0.0000 C   0  0  0  0  0  0  0  0  0  0  0  0
   -2.4000   -4.1569    0.0000 H   0  0  0  0  0  0  0  0  0  0  0  0
   -0.0000   -2.7713    0.0000 C   0  0  0  0  0  0  0  0  0  0  0  0
    0.8000   -4.1569    0.0000 H   0  0  0  0  0  0  0  0  0  0  0  0
    0.8000   -1.3856    0.0000 C   0  0  0  0  0  0  0  0  0  0  0  0
    2.4000   -1.3856    0.0000 Cl  0  0  0  0  0  0  0  0  0  0  0  0
  1  2  1  0  0  0  0
  2  3  2  0  0  0  0
  2  4  1  0  0  0  0
  4  5  1  0  0  0  0
  1  6  1  0  0  0  0
  6  7  1  0  0  0  0
  7  8  1  0  0  0  0
  8  9  1  0  0  0  0
  8 10  1  0  0  0  0
  8 11  1  0  0  0  0
  6 12  2  0  0  0  0
 12 13  1  0  0  0  0
 12 14  1  0  0  0  0
 14 15  1  0  0  0  0
 14 16  2  0  0  0  0
 16 17  1  0  0  0  0
 16 18  1  0  0  0  0
 18  1  2  0  0  0  0
 18 19  1  0  0  0  0
M  END
> <ChemID>
100434

> <source_casrn>
1918-00-9

> <CAS>
1918-00-9

> <SMILES>
COc1c(C(O)=O)c(Cl)ccc1Cl

> <NAME>
DICAMBA

> <preferred_name>
Dicamba

> <iupac>
3,6-dichloro-2-methoxybenzoic acid

> <MPID>
99707

> <dsstox_substance_id>
DTXSID4024018

> <Canonical_QSARr>
COc1c(C(O)=O)c(Cl)ccc1Cl

> <InChI_Code_QSARr>
InChI=1S/C8H6Cl2O3/c1-13-7-5(10)3-2-4(9)6(7)8(11)12/h2-3H,1H3,(H,11,12)

> <InChI Key_QSARr>
IWEDIXLBFLAXBO-UHFFFAOYSA-N

> <LogKOC>
1.5

$$$$
100435
  -INDIGO-08031722282D

 16 16  0  0  0  0  0  0  0  0999 V2000
   -2.7713   -0.0000    0.0000 C   0  0  0  0  0  0  0  0  0  0  0  0
   -2.7713   -1.6000    0.0000 N   0  0  0  0  0  0  0  0  0  0  0  0
   -1.3856   -2.4000    0.0000 C   0  0  0  0  0  0  0  0  0  0  0  0
   -1.3856   -4.0000    0.0000 Cl  0  0  0  0  0  0  0  0  0  0  0  0
    0.0000   -1.6000    0.0000 C   0  0  0  0  0  0  0  0  0  0  0  0
    1.3857   -2.4000    0.0000 Cl  0  0  0  0  0  0  0  0  0  0  0  0
    0.0000   -0.0000    0.0000 C   0  0  0  0  0  0  0  0  0  0  0  0
    1.3857    0.8000    0.0000 N   0  0  0  0  0  0  0  0  0  0  0  0
    2.7713   -0.0000    0.0000 H   0  0  0  0  0  0  0  0  0  0  0  0
    1.3857    2.4000    0.0000 H   0  0  0  0  0  0  0  0  0  0  0  0
   -1.3856    0.8000    0.0000 C   0  0  0  0  0  0  0  0  0  0  0  0
   -1.3856    2.4000    0.0000 Cl  0  0  0  0  0  0  0  0  0  0  0  0
   -4.1570    0.8000    0.0000 C   0  0  0  0  0  0  0  0  0  0  0  0
   -4.1570    2.4000    0.0000 O   0  0  0  0  0  0  0  0  0  0  0  0
   -5.5426   -0.0000    0.0000 O   0  0  0  0  0  0  0  0  0  0  0  0
   -6.9282    0.8000    0.0000 H   0  0  0  0  0  0  0  0  0  0  0  0
  1  2  1  0  0  0  0
  2  3  2  0  0  0  0
  3  4  1  0  0  0  0
  3  5  1  0  0  0  0
  5  6  1  0  0  0  0
  5  7  2  0  0  0  0
  7  8  1  0  0  0  0
  8  9  1  0  0  0  0
  8 10  1  0  0  0  0
  7 11  1  0  0  0  0
 11  1  2  0  0  0  0
 11 12  1  0  0  0  0
  1 13  1  0  0  0  0
 13 14  2  0  0  0  0
 13 15  1  0  0  0  0
 15 16  1  0  0  0  0
M  END
> <ChemID>
100435

> <source_casrn>
1918-02-1

> <CAS>
1918-02-1

> <SMILES>
Nc1c(Cl)c([n]c(Cl)c1Cl)C(O)=O

> <NAME>
PICLORAM

> <preferred_name>
Picloram

> <iupac>
C6H3Cl3N2O2

> <MPID>
99708

> <dsstox_substance_id>
DTXSID1021160

> <Canonical_QSARr>
Nc1c(Cl)c([n]c(Cl)c1Cl)C(O)=O

> <InChI_Code_QSARr>
InChI=1S/C6H3Cl3N2O2/c7-1-3(10)2(8)5(9)11-4(1)6(12)13/h(H2,10,11)(H,12,13)

> <InChI Key_QSARr>
NQQVFXUMIDALNH-UHFFFAOYSA-N

> <LogKOC>
1.3

$$$$
100437
  -INDIGO-08031722282D

 28 28  0  0  0  0  0  0  0  0999 V2000
   -0.8000    1.3857    0.0000 N   0  0  0  0  0  0  0  0  0  0  0  0
   -0.0001    2.7713    0.0000 C   0  0  0  0  0  0  0  0  0  0  0  0
   -0.8000    4.1569    0.0000 O   0  0  0  0  0  0  0  0  0  0  0  0
    1.6000    2.7713    0.0000 C   0  0  0  0  0  0  0  0  0  0  0  0
    2.4000    4.1569    0.0000 H   0  0  0  0  0  0  0  0  0  0  0  0
    3.2000    2.7713    0.0000 H   0  0  0  0  0  0  0  0  0  0  0  0
    0.8001    4.1569    0.0000 Cl  0  0  0  0  0  0  0  0  0  0  0  0
   -2.4000    1.3857    0.0000 C   0  0  0  0  0  0  0  0  0  0  0  0
   -3.2000    2.7713    0.0000 C   0  0  0  0  0  0  0  0  0  0  0  0
   -2.4000    4.1569    0.0000 H   0  0  0  0  0  0  0  0  0  0  0  0
   -4.8001    2.7713    0.0000 C   0  0  0  0  0  0  0  0  0  0  0  0
   -5.6000    4.1569    0.0000 H   0  0  0  0  0  0  0  0  0  0  0  0
   -5.6000    1.3857    0.0000 C   0  0  0  0  0  0  0  0  0  0  0  0
   -7.2000    1.3857    0.0000 H   0  0  0  0  0  0  0  0  0  0  0  0
   -4.8001    0.0000    0.0000 C   0  0  0  0  0  0  0  0  0  0  0  0
   -5.6000   -1.3857    0.0000 H   0  0  0  0  0  0  0  0  0  0  0  0
   -3.2000    0.0000    0.0000 C   0  0  0  0  0  0  0  0  0  0  0  0
   -2.4000   -1.3857    0.0000 H   0  0  0  0  0  0  0  0  0  0  0  0
   -0.0001    0.0000    0.0000 C   0  0  0  0  0  0  0  0  0  0  0  0
   -1.3856   -0.8000    0.0000 H   0  0  0  0  0  0  0  0  0  0  0  0
    0.5473   -1.5035    0.0000 C   0  0  0  0  0  0  0  0  0  0  0  0
    1.0945   -3.0070    0.0000 H   0  0  0  0  0  0  0  0  0  0  0  0
    2.1229   -1.7814    0.0000 H   0  0  0  0  0  0  0  0  0  0  0  0
   -0.4812   -2.7291    0.0000 H   0  0  0  0  0  0  0  0  0  0  0  0
    1.3857    0.8000    0.0000 C   0  0  0  0  0  0  0  0  0  0  0  0
    2.7712    1.6001    0.0000 H   0  0  0  0  0  0  0  0  0  0  0  0
    2.7712    0.0000    0.0000 H   0  0  0  0  0  0  0  0  0  0  0  0
    1.3857   -0.8000    0.0000 H   0  0  0  0  0  0  0  0  0  0  0  0
  1  2  1  0  0  0  0
  2  3  2  0  0  0  0
  2  4  1  0  0  0  0
  4  5  1  0  0  0  0
  4  6  1  0  0  0  0
  4  7  1  0  0  0  0
  1  8  1  0  0  0  0
  8  9  1  0  0  0  0
  9 10  1  0  0  0  0
  9 11  2  0  0  0  0
 11 12  1  0  0  0  0
 11 13  1  0  0  0  0
 13 14  1  0  0  0  0
 13 15  2  0  0  0  0
 15 16  1  0  0  0  0
 15 17  1  0  0  0  0
 17  8  2  0  0  0  0
 17 18  1  0  0  0  0
  1 19  1  0  0  0  0
 19 20  1  0  0  0  0
 19 21  1  0  0  0  0
 21 22  1  0  0  0  0
 21 23  1  0  0  0  0
 21 24  1  0  0  0  0
 19 25  1  0  0  0  0
 25 26  1  0  0  0  0
 25 27  1  0  0  0  0
 25 28  1  0  0  0  0
M  END
> <ChemID>
100437

> <source_casrn>
1918-16-7

> <CAS>
1918-16-7

> <SMILES>
CC(C)N(C(=O)CCl)c1ccccc1

> <NAME>
PROPACHLOR

> <preferred_name>
Propachlor

> <iupac>
2-chloro-N-phenyl-N-(propan-2-yl)acetamide

> <MPID>
99710

> <dsstox_substance_id>
DTXSID4024274

> <Canonical_QSARr>
CC(C)N(C(=O)CCl)c1ccccc1

> <InChI_Code_QSARr>
InChI=1S/C11H14ClNO/c1-9(2)13(11(14)8-12)10-6-4-3-5-7-10/h3-7,9H,8H2,1-2H3

> <InChI Key_QSARr>
MFOUDYKPLGXPGO-UHFFFAOYSA-N

> <LogKOC>
2.42

$$$$
100438
  -INDIGO-08031722282D

 20 20  0  0  0  0  0  0  0  0999 V2000
   -2.7712   -0.0000    0.0000 C   0  0  0  0  0  0  0  0  0  0  0  0
   -2.7712   -1.6000    0.0000 O   0  0  0  0  0  0  0  0  0  0  0  0
   -4.1569    0.8000    0.0000 O   0  0  0  0  0  0  0  0  0  0  0  0
   -5.5425   -0.0000    0.0000 C   0  0  0  0  0  0  0  0  0  0  0  0
   -6.9282   -0.8000    0.0000 H   0  0  0  0  0  0  0  0  0  0  0  0
   -6.9282    0.8000    0.0000 H   0  0  0  0  0  0  0  0  0  0  0  0
   -5.5425   -1.6000    0.0000 H   0  0  0  0  0  0  0  0  0  0  0  0
   -1.3856    0.8000    0.0000 N   0  0  0  0  0  0  0  0  0  0  0  0
   -1.3856    2.4000    0.0000 H   0  0  0  0  0  0  0  0  0  0  0  0
   -0.0001   -0.0000    0.0000 C   0  0  0  0  0  0  0  0  0  0  0  0
   -0.0001   -1.6000    0.0000 C   0  0  0  0  0  0  0  0  0  0  0  0
   -1.3857   -2.4000    0.0000 H   0  0  0  0  0  0  0  0  0  0  0  0
    1.3856   -2.4000    0.0000 C   0  0  0  0  0  0  0  0  0  0  0  0
    1.3856   -4.0000    0.0000 Cl  0  0  0  0  0  0  0  0  0  0  0  0
    2.7713   -1.6000    0.0000 C   0  0  0  0  0  0  0  0  0  0  0  0
    4.1569   -2.4000    0.0000 Cl  0  0  0  0  0  0  0  0  0  0  0  0
    2.7713   -0.0000    0.0000 C   0  0  0  0  0  0  0  0  0  0  0  0
    4.1569    0.8000    0.0000 H   0  0  0  0  0  0  0  0  0  0  0  0
    1.3856    0.8000    0.0000 C   0  0  0  0  0  0  0  0  0  0  0  0
    1.3856    2.4000    0.0000 H   0  0  0  0  0  0  0  0  0  0  0  0
  1  2  2  0  0  0  0
  1  3  1  0  0  0  0
  3  4  1  0  0  0  0
  4  5  1  0  0  0  0
  4  6  1  0  0  0  0
  4  7  1  0  0  0  0
  1  8  1  0  0  0  0
  8  9  1  0  0  0  0
  8 10  1  0  0  0  0
 10 11  1  0  0  0  0
 11 12  1  0  0  0  0
 11 13  2  0  0  0  0
 13 14  1  0  0  0  0
 13 15  1  0  0  0  0
 15 16  1  0  0  0  0
 15 17  2  0  0  0  0
 17 18  1  0  0  0  0
 17 19  1  0  0  0  0
 19 10  2  0  0  0  0
 19 20  1  0  0  0  0
M  END
> <ChemID>
100438

> <source_casrn>
1918-18-9

> <CAS>
1918-18-9

> <SMILES>
COC(=O)Nc1cc(Cl)c(Cl)cc1

> <NAME>
METHYL (3,4-DICHLOROPHENYL)CARBAMATE

> <preferred_name>
Swep

> <iupac>
methyl (3,4-dichlorophenyl)carbamate

> <MPID>
99711

> <dsstox_substance_id>
DTXSID7042437

> <Canonical_QSARr>
COC(=O)Nc1cc(Cl)c(Cl)cc1

> <InChI_Code_QSARr>
InChI=1S/C8H7Cl2NO2/c1-13-8(12)11-5-2-3-6(9)7(10)4-5/h2-4H,1H3,(H,11,12)

> <InChI Key_QSARr>
WOZQBERUBLYCEG-UHFFFAOYSA-N

> <LogKOC>
2.74

$$$$
100439
  -INDIGO-08031722282D

 34 33  0  0  0  0  0  0  0  0999 V2000
   -0.7999   -1.3857    0.0000 C   0  0  0  0  0  0  0  0  0  0  0  0
   -0.0001    0.0001    0.0000 N   0  0  0  0  0  0  0  0  0  0  0  0
   -0.7999    1.3857    0.0000 C   0  0  0  0  0  0  0  0  0  0  0  0
   -0.5911    2.9720    0.0000 H   0  0  0  0  0  0  0  0  0  0  0  0
    0.4695    2.3597    0.0000 H   0  0  0  0  0  0  0  0  0  0  0  0
   -2.3999    1.3857    0.0000 C   0  0  0  0  0  0  0  0  0  0  0  0
   -2.6089   -0.2006    0.0000 H   0  0  0  0  0  0  0  0  0  0  0  0
   -3.6693    0.4117    0.0000 H   0  0  0  0  0  0  0  0  0  0  0  0
   -3.1999    2.7713    0.0000 C   0  0  0  0  0  0  0  0  0  0  0  0
   -4.0000    4.1569    0.0000 H   0  0  0  0  0  0  0  0  0  0  0  0
   -4.8000    2.7713    0.0000 H   0  0  0  0  0  0  0  0  0  0  0  0
   -2.3999    4.1569    0.0000 H   0  0  0  0  0  0  0  0  0  0  0  0
    1.5999    0.0001    0.0000 C   0  0  0  0  0  0  0  0  0  0  0  0
    1.8089    1.5864    0.0000 H   0  0  0  0  0  0  0  0  0  0  0  0
    2.8693    0.9741    0.0000 H   0  0  0  0  0  0  0  0  0  0  0  0
    2.4000   -1.3857    0.0000 C   0  0  0  0  0  0  0  0  0  0  0  0
    2.1912   -2.9720    0.0000 H   0  0  0  0  0  0  0  0  0  0  0  0
    1.1306   -2.3597    0.0000 H   0  0  0  0  0  0  0  0  0  0  0  0
    4.0000   -1.3857    0.0000 C   0  0  0  0  0  0  0  0  0  0  0  0
    5.6000   -1.3857    0.0000 H   0  0  0  0  0  0  0  0  0  0  0  0
    4.8000   -2.7713    0.0000 H   0  0  0  0  0  0  0  0  0  0  0  0
    4.8000    0.0001    0.0000 H   0  0  0  0  0  0  0  0  0  0  0  0
   -0.0001   -2.7713    0.0000 O   0  0  0  0  0  0  0  0  0  0  0  0
   -2.3999   -1.3857    0.0000 S   0  0  0  0  0  0  0  0  0  0  0  0
   -3.1999   -2.7713    0.0000 C   0  0  0  0  0  0  0  0  0  0  0  0
   -1.9306   -3.7453    0.0000 H   0  0  0  0  0  0  0  0  0  0  0  0
   -2.9911   -4.3576    0.0000 H   0  0  0  0  0  0  0  0  0  0  0  0
   -4.8000   -2.7713    0.0000 C   0  0  0  0  0  0  0  0  0  0  0  0
   -6.0693   -1.7973    0.0000 H   0  0  0  0  0  0  0  0  0  0  0  0
   -5.0088   -1.1850    0.0000 H   0  0  0  0  0  0  0  0  0  0  0  0
   -5.6000   -4.1569    0.0000 C   0  0  0  0  0  0  0  0  0  0  0  0
   -6.4000   -5.5426    0.0000 H   0  0  0  0  0  0  0  0  0  0  0  0
   -7.2000   -4.1569    0.0000 H   0  0  0  0  0  0  0  0  0  0  0  0
   -4.8000   -5.5426    0.0000 H   0  0  0  0  0  0  0  0  0  0  0  0
  1  2  1  0  0  0  0
  2  3  1  0  0  0  0
  3  4  1  0  0  0  0
  3  5  1  0  0  0  0
  3  6  1  0  0  0  0
  6  7  1  0  0  0  0
  6  8  1  0  0  0  0
  6  9  1  0  0  0  0
  9 10  1  0  0  0  0
  9 11  1  0  0  0  0
  9 12  1  0  0  0  0
  2 13  1  0  0  0  0
 13 14  1  0  0  0  0
 13 15  1  0  0  0  0
 13 16  1  0  0  0  0
 16 17  1  0  0  0  0
 16 18  1  0  0  0  0
 16 19  1  0  0  0  0
 19 20  1  0  0  0  0
 19 21  1  0  0  0  0
 19 22  1  0  0  0  0
  1 23  2  0  0  0  0
  1 24  1  0  0  0  0
 24 25  1  0  0  0  0
 25 26  1  0  0  0  0
 25 27  1  0  0  0  0
 25 28  1  0  0  0  0
 28 29  1  0  0  0  0
 28 30  1  0  0  0  0
 28 31  1  0  0  0  0
 31 32  1  0  0  0  0
 31 33  1  0  0  0  0
 31 34  1  0  0  0  0
M  END
> <ChemID>
100439

> <source_casrn>
1929-77-7

> <CAS>
1929-77-7

> <SMILES>
CCCSC(=O)N(CCC)CCC

> <NAME>
VERNOLATE

> <preferred_name>
Vernolate

> <iupac>
S-propyl dipropylcarbamothioate

> <MPID>
99712

> <dsstox_substance_id>
DTXSID7024376

> <Canonical_QSARr>
CCCSC(=O)N(CCC)CCC

> <InChI_Code_QSARr>
InChI=1S/C10H21NOS/c1-4-7-11(8-5-2)10(12)13-9-6-3/h4-9H2,1-3H3

> <InChI Key_QSARr>
OKUGPJPKMAEJOE-UHFFFAOYSA-N

> <LogKOC>
2.33

$$$$
100441
  -INDIGO-08031722282D

 25 25  0  0  0  0  0  0  0  0999 V2000
    2.7712   -0.0000    0.0000 C   0  0  0  0  0  0  0  0  0  0  0  0
    2.7714   -1.6000    0.0000 O   0  0  0  0  0  0  0  0  0  0  0  0
    1.3856    0.8000    0.0000 O   0  0  0  0  0  0  0  0  0  0  0  0
   -0.0001   -0.0000    0.0000 C   0  0  0  0  0  0  0  0  0  0  0  0
   -0.0001   -1.6000    0.0000 H   0  0  0  0  0  0  0  0  0  0  0  0
   -1.3856    0.8000    0.0000 C   0  0  0  0  0  0  0  0  0  0  0  0
   -2.7712    1.6000    0.0000 C   0  0  0  0  0  0  0  0  0  0  0  0
   -4.1569    2.4000    0.0000 H   0  0  0  0  0  0  0  0  0  0  0  0
   -1.3856   -0.8000    0.0000 C   0  0  0  0  0  0  0  0  0  0  0  0
   -2.7712   -1.6000    0.0000 H   0  0  0  0  0  0  0  0  0  0  0  0
   -2.7714   -0.0000    0.0000 H   0  0  0  0  0  0  0  0  0  0  0  0
   -1.3856   -2.4000    0.0000 H   0  0  0  0  0  0  0  0  0  0  0  0
    4.1569    0.8000    0.0000 N   0  0  0  0  0  0  0  0  0  0  0  0
    4.1569    2.4000    0.0000 H   0  0  0  0  0  0  0  0  0  0  0  0
    5.5425   -0.0000    0.0000 C   0  0  0  0  0  0  0  0  0  0  0  0
    5.5425   -1.6000    0.0000 C   0  0  0  0  0  0  0  0  0  0  0  0
    4.1569   -2.4000    0.0000 H   0  0  0  0  0  0  0  0  0  0  0  0
    6.9282   -2.4000    0.0000 C   0  0  0  0  0  0  0  0  0  0  0  0
    6.9282   -4.0000    0.0000 Cl  0  0  0  0  0  0  0  0  0  0  0  0
    8.3139   -1.6000    0.0000 C   0  0  0  0  0  0  0  0  0  0  0  0
    9.6995   -2.4000    0.0000 H   0  0  0  0  0  0  0  0  0  0  0  0
    8.3139   -0.0000    0.0000 C   0  0  0  0  0  0  0  0  0  0  0  0
    9.6995    0.8000    0.0000 H   0  0  0  0  0  0  0  0  0  0  0  0
    6.9282    0.8000    0.0000 C   0  0  0  0  0  0  0  0  0  0  0  0
    6.9282    2.4000    0.0000 H   0  0  0  0  0  0  0  0  0  0  0  0
  1  2  2  0  0  0  0
  1  3  1  0  0  0  0
  3  4  1  0  0  0  0
  4  5  1  0  0  0  0
  4  6  1  0  0  0  0
  6  7  3  0  0  0  0
  7  8  1  0  0  0  0
  4  9  1  0  0  0  0
  9 10  1  0  0  0  0
  9 11  1  0  0  0  0
  9 12  1  0  0  0  0
  1 13  1  0  0  0  0
 13 14  1  0  0  0  0
 13 15  1  0  0  0  0
 15 16  1  0  0  0  0
 16 17  1  0  0  0  0
 16 18  2  0  0  0  0
 18 19  1  0  0  0  0
 18 20  1  0  0  0  0
 20 21  1  0  0  0  0
 20 22  2  0  0  0  0
 22 23  1  0  0  0  0
 22 24  1  0  0  0  0
 24 15  2  0  0  0  0
 24 25  1  0  0  0  0
M  END
> <ChemID>
100441

> <source_casrn>
1967-16-4

> <CAS>
1967-16-4

> <SMILES>
CC(C#C)OC(=O)Nc1cccc(Cl)c1

> <NAME>
CHLORBUFAM

> <preferred_name>
Chlorbufam

> <iupac>
but-3-yn-2-yl (3-chlorophenyl)carbamate

> <MPID>
99714

> <dsstox_substance_id>
DTXSID6041769

> <Canonical_QSARr>
CC(C#C)OC(=O)Nc1cccc(Cl)c1

> <InChI_Code_QSARr>
InChI=1S/C11H10ClNO2/c1-3-8(2)15-11(14)13-10-6-4-5-9(12)7-10/h1,4-8H,2H3,(H,13,14)

> <InChI Key_QSARr>
ULBXWWGWDPVHAO-UHFFFAOYSA-N

> <LogKOC>
2.21

$$$$
100442
  -INDIGO-08031722282D

 18 18  0  0  0  0  0  0  0  0999 V2000
   -4.8000   -0.0000    0.0000 Br  0  0  0  0  0  0  0  0  0  0  0  0
   -3.2001   -0.0000    0.0000 C   0  0  0  0  0  0  0  0  0  0  0  0
   -2.4000    1.3856    0.0000 C   0  0  0  0  0  0  0  0  0  0  0  0
   -3.2001    2.7713    0.0000 H   0  0  0  0  0  0  0  0  0  0  0  0
   -0.8000    1.3856    0.0000 C   0  0  0  0  0  0  0  0  0  0  0  0
   -0.0001    2.7713    0.0000 H   0  0  0  0  0  0  0  0  0  0  0  0
   -0.0001   -0.0000    0.0000 C   0  0  0  0  0  0  0  0  0  0  0  0
    1.6000   -0.0000    0.0000 N   0  0  0  0  0  0  0  0  0  0  0  0
    2.4000   -1.3856    0.0000 H   0  0  0  0  0  0  0  0  0  0  0  0
    2.4000    1.3856    0.0000 C   0  0  0  0  0  0  0  0  0  0  0  0
    1.6000    2.7713    0.0000 O   0  0  0  0  0  0  0  0  0  0  0  0
    4.0000    1.3856    0.0000 N   0  0  0  0  0  0  0  0  0  0  0  0
    4.8000    2.7713    0.0000 H   0  0  0  0  0  0  0  0  0  0  0  0
    4.8000   -0.0000    0.0000 H   0  0  0  0  0  0  0  0  0  0  0  0
   -0.8000   -1.3856    0.0000 C   0  0  0  0  0  0  0  0  0  0  0  0
   -0.0001   -2.7713    0.0000 H   0  0  0  0  0  0  0  0  0  0  0  0
   -2.4000   -1.3856    0.0000 C   0  0  0  0  0  0  0  0  0  0  0  0
   -3.2001   -2.7713    0.0000 H   0  0  0  0  0  0  0  0  0  0  0  0
  1  2  1  0  0  0  0
  2  3  1  0  0  0  0
  3  4  1  0  0  0  0
  3  5  2  0  0  0  0
  5  6  1  0  0  0  0
  5  7  1  0  0  0  0
  7  8  1  0  0  0  0
  8  9  1  0  0  0  0
  8 10  1  0  0  0  0
 10 11  2  0  0  0  0
 10 12  1  0  0  0  0
 12 13  1  0  0  0  0
 12 14  1  0  0  0  0
  7 15  2  0  0  0  0
 15 16  1  0  0  0  0
 15 17  1  0  0  0  0
 17  2  2  0  0  0  0
 17 18  1  0  0  0  0
M  END
> <ChemID>
100442

> <source_casrn>
1967-25-5

> <CAS>
1967-25-5

> <SMILES>
NC(=O)Nc1ccc(Br)cc1

> <NAME>
P-BROMOPHENYLUREA

> <preferred_name>
N-(4-Bromophenyl)urea

> <iupac>
(4-bromophenyl)urea

> <MPID>
99715

> <dsstox_substance_id>
DTXSID30173337

> <Canonical_QSARr>
NC(=O)Nc1ccc(Br)cc1

> <InChI_Code_QSARr>
InChI=1S/C7H7BrN2O/c8-5-1-3-6(4-2-5)10-7(9)11/h1-4H,(H3,9,10,11)

> <InChI Key_QSARr>
PFQUUCXMPUNRLA-UHFFFAOYSA-N

> <LogKOC>
2.06

$$$$
100443
  -INDIGO-08031722282D

 18 18  0  0  0  0  0  0  0  0999 V2000
   -3.1999    2.7713    0.0000 Cl  0  0  0  0  0  0  0  0  0  0  0  0
   -2.4000    1.3856    0.0000 C   0  0  0  0  0  0  0  0  0  0  0  0
   -0.8000    1.3856    0.0000 C   0  0  0  0  0  0  0  0  0  0  0  0
    0.0001    2.7713    0.0000 H   0  0  0  0  0  0  0  0  0  0  0  0
    0.0001    0.0000    0.0000 C   0  0  0  0  0  0  0  0  0  0  0  0
    1.6000    0.0000    0.0000 N   0  0  0  0  0  0  0  0  0  0  0  0
    2.4000    1.3856    0.0000 H   0  0  0  0  0  0  0  0  0  0  0  0
    2.4000   -1.3856    0.0000 C   0  0  0  0  0  0  0  0  0  0  0  0
    1.6000   -2.7713    0.0000 O   0  0  0  0  0  0  0  0  0  0  0  0
    4.0000   -1.3856    0.0000 N   0  0  0  0  0  0  0  0  0  0  0  0
    4.8000   -2.7713    0.0000 H   0  0  0  0  0  0  0  0  0  0  0  0
    4.8000   -0.0000    0.0000 H   0  0  0  0  0  0  0  0  0  0  0  0
   -0.8000   -1.3856    0.0000 C   0  0  0  0  0  0  0  0  0  0  0  0
   -0.0001   -2.7713    0.0000 H   0  0  0  0  0  0  0  0  0  0  0  0
   -2.4000   -1.3856    0.0000 C   0  0  0  0  0  0  0  0  0  0  0  0
   -3.1999   -2.7713    0.0000 H   0  0  0  0  0  0  0  0  0  0  0  0
   -3.1999   -0.0000    0.0000 C   0  0  0  0  0  0  0  0  0  0  0  0
   -4.8000    0.0000    0.0000 H   0  0  0  0  0  0  0  0  0  0  0  0
  1  2  1  0  0  0  0
  2  3  1  0  0  0  0
  3  4  1  0  0  0  0
  3  5  2  0  0  0  0
  5  6  1  0  0  0  0
  6  7  1  0  0  0  0
  6  8  1  0  0  0  0
  8  9  2  0  0  0  0
  8 10  1  0  0  0  0
 10 11  1  0  0  0  0
 10 12  1  0  0  0  0
  5 13  1  0  0  0  0
 13 14  1  0  0  0  0
 13 15  2  0  0  0  0
 15 16  1  0  0  0  0
 15 17  1  0  0  0  0
 17  2  2  0  0  0  0
 17 18  1  0  0  0  0
M  END
> <ChemID>
100443

> <source_casrn>
1967-27-7

> <CAS>
1967-27-7

> <SMILES>
NC(=O)Nc1cccc(Cl)c1

> <NAME>
M-CHLOROPHENYLUREA

> <preferred_name>
3-Chlorophenylurea

> <iupac>
(3-chlorophenyl)urea

> <MPID>
99716

> <dsstox_substance_id>
DTXSID90173338

> <Canonical_QSARr>
NC(=O)Nc1cccc(Cl)c1

> <InChI_Code_QSARr>
InChI=1S/C7H7ClN2O/c8-5-2-1-3-6(4-5)10-7(9)11/h1-4H,(H3,9,10,11)

> <InChI Key_QSARr>
PPCUBWWPGYHEJE-UHFFFAOYSA-N

> <LogKOC>
2.01

$$$$
100445
  -INDIGO-08031722282D

 37 38  0  0  0  0  0  0  0  0999 V2000
   -3.5713   -1.3856    0.0000 C   0  0  0  0  0  0  0  0  0  0  0  0
   -2.1856   -2.1856    0.0000 N   0  0  0  0  0  0  0  0  0  0  0  0
   -2.4634   -3.7614    0.0000 H   0  0  0  0  0  0  0  0  0  0  0  0
   -0.7999   -1.3856    0.0000 C   0  0  0  0  0  0  0  0  0  0  0  0
   -2.0257   -0.3572    0.0000 H   0  0  0  0  0  0  0  0  0  0  0  0
   -0.0001   -0.0000    0.0000 C   0  0  0  0  0  0  0  0  0  0  0  0
   -1.5034    0.5472    0.0000 H   0  0  0  0  0  0  0  0  0  0  0  0
   -0.2779    1.5757    0.0000 C   0  0  0  0  0  0  0  0  0  0  0  0
   -0.5557    3.1514    0.0000 H   0  0  0  0  0  0  0  0  0  0  0  0
   -1.7813    2.1229    0.0000 H   0  0  0  0  0  0  0  0  0  0  0  0
    0.9479    2.6041    0.0000 H   0  0  0  0  0  0  0  0  0  0  0  0
    1.6001   -0.0000    0.0000 C   0  0  0  0  0  0  0  0  0  0  0  0
    1.3222    1.5757    0.0000 H   0  0  0  0  0  0  0  0  0  0  0  0
    3.1034    0.5472    0.0000 H   0  0  0  0  0  0  0  0  0  0  0  0
    2.3999   -1.3856    0.0000 C   0  0  0  0  0  0  0  0  0  0  0  0
    3.6257   -0.3572    0.0000 H   0  0  0  0  0  0  0  0  0  0  0  0
    3.6257   -2.4141    0.0000 H   0  0  0  0  0  0  0  0  0  0  0  0
    1.6001   -2.7713    0.0000 C   0  0  0  0  0  0  0  0  0  0  0  0
    3.1034   -3.3185    0.0000 H   0  0  0  0  0  0  0  0  0  0  0  0
    1.3222   -4.3470    0.0000 H   0  0  0  0  0  0  0  0  0  0  0  0
   -0.0001   -2.7713    0.0000 C   0  0  0  0  0  0  0  0  0  0  0  0
    0.2777   -4.3470    0.0000 H   0  0  0  0  0  0  0  0  0  0  0  0
   -1.5034   -3.3185    0.0000 H   0  0  0  0  0  0  0  0  0  0  0  0
   -4.9570   -2.1856    0.0000 N   0  0  0  0  0  0  0  0  0  0  0  0
   -4.9570   -3.7856    0.0000 H   0  0  0  0  0  0  0  0  0  0  0  0
   -6.3427   -1.3856    0.0000 C   0  0  0  0  0  0  0  0  0  0  0  0
   -7.7281   -2.1856    0.0000 C   0  0  0  0  0  0  0  0  0  0  0  0
   -7.7281   -3.7856    0.0000 H   0  0  0  0  0  0  0  0  0  0  0  0
   -9.1138   -1.3856    0.0000 C   0  0  0  0  0  0  0  0  0  0  0  0
  -10.4995   -2.1856    0.0000 H   0  0  0  0  0  0  0  0  0  0  0  0
   -9.1138    0.2144    0.0000 C   0  0  0  0  0  0  0  0  0  0  0  0
  -10.4995    1.0144    0.0000 H   0  0  0  0  0  0  0  0  0  0  0  0
   -7.7281    1.0144    0.0000 C   0  0  0  0  0  0  0  0  0  0  0  0
   -7.7281    2.6143    0.0000 H   0  0  0  0  0  0  0  0  0  0  0  0
   -6.3427    0.2144    0.0000 C   0  0  0  0  0  0  0  0  0  0  0  0
   -4.9570    1.0144    0.0000 H   0  0  0  0  0  0  0  0  0  0  0  0
   -3.5713    0.2144    0.0000 O   0  0  0  0  0  0  0  0  0  0  0  0
  1  2  1  0  0  0  0
  2  3  1  0  0  0  0
  2  4  1  0  0  0  0
  4  5  1  0  0  0  0
  4  6  1  0  0  0  0
  6  7  1  0  0  0  0
  6  8  1  0  0  0  0
  8  9  1  0  0  0  0
  8 10  1  0  0  0  0
  8 11  1  0  0  0  0
  6 12  1  0  0  0  0
 12 13  1  0  0  0  0
 12 14  1  0  0  0  0
 12 15  1  0  0  0  0
 15 16  1  0  0  0  0
 15 17  1  0  0  0  0
 15 18  1  0  0  0  0
 18 19  1  0  0  0  0
 18 20  1  0  0  0  0
 18 21  1  0  0  0  0
 21  4  1  0  0  0  0
 21 22  1  0  0  0  0
 21 23  1  0  0  0  0
  1 24  1  0  0  0  0
 24 25  1  0  0  0  0
 24 26  1  0  0  0  0
 26 27  1  0  0  0  0
 27 28  1  0  0  0  0
 27 29  2  0  0  0  0
 29 30  1  0  0  0  0
 29 31  1  0  0  0  0
 31 32  1  0  0  0  0
 31 33  2  0  0  0  0
 33 34  1  0  0  0  0
 33 35  1  0  0  0  0
 35 26  2  0  0  0  0
 35 36  1  0  0  0  0
  1 37  2  0  0  0  0
M  END
> <ChemID>
100445

> <source_casrn>
1982-49-6

> <CAS>
1982-49-6

> <SMILES>
CC1CCCCC1NC(=O)Nc1ccccc1

> <NAME>
SIDURON

> <preferred_name>
Siduron

> <iupac>
1-(2-methylcyclohexyl)-3-phenylurea

> <MPID>
99718

> <dsstox_substance_id>
DTXSID7032474

> <Canonical_QSARr>
CC1CCCCC1NC(=O)Nc1ccccc1

> <InChI_Code_QSARr>
InChI=1S/C14H20N2O/c1-11-7-5-6-10-13(11)16-14(17)15-12-8-3-2-4-9-12/h2-4,8-9,11,13H,5-7,10H2,1H3,(H2,15,16,17)

> <InChI Key_QSARr>
JXVIIQLNUPXOII-UHFFFAOYSA-N

> <LogKOC>
2.31

$$$$
100446
  -INDIGO-08031722282D

 37 36  0  0  0  0  0  0  0  0999 V2000
   -3.1514    0.5556    0.0000 C   0  0  0  0  0  0  0  0  0  0  0  0
   -2.6042   -0.9478    0.0000 N   0  0  0  0  0  0  0  0  0  0  0  0
   -3.6325   -2.1735    0.0000 C   0  0  0  0  0  0  0  0  0  0  0  0
   -2.5517   -3.3531    0.0000 H   0  0  0  0  0  0  0  0  0  0  0  0
   -3.7024   -3.7720    0.0000 H   0  0  0  0  0  0  0  0  0  0  0  0
   -5.2083   -1.8957    0.0000 C   0  0  0  0  0  0  0  0  0  0  0  0
   -4.6611   -0.3921    0.0000 H   0  0  0  0  0  0  0  0  0  0  0  0
   -6.7118   -1.3485    0.0000 C   0  0  0  0  0  0  0  0  0  0  0  0
   -8.2154   -0.8012    0.0000 H   0  0  0  0  0  0  0  0  0  0  0  0
   -7.9376   -2.3769    0.0000 H   0  0  0  0  0  0  0  0  0  0  0  0
   -6.9897    0.2272    0.0000 H   0  0  0  0  0  0  0  0  0  0  0  0
   -5.7556   -3.3991    0.0000 C   0  0  0  0  0  0  0  0  0  0  0  0
   -6.3028   -4.9027    0.0000 H   0  0  0  0  0  0  0  0  0  0  0  0
   -4.7270   -4.6249    0.0000 H   0  0  0  0  0  0  0  0  0  0  0  0
   -7.3312   -3.6770    0.0000 H   0  0  0  0  0  0  0  0  0  0  0  0
   -1.0285   -1.2257    0.0000 C   0  0  0  0  0  0  0  0  0  0  0  0
    0.0525   -2.4053    0.0000 H   0  0  0  0  0  0  0  0  0  0  0  0
   -1.0982   -2.8241    0.0000 H   0  0  0  0  0  0  0  0  0  0  0  0
    0.0000   -0.0001    0.0000 C   0  0  0  0  0  0  0  0  0  0  0  0
   -1.3856    0.8000    0.0000 H   0  0  0  0  0  0  0  0  0  0  0  0
    0.8000    1.3857    0.0000 C   0  0  0  0  0  0  0  0  0  0  0  0
    1.6001    2.7713    0.0000 H   0  0  0  0  0  0  0  0  0  0  0  0
    2.4000    1.3857    0.0000 H   0  0  0  0  0  0  0  0  0  0  0  0
    0.0000    2.7713    0.0000 H   0  0  0  0  0  0  0  0  0  0  0  0
    1.3856   -0.8000    0.0000 C   0  0  0  0  0  0  0  0  0  0  0  0
    2.7713   -1.6000    0.0000 H   0  0  0  0  0  0  0  0  0  0  0  0
    1.3856   -2.4000    0.0000 H   0  0  0  0  0  0  0  0  0  0  0  0
    2.7713   -0.0001    0.0000 H   0  0  0  0  0  0  0  0  0  0  0  0
   -2.1229    1.7813    0.0000 O   0  0  0  0  0  0  0  0  0  0  0  0
   -4.7270    0.8336    0.0000 S   0  0  0  0  0  0  0  0  0  0  0  0
   -5.2743    2.3370    0.0000 C   0  0  0  0  0  0  0  0  0  0  0  0
   -4.7931    3.8630    0.0000 H   0  0  0  0  0  0  0  0  0  0  0  0
   -3.8552    3.0758    0.0000 H   0  0  0  0  0  0  0  0  0  0  0  0
   -6.8501    2.6149    0.0000 C   0  0  0  0  0  0  0  0  0  0  0  0
   -7.3973    4.1184    0.0000 H   0  0  0  0  0  0  0  0  0  0  0  0
   -8.4257    2.8927    0.0000 H   0  0  0  0  0  0  0  0  0  0  0  0
   -5.8215    3.8406    0.0000 H   0  0  0  0  0  0  0  0  0  0  0  0
  1  2  1  0  0  0  0
  2  3  1  0  0  0  0
  3  4  1  0  0  0  0
  3  5  1  0  0  0  0
  3  6  1  0  0  0  0
  6  7  1  0  0  0  0
  6  8  1  0  0  0  0
  8  9  1  0  0  0  0
  8 10  1  0  0  0  0
  8 11  1  0  0  0  0
  6 12  1  0  0  0  0
 12 13  1  0  0  0  0
 12 14  1  0  0  0  0
 12 15  1  0  0  0  0
  2 16  1  0  0  0  0
 16 17  1  0  0  0  0
 16 18  1  0  0  0  0
 16 19  1  0  0  0  0
 19 20  1  0  0  0  0
 19 21  1  0  0  0  0
 21 22  1  0  0  0  0
 21 23  1  0  0  0  0
 21 24  1  0  0  0  0
 19 25  1  0  0  0  0
 25 26  1  0  0  0  0
 25 27  1  0  0  0  0
 25 28  1  0  0  0  0
  1 29  2  0  0  0  0
  1 30  1  0  0  0  0
 30 31  1  0  0  0  0
 31 32  1  0  0  0  0
 31 33  1  0  0  0  0
 31 34  1  0  0  0  0
 34 35  1  0  0  0  0
 34 36  1  0  0  0  0
 34 37  1  0  0  0  0
M  END
> <ChemID>
100446

> <source_casrn>
2008-41-5

> <CAS>
2008-41-5

> <SMILES>
CCSC(=O)N(CC(C)C)CC(C)C

> <NAME>
BUTYLATE

> <preferred_name>
Butylate

> <iupac>
S-ethyl bis(2-methylpropyl)carbamothioate

> <MPID>
99719

> <dsstox_substance_id>
DTXSID7023936

> <Canonical_QSARr>
CCSC(=O)N(CC(C)C)CC(C)C

> <InChI_Code_QSARr>
InChI=1S/C11H23NOS/c1-6-14-11(13)12(7-9(2)3)8-10(4)5/h9-10H,6-8H2,1-5H3

> <InChI Key_QSARr>
BMTAFVWTTFSTOG-UHFFFAOYSA-N

> <LogKOC>
2.11

$$$$
100447
  -INDIGO-08031722282D

 16 16  0  0  0  0  0  0  0  0999 V2000
   -0.8000    1.3856    0.0000 C   0  0  0  0  0  0  0  0  0  0  0  0
   -0.0000    2.7713    0.0000 Cl  0  0  0  0  0  0  0  0  0  0  0  0
   -2.4000    1.3856    0.0000 C   0  0  0  0  0  0  0  0  0  0  0  0
   -3.2001    2.7713    0.0000 H   0  0  0  0  0  0  0  0  0  0  0  0
   -3.2001    0.0000    0.0000 C   0  0  0  0  0  0  0  0  0  0  0  0
   -4.8000    0.0000    0.0000 H   0  0  0  0  0  0  0  0  0  0  0  0
   -2.4000   -1.3856    0.0000 C   0  0  0  0  0  0  0  0  0  0  0  0
   -3.2001   -2.7713    0.0000 H   0  0  0  0  0  0  0  0  0  0  0  0
   -0.8000   -1.3856    0.0000 C   0  0  0  0  0  0  0  0  0  0  0  0
   -0.0000   -2.7713    0.0000 Cl  0  0  0  0  0  0  0  0  0  0  0  0
   -0.0000   -0.0000    0.0000 C   0  0  0  0  0  0  0  0  0  0  0  0
    1.6000    0.0000    0.0000 C   0  0  0  0  0  0  0  0  0  0  0  0
    2.4001    1.3856    0.0000 O   0  0  0  0  0  0  0  0  0  0  0  0
    2.4001   -1.3856    0.0000 N   0  0  0  0  0  0  0  0  0  0  0  0
    4.0000   -1.3856    0.0000 H   0  0  0  0  0  0  0  0  0  0  0  0
    1.6000   -2.7713    0.0000 H   0  0  0  0  0  0  0  0  0  0  0  0
  1  2  1  0  0  0  0
  1  3  1  0  0  0  0
  3  4  1  0  0  0  0
  3  5  2  0  0  0  0
  5  6  1  0  0  0  0
  5  7  1  0  0  0  0
  7  8  1  0  0  0  0
  7  9  2  0  0  0  0
  9 10  1  0  0  0  0
  9 11  1  0  0  0  0
 11  1  2  0  0  0  0
 11 12  1  0  0  0  0
 12 13  2  0  0  0  0
 12 14  1  0  0  0  0
 14 15  1  0  0  0  0
 14 16  1  0  0  0  0
M  END
> <ChemID>
100447

> <source_casrn>
2008-58-4

> <CAS>
2008-58-4

> <SMILES>
NC(=O)c1c(Cl)cccc1Cl

> <NAME>
2,6-DICHLOROBENZAMIDE

> <preferred_name>
2,6-Dichlorobenzamide

> <iupac>
2,6-dichlorobenzamide

> <MPID>
99720

> <dsstox_substance_id>
DTXSID7022170

> <Canonical_QSARr>
NC(=O)c1c(Cl)cccc1Cl

> <InChI_Code_QSARr>
InChI=1S/C7H5Cl2NO/c8-4-2-1-3-5(9)6(4)7(10)11/h1-3H,(H2,10,11)

> <InChI Key_QSARr>
JHSPCUHPSIUQRB-UHFFFAOYSA-N

> <LogKOC>
0.53

$$$$
100449
  -INDIGO-08031722282D

 30 30  0  0  0  0  0  0  0  0999 V2000
    2.7712    1.5999    0.0000 C   0  0  0  0  0  0  0  0  0  0  0  0
    4.1569    2.4000    0.0000 O   0  0  0  0  0  0  0  0  0  0  0  0
    5.5427    1.5999    0.0000 C   0  0  0  0  0  0  0  0  0  0  0  0
    5.5427   -0.0001    0.0000 O   0  0  0  0  0  0  0  0  0  0  0  0
    6.9282    2.4000    0.0000 N   0  0  0  0  0  0  0  0  0  0  0  0
    6.9282    4.0000    0.0000 H   0  0  0  0  0  0  0  0  0  0  0  0
    8.3139    1.5999    0.0000 C   0  0  0  0  0  0  0  0  0  0  0  0
    9.6995    0.8000    0.0000 H   0  0  0  0  0  0  0  0  0  0  0  0
    9.6995    2.4000    0.0000 H   0  0  0  0  0  0  0  0  0  0  0  0
    8.3139   -0.0001    0.0000 H   0  0  0  0  0  0  0  0  0  0  0  0
    1.3856    2.4000    0.0000 C   0  0  0  0  0  0  0  0  0  0  0  0
    1.3856    4.0000    0.0000 H   0  0  0  0  0  0  0  0  0  0  0  0
   -0.0001    1.6001    0.0000 C   0  0  0  0  0  0  0  0  0  0  0  0
   -1.3856    2.4000    0.0000 C   0  0  0  0  0  0  0  0  0  0  0  0
   -2.7714    3.1999    0.0000 H   0  0  0  0  0  0  0  0  0  0  0  0
   -1.3856    4.0000    0.0000 H   0  0  0  0  0  0  0  0  0  0  0  0
   -2.7714    1.6001    0.0000 H   0  0  0  0  0  0  0  0  0  0  0  0
   -0.0001   -0.0001    0.0000 C   0  0  0  0  0  0  0  0  0  0  0  0
   -1.3856   -0.8000    0.0000 S   0  0  0  0  0  0  0  0  0  0  0  0
   -2.7714   -0.0001    0.0000 C   0  0  0  0  0  0  0  0  0  0  0  0
   -4.1569   -0.8000    0.0000 H   0  0  0  0  0  0  0  0  0  0  0  0
   -4.1569    0.8000    0.0000 H   0  0  0  0  0  0  0  0  0  0  0  0
   -2.7712   -1.6001    0.0000 H   0  0  0  0  0  0  0  0  0  0  0  0
    1.3856   -0.8000    0.0000 C   0  0  0  0  0  0  0  0  0  0  0  0
    1.3856   -2.4000    0.0000 C   0  0  0  0  0  0  0  0  0  0  0  0
    1.3856   -4.0000    0.0000 H   0  0  0  0  0  0  0  0  0  0  0  0
    2.7712   -3.2001    0.0000 H   0  0  0  0  0  0  0  0  0  0  0  0
   -0.0001   -3.2001    0.0000 H   0  0  0  0  0  0  0  0  0  0  0  0
    2.7712   -0.0001    0.0000 C   0  0  0  0  0  0  0  0  0  0  0  0
    4.1569   -0.8000    0.0000 H   0  0  0  0  0  0  0  0  0  0  0  0
  1  2  1  0  0  0  0
  2  3  1  0  0  0  0
  3  4  2  0  0  0  0
  3  5  1  0  0  0  0
  5  6  1  0  0  0  0
  5  7  1  0  0  0  0
  7  8  1  0  0  0  0
  7  9  1  0  0  0  0
  7 10  1  0  0  0  0
  1 11  1  0  0  0  0
 11 12  1  0  0  0  0
 11 13  2  0  0  0  0
 13 14  1  0  0  0  0
 14 15  1  0  0  0  0
 14 16  1  0  0  0  0
 14 17  1  0  0  0  0
 13 18  1  0  0  0  0
 18 19  1  0  0  0  0
 19 20  1  0  0  0  0
 20 21  1  0  0  0  0
 20 22  1  0  0  0  0
 20 23  1  0  0  0  0
 18 24  2  0  0  0  0
 24 25  1  0  0  0  0
 25 26  1  0  0  0  0
 25 27  1  0  0  0  0
 25 28  1  0  0  0  0
 24 29  1  0  0  0  0
 29  1  2  0  0  0  0
 29 30  1  0  0  0  0
M  END
> <ChemID>
100449

> <source_casrn>
2032-65-7

> <CAS>
2032-65-7

> <SMILES>
CNC(=O)Oc1cc(C)c(SC)c(C)c1

> <NAME>
METHIOCARB

> <preferred_name>
Methiocarb

> <iupac>
3,5-dimethyl-4-(methylsulfanyl)phenyl methylcarbamate

> <MPID>
99722

> <dsstox_substance_id>
DTXSID3032626

> <Canonical_QSARr>
CNC(=O)Oc1cc(C)c(SC)c(C)c1

> <InChI_Code_QSARr>
InChI=1S/C11H15NO2S/c1-7-5-9(14-11(13)12-3)6-8(2)10(7)15-4/h5-6H,1-4H3,(H,12,13)

> <InChI Key_QSARr>
YFBPRJGDJKVWAH-UHFFFAOYSA-N

> <LogKOC>
2.32

$$$$
100450
  -INDIGO-08031722282D

 22 23  0  0  0  0  0  0  0  0999 V2000
   -0.0001    0.0000    0.0000 C   0  0  0  0  0  0  0  0  0  0  0  0
    1.6001   -0.0000    0.0000 C   0  0  0  0  0  0  0  0  0  0  0  0
    2.4001   -1.3856    0.0000 C   0  0  0  0  0  0  0  0  0  0  0  0
    1.6001   -2.7713    0.0000 H   0  0  0  0  0  0  0  0  0  0  0  0
    4.0000   -1.3856    0.0000 C   0  0  0  0  0  0  0  0  0  0  0  0
    4.8000   -2.7713    0.0000 H   0  0  0  0  0  0  0  0  0  0  0  0
    4.8000    0.0000    0.0000 C   0  0  0  0  0  0  0  0  0  0  0  0
    6.4000    0.0000    0.0000 H   0  0  0  0  0  0  0  0  0  0  0  0
    4.0000    1.3856    0.0000 C   0  0  0  0  0  0  0  0  0  0  0  0
    4.8000    2.7713    0.0000 H   0  0  0  0  0  0  0  0  0  0  0  0
    2.4001    1.3856    0.0000 C   0  0  0  0  0  0  0  0  0  0  0  0
    1.6001    2.7713    0.0000 H   0  0  0  0  0  0  0  0  0  0  0  0
   -0.8001    1.3856    0.0000 C   0  0  0  0  0  0  0  0  0  0  0  0
   -0.0001    2.7713    0.0000 Cl  0  0  0  0  0  0  0  0  0  0  0  0
   -2.4000    1.3856    0.0000 C   0  0  0  0  0  0  0  0  0  0  0  0
   -3.2000    2.7713    0.0000 H   0  0  0  0  0  0  0  0  0  0  0  0
   -3.2000    0.0000    0.0000 C   0  0  0  0  0  0  0  0  0  0  0  0
   -4.8000   -0.0000    0.0000 H   0  0  0  0  0  0  0  0  0  0  0  0
   -2.4000   -1.3856    0.0000 C   0  0  0  0  0  0  0  0  0  0  0  0
   -3.2000   -2.7713    0.0000 H   0  0  0  0  0  0  0  0  0  0  0  0
   -0.8001   -1.3856    0.0000 C   0  0  0  0  0  0  0  0  0  0  0  0
   -0.0001   -2.7713    0.0000 H   0  0  0  0  0  0  0  0  0  0  0  0
  1  2  1  0  0  0  0
  2  3  1  0  0  0  0
  3  4  1  0  0  0  0
  3  5  2  0  0  0  0
  5  6  1  0  0  0  0
  5  7  1  0  0  0  0
  7  8  1  0  0  0  0
  7  9  2  0  0  0  0
  9 10  1  0  0  0  0
  9 11  1  0  0  0  0
 11  2  2  0  0  0  0
 11 12  1  0  0  0  0
  1 13  1  0  0  0  0
 13 14  1  0  0  0  0
 13 15  2  0  0  0  0
 15 16  1  0  0  0  0
 15 17  1  0  0  0  0
 17 18  1  0  0  0  0
 17 19  2  0  0  0  0
 19 20  1  0  0  0  0
 19 21  1  0  0  0  0
 21  1  2  0  0  0  0
 21 22  1  0  0  0  0
M  END
> <ChemID>
100450

> <source_casrn>
2051-60-7

> <CAS>
2051-60-7

> <SMILES>
Clc1ccccc1-c1ccccc1

> <NAME>
2-CHLOROBIPHENYL

> <preferred_name>
2-Chlorobiphenyl

> <iupac>
2-chlorobiphenyl

> <MPID>
99723

> <dsstox_substance_id>
DTXSID6040298

> <Canonical_QSARr>
Clc1ccccc1-c1ccccc1

> <InChI_Code_QSARr>
InChI=1S/C12H9Cl/c13-12-9-5-4-8-11(12)10-6-2-1-3-7-10/h1-9H

> <InChI Key_QSARr>
LAXBNTIAOJWAOP-UHFFFAOYSA-N

> <LogKOC>
3.47

$$$$
100451
  -INDIGO-08031722282D

 30 30  0  0  0  0  0  0  0  0999 V2000
    4.1569    4.0000    0.0000 F   0  0  0  0  0  0  0  0  0  0  0  0
    4.1569    2.4000    0.0000 C   0  0  0  0  0  0  0  0  0  0  0  0
    5.5426    3.1999    0.0000 F   0  0  0  0  0  0  0  0  0  0  0  0
    5.5426    1.6000    0.0000 F   0  0  0  0  0  0  0  0  0  0  0  0
    2.7713    1.6000    0.0000 C   0  0  0  0  0  0  0  0  0  0  0  0
    1.3856    2.4000    0.0000 C   0  0  0  0  0  0  0  0  0  0  0  0
    1.3856    4.0000    0.0000 H   0  0  0  0  0  0  0  0  0  0  0  0
   -0.0001    1.6000    0.0000 C   0  0  0  0  0  0  0  0  0  0  0  0
   -1.0284    2.8256    0.0000 N   0  0  0  0  0  0  0  0  0  0  0  0
   -0.4813    4.3292    0.0000 O   0  0  0  0  0  0  0  0  0  0  0  0
   -2.6042    2.5478    0.0000 O   0  0  0  0  0  0  0  0  0  0  0  0
   -0.0001   -0.0000    0.0000 C   0  0  0  0  0  0  0  0  0  0  0  0
   -1.3856   -0.8000    0.0000 N   0  0  0  0  0  0  0  0  0  0  0  0
   -1.3856   -2.4000    0.0000 H   0  0  0  0  0  0  0  0  0  0  0  0
   -2.7713   -0.0000    0.0000 C   0  0  0  0  0  0  0  0  0  0  0  0
   -3.3836    1.4782    0.0000 H   0  0  0  0  0  0  0  0  0  0  0  0
   -2.1589    1.4782    0.0000 H   0  0  0  0  0  0  0  0  0  0  0  0
   -4.1570   -0.8000    0.0000 C   0  0  0  0  0  0  0  0  0  0  0  0
   -3.5446   -2.2783    0.0000 H   0  0  0  0  0  0  0  0  0  0  0  0
   -4.7692   -2.2783    0.0000 H   0  0  0  0  0  0  0  0  0  0  0  0
   -5.5425   -0.0000    0.0000 C   0  0  0  0  0  0  0  0  0  0  0  0
   -6.9282    0.8001    0.0000 H   0  0  0  0  0  0  0  0  0  0  0  0
   -6.9282   -0.8000    0.0000 H   0  0  0  0  0  0  0  0  0  0  0  0
   -5.5425    1.6000    0.0000 H   0  0  0  0  0  0  0  0  0  0  0  0
    1.3856   -0.8000    0.0000 C   0  0  0  0  0  0  0  0  0  0  0  0
    1.3856   -2.4000    0.0000 N   0  0  0  0  0  0  0  0  0  0  0  0
    2.7713   -3.2000    0.0000 O   0  0  0  0  0  0  0  0  0  0  0  0
   -0.0001   -3.2000    0.0000 O   0  0  0  0  0  0  0  0  0  0  0  0
    2.7713   -0.0000    0.0000 C   0  0  0  0  0  0  0  0  0  0  0  0
    4.1569   -0.8000    0.0000 H   0  0  0  0  0  0  0  0  0  0  0  0
  1  2  1  0  0  0  0
  2  3  1  0  0  0  0
  2  4  1  0  0  0  0
  2  5  1  0  0  0  0
  5  6  1  0  0  0  0
  6  7  1  0  0  0  0
  6  8  2  0  0  0  0
  8  9  1  0  0  0  0
  9 10  1  0  0  0  0
  9 11  2  0  0  0  0
  8 12  1  0  0  0  0
 12 13  1  0  0  0  0
 13 14  1  0  0  0  0
 13 15  1  0  0  0  0
 15 16  1  0  0  0  0
 15 17  1  0  0  0  0
 15 18  1  0  0  0  0
 18 19  1  0  0  0  0
 18 20  1  0  0  0  0
 18 21  1  0  0  0  0
 21 22  1  0  0  0  0
 21 23  1  0  0  0  0
 21 24  1  0  0  0  0
 12 25  2  0  0  0  0
 25 26  1  0  0  0  0
 26 27  1  0  0  0  0
 26 28  2  0  0  0  0
 25 29  1  0  0  0  0
 29  5  2  0  0  0  0
 29 30  1  0  0  0  0
M  CHG  4   9   1  10  -1  26   1  27  -1
M  END
> <ChemID>
100451

> <source_casrn>
2077-99-8

> <CAS>
2077-99-8

> <SMILES>
CCCNc1c(cc(cc1N(=O)=O)C(F)(F)F)N(=O)=O

> <NAME>
26NO2-N-PR-AAA-TRIF-P-TOLUIDINE

> <preferred_name>
Benzenamine, 2,6-dinitro-N-propyl-4-(trifluoromethyl)-

> <iupac>
2,6-dinitro-N-propyl-4-(trifluoromethyl)aniline

> <MPID>
99724

> <dsstox_substance_id>
DTXSID90174840

> <Canonical_QSARr>
CCCNc1c(cc(cc1[N+]([O-])=O)C(F)(F)F)[N+]([O-])=O

> <InChI_Code_QSARr>
InChI=1S/C10H10F3N3O4/c1-2-3-14-9-7(15(17)18)4-6(10(11,12)13)5-8(9)16(19)20/h4-5,14H,2-3H2,1H3

> <InChI Key_QSARr>
QXXIZJPWGJDHKR-UHFFFAOYSA-N

> <LogKOC>
3.61

$$$$
100453
  -INDIGO-08031722282D

 30 31  0  0  0  0  0  0  0  0999 V2000
   -1.3855    0.8000    0.0000 C   0  0  0  0  0  0  0  0  0  0  0  0
   -1.3857    2.4000    0.0000 C   0  0  0  0  0  0  0  0  0  0  0  0
    0.0000    3.2001    0.0000 H   0  0  0  0  0  0  0  0  0  0  0  0
   -2.7713    3.2001    0.0000 C   0  0  0  0  0  0  0  0  0  0  0  0
   -2.7713    4.8000    0.0000 H   0  0  0  0  0  0  0  0  0  0  0  0
   -4.1568    2.4000    0.0000 C   0  0  0  0  0  0  0  0  0  0  0  0
   -5.5426    3.2001    0.0000 H   0  0  0  0  0  0  0  0  0  0  0  0
   -4.1568    0.8000    0.0000 C   0  0  0  0  0  0  0  0  0  0  0  0
   -5.5426    0.0000    0.0000 H   0  0  0  0  0  0  0  0  0  0  0  0
   -2.7713    0.0000    0.0000 C   0  0  0  0  0  0  0  0  0  0  0  0
   -2.7713   -1.6000    0.0000 C   0  0  0  0  0  0  0  0  0  0  0  0
   -4.1570   -2.4001    0.0000 H   0  0  0  0  0  0  0  0  0  0  0  0
   -1.3855   -2.4001    0.0000 C   0  0  0  0  0  0  0  0  0  0  0  0
   -1.3855   -4.0000    0.0000 H   0  0  0  0  0  0  0  0  0  0  0  0
    0.0000   -1.6000    0.0000 C   0  0  0  0  0  0  0  0  0  0  0  0
    1.3857   -2.4001    0.0000 H   0  0  0  0  0  0  0  0  0  0  0  0
    0.0000    0.0000    0.0000 C   0  0  0  0  0  0  0  0  0  0  0  0
    1.3857    0.8000    0.0000 C   0  0  0  0  0  0  0  0  0  0  0  0
    0.7734    2.2782    0.0000 H   0  0  0  0  0  0  0  0  0  0  0  0
    1.9979    2.2782    0.0000 H   0  0  0  0  0  0  0  0  0  0  0  0
    2.7713    0.0000    0.0000 C   0  0  0  0  0  0  0  0  0  0  0  0
    2.7713   -1.6000    0.0000 O   0  0  0  0  0  0  0  0  0  0  0  0
    4.1570    0.8000    0.0000 O   0  0  0  0  0  0  0  0  0  0  0  0
    5.5426    0.0000    0.0000 C   0  0  0  0  0  0  0  0  0  0  0  0
    6.1549   -1.4782    0.0000 H   0  0  0  0  0  0  0  0  0  0  0  0
    4.9302   -1.4782    0.0000 H   0  0  0  0  0  0  0  0  0  0  0  0
    6.9283    0.8000    0.0000 C   0  0  0  0  0  0  0  0  0  0  0  0
    8.3138    1.6000    0.0000 H   0  0  0  0  0  0  0  0  0  0  0  0
    8.3138    0.0000    0.0000 H   0  0  0  0  0  0  0  0  0  0  0  0
    6.9283    2.4000    0.0000 H   0  0  0  0  0  0  0  0  0  0  0  0
  1  2  1  0  0  0  0
  2  3  1  0  0  0  0
  2  4  2  0  0  0  0
  4  5  1  0  0  0  0
  4  6  1  0  0  0  0
  6  7  1  0  0  0  0
  6  8  2  0  0  0  0
  8  9  1  0  0  0  0
  8 10  1  0  0  0  0
 10  1  1  0  0  0  0
 10 11  2  0  0  0  0
 11 12  1  0  0  0  0
 11 13  1  0  0  0  0
 13 14  1  0  0  0  0
 13 15  2  0  0  0  0
 15 16  1  0  0  0  0
 15 17  1  0  0  0  0
 17  1  2  0  0  0  0
 17 18  1  0  0  0  0
 18 19  1  0  0  0  0
 18 20  1  0  0  0  0
 18 21  1  0  0  0  0
 21 22  2  0  0  0  0
 21 23  1  0  0  0  0
 23 24  1  0  0  0  0
 24 25  1  0  0  0  0
 24 26  1  0  0  0  0
 24 27  1  0  0  0  0
 27 28  1  0  0  0  0
 27 29  1  0  0  0  0
 27 30  1  0  0  0  0
M  END
> <ChemID>
100453

> <source_casrn>
2122-70-5

> <CAS>
2122-70-5

> <SMILES>
CCOC(=O)Cc1cccc2ccccc21

> <NAME>
1-Naphthaleneacetic acid, ethyl ester

> <preferred_name>
Ethyl 1-naphthaleneacetate

> <iupac>
ethyl naphthalen-1-ylacetate

> <MPID>
99726

> <dsstox_substance_id>
DTXSID3034583

> <Canonical_QSARr>
CCOC(=O)Cc1cccc2ccccc21

> <InChI_Code_QSARr>
InChI=1S/C14H14O2/c1-2-16-14(15)10-12-8-5-7-11-6-3-4-9-13(11)12/h3-9H,2,10H2,1H3

> <InChI Key_QSARr>
XIDPSKQLXKCVQN-UHFFFAOYSA-N

> <LogKOC>
2.48

$$$$
100454
  -INDIGO-08031722282D

 22 23  0  0  0  0  0  0  0  0999 V2000
   -0.0001    0.0000    0.0000 C   0  0  0  0  0  0  0  0  0  0  0  0
    1.6001   -0.0000    0.0000 C   0  0  0  0  0  0  0  0  0  0  0  0
    2.4001   -1.3856    0.0000 C   0  0  0  0  0  0  0  0  0  0  0  0
    1.6001   -2.7713    0.0000 Cl  0  0  0  0  0  0  0  0  0  0  0  0
    4.0000   -1.3856    0.0000 C   0  0  0  0  0  0  0  0  0  0  0  0
    4.8000   -2.7713    0.0000 Cl  0  0  0  0  0  0  0  0  0  0  0  0
    4.8000    0.0000    0.0000 C   0  0  0  0  0  0  0  0  0  0  0  0
    6.4000    0.0000    0.0000 H   0  0  0  0  0  0  0  0  0  0  0  0
    4.0000    1.3856    0.0000 C   0  0  0  0  0  0  0  0  0  0  0  0
    4.8000    2.7713    0.0000 Cl  0  0  0  0  0  0  0  0  0  0  0  0
    2.4001    1.3856    0.0000 C   0  0  0  0  0  0  0  0  0  0  0  0
    1.6001    2.7713    0.0000 Cl  0  0  0  0  0  0  0  0  0  0  0  0
   -0.8001    1.3856    0.0000 C   0  0  0  0  0  0  0  0  0  0  0  0
   -0.0001    2.7713    0.0000 Cl  0  0  0  0  0  0  0  0  0  0  0  0
   -2.4000    1.3856    0.0000 C   0  0  0  0  0  0  0  0  0  0  0  0
   -3.2000    2.7713    0.0000 Cl  0  0  0  0  0  0  0  0  0  0  0  0
   -3.2000    0.0000    0.0000 C   0  0  0  0  0  0  0  0  0  0  0  0
   -4.8000   -0.0000    0.0000 H   0  0  0  0  0  0  0  0  0  0  0  0
   -2.4000   -1.3856    0.0000 C   0  0  0  0  0  0  0  0  0  0  0  0
   -3.2000   -2.7713    0.0000 Cl  0  0  0  0  0  0  0  0  0  0  0  0
   -0.8001   -1.3856    0.0000 C   0  0  0  0  0  0  0  0  0  0  0  0
   -0.0001   -2.7713    0.0000 Cl  0  0  0  0  0  0  0  0  0  0  0  0
  1  2  1  0  0  0  0
  2  3  1  0  0  0  0
  3  4  1  0  0  0  0
  3  5  2  0  0  0  0
  5  6  1  0  0  0  0
  5  7  1  0  0  0  0
  7  8  1  0  0  0  0
  7  9  2  0  0  0  0
  9 10  1  0  0  0  0
  9 11  1  0  0  0  0
 11  2  2  0  0  0  0
 11 12  1  0  0  0  0
  1 13  1  0  0  0  0
 13 14  1  0  0  0  0
 13 15  2  0  0  0  0
 15 16  1  0  0  0  0
 15 17  1  0  0  0  0
 17 18  1  0  0  0  0
 17 19  2  0  0  0  0
 19 20  1  0  0  0  0
 19 21  1  0  0  0  0
 21  1  2  0  0  0  0
 21 22  1  0  0  0  0
M  END
> <ChemID>
100454

> <source_casrn>
2136-99-4

> <CAS>
2136-99-4

> <SMILES>
Clc1cc(Cl)c(Cl)c(-c2c(Cl)c(Cl)cc(Cl)c2Cl)c1Cl

> <NAME>
2,2',3,3',5,5',6,6'-OCTACHLOROBIPHENYL

> <preferred_name>
2,2',3,3',5,5',6,6'-Octachlorobiphenyl

> <iupac>
1,2,4,5-tetrachloro-3-(2,3,5,6-tetrachlorophenyl)benzene

> <MPID>
99727

> <dsstox_substance_id>
DTXSID0074132

> <Canonical_QSARr>
Clc1cc(Cl)c(Cl)c(-c2c(Cl)c(Cl)cc(Cl)c2Cl)c1Cl

> <InChI_Code_QSARr>
InChI=1S/C12H2Cl8/c13-3-1-4(14)10(18)7(9(3)17)8-11(19)5(15)2-6(16)12(8)20/h1-2H

> <InChI Key_QSARr>
JPOPEORRMSDUIP-UHFFFAOYSA-N

> <LogKOC>
6.36

$$$$
100455
  -INDIGO-08031722282D

 20 20  0  0  0  0  0  0  0  0999 V2000
   -4.1569    0.8000    0.0000 Cl  0  0  0  0  0  0  0  0  0  0  0  0
   -2.7713   -0.0000    0.0000 C   0  0  0  0  0  0  0  0  0  0  0  0
   -1.3856    0.8000    0.0000 C   0  0  0  0  0  0  0  0  0  0  0  0
   -1.3856    2.4000    0.0000 H   0  0  0  0  0  0  0  0  0  0  0  0
    0.0001   -0.0000    0.0000 C   0  0  0  0  0  0  0  0  0  0  0  0
    1.3857    0.8000    0.0000 N   0  0  0  0  0  0  0  0  0  0  0  0
    1.3856    2.4000    0.0000 H   0  0  0  0  0  0  0  0  0  0  0  0
    2.7712   -0.0000    0.0000 C   0  0  0  0  0  0  0  0  0  0  0  0
    4.1569    0.8000    0.0000 O   0  0  0  0  0  0  0  0  0  0  0  0
    5.5425   -0.0000    0.0000 C   0  0  0  0  0  0  0  0  0  0  0  0
    6.9282   -0.8000    0.0000 H   0  0  0  0  0  0  0  0  0  0  0  0
    6.9282    0.8000    0.0000 H   0  0  0  0  0  0  0  0  0  0  0  0
    5.5425   -1.6000    0.0000 H   0  0  0  0  0  0  0  0  0  0  0  0
    2.7712   -1.6000    0.0000 O   0  0  0  0  0  0  0  0  0  0  0  0
    0.0001   -1.6000    0.0000 C   0  0  0  0  0  0  0  0  0  0  0  0
    1.3856   -2.4000    0.0000 H   0  0  0  0  0  0  0  0  0  0  0  0
   -1.3856   -2.4000    0.0000 C   0  0  0  0  0  0  0  0  0  0  0  0
   -1.3856   -4.0000    0.0000 H   0  0  0  0  0  0  0  0  0  0  0  0
   -2.7713   -1.6000    0.0000 C   0  0  0  0  0  0  0  0  0  0  0  0
   -4.1569   -2.4000    0.0000 H   0  0  0  0  0  0  0  0  0  0  0  0
  1  2  1  0  0  0  0
  2  3  1  0  0  0  0
  3  4  1  0  0  0  0
  3  5  2  0  0  0  0
  5  6  1  0  0  0  0
  6  7  1  0  0  0  0
  6  8  1  0  0  0  0
  8  9  1  0  0  0  0
  9 10  1  0  0  0  0
 10 11  1  0  0  0  0
 10 12  1  0  0  0  0
 10 13  1  0  0  0  0
  8 14  2  0  0  0  0
  5 15  1  0  0  0  0
 15 16  1  0  0  0  0
 15 17  2  0  0  0  0
 17 18  1  0  0  0  0
 17 19  1  0  0  0  0
 19  2  2  0  0  0  0
 19 20  1  0  0  0  0
M  END
> <ChemID>
100455

> <source_casrn>
2150-88-1

> <CAS>
2150-88-1

> <SMILES>
COC(=O)Nc1cccc(Cl)c1

> <NAME>
ME-N-(M-CHLOROPHENYL)CARBAMATE

> <preferred_name>
Methyl N-(3-chlorophenyl)carbamate

> <iupac>
METHYL N-(3-CHLOROPHENYL)CARBAMATE

> <MPID>
99728

> <dsstox_substance_id>
DTXSID40175842

> <Canonical_QSARr>
COC(=O)Nc1cccc(Cl)c1

> <InChI_Code_QSARr>
InChI=1S/C8H8ClNO2/c1-12-8(11)10-7-4-2-3-6(9)5-7/h2-5H,1H3,(H,10,11)

> <InChI Key_QSARr>
SEPMCAVKHUPSMA-UHFFFAOYSA-N

> <LogKOC>
2.15

$$$$
100457
  -INDIGO-08031722282D

 10  9  0  0  0  0  0  0  0  0999 V2000
   -0.8000    1.3856    0.0000 O   0  0  0  0  0  0  0  0  0  0  0  0
   -0.0000    2.7713    0.0000 H   0  0  0  0  0  0  0  0  0  0  0  0
   -0.0000    0.0000    0.0000 As  0  0  0  0  0  0  0  0  0  0  0  0
   -1.6000    0.0000    0.0000 O   0  0  0  0  0  0  0  0  0  0  0  0
   -2.4000   -1.3856    0.0000 H   0  0  0  0  0  0  0  0  0  0  0  0
    1.6000    0.0000    0.0000 C   0  0  0  0  0  0  0  0  0  0  0  0
    3.2000    0.0000    0.0000 H   0  0  0  0  0  0  0  0  0  0  0  0
    2.4000   -1.3856    0.0000 H   0  0  0  0  0  0  0  0  0  0  0  0
    2.4000    1.3856    0.0000 H   0  0  0  0  0  0  0  0  0  0  0  0
   -0.8000   -1.3856    0.0000 O   0  0  0  0  0  0  0  0  0  0  0  0
  1  2  1  0  0  0  0
  1  3  1  0  0  0  0
  3  4  1  0  0  0  0
  4  5  1  0  0  0  0
  3  6  1  0  0  0  0
  6  7  1  0  0  0  0
  6  8  1  0  0  0  0
  6  9  1  0  0  0  0
  3 10  2  0  0  0  0
M  END
> <ChemID>
100457

> <source_casrn>
2163-80-6

> <CAS>
2163-80-6

> <SMILES>
[Na+].C[As]([O-])(O)=O

> <NAME>
MSMA

> <preferred_name>
Monosodium methanearsonate

> <iupac>
sodium hydrogen methylarsonate

> <MPID>
99730

> <dsstox_substance_id>
DTXSID2025686

> <Canonical_QSARr>
C[As](O)(O)=O

> <InChI_Code_QSARr>
InChI=1S/CH5AsO3/c1-2(3,4)5/h1H3,(H2,3,4,5)

> <InChI Key_QSARr>
QYPPRTNMGCREIM-UHFFFAOYSA-N

> <LogKOC>
3.85

$$$$
100458
  -INDIGO-08031722282D

 35 37  0  0  0  0  0  0  0  0999 V2000
    1.6000    0.0000    0.0000 N   0  0  0  0  0  0  0  0  0  0  0  0
    2.4001    1.3857    0.0000 C   0  0  0  0  0  0  0  0  0  0  0  0
    1.6000    2.7713    0.0000 O   0  0  0  0  0  0  0  0  0  0  0  0
    3.9999    1.3857    0.0000 C   0  0  0  0  0  0  0  0  0  0  0  0
    4.8001    0.0000    0.0000 C   0  0  0  0  0  0  0  0  0  0  0  0
    6.3651    0.3326    0.0000 C   0  0  0  0  0  0  0  0  0  0  0  0
    7.9650    0.3326    0.0000 H   0  0  0  0  0  0  0  0  0  0  0  0
    6.5323   -1.2586    0.0000 H   0  0  0  0  0  0  0  0  0  0  0  0
    6.5323    1.9239    0.0000 C   0  0  0  0  0  0  0  0  0  0  0  0
    7.0267    3.4456    0.0000 H   0  0  0  0  0  0  0  0  0  0  0  0
    8.0973    1.5913    0.0000 H   0  0  0  0  0  0  0  0  0  0  0  0
    5.0706    2.5747    0.0000 C   0  0  0  0  0  0  0  0  0  0  0  0
    3.7762    3.5152    0.0000 H   0  0  0  0  0  0  0  0  0  0  0  0
    5.8707    3.9603    0.0000 H   0  0  0  0  0  0  0  0  0  0  0  0
    3.9999   -1.3857    0.0000 N   0  0  0  0  0  0  0  0  0  0  0  0
    4.8001   -2.7713    0.0000 H   0  0  0  0  0  0  0  0  0  0  0  0
    2.4001   -1.3857    0.0000 C   0  0  0  0  0  0  0  0  0  0  0  0
    1.6000   -2.7713    0.0000 O   0  0  0  0  0  0  0  0  0  0  0  0
    0.0001    0.0000    0.0000 C   0  0  0  0  0  0  0  0  0  0  0  0
    0.8000    1.3857    0.0000 H   0  0  0  0  0  0  0  0  0  0  0  0
   -0.2779   -1.5757    0.0000 C   0  0  0  0  0  0  0  0  0  0  0  0
    1.3222   -1.5757    0.0000 H   0  0  0  0  0  0  0  0  0  0  0  0
   -0.0001   -3.1514    0.0000 H   0  0  0  0  0  0  0  0  0  0  0  0
   -1.7814   -2.1229    0.0000 C   0  0  0  0  0  0  0  0  0  0  0  0
   -0.9813   -3.5086    0.0000 H   0  0  0  0  0  0  0  0  0  0  0  0
   -3.0070   -3.1514    0.0000 H   0  0  0  0  0  0  0  0  0  0  0  0
   -3.0070   -1.0945    0.0000 C   0  0  0  0  0  0  0  0  0  0  0  0
   -3.8070   -2.4801    0.0000 H   0  0  0  0  0  0  0  0  0  0  0  0
   -4.5105   -0.5472    0.0000 H   0  0  0  0  0  0  0  0  0  0  0  0
   -2.7292    0.4812    0.0000 C   0  0  0  0  0  0  0  0  0  0  0  0
   -4.3291    0.4812    0.0000 H   0  0  0  0  0  0  0  0  0  0  0  0
   -3.0070    2.0569    0.0000 H   0  0  0  0  0  0  0  0  0  0  0  0
   -1.2256    1.0285    0.0000 C   0  0  0  0  0  0  0  0  0  0  0  0
   -2.0257    2.4141    0.0000 H   0  0  0  0  0  0  0  0  0  0  0  0
    0.0001    2.0569    0.0000 H   0  0  0  0  0  0  0  0  0  0  0  0
  1  2  1  0  0  0  0
  2  3  2  0  0  0  0
  2  4  1  0  0  0  0
  4  5  2  0  0  0  0
  5  6  1  0  0  0  0
  6  7  1  0  0  0  0
  6  8  1  0  0  0  0
  6  9  1  0  0  0  0
  9 10  1  0  0  0  0
  9 11  1  0  0  0  0
  9 12  1  0  0  0  0
 12  4  1  0  0  0  0
 12 13  1  0  0  0  0
 12 14  1  0  0  0  0
  5 15  1  0  0  0  0
 15 16  1  0  0  0  0
 15 17  1  0  0  0  0
 17  1  1  0  0  0  0
 17 18  2  0  0  0  0
  1 19  1  0  0  0  0
 19 20  1  0  0  0  0
 19 21  1  0  0  0  0
 21 22  1  0  0  0  0
 21 23  1  0  0  0  0
 21 24  1  0  0  0  0
 24 25  1  0  0  0  0
 24 26  1  0  0  0  0
 24 27  1  0  0  0  0
 27 28  1  0  0  0  0
 27 29  1  0  0  0  0
 27 30  1  0  0  0  0
 30 31  1  0  0  0  0
 30 32  1  0  0  0  0
 30 33  1  0  0  0  0
 33 19  1  0  0  0  0
 33 34  1  0  0  0  0
 33 35  1  0  0  0  0
M  END
> <ChemID>
100458

> <source_casrn>
2164-08-1

> <CAS>
2164-08-1

> <SMILES>
O=C1C2CCCC=2NC(=O)N1C1CCCCC1

> <NAME>
LENACIL

> <preferred_name>
Lenacil

> <iupac>
3-cyclohexyl-6,7-dihydro-1H-cyclopenta[d]pyrimidine-2,4(3H,5H)-dione

> <MPID>
99731

> <dsstox_substance_id>
DTXSID9042093

> <Canonical_QSARr>
O=C1C2CCCC=2NC(=O)N1C1CCCCC1

> <InChI_Code_QSARr>
InChI=1S/C13H18N2O2/c16-12-10-7-4-8-11(10)14-13(17)15(12)9-5-2-1-3-6-9/h9H,1-8H2,(H,14,17)

> <InChI Key_QSARr>
ZTMKADLOSYKWCA-UHFFFAOYSA-N

> <LogKOC>
2.14

$$$$
100459
  -INDIGO-08031722282D

 27 27  0  0  0  0  0  0  0  0999 V2000
   -5.5426   -1.5999    0.0000 O   0  0  0  0  0  0  0  0  0  0  0  0
   -5.5426    0.0001    0.0000 C   0  0  0  0  0  0  0  0  0  0  0  0
   -4.1569    0.8000    0.0000 N   0  0  0  0  0  0  0  0  0  0  0  0
   -4.1569    2.4000    0.0000 H   0  0  0  0  0  0  0  0  0  0  0  0
   -2.7713   -0.0001    0.0000 C   0  0  0  0  0  0  0  0  0  0  0  0
   -2.7713   -1.6001    0.0000 C   0  0  0  0  0  0  0  0  0  0  0  0
   -4.1569   -2.4000    0.0000 H   0  0  0  0  0  0  0  0  0  0  0  0
   -1.3856   -2.4000    0.0000 C   0  0  0  0  0  0  0  0  0  0  0  0
   -1.3856   -4.0000    0.0000 H   0  0  0  0  0  0  0  0  0  0  0  0
    0.0001   -1.6001    0.0000 C   0  0  0  0  0  0  0  0  0  0  0  0
    1.3856   -2.4000    0.0000 H   0  0  0  0  0  0  0  0  0  0  0  0
    0.0001   -0.0001    0.0000 C   0  0  0  0  0  0  0  0  0  0  0  0
    1.3856    0.8000    0.0000 C   0  0  0  0  0  0  0  0  0  0  0  0
    2.7713    1.6001    0.0000 F   0  0  0  0  0  0  0  0  0  0  0  0
    2.7713    0.0001    0.0000 F   0  0  0  0  0  0  0  0  0  0  0  0
    1.3856    2.4000    0.0000 F   0  0  0  0  0  0  0  0  0  0  0  0
   -1.3856    0.8000    0.0000 C   0  0  0  0  0  0  0  0  0  0  0  0
   -1.3856    2.4000    0.0000 H   0  0  0  0  0  0  0  0  0  0  0  0
   -6.9283    0.8000    0.0000 N   0  0  0  0  0  0  0  0  0  0  0  0
   -8.3138   -0.0001    0.0000 C   0  0  0  0  0  0  0  0  0  0  0  0
   -9.6995   -0.8000    0.0000 H   0  0  0  0  0  0  0  0  0  0  0  0
   -9.6995    0.8000    0.0000 H   0  0  0  0  0  0  0  0  0  0  0  0
   -8.3138   -1.6001    0.0000 H   0  0  0  0  0  0  0  0  0  0  0  0
   -6.9283    2.4000    0.0000 C   0  0  0  0  0  0  0  0  0  0  0  0
   -6.9283    4.0000    0.0000 H   0  0  0  0  0  0  0  0  0  0  0  0
   -8.3138    3.2001    0.0000 H   0  0  0  0  0  0  0  0  0  0  0  0
   -5.5426    3.2001    0.0000 H   0  0  0  0  0  0  0  0  0  0  0  0
  1  2  2  0  0  0  0
  2  3  1  0  0  0  0
  3  4  1  0  0  0  0
  3  5  1  0  0  0  0
  5  6  1  0  0  0  0
  6  7  1  0  0  0  0
  6  8  2  0  0  0  0
  8  9  1  0  0  0  0
  8 10  1  0  0  0  0
 10 11  1  0  0  0  0
 10 12  2  0  0  0  0
 12 13  1  0  0  0  0
 13 14  1  0  0  0  0
 13 15  1  0  0  0  0
 13 16  1  0  0  0  0
 12 17  1  0  0  0  0
 17  5  2  0  0  0  0
 17 18  1  0  0  0  0
  2 19  1  0  0  0  0
 19 20  1  0  0  0  0
 20 21  1  0  0  0  0
 20 22  1  0  0  0  0
 20 23  1  0  0  0  0
 19 24  1  0  0  0  0
 24 25  1  0  0  0  0
 24 26  1  0  0  0  0
 24 27  1  0  0  0  0
M  END
> <ChemID>
100459

> <source_casrn>
2164-17-2

> <CAS>
2164-17-2

> <SMILES>
CN(C)C(=O)Nc1cc(ccc1)C(F)(F)F

> <NAME>
FLUOMETURON

> <preferred_name>
Fluometuron

> <iupac>
1,1-dimethyl-3-[3-(trifluoromethyl)phenyl]urea

> <MPID>
99732

> <dsstox_substance_id>
DTXSID8020628

> <Canonical_QSARr>
CN(C)C(=O)Nc1cc(ccc1)C(F)(F)F

> <InChI_Code_QSARr>
InChI=1S/C10H11F3N2O/c1-15(2)9(16)14-8-5-3-4-7(6-8)10(11,12)13/h3-6H,1-2H3,(H,14,16)

> <InChI Key_QSARr>
RZILCCPWPBTYDO-UHFFFAOYSA-N

> <LogKOC>
1.9

$$$$
100460
  -INDIGO-08031722282D

 29 29  0  0  0  0  0  0  0  0999 V2000
    3.3466    1.3135    0.0000 N   0  0  0  0  0  0  0  0  0  0  0  0
    3.5850   -0.2687    0.0000 C   0  0  0  0  0  0  0  0  0  0  0  0
    5.0745    0.3158    0.0000 H   0  0  0  0  0  0  0  0  0  0  0  0
    4.7023   -1.4140    0.0000 H   0  0  0  0  0  0  0  0  0  0  0  0
    2.4969   -1.4416    0.0000 C   0  0  0  0  0  0  0  0  0  0  0  0
    3.8824   -2.2416    0.0000 H   0  0  0  0  0  0  0  0  0  0  0  0
    2.2979   -3.0291    0.0000 H   0  0  0  0  0  0  0  0  0  0  0  0
    0.9014   -1.3220    0.0000 C   0  0  0  0  0  0  0  0  0  0  0  0
    1.1398   -2.9042    0.0000 H   0  0  0  0  0  0  0  0  0  0  0  0
   -0.4640   -2.1563    0.0000 H   0  0  0  0  0  0  0  0  0  0  0  0
    0.0000    0.0000    0.0000 C   0  0  0  0  0  0  0  0  0  0  0  0
   -1.0884   -1.1729    0.0000 H   0  0  0  0  0  0  0  0  0  0  0  0
   -1.5035    0.5473    0.0000 H   0  0  0  0  0  0  0  0  0  0  0  0
    0.4716    1.5290    0.0000 C   0  0  0  0  0  0  0  0  0  0  0  0
   -1.1239    1.6485    0.0000 H   0  0  0  0  0  0  0  0  0  0  0  0
   -0.0380    3.0456    0.0000 H   0  0  0  0  0  0  0  0  0  0  0  0
    1.9611    2.1134    0.0000 C   0  0  0  0  0  0  0  0  0  0  0  0
    1.0597    3.4355    0.0000 H   0  0  0  0  0  0  0  0  0  0  0  0
    3.0492    3.2864    0.0000 H   0  0  0  0  0  0  0  0  0  0  0  0
    4.6685    2.2148    0.0000 C   0  0  0  0  0  0  0  0  0  0  0  0
    4.5490    3.8103    0.0000 O   0  0  0  0  0  0  0  0  0  0  0  0
    6.1102    1.5206    0.0000 S   0  0  0  0  0  0  0  0  0  0  0  0
    7.4321    2.4219    0.0000 C   0  0  0  0  0  0  0  0  0  0  0  0
    7.9322    3.9417    0.0000 H   0  0  0  0  0  0  0  0  0  0  0  0
    6.7111    3.8502    0.0000 H   0  0  0  0  0  0  0  0  0  0  0  0
    8.8738    1.7276    0.0000 C   0  0  0  0  0  0  0  0  0  0  0  0
   10.3153    1.0335    0.0000 H   0  0  0  0  0  0  0  0  0  0  0  0
   10.1957    2.6290    0.0000 H   0  0  0  0  0  0  0  0  0  0  0  0
    8.9933    0.1321    0.0000 H   0  0  0  0  0  0  0  0  0  0  0  0
  1  2  1  0  0  0  0
  2  3  1  0  0  0  0
  2  4  1  0  0  0  0
  2  5  1  0  0  0  0
  5  6  1  0  0  0  0
  5  7  1  0  0  0  0
  5  8  1  0  0  0  0
  8  9  1  0  0  0  0
  8 10  1  0  0  0  0
  8 11  1  0  0  0  0
 11 12  1  0  0  0  0
 11 13  1  0  0  0  0
 11 14  1  0  0  0  0
 14 15  1  0  0  0  0
 14 16  1  0  0  0  0
 14 17  1  0  0  0  0
 17  1  1  0  0  0  0
 17 18  1  0  0  0  0
 17 19  1  0  0  0  0
  1 20  1  0  0  0  0
 20 21  2  0  0  0  0
 20 22  1  0  0  0  0
 22 23  1  0  0  0  0
 23 24  1  0  0  0  0
 23 25  1  0  0  0  0
 23 26  1  0  0  0  0
 26 27  1  0  0  0  0
 26 28  1  0  0  0  0
 26 29  1  0  0  0  0
M  END
> <ChemID>
100460

> <source_casrn>
2212-67-1

> <CAS>
2212-67-1

> <SMILES>
CCSC(=O)N1CCCCCC1

> <NAME>
MOLINATE

> <preferred_name>
Molinate

> <iupac>
S-ethyl azepane-1-carbothioate

> <MPID>
99733

> <dsstox_substance_id>
DTXSID6024206

> <Canonical_QSARr>
CCSC(=O)N1CCCCCC1

> <InChI_Code_QSARr>
InChI=1S/C9H17NOS/c1-2-12-9(11)10-7-5-3-4-6-8-10/h2-8H2,1H3

> <InChI Key_QSARr>
DEDOPGXGGQYYMW-UHFFFAOYSA-N

> <LogKOC>
1.92

$$$$
100462
  -INDIGO-08031722282D

 18 19  0  0  0  0  0  0  0  0999 V2000
    0.0001   -0.0000    0.0000 C   0  0  0  0  0  0  0  0  0  0  0  0
    1.3856    0.8000    0.0000 C   0  0  0  0  0  0  0  0  0  0  0  0
    1.3856    2.4000    0.0000 Cl  0  0  0  0  0  0  0  0  0  0  0  0
    2.7713   -0.0000    0.0000 C   0  0  0  0  0  0  0  0  0  0  0  0
    4.1569    0.8000    0.0000 Cl  0  0  0  0  0  0  0  0  0  0  0  0
    2.7713   -1.6000    0.0000 C   0  0  0  0  0  0  0  0  0  0  0  0
    4.1569   -2.4000    0.0000 Cl  0  0  0  0  0  0  0  0  0  0  0  0
    1.3856   -2.4000    0.0000 C   0  0  0  0  0  0  0  0  0  0  0  0
    1.3856   -4.0000    0.0000 Cl  0  0  0  0  0  0  0  0  0  0  0  0
    0.0001   -1.6000    0.0000 C   0  0  0  0  0  0  0  0  0  0  0  0
   -1.3856   -2.4000    0.0000 C   0  0  0  0  0  0  0  0  0  0  0  0
   -1.3856   -4.0000    0.0000 Cl  0  0  0  0  0  0  0  0  0  0  0  0
   -2.7712   -1.6000    0.0000 C   0  0  0  0  0  0  0  0  0  0  0  0
   -4.1569   -2.4000    0.0000 Cl  0  0  0  0  0  0  0  0  0  0  0  0
   -2.7712   -0.0000    0.0000 C   0  0  0  0  0  0  0  0  0  0  0  0
   -4.1569    0.8000    0.0000 Cl  0  0  0  0  0  0  0  0  0  0  0  0
   -1.3856    0.8000    0.0000 C   0  0  0  0  0  0  0  0  0  0  0  0
   -1.3856    2.4000    0.0000 Cl  0  0  0  0  0  0  0  0  0  0  0  0
  1  2  1  0  0  0  0
  2  3  1  0  0  0  0
  2  4  2  0  0  0  0
  4  5  1  0  0  0  0
  4  6  1  0  0  0  0
  6  7  1  0  0  0  0
  6  8  2  0  0  0  0
  8  9  1  0  0  0  0
  8 10  1  0  0  0  0
 10  1  1  0  0  0  0
 10 11  2  0  0  0  0
 11 12  1  0  0  0  0
 11 13  1  0  0  0  0
 13 14  1  0  0  0  0
 13 15  2  0  0  0  0
 15 16  1  0  0  0  0
 15 17  1  0  0  0  0
 17  1  2  0  0  0  0
 17 18  1  0  0  0  0
M  END
> <ChemID>
100462

> <source_casrn>
2234-13-1

> <CAS>
2234-13-1

> <SMILES>
Clc1c2c(c(Cl)c(Cl)c1Cl)c(Cl)c(Cl)c(Cl)c2Cl

> <NAME>
OCTACHLORONAPHTHALENE

> <preferred_name>
Octachloronaphthalene

> <iupac>
octachloronaphthalene

> <MPID>
99735

> <dsstox_substance_id>
DTXSID6025800

> <Canonical_QSARr>
Clc1c2c(c(Cl)c(Cl)c1Cl)c(Cl)c(Cl)c(Cl)c2Cl

> <InChI_Code_QSARr>
InChI=1S/C10Cl8/c11-3-1-2(5(13)9(17)7(3)15)6(14)10(18)8(16)4(1)12

> <InChI Key_QSARr>
RTNLUFLDZOAXIC-UHFFFAOYSA-N

> <LogKOC>
5.89

$$$$
100464
  -INDIGO-08031722282D

 32 31  0  0  0  0  0  0  0  0999 V2000
    2.5235    2.3263    0.0000 O   0  0  0  0  0  0  0  0  0  0  0  0
    2.8014    0.7507    0.0000 C   0  0  0  0  0  0  0  0  0  0  0  0
    1.5756   -0.2778    0.0000 N   0  0  0  0  0  0  0  0  0  0  0  0
    2.1230   -1.7814    0.0000 C   0  0  0  0  0  0  0  0  0  0  0  0
    3.5086   -0.9813    0.0000 H   0  0  0  0  0  0  0  0  0  0  0  0
    3.1514   -3.0070    0.0000 C   0  0  0  0  0  0  0  0  0  0  0  0
    4.1798   -4.2326    0.0000 H   0  0  0  0  0  0  0  0  0  0  0  0
    4.7271   -2.7292    0.0000 H   0  0  0  0  0  0  0  0  0  0  0  0
    2.6042   -4.5105    0.0000 H   0  0  0  0  0  0  0  0  0  0  0  0
    0.7373   -2.5814    0.0000 C   0  0  0  0  0  0  0  0  0  0  0  0
   -0.6483   -3.3814    0.0000 H   0  0  0  0  0  0  0  0  0  0  0  0
    0.7373   -4.1813    0.0000 H   0  0  0  0  0  0  0  0  0  0  0  0
    2.1230   -3.3814    0.0000 H   0  0  0  0  0  0  0  0  0  0  0  0
   -0.0001    0.0001    0.0000 C   0  0  0  0  0  0  0  0  0  0  0  0
   -0.0001   -1.6000    0.0000 H   0  0  0  0  0  0  0  0  0  0  0  0
   -1.5999    0.0001    0.0000 C   0  0  0  0  0  0  0  0  0  0  0  0
   -3.2000    0.0001    0.0000 H   0  0  0  0  0  0  0  0  0  0  0  0
   -2.4001    1.3857    0.0000 H   0  0  0  0  0  0  0  0  0  0  0  0
   -2.4001   -1.3857    0.0000 H   0  0  0  0  0  0  0  0  0  0  0  0
   -0.0001    1.6000    0.0000 C   0  0  0  0  0  0  0  0  0  0  0  0
   -0.0001    3.2000    0.0000 H   0  0  0  0  0  0  0  0  0  0  0  0
    1.3855    2.4000    0.0000 H   0  0  0  0  0  0  0  0  0  0  0  0
   -1.3857    2.4000    0.0000 H   0  0  0  0  0  0  0  0  0  0  0  0
    4.3050    0.2034    0.0000 S   0  0  0  0  0  0  0  0  0  0  0  0
    5.5306    1.2318    0.0000 C   0  0  0  0  0  0  0  0  0  0  0  0
    4.6709    2.5813    0.0000 H   0  0  0  0  0  0  0  0  0  0  0  0
    5.8769    2.7939    0.0000 H   0  0  0  0  0  0  0  0  0  0  0  0
    7.0341    0.6846    0.0000 C   0  0  0  0  0  0  0  0  0  0  0  0
    8.2597    1.7131    0.0000 C   0  0  0  0  0  0  0  0  0  0  0  0
    9.7632    1.1659    0.0000 H   0  0  0  0  0  0  0  0  0  0  0  0
    7.9818    3.2888    0.0000 Cl  0  0  0  0  0  0  0  0  0  0  0  0
    7.3118   -0.8911    0.0000 Cl  0  0  0  0  0  0  0  0  0  0  0  0
  1  2  2  0  0  0  0
  2  3  1  0  0  0  0
  3  4  1  0  0  0  0
  4  5  1  0  0  0  0
  4  6  1  0  0  0  0
  6  7  1  0  0  0  0
  6  8  1  0  0  0  0
  6  9  1  0  0  0  0
  4 10  1  0  0  0  0
 10 11  1  0  0  0  0
 10 12  1  0  0  0  0
 10 13  1  0  0  0  0
  3 14  1  0  0  0  0
 14 15  1  0  0  0  0
 14 16  1  0  0  0  0
 16 17  1  0  0  0  0
 16 18  1  0  0  0  0
 16 19  1  0  0  0  0
 14 20  1  0  0  0  0
 20 21  1  0  0  0  0
 20 22  1  0  0  0  0
 20 23  1  0  0  0  0
  2 24  1  0  0  0  0
 24 25  1  0  0  0  0
 25 26  1  0  0  0  0
 25 27  1  0  0  0  0
 25 28  1  0  0  0  0
 28 29  2  0  0  0  0
 29 30  1  0  0  0  0
 29 31  1  0  0  0  0
 28 32  1  0  0  0  0
M  END
> <ChemID>
100464

> <source_casrn>
2303-16-4

> <CAS>
2303-16-4

> <SMILES>
CC(C)N(C(C)C)C(=O)SCC(Cl)=CCl

> <NAME>
DIALLATE

> <preferred_name>
Diallate

> <iupac>
C10H17Cl2NOS

> <MPID>
99736

> <dsstox_substance_id>
DTXSID2020391

> <Canonical_QSARr>
CC(C)N(C(C)C)C(=O)SCC(Cl)=CCl

> <InChI_Code_QSARr>
InChI=1S/C10H17Cl2NOS/c1-7(2)13(8(3)4)10(14)15-6-9(12)5-11/h5,7-8H,6H2,1-4H3/b9-5+

> <InChI Key_QSARr>
SPANOECCGNXGNR-WEVVVXLNSA-N

> <LogKOC>
3.28

$$$$
100465
  -INDIGO-08031722282D

 32 31  0  0  0  0  0  0  0  0999 V2000
    2.5235    2.3263    0.0000 O   0  0  0  0  0  0  0  0  0  0  0  0
    2.8014    0.7507    0.0000 C   0  0  0  0  0  0  0  0  0  0  0  0
    1.5756   -0.2778    0.0000 N   0  0  0  0  0  0  0  0  0  0  0  0
    2.1230   -1.7814    0.0000 C   0  0  0  0  0  0  0  0  0  0  0  0
    3.5086   -0.9813    0.0000 H   0  0  0  0  0  0  0  0  0  0  0  0
    3.1514   -3.0070    0.0000 C   0  0  0  0  0  0  0  0  0  0  0  0
    4.1798   -4.2326    0.0000 H   0  0  0  0  0  0  0  0  0  0  0  0
    4.7271   -2.7292    0.0000 H   0  0  0  0  0  0  0  0  0  0  0  0
    2.6042   -4.5105    0.0000 H   0  0  0  0  0  0  0  0  0  0  0  0
    0.7373   -2.5814    0.0000 C   0  0  0  0  0  0  0  0  0  0  0  0
   -0.6483   -3.3814    0.0000 H   0  0  0  0  0  0  0  0  0  0  0  0
    0.7373   -4.1813    0.0000 H   0  0  0  0  0  0  0  0  0  0  0  0
    2.1230   -3.3814    0.0000 H   0  0  0  0  0  0  0  0  0  0  0  0
   -0.0001    0.0001    0.0000 C   0  0  0  0  0  0  0  0  0  0  0  0
   -0.0001   -1.6000    0.0000 H   0  0  0  0  0  0  0  0  0  0  0  0
   -1.5999    0.0001    0.0000 C   0  0  0  0  0  0  0  0  0  0  0  0
   -3.2000    0.0001    0.0000 H   0  0  0  0  0  0  0  0  0  0  0  0
   -2.4001    1.3857    0.0000 H   0  0  0  0  0  0  0  0  0  0  0  0
   -2.4001   -1.3857    0.0000 H   0  0  0  0  0  0  0  0  0  0  0  0
   -0.0001    1.6000    0.0000 C   0  0  0  0  0  0  0  0  0  0  0  0
   -0.0001    3.2000    0.0000 H   0  0  0  0  0  0  0  0  0  0  0  0
    1.3855    2.4000    0.0000 H   0  0  0  0  0  0  0  0  0  0  0  0
   -1.3857    2.4000    0.0000 H   0  0  0  0  0  0  0  0  0  0  0  0
    4.3050    0.2034    0.0000 S   0  0  0  0  0  0  0  0  0  0  0  0
    5.5306    1.2318    0.0000 C   0  0  0  0  0  0  0  0  0  0  0  0
    4.6709    2.5813    0.0000 H   0  0  0  0  0  0  0  0  0  0  0  0
    5.8769    2.7939    0.0000 H   0  0  0  0  0  0  0  0  0  0  0  0
    7.0341    0.6846    0.0000 C   0  0  0  0  0  0  0  0  0  0  0  0
    8.2597    1.7131    0.0000 C   0  0  0  0  0  0  0  0  0  0  0  0
    9.7632    1.1659    0.0000 Cl  0  0  0  0  0  0  0  0  0  0  0  0
    7.9818    3.2888    0.0000 Cl  0  0  0  0  0  0  0  0  0  0  0  0
    7.3118   -0.8911    0.0000 Cl  0  0  0  0  0  0  0  0  0  0  0  0
  1  2  2  0  0  0  0
  2  3  1  0  0  0  0
  3  4  1  0  0  0  0
  4  5  1  0  0  0  0
  4  6  1  0  0  0  0
  6  7  1  0  0  0  0
  6  8  1  0  0  0  0
  6  9  1  0  0  0  0
  4 10  1  0  0  0  0
 10 11  1  0  0  0  0
 10 12  1  0  0  0  0
 10 13  1  0  0  0  0
  3 14  1  0  0  0  0
 14 15  1  0  0  0  0
 14 16  1  0  0  0  0
 16 17  1  0  0  0  0
 16 18  1  0  0  0  0
 16 19  1  0  0  0  0
 14 20  1  0  0  0  0
 20 21  1  0  0  0  0
 20 22  1  0  0  0  0
 20 23  1  0  0  0  0
  2 24  1  0  0  0  0
 24 25  1  0  0  0  0
 25 26  1  0  0  0  0
 25 27  1  0  0  0  0
 25 28  1  0  0  0  0
 28 29  2  0  0  0  0
 29 30  1  0  0  0  0
 29 31  1  0  0  0  0
 28 32  1  0  0  0  0
M  END
> <ChemID>
100465

> <source_casrn>
2303-17-5

> <CAS>
2303-17-5

> <SMILES>
CC(C)N(C(C)C)C(=O)SCC(Cl)=C(Cl)Cl

> <NAME>
TRIALLATE

> <preferred_name>
Tri-allate

> <iupac>
S-(2,3,3-trichloroprop-2-en-1-yl) dipropan-2-ylcarbamothioate

> <MPID>
99737

> <dsstox_substance_id>
DTXSID5024344

> <Canonical_QSARr>
CC(C)N(C(C)C)C(=O)SCC(Cl)=C(Cl)Cl

> <InChI_Code_QSARr>
InChI=1S/C10H16Cl3NOS/c1-6(2)14(7(3)4)10(15)16-5-8(11)9(12)13/h6-7H,5H2,1-4H3

> <InChI Key_QSARr>
MWBPRDONLNQCFV-UHFFFAOYSA-N

> <LogKOC>
3.35

$$$$
100467
  -INDIGO-08031722282D

 36 37  0  0  0  0  0  0  0  0999 V2000
   -1.5650    0.3327    0.0000 N   0  0  0  0  0  0  0  0  0  0  0  0
   -1.7323    1.9239    0.0000 C   0  0  0  0  0  0  0  0  0  0  0  0
   -3.1179    2.7239    0.0000 O   0  0  0  0  0  0  0  0  0  0  0  0
   -0.2705    2.5747    0.0000 O   0  0  0  0  0  0  0  0  0  0  0  0
    0.8001    1.3856    0.0000 C   0  0  0  0  0  0  0  0  0  0  0  0
   -0.0001    0.0000    0.0000 C   0  0  0  0  0  0  0  0  0  0  0  0
    0.8001   -1.3856    0.0000 C   0  0  0  0  0  0  0  0  0  0  0  0
   -0.0001   -2.7713    0.0000 H   0  0  0  0  0  0  0  0  0  0  0  0
    2.4000   -1.3856    0.0000 C   0  0  0  0  0  0  0  0  0  0  0  0
    3.1999   -2.7713    0.0000 H   0  0  0  0  0  0  0  0  0  0  0  0
    3.1999    0.0000    0.0000 C   0  0  0  0  0  0  0  0  0  0  0  0
    2.4000    1.3856    0.0000 C   0  0  0  0  0  0  0  0  0  0  0  0
    3.1999    2.7712    0.0000 H   0  0  0  0  0  0  0  0  0  0  0  0
    4.8000    0.0000    0.0000 Cl  0  0  0  0  0  0  0  0  0  0  0  0
   -2.7541   -0.7379    0.0000 C   0  0  0  0  0  0  0  0  0  0  0  0
   -3.0456   -2.3111    0.0000 H   0  0  0  0  0  0  0  0  0  0  0  0
   -1.8479   -2.0565    0.0000 H   0  0  0  0  0  0  0  0  0  0  0  0
   -4.2757   -0.2435    0.0000 S   0  0  0  0  0  0  0  0  0  0  0  0
   -5.4648   -1.3141    0.0000 P   0  0  0  0  0  0  0  0  0  0  0  0
   -5.1321   -2.8792    0.0000 S   0  0  0  0  0  0  0  0  0  0  0  0
   -6.6539   -2.3847    0.0000 O   0  0  0  0  0  0  0  0  0  0  0  0
   -8.1755   -1.8903    0.0000 C   0  0  0  0  0  0  0  0  0  0  0  0
   -7.8840   -0.3171    0.0000 H   0  0  0  0  0  0  0  0  0  0  0  0
   -9.0817   -0.5717    0.0000 H   0  0  0  0  0  0  0  0  0  0  0  0
   -9.3646   -2.9609    0.0000 C   0  0  0  0  0  0  0  0  0  0  0  0
  -10.5535   -4.0315    0.0000 H   0  0  0  0  0  0  0  0  0  0  0  0
  -10.8862   -2.4665    0.0000 H   0  0  0  0  0  0  0  0  0  0  0  0
   -9.0319   -4.5260    0.0000 H   0  0  0  0  0  0  0  0  0  0  0  0
   -6.9864   -0.8197    0.0000 O   0  0  0  0  0  0  0  0  0  0  0  0
   -7.3191    0.7453    0.0000 C   0  0  0  0  0  0  0  0  0  0  0  0
   -5.8109    1.2795    0.0000 H   0  0  0  0  0  0  0  0  0  0  0  0
   -6.6302    2.1894    0.0000 H   0  0  0  0  0  0  0  0  0  0  0  0
   -8.8409    1.2398    0.0000 C   0  0  0  0  0  0  0  0  0  0  0  0
  -10.3625    1.7342    0.0000 H   0  0  0  0  0  0  0  0  0  0  0  0
   -9.1734    2.8048    0.0000 H   0  0  0  0  0  0  0  0  0  0  0  0
  -10.0298    0.1691    0.0000 H   0  0  0  0  0  0  0  0  0  0  0  0
  1  2  1  0  0  0  0
  2  3  2  0  0  0  0
  2  4  1  0  0  0  0
  4  5  1  0  0  0  0
  5  6  1  0  0  0  0
  6  1  1  0  0  0  0
  6  7  2  0  0  0  0
  7  8  1  0  0  0  0
  7  9  1  0  0  0  0
  9 10  1  0  0  0  0
  9 11  2  0  0  0  0
 11 12  1  0  0  0  0
 12  5  2  0  0  0  0
 12 13  1  0  0  0  0
 11 14  1  0  0  0  0
  1 15  1  0  0  0  0
 15 16  1  0  0  0  0
 15 17  1  0  0  0  0
 15 18  1  0  0  0  0
 18 19  1  0  0  0  0
 19 20  2  0  0  0  0
 19 21  1  0  0  0  0
 21 22  1  0  0  0  0
 22 23  1  0  0  0  0
 22 24  1  0  0  0  0
 22 25  1  0  0  0  0
 25 26  1  0  0  0  0
 25 27  1  0  0  0  0
 25 28  1  0  0  0  0
 19 29  1  0  0  0  0
 29 30  1  0  0  0  0
 30 31  1  0  0  0  0
 30 32  1  0  0  0  0
 30 33  1  0  0  0  0
 33 34  1  0  0  0  0
 33 35  1  0  0  0  0
 33 36  1  0  0  0  0
M  END
> <ChemID>
100467

> <source_casrn>
2310-17-0

> <CAS>
2310-17-0

> <SMILES>
CCOP(=S)(OCC)SCN1C(=O)Oc2cc(Cl)ccc12

> <NAME>
PHOSALONE

> <preferred_name>
Phosalone

> <iupac>
S-[(6-chloro-2-oxo-1,3-benzoxazol-3(2H)-yl)methyl] O,O-diethyl phosphorodithioate

> <MPID>
99739

> <dsstox_substance_id>
DTXSID1024259

> <Canonical_QSARr>
CCOP(=S)(OCC)SCN1C(=O)Oc2cc(Cl)ccc12

> <InChI_Code_QSARr>
InChI=1S/C12H15ClNO4PS2/c1-3-16-19(20,17-4-2)21-8-14-10-6-5-9(13)7-11(10)18-12(14)15/h5-7H,3-4,8H2,1-2H3

> <InChI Key_QSARr>
IOUNQDKNJZEDEP-UHFFFAOYSA-N

> <LogKOC>
2.63

$$$$
100468
  -INDIGO-08031722282D

 50 51  0  0  0  0  0  0  0  0999 V2000
   -7.5565   -1.0958    0.0000 S   0  0  0  0  0  0  0  0  0  0  0  0
   -8.1036   -2.5991    0.0000 O   0  0  0  0  0  0  0  0  0  0  0  0
   -7.0752   -3.8249    0.0000 C   0  0  0  0  0  0  0  0  0  0  0  0
   -6.0466   -2.5991    0.0000 H   0  0  0  0  0  0  0  0  0  0  0  0
   -5.6895   -4.6249    0.0000 C   0  0  0  0  0  0  0  0  0  0  0  0
   -5.1423   -3.1214    0.0000 H   0  0  0  0  0  0  0  0  0  0  0  0
   -4.1138   -4.9026    0.0000 O   0  0  0  0  0  0  0  0  0  0  0  0
   -3.0854   -3.6770    0.0000 C   0  0  0  0  0  0  0  0  0  0  0  0
   -3.6325   -2.1734    0.0000 C   0  0  0  0  0  0  0  0  0  0  0  0
   -5.2082   -1.8958    0.0000 H   0  0  0  0  0  0  0  0  0  0  0  0
   -2.6041   -0.9478    0.0000 C   0  0  0  0  0  0  0  0  0  0  0  0
   -3.1515    0.5557    0.0000 H   0  0  0  0  0  0  0  0  0  0  0  0
   -1.0285   -1.2257    0.0000 C   0  0  0  0  0  0  0  0  0  0  0  0
   -0.0001   -0.0001    0.0000 C   0  0  0  0  0  0  0  0  0  0  0  0
    1.0285    1.2258    0.0000 C   0  0  0  0  0  0  0  0  0  0  0  0
    2.0569    2.4514    0.0000 H   0  0  0  0  0  0  0  0  0  0  0  0
    2.6284    1.2258    0.0000 H   0  0  0  0  0  0  0  0  0  0  0  0
    0.7506    2.8013    0.0000 H   0  0  0  0  0  0  0  0  0  0  0  0
    1.2257   -1.0285    0.0000 C   0  0  0  0  0  0  0  0  0  0  0  0
    2.2540   -2.2542    0.0000 H   0  0  0  0  0  0  0  0  0  0  0  0
    2.8014   -0.7506    0.0000 H   0  0  0  0  0  0  0  0  0  0  0  0
    1.7730    0.4750    0.0000 H   0  0  0  0  0  0  0  0  0  0  0  0
   -1.2256    1.0286    0.0000 C   0  0  0  0  0  0  0  0  0  0  0  0
   -2.6114    1.8285    0.0000 H   0  0  0  0  0  0  0  0  0  0  0  0
   -1.2256    2.6285    0.0000 H   0  0  0  0  0  0  0  0  0  0  0  0
    0.1599    1.8285    0.0000 H   0  0  0  0  0  0  0  0  0  0  0  0
   -0.4813   -2.7293    0.0000 C   0  0  0  0  0  0  0  0  0  0  0  0
    1.0944   -3.0070    0.0000 H   0  0  0  0  0  0  0  0  0  0  0  0
   -1.5097   -3.9549    0.0000 C   0  0  0  0  0  0  0  0  0  0  0  0
   -0.9624   -5.4584    0.0000 H   0  0  0  0  0  0  0  0  0  0  0  0
   -5.6895   -6.2249    0.0000 C   0  0  0  0  0  0  0  0  0  0  0  0
   -4.1138   -5.9470    0.0000 H   0  0  0  0  0  0  0  0  0  0  0  0
   -5.1423   -7.7284    0.0000 H   0  0  0  0  0  0  0  0  0  0  0  0
   -7.0752   -7.0249    0.0000 C   0  0  0  0  0  0  0  0  0  0  0  0
   -6.0466   -8.2505    0.0000 H   0  0  0  0  0  0  0  0  0  0  0  0
   -8.1036   -8.2505    0.0000 H   0  0  0  0  0  0  0  0  0  0  0  0
   -8.4607   -6.2249    0.0000 C   0  0  0  0  0  0  0  0  0  0  0  0
   -9.0081   -7.7284    0.0000 H   0  0  0  0  0  0  0  0  0  0  0  0
  -10.0364   -5.9470    0.0000 H   0  0  0  0  0  0  0  0  0  0  0  0
   -8.4607   -4.6249    0.0000 C   0  0  0  0  0  0  0  0  0  0  0  0
  -10.0364   -4.9026    0.0000 H   0  0  0  0  0  0  0  0  0  0  0  0
   -9.0081   -3.1214    0.0000 H   0  0  0  0  0  0  0  0  0  0  0  0
   -5.9808   -0.8179    0.0000 O   0  0  0  0  0  0  0  0  0  0  0  0
   -8.5848    0.1301    0.0000 O   0  0  0  0  0  0  0  0  0  0  0  0
   -8.0377    1.6334    0.0000 C   0  0  0  0  0  0  0  0  0  0  0  0
   -6.4756    1.2872    0.0000 H   0  0  0  0  0  0  0  0  0  0  0  0
   -6.6883    2.4932    0.0000 H   0  0  0  0  0  0  0  0  0  0  0  0
   -9.0661    2.8593    0.0000 C   0  0  0  0  0  0  0  0  0  0  0  0
  -10.0946    4.0849    0.0000 C   0  0  0  0  0  0  0  0  0  0  0  0
  -11.1230    5.3105    0.0000 H   0  0  0  0  0  0  0  0  0  0  0  0
  1  2  1  0  0  0  0
  2  3  1  0  0  0  0
  3  4  1  0  0  0  0
  3  5  1  0  0  0  0
  5  6  1  0  0  0  0
  5  7  1  0  0  0  0
  7  8  1  0  0  0  0
  8  9  1  0  0  0  0
  9 10  1  0  0  0  0
  9 11  2  0  0  0  0
 11 12  1  0  0  0  0
 11 13  1  0  0  0  0
 13 14  1  0  0  0  0
 14 15  1  0  0  0  0
 15 16  1  0  0  0  0
 15 17  1  0  0  0  0
 15 18  1  0  0  0  0
 14 19  1  0  0  0  0
 19 20  1  0  0  0  0
 19 21  1  0  0  0  0
 19 22  1  0  0  0  0
 14 23  1  0  0  0  0
 23 24  1  0  0  0  0
 23 25  1  0  0  0  0
 23 26  1  0  0  0  0
 13 27  2  0  0  0  0
 27 28  1  0  0  0  0
 27 29  1  0  0  0  0
 29  8  2  0  0  0  0
 29 30  1  0  0  0  0
  5 31  1  0  0  0  0
 31 32  1  0  0  0  0
 31 33  1  0  0  0  0
 31 34  1  0  0  0  0
 34 35  1  0  0  0  0
 34 36  1  0  0  0  0
 34 37  1  0  0  0  0
 37 38  1  0  0  0  0
 37 39  1  0  0  0  0
 37 40  1  0  0  0  0
 40  3  1  0  0  0  0
 40 41  1  0  0  0  0
 40 42  1  0  0  0  0
  1 43  2  0  0  0  0
  1 44  1  0  0  0  0
 44 45  1  0  0  0  0
 45 46  1  0  0  0  0
 45 47  1  0  0  0  0
 45 48  1  0  0  0  0
 48 49  3  0  0  0  0
 49 50  1  0  0  0  0
M  END
> <ChemID>
100468

> <source_casrn>
2312-35-8

> <CAS>
2312-35-8

> <SMILES>
CC(C)(C)c1ccc(cc1)OC1CCCCC1OS(=O)OCC#C

> <NAME>
PROPARGITE

> <preferred_name>
Propargite

> <iupac>
2-(4-tert-butylphenoxy)cyclohexyl prop-2-yn-1-yl sulfite

> <MPID>
99740

> <dsstox_substance_id>
DTXSID4024276

> <Canonical_QSARr>
CC(C)(C)c1ccc(cc1)OC1CCCCC1OS(=O)OCC#C

> <InChI_Code_QSARr>
InChI=1S/C19H26O4S/c1-5-14-21-24(20)23-18-9-7-6-8-17(18)22-16-12-10-15(11-13-16)19(2,3)4/h1,10-13,17-18H,6-9,14H2,2-4H3

> <InChI Key_QSARr>
ZYHMJXZULPZUED-UHFFFAOYSA-N

> <LogKOC>
3.6

$$$$
100469
  -INDIGO-08031722282D

 18 18  0  0  0  0  0  0  0  0999 V2000
   -2.7713   -0.0000    0.0000 C   0  0  0  0  0  0  0  0  0  0  0  0
   -2.7713   -1.6000    0.0000 O   0  0  0  0  0  0  0  0  0  0  0  0
   -1.3857    0.8000    0.0000 N   0  0  0  0  0  0  0  0  0  0  0  0
   -1.3857    2.4000    0.0000 H   0  0  0  0  0  0  0  0  0  0  0  0
    0.0001   -0.0000    0.0000 C   0  0  0  0  0  0  0  0  0  0  0  0
    0.0001   -1.6000    0.0000 C   0  0  0  0  0  0  0  0  0  0  0  0
   -1.3857   -2.4000    0.0000 H   0  0  0  0  0  0  0  0  0  0  0  0
    1.3857   -2.4000    0.0000 C   0  0  0  0  0  0  0  0  0  0  0  0
    1.3857   -4.0000    0.0000 H   0  0  0  0  0  0  0  0  0  0  0  0
    2.7713   -1.6000    0.0000 C   0  0  0  0  0  0  0  0  0  0  0  0
    4.1569   -2.4000    0.0000 Cl  0  0  0  0  0  0  0  0  0  0  0  0
    2.7713   -0.0000    0.0000 C   0  0  0  0  0  0  0  0  0  0  0  0
    4.1569    0.8000    0.0000 Cl  0  0  0  0  0  0  0  0  0  0  0  0
    1.3857    0.8000    0.0000 C   0  0  0  0  0  0  0  0  0  0  0  0
    1.3857    2.4000    0.0000 H   0  0  0  0  0  0  0  0  0  0  0  0
   -4.1569    0.8000    0.0000 N   0  0  0  0  0  0  0  0  0  0  0  0
   -5.5426   -0.0000    0.0000 H   0  0  0  0  0  0  0  0  0  0  0  0
   -4.1569    2.4000    0.0000 H   0  0  0  0  0  0  0  0  0  0  0  0
  1  2  2  0  0  0  0
  1  3  1  0  0  0  0
  3  4  1  0  0  0  0
  3  5  1  0  0  0  0
  5  6  1  0  0  0  0
  6  7  1  0  0  0  0
  6  8  2  0  0  0  0
  8  9  1  0  0  0  0
  8 10  1  0  0  0  0
 10 11  1  0  0  0  0
 10 12  2  0  0  0  0
 12 13  1  0  0  0  0
 12 14  1  0  0  0  0
 14  5  2  0  0  0  0
 14 15  1  0  0  0  0
  1 16  1  0  0  0  0
 16 17  1  0  0  0  0
 16 18  1  0  0  0  0
M  END
> <ChemID>
100469

> <source_casrn>
2327-02-8

> <CAS>
2327-02-8

> <SMILES>
NC(=O)Nc1cc(Cl)c(Cl)cc1

> <NAME>
(3,4-DICHLOROPHENYL)UREA

> <preferred_name>
3,4-Dichlorophenylurea

> <iupac>
1-(3,4-dichlorophenyl)urea

> <MPID>
99741

> <dsstox_substance_id>
DTXSID2041468

> <Canonical_QSARr>
NC(=O)Nc1cc(Cl)c(Cl)cc1

> <InChI_Code_QSARr>
InChI=1S/C7H6Cl2N2O/c8-5-2-1-4(3-6(5)9)11-7(10)12/h1-3H,(H3,10,11,12)

> <InChI Key_QSARr>
CYESCLHCWJKRKM-UHFFFAOYSA-N

> <LogKOC>
2.53

$$$$
100471
  -INDIGO-08031722282D

 27 28  0  0  0  0  0  0  0  0999 V2000
    0.0000    0.0000    0.0000 C   0  0  0  0  0  0  0  0  0  0  0  0
    0.1673    1.5913    0.0000 H   0  0  0  0  0  0  0  0  0  0  0  0
    1.5216    0.4944    0.0000 C   0  0  0  0  0  0  0  0  0  0  0  0
    2.0161    2.0161    0.0000 O   0  0  0  0  0  0  0  0  0  0  0  0
    2.4621   -0.8000    0.0000 N   0  0  0  0  0  0  0  0  0  0  0  0
    4.0622   -0.8000    0.0000 S   0  0  0  0  0  0  0  0  0  0  0  0
    4.8621    0.5856    0.0000 C   0  0  0  0  0  0  0  0  0  0  0  0
    6.4622    0.5856    0.0000 C   0  0  0  0  0  0  0  0  0  0  0  0
    8.0621    0.5856    0.0000 H   0  0  0  0  0  0  0  0  0  0  0  0
    7.2621    1.9713    0.0000 Cl  0  0  0  0  0  0  0  0  0  0  0  0
    7.2621   -0.8000    0.0000 Cl  0  0  0  0  0  0  0  0  0  0  0  0
    4.6533    2.1720    0.0000 Cl  0  0  0  0  0  0  0  0  0  0  0  0
    3.5927    1.5596    0.0000 Cl  0  0  0  0  0  0  0  0  0  0  0  0
    1.5216   -2.0944    0.0000 C   0  0  0  0  0  0  0  0  0  0  0  0
    2.0161   -3.6161    0.0000 O   0  0  0  0  0  0  0  0  0  0  0  0
    0.0000   -1.6000    0.0000 C   0  0  0  0  0  0  0  0  0  0  0  0
    0.1673   -3.1913    0.0000 H   0  0  0  0  0  0  0  0  0  0  0  0
   -1.3857   -2.4000    0.0000 C   0  0  0  0  0  0  0  0  0  0  0  0
   -0.8385   -3.9035    0.0000 H   0  0  0  0  0  0  0  0  0  0  0  0
   -2.4142   -3.6257    0.0000 H   0  0  0  0  0  0  0  0  0  0  0  0
   -2.7712   -1.6000    0.0000 C   0  0  0  0  0  0  0  0  0  0  0  0
   -4.1569   -2.4000    0.0000 H   0  0  0  0  0  0  0  0  0  0  0  0
   -2.7712    0.0000    0.0000 C   0  0  0  0  0  0  0  0  0  0  0  0
   -4.1569    0.8000    0.0000 H   0  0  0  0  0  0  0  0  0  0  0  0
   -1.3857    0.8000    0.0000 C   0  0  0  0  0  0  0  0  0  0  0  0
   -2.4142    2.0257    0.0000 H   0  0  0  0  0  0  0  0  0  0  0  0
   -0.8385    2.3035    0.0000 H   0  0  0  0  0  0  0  0  0  0  0  0
  1  2  1  0  0  0  0
  1  3  1  0  0  0  0
  3  4  2  0  0  0  0
  3  5  1  0  0  0  0
  5  6  1  0  0  0  0
  6  7  1  0  0  0  0
  7  8  1  0  0  0  0
  8  9  1  0  0  0  0
  8 10  1  0  0  0  0
  8 11  1  0  0  0  0
  7 12  1  0  0  0  0
  7 13  1  0  0  0  0
  5 14  1  0  0  0  0
 14 15  2  0  0  0  0
 14 16  1  0  0  0  0
 16  1  1  0  0  0  0
 16 17  1  0  0  0  0
 16 18  1  0  0  0  0
 18 19  1  0  0  0  0
 18 20  1  0  0  0  0
 18 21  1  0  0  0  0
 21 22  1  0  0  0  0
 21 23  2  0  0  0  0
 23 24  1  0  0  0  0
 23 25  1  0  0  0  0
 25  1  1  0  0  0  0
 25 26  1  0  0  0  0
 25 27  1  0  0  0  0
M  END
> <ChemID>
100471

> <source_casrn>
2425-06-1

> <CAS>
2425-06-1

> <SMILES>
O=C1C2CC=CCC2C(=O)N1SC(Cl)(Cl)C(Cl)Cl

> <NAME>
CAPTAFOL

> <preferred_name>
Captafol

> <iupac>
2-[(1,1,2,2-tetrachloroethyl)sulfanyl]-3a,4,7,7a-tetrahydro-1H-isoindole-1,3(2H)-dione

> <MPID>
99743

> <dsstox_substance_id>
DTXSID4020242

> <Canonical_QSARr>
O=C1C2CC=CCC2C(=O)N1SC(Cl)(Cl)C(Cl)Cl

> <InChI_Code_QSARr>
InChI=1S/C10H9Cl4NO2S/c11-9(12)10(13,14)18-15-7(16)5-3-1-2-4-6(5)8(15)17/h1-2,5-6,9H,3-4H2

> <InChI Key_QSARr>
JHRWWRDRBPCWTF-UHFFFAOYSA-N

> <LogKOC>
3.32

$$$$
100474
  -INDIGO-08031722282D

 21 23  0  0  0  0  0  0  0  0999 V2000
   -4.1569   -2.4000    0.0000 N   0  0  0  0  0  0  0  0  0  0  0  0
   -2.7713   -1.6000    0.0000 C   0  0  0  0  0  0  0  0  0  0  0  0
   -2.7713   -0.0000    0.0000 C   0  0  0  0  0  0  0  0  0  0  0  0
   -1.3856    0.8000    0.0000 C   0  0  0  0  0  0  0  0  0  0  0  0
   -1.3856    2.4000    0.0000 H   0  0  0  0  0  0  0  0  0  0  0  0
   -0.0000   -0.0000    0.0000 C   0  0  0  0  0  0  0  0  0  0  0  0
   -0.0000   -1.6000    0.0000 C   0  0  0  0  0  0  0  0  0  0  0  0
    1.3857   -2.4000    0.0000 H   0  0  0  0  0  0  0  0  0  0  0  0
   -1.3856   -2.4000    0.0000 C   0  0  0  0  0  0  0  0  0  0  0  0
   -1.3856   -4.0000    0.0000 H   0  0  0  0  0  0  0  0  0  0  0  0
    1.3857    0.8000    0.0000 C   0  0  0  0  0  0  0  0  0  0  0  0
    2.7713    1.6000    0.0000 H   0  0  0  0  0  0  0  0  0  0  0  0
    2.7713   -0.0000    0.0000 H   0  0  0  0  0  0  0  0  0  0  0  0
    1.3857    2.4000    0.0000 H   0  0  0  0  0  0  0  0  0  0  0  0
   -4.1569    0.8000    0.0000 N   0  0  0  0  0  0  0  0  0  0  0  0
   -5.5426   -0.0000    0.0000 C   0  0  0  0  0  0  0  0  0  0  0  0
   -5.5426   -1.6000    0.0000 C   0  0  0  0  0  0  0  0  0  0  0  0
   -7.0642   -2.0944    0.0000 S   0  0  0  0  0  0  0  0  0  0  0  0
   -8.0046   -0.8000    0.0000 C   0  0  0  0  0  0  0  0  0  0  0  0
   -7.0642    0.4944    0.0000 S   0  0  0  0  0  0  0  0  0  0  0  0
   -9.6047   -0.8000    0.0000 O   0  0  0  0  0  0  0  0  0  0  0  0
  1  2  1  0  0  0  0
  2  3  1  0  0  0  0
  3  4  2  0  0  0  0
  4  5  1  0  0  0  0
  4  6  1  0  0  0  0
  6  7  2  0  0  0  0
  7  8  1  0  0  0  0
  7  9  1  0  0  0  0
  9  2  2  0  0  0  0
  9 10  1  0  0  0  0
  6 11  1  0  0  0  0
 11 12  1  0  0  0  0
 11 13  1  0  0  0  0
 11 14  1  0  0  0  0
  3 15  1  0  0  0  0
 15 16  2  0  0  0  0
 16 17  1  0  0  0  0
 17  1  2  0  0  0  0
 17 18  1  0  0  0  0
 18 19  1  0  0  0  0
 19 20  1  0  0  0  0
 20 16  1  0  0  0  0
 19 21  2  0  0  0  0
M  END
> <ChemID>
100474

> <source_casrn>
2439-01-2

> <CAS>
2439-01-2

> <SMILES>
Cc1cc2[n]c3SC(=O)Sc3[n]c2cc1

> <NAME>
OXYTHIOQUINOX

> <preferred_name>
Chinomethionate

> <iupac>
6-methyl[1,3]dithiolo[4,5-b]quinoxalin-2-one

> <MPID>
99745

> <dsstox_substance_id>
DTXSID2032342

> <Canonical_QSARr>
Cc1cc2[n]c3SC(=O)Sc3[n]c2cc1

> <InChI_Code_QSARr>
InChI=1S/C10H6N2OS2/c1-5-2-3-6-7(4-5)12-9-8(11-6)14-10(13)15-9/h2-4H,1H3

> <InChI Key_QSARr>
FBQQHUGEACOBDN-UHFFFAOYSA-N

> <LogKOC>
3.36

$$$$
100476
  -INDIGO-08031722282D

 35 34  0  0  0  0  0  0  0  0999 V2000
    5.5427   -0.0001    0.0000 P   0  0  0  0  0  0  0  0  0  0  0  0
    5.5427    1.6000    0.0000 S   0  0  0  0  0  0  0  0  0  0  0  0
    4.1569   -0.8000    0.0000 S   0  0  0  0  0  0  0  0  0  0  0  0
    2.7714   -0.0001    0.0000 C   0  0  0  0  0  0  0  0  0  0  0  0
    2.1591    1.4783    0.0000 H   0  0  0  0  0  0  0  0  0  0  0  0
    3.3835    1.4783    0.0000 H   0  0  0  0  0  0  0  0  0  0  0  0
    1.3856   -0.8000    0.0000 C   0  0  0  0  0  0  0  0  0  0  0  0
    1.9980   -2.2782    0.0000 H   0  0  0  0  0  0  0  0  0  0  0  0
    0.7733   -2.2782    0.0000 H   0  0  0  0  0  0  0  0  0  0  0  0
    0.0001   -0.0001    0.0000 S   0  0  0  0  0  0  0  0  0  0  0  0
   -1.3856    0.8000    0.0000 C   0  0  0  0  0  0  0  0  0  0  0  0
   -1.9980    2.2782    0.0000 H   0  0  0  0  0  0  0  0  0  0  0  0
   -0.7733    2.2782    0.0000 H   0  0  0  0  0  0  0  0  0  0  0  0
   -2.7712   -0.0001    0.0000 C   0  0  0  0  0  0  0  0  0  0  0  0
   -4.1569   -0.8000    0.0000 H   0  0  0  0  0  0  0  0  0  0  0  0
   -4.1569    0.8000    0.0000 H   0  0  0  0  0  0  0  0  0  0  0  0
   -2.7712   -1.6000    0.0000 H   0  0  0  0  0  0  0  0  0  0  0  0
    0.8000    1.3857    0.0000 O   0  0  0  0  0  0  0  0  0  0  0  0
   -0.8000   -1.3857    0.0000 O   0  0  0  0  0  0  0  0  0  0  0  0
    6.9282    0.8000    0.0000 O   0  0  0  0  0  0  0  0  0  0  0  0
    6.9282    2.4000    0.0000 C   0  0  0  0  0  0  0  0  0  0  0  0
    5.3418    2.6089    0.0000 H   0  0  0  0  0  0  0  0  0  0  0  0
    5.9541    3.6694    0.0000 H   0  0  0  0  0  0  0  0  0  0  0  0
    8.3139    3.2001    0.0000 C   0  0  0  0  0  0  0  0  0  0  0  0
    9.6995    4.0000    0.0000 H   0  0  0  0  0  0  0  0  0  0  0  0
    8.3139    4.8000    0.0000 H   0  0  0  0  0  0  0  0  0  0  0  0
    9.6995    2.4000    0.0000 H   0  0  0  0  0  0  0  0  0  0  0  0
    6.9282   -0.8000    0.0000 O   0  0  0  0  0  0  0  0  0  0  0  0
    6.9282   -2.4000    0.0000 C   0  0  0  0  0  0  0  0  0  0  0  0
    5.9541   -3.6694    0.0000 H   0  0  0  0  0  0  0  0  0  0  0  0
    5.3418   -2.6089    0.0000 H   0  0  0  0  0  0  0  0  0  0  0  0
    8.3139   -3.1999    0.0000 C   0  0  0  0  0  0  0  0  0  0  0  0
    9.6995   -4.0000    0.0000 H   0  0  0  0  0  0  0  0  0  0  0  0
    8.3139   -4.8000    0.0000 H   0  0  0  0  0  0  0  0  0  0  0  0
    9.6995   -2.4000    0.0000 H   0  0  0  0  0  0  0  0  0  0  0  0
  1  2  2  0  0  0  0
  1  3  1  0  0  0  0
  3  4  1  0  0  0  0
  4  5  1  0  0  0  0
  4  6  1  0  0  0  0
  4  7  1  0  0  0  0
  7  8  1  0  0  0  0
  7  9  1  0  0  0  0
  7 10  1  0  0  0  0
 10 11  1  0  0  0  0
 11 12  1  0  0  0  0
 11 13  1  0  0  0  0
 11 14  1  0  0  0  0
 14 15  1  0  0  0  0
 14 16  1  0  0  0  0
 14 17  1  0  0  0  0
 10 18  2  0  0  0  0
 10 19  2  0  0  0  0
  1 20  1  0  0  0  0
 20 21  1  0  0  0  0
 21 22  1  0  0  0  0
 21 23  1  0  0  0  0
 21 24  1  0  0  0  0
 24 25  1  0  0  0  0
 24 26  1  0  0  0  0
 24 27  1  0  0  0  0
  1 28  1  0  0  0  0
 28 29  1  0  0  0  0
 29 30  1  0  0  0  0
 29 31  1  0  0  0  0
 29 32  1  0  0  0  0
 32 33  1  0  0  0  0
 32 34  1  0  0  0  0
 32 35  1  0  0  0  0
M  END
> <ChemID>
100476

> <source_casrn>
2497-06-5

> <CAS>
2497-06-5

> <SMILES>
CCS(=O)(=O)CCSP(=S)(OCC)OCC

> <NAME>
DISULFOTON SULFONE

> <preferred_name>
Disulfoton sulfone

> <iupac>
O,O-diethyl S-[2-(ethylsulfonyl)ethyl] phosphorodithioate

> <MPID>
99746

> <dsstox_substance_id>
DTXSID8041901

> <Canonical_QSARr>
CCS(=O)(=O)CCSP(=S)(OCC)OCC

> <InChI_Code_QSARr>
InChI=1S/C8H19O4PS3/c1-4-11-13(14,12-5-2)15-7-8-16(9,10)6-3/h4-8H2,1-3H3

> <InChI Key_QSARr>
BKVJOVPVLOJPKJ-UHFFFAOYSA-N

> <LogKOC>
3.22

$$$$
100478
  -INDIGO-08031722282D

 17 17  0  0  0  0  0  0  0  0999 V2000
   -6.8393    3.3690    0.0000 Cl  0  0  0  0  0  0  0  0  0  0  0  0
   -6.6721    1.7778    0.0000 C   0  0  0  0  0  0  0  0  0  0  0  0
   -5.2103    1.1270    0.0000 C   0  0  0  0  0  0  0  0  0  0  0  0
   -4.8777   -0.4380    0.0000 N   0  0  0  0  0  0  0  0  0  0  0  0
   -3.2865   -0.6053    0.0000 S   0  0  0  0  0  0  0  0  0  0  0  0
   -2.6356    0.8564    0.0000 C   0  0  0  0  0  0  0  0  0  0  0  0
   -1.0707    1.1890    0.0000 O   0  0  0  0  0  0  0  0  0  0  0  0
    0.0001    0.0000    0.0000 C   0  0  0  0  0  0  0  0  0  0  0  0
    0.1256   -1.5951    0.0000 H   0  0  0  0  0  0  0  0  0  0  0  0
   -1.0391   -1.2166    0.0000 H   0  0  0  0  0  0  0  0  0  0  0  0
    1.5650    0.3327    0.0000 C   0  0  0  0  0  0  0  0  0  0  0  0
    3.1301    0.6653    0.0000 H   0  0  0  0  0  0  0  0  0  0  0  0
    2.6356   -0.8564    0.0000 H   0  0  0  0  0  0  0  0  0  0  0  0
    2.0595    1.8544    0.0000 H   0  0  0  0  0  0  0  0  0  0  0  0
   -3.8246    1.9270    0.0000 N   0  0  0  0  0  0  0  0  0  0  0  0
   -8.1337    2.4285    0.0000 Cl  0  0  0  0  0  0  0  0  0  0  0  0
   -7.9664    0.8373    0.0000 Cl  0  0  0  0  0  0  0  0  0  0  0  0
  1  2  1  0  0  0  0
  2  3  1  0  0  0  0
  3  4  2  0  0  0  0
  4  5  1  0  0  0  0
  5  6  1  0  0  0  0
  6  7  1  0  0  0  0
  7  8  1  0  0  0  0
  8  9  1  0  0  0  0
  8 10  1  0  0  0  0
  8 11  1  0  0  0  0
 11 12  1  0  0  0  0
 11 13  1  0  0  0  0
 11 14  1  0  0  0  0
  6 15  2  0  0  0  0
 15  3  1  0  0  0  0
  2 16  1  0  0  0  0
  2 17  1  0  0  0  0
M  END
> <ChemID>
100478

> <source_casrn>
2593-15-9

> <CAS>
2593-15-9

> <SMILES>
CCOc1nc(ns1)C(Cl)(Cl)Cl

> <NAME>
ETRIDAZOLE

> <preferred_name>
Etridiazole

> <iupac>
5-ethoxy-3-(trichloromethyl)-1,2,4-thiadiazole

> <MPID>
99748

> <dsstox_substance_id>
DTXSID3032547

> <Canonical_QSARr>
CCOc1[n]c([n][s]1)C(Cl)(Cl)Cl

> <InChI_Code_QSARr>
InChI=1S/C5H5Cl3N2OS/c1-2-11-4-9-3(10-12-4)5(6,7)8/h2H2,1H3

> <InChI Key_QSARr>
KQTVWCSONPJJPE-UHFFFAOYSA-N

> <LogKOC>
3.0

$$$$
100479
  -INDIGO-08031722282D

 36 36  0  0  0  0  0  0  0  0999 V2000
   -1.6000    0.0000    0.0000 C   0  0  0  0  0  0  0  0  0  0  0  0
   -2.4000    1.3856    0.0000 C   0  0  0  0  0  0  0  0  0  0  0  0
   -1.6000    2.7713    0.0000 H   0  0  0  0  0  0  0  0  0  0  0  0
   -4.0001    1.3856    0.0000 C   0  0  0  0  0  0  0  0  0  0  0  0
   -4.7999    2.7713    0.0000 H   0  0  0  0  0  0  0  0  0  0  0  0
   -4.7999    0.0000    0.0000 C   0  0  0  0  0  0  0  0  0  0  0  0
   -6.4000    0.0000    0.0000 H   0  0  0  0  0  0  0  0  0  0  0  0
   -4.0001   -1.3857    0.0000 C   0  0  0  0  0  0  0  0  0  0  0  0
   -4.7999   -2.7712    0.0000 H   0  0  0  0  0  0  0  0  0  0  0  0
   -2.4000   -1.3857    0.0000 C   0  0  0  0  0  0  0  0  0  0  0  0
   -1.6000   -2.7712    0.0000 H   0  0  0  0  0  0  0  0  0  0  0  0
   -0.0001    0.0000    0.0000 C   0  0  0  0  0  0  0  0  0  0  0  0
   -0.0001   -1.6000    0.0000 H   0  0  0  0  0  0  0  0  0  0  0  0
    1.5758   -0.2778    0.0000 C   0  0  0  0  0  0  0  0  0  0  0  0
    2.6042    0.9478    0.0000 O   0  0  0  0  0  0  0  0  0  0  0  0
    2.1229   -1.7813    0.0000 O   0  0  0  0  0  0  0  0  0  0  0  0
    3.6986   -2.0591    0.0000 C   0  0  0  0  0  0  0  0  0  0  0  0
    4.1797   -0.5333    0.0000 H   0  0  0  0  0  0  0  0  0  0  0  0
    5.1179   -1.3204    0.0000 H   0  0  0  0  0  0  0  0  0  0  0  0
    4.2459   -3.5627    0.0000 C   0  0  0  0  0  0  0  0  0  0  0  0
    4.7931   -5.0662    0.0000 H   0  0  0  0  0  0  0  0  0  0  0  0
    5.8215   -3.8406    0.0000 H   0  0  0  0  0  0  0  0  0  0  0  0
    3.2174   -4.7884    0.0000 H   0  0  0  0  0  0  0  0  0  0  0  0
   -0.0001    1.6001    0.0000 S   0  0  0  0  0  0  0  0  0  0  0  0
    1.3857    2.4000    0.0000 P   0  0  0  0  0  0  0  0  0  0  0  0
    1.3857    4.0000    0.0000 O   0  0  0  0  0  0  0  0  0  0  0  0
    2.7713    4.8000    0.0000 C   0  0  0  0  0  0  0  0  0  0  0  0
    2.7713    6.4000    0.0000 H   0  0  0  0  0  0  0  0  0  0  0  0
    4.1569    5.6001    0.0000 H   0  0  0  0  0  0  0  0  0  0  0  0
    1.3857    5.6001    0.0000 H   0  0  0  0  0  0  0  0  0  0  0  0
    2.7713    3.1999    0.0000 O   0  0  0  0  0  0  0  0  0  0  0  0
    4.1569    2.4000    0.0000 C   0  0  0  0  0  0  0  0  0  0  0  0
    5.5426    3.1999    0.0000 H   0  0  0  0  0  0  0  0  0  0  0  0
    5.5426    1.6001    0.0000 H   0  0  0  0  0  0  0  0  0  0  0  0
    4.1569    0.8000    0.0000 H   0  0  0  0  0  0  0  0  0  0  0  0
   -0.0001    3.1999    0.0000 S   0  0  0  0  0  0  0  0  0  0  0  0
  1  2  1  0  0  0  0
  2  3  1  0  0  0  0
  2  4  2  0  0  0  0
  4  5  1  0  0  0  0
  4  6  1  0  0  0  0
  6  7  1  0  0  0  0
  6  8  2  0  0  0  0
  8  9  1  0  0  0  0
  8 10  1  0  0  0  0
 10  1  2  0  0  0  0
 10 11  1  0  0  0  0
  1 12  1  0  0  0  0
 12 13  1  0  0  0  0
 12 14  1  0  0  0  0
 14 15  2  0  0  0  0
 14 16  1  0  0  0  0
 16 17  1  0  0  0  0
 17 18  1  0  0  0  0
 17 19  1  0  0  0  0
 17 20  1  0  0  0  0
 20 21  1  0  0  0  0
 20 22  1  0  0  0  0
 20 23  1  0  0  0  0
 12 24  1  0  0  0  0
 24 25  1  0  0  0  0
 25 26  1  0  0  0  0
 26 27  1  0  0  0  0
 27 28  1  0  0  0  0
 27 29  1  0  0  0  0
 27 30  1  0  0  0  0
 25 31  1  0  0  0  0
 31 32  1  0  0  0  0
 32 33  1  0  0  0  0
 32 34  1  0  0  0  0
 32 35  1  0  0  0  0
 25 36  2  0  0  0  0
M  END
> <ChemID>
100479

> <source_casrn>
2597-03-7

> <CAS>
2597-03-7

> <SMILES>
CCOC(=O)C(SP(=S)(OC)OC)c1ccccc1

> <NAME>
FENTHOATE

> <preferred_name>
Phenthoate

> <iupac>
ethyl [(dimethoxyphosphorothioyl)sulfanyl](phenyl)acetate

> <MPID>
99749

> <dsstox_substance_id>
DTXSID6042280

> <Canonical_QSARr>
CCOC(=O)C(SP(=S)(OC)OC)c1ccccc1

> <InChI_Code_QSARr>
InChI=1S/C12H17O4PS2/c1-4-16-12(13)11(10-8-6-5-7-9-10)19-17(18,14-2)15-3/h5-9,11H,4H2,1-3H3

> <InChI Key_QSARr>
XAMUDJHXFNRLCY-UHFFFAOYSA-N

> <LogKOC>
3.0

$$$$
100480
  -INDIGO-08031722282D

 20 20  0  0  0  0  0  0  0  0999 V2000
   -4.1569    0.8000    0.0000 O   0  0  0  0  0  0  0  0  0  0  0  0
   -2.7712   -0.0000    0.0000 C   0  0  0  0  0  0  0  0  0  0  0  0
   -2.7712   -1.6000    0.0000 O   0  0  0  0  0  0  0  0  0  0  0  0
   -1.3856    0.8000    0.0000 N   0  0  0  0  0  0  0  0  0  0  0  0
   -1.3856    2.4000    0.0000 H   0  0  0  0  0  0  0  0  0  0  0  0
   -0.0001   -0.0000    0.0000 C   0  0  0  0  0  0  0  0  0  0  0  0
   -0.0001   -1.6000    0.0000 C   0  0  0  0  0  0  0  0  0  0  0  0
   -1.3857   -2.4000    0.0000 H   0  0  0  0  0  0  0  0  0  0  0  0
    1.3856   -2.4000    0.0000 C   0  0  0  0  0  0  0  0  0  0  0  0
    1.3856   -4.0000    0.0000 H   0  0  0  0  0  0  0  0  0  0  0  0
    2.7713   -1.6000    0.0000 C   0  0  0  0  0  0  0  0  0  0  0  0
    4.1569   -2.4000    0.0000 H   0  0  0  0  0  0  0  0  0  0  0  0
    2.7713   -0.0000    0.0000 C   0  0  0  0  0  0  0  0  0  0  0  0
    4.1569    0.8000    0.0000 H   0  0  0  0  0  0  0  0  0  0  0  0
    1.3856    0.8000    0.0000 C   0  0  0  0  0  0  0  0  0  0  0  0
    1.3856    2.4000    0.0000 H   0  0  0  0  0  0  0  0  0  0  0  0
   -5.5425   -0.0000    0.0000 C   0  0  0  0  0  0  0  0  0  0  0  0
   -6.9282   -0.8000    0.0000 H   0  0  0  0  0  0  0  0  0  0  0  0
   -6.9282    0.8000    0.0000 H   0  0  0  0  0  0  0  0  0  0  0  0
   -5.5425   -1.6000    0.0000 H   0  0  0  0  0  0  0  0  0  0  0  0
  1  2  1  0  0  0  0
  2  3  2  0  0  0  0
  2  4  1  0  0  0  0
  4  5  1  0  0  0  0
  4  6  1  0  0  0  0
  6  7  1  0  0  0  0
  7  8  1  0  0  0  0
  7  9  2  0  0  0  0
  9 10  1  0  0  0  0
  9 11  1  0  0  0  0
 11 12  1  0  0  0  0
 11 13  2  0  0  0  0
 13 14  1  0  0  0  0
 13 15  1  0  0  0  0
 15  6  2  0  0  0  0
 15 16  1  0  0  0  0
  1 17  1  0  0  0  0
 17 18  1  0  0  0  0
 17 19  1  0  0  0  0
 17 20  1  0  0  0  0
M  END
> <ChemID>
100480

> <source_casrn>
2603-10-3

> <CAS>
2603-10-3

> <SMILES>
COC(=O)Nc1ccccc1

> <NAME>
METHYL N-PHENYLCARBAMATE

> <preferred_name>
Methyl phenylcarbamate

> <iupac>
Methyl N-phenylcarbamate

> <MPID>
99750

> <dsstox_substance_id>
DTXSID00180674

> <Canonical_QSARr>
COC(=O)Nc1ccccc1

> <InChI_Code_QSARr>
InChI=1S/C8H9NO2/c1-11-8(10)9-7-5-3-2-4-6-7/h2-6H,1H3,(H,9,10)

> <InChI Key_QSARr>
IAGUPODHENSJEZ-UHFFFAOYSA-N

> <LogKOC>
1.73

$$$$
100482
  -INDIGO-08031722282D

 32 35  0  0  0  0  0  0  0  0999 V2000
   -3.2000    2.7713    0.0000 N   0  0  0  0  0  0  0  0  0  0  0  0
   -2.4000    4.1569    0.0000 H   0  0  0  0  0  0  0  0  0  0  0  0
   -4.8000    2.7713    0.0000 H   0  0  0  0  0  0  0  0  0  0  0  0
   -2.4000    1.3856    0.0000 C   0  0  0  0  0  0  0  0  0  0  0  0
   -3.2000   -0.0001    0.0000 C   0  0  0  0  0  0  0  0  0  0  0  0
   -2.4000   -1.3856    0.0000 C   0  0  0  0  0  0  0  0  0  0  0  0
   -3.2000   -2.7712    0.0000 C   0  0  0  0  0  0  0  0  0  0  0  0
   -2.4000   -4.1569    0.0000 H   0  0  0  0  0  0  0  0  0  0  0  0
   -4.8000   -2.7712    0.0000 C   0  0  0  0  0  0  0  0  0  0  0  0
   -5.6000   -4.1569    0.0000 H   0  0  0  0  0  0  0  0  0  0  0  0
   -5.6000   -1.3856    0.0000 C   0  0  0  0  0  0  0  0  0  0  0  0
   -7.2000   -1.3856    0.0000 H   0  0  0  0  0  0  0  0  0  0  0  0
   -4.8000   -0.0001    0.0000 C   0  0  0  0  0  0  0  0  0  0  0  0
   -5.6000    1.3856    0.0000 H   0  0  0  0  0  0  0  0  0  0  0  0
   -0.8000   -1.3856    0.0000 C   0  0  0  0  0  0  0  0  0  0  0  0
    0.0000   -0.0001    0.0000 C   0  0  0  0  0  0  0  0  0  0  0  0
    1.6000   -0.0001    0.0000 C   0  0  0  0  0  0  0  0  0  0  0  0
    2.4000   -1.3856    0.0000 C   0  0  0  0  0  0  0  0  0  0  0  0
    1.6000   -2.7712    0.0000 C   0  0  0  0  0  0  0  0  0  0  0  0
    2.4000   -4.1569    0.0000 H   0  0  0  0  0  0  0  0  0  0  0  0
    0.0000   -2.7712    0.0000 C   0  0  0  0  0  0  0  0  0  0  0  0
   -0.8000   -4.1569    0.0000 H   0  0  0  0  0  0  0  0  0  0  0  0
    4.0000   -1.3856    0.0000 C   0  0  0  0  0  0  0  0  0  0  0  0
    4.8000   -2.7713    0.0000 H   0  0  0  0  0  0  0  0  0  0  0  0
    4.8000   -0.0001    0.0000 C   0  0  0  0  0  0  0  0  0  0  0  0
    6.4000   -0.0001    0.0000 H   0  0  0  0  0  0  0  0  0  0  0  0
    4.0000    1.3856    0.0000 C   0  0  0  0  0  0  0  0  0  0  0  0
    4.8000    2.7712    0.0000 H   0  0  0  0  0  0  0  0  0  0  0  0
    2.4000    1.3856    0.0000 C   0  0  0  0  0  0  0  0  0  0  0  0
    1.6000    2.7712    0.0000 H   0  0  0  0  0  0  0  0  0  0  0  0
   -0.8000    1.3856    0.0000 C   0  0  0  0  0  0  0  0  0  0  0  0
    0.0000    2.7713    0.0000 H   0  0  0  0  0  0  0  0  0  0  0  0
  1  2  1  0  0  0  0
  1  3  1  0  0  0  0
  1  4  1  0  0  0  0
  4  5  1  0  0  0  0
  5  6  1  0  0  0  0
  6  7  2  0  0  0  0
  7  8  1  0  0  0  0
  7  9  1  0  0  0  0
  9 10  1  0  0  0  0
  9 11  2  0  0  0  0
 11 12  1  0  0  0  0
 11 13  1  0  0  0  0
 13  5  2  0  0  0  0
 13 14  1  0  0  0  0
  6 15  1  0  0  0  0
 15 16  1  0  0  0  0
 16 17  2  0  0  0  0
 17 18  1  0  0  0  0
 18 19  2  0  0  0  0
 19 20  1  0  0  0  0
 19 21  1  0  0  0  0
 21 15  2  0  0  0  0
 21 22  1  0  0  0  0
 18 23  1  0  0  0  0
 23 24  1  0  0  0  0
 23 25  2  0  0  0  0
 25 26  1  0  0  0  0
 25 27  1  0  0  0  0
 27 28  1  0  0  0  0
 27 29  2  0  0  0  0
 29 17  1  0  0  0  0
 29 30  1  0  0  0  0
 16 31  1  0  0  0  0
 31  4  2  0  0  0  0
 31 32  1  0  0  0  0
M  END
> <ChemID>
100482

> <source_casrn>
2642-98-0

> <CAS>
2642-98-0

> <SMILES>
Nc1cc2c3ccccc3ccc2c2ccccc21

> <NAME>
6-AMINOCHRYSENE

> <preferred_name>
6-Chrysenamine

> <iupac>
chrysen-6-amine

> <MPID>
99752

> <dsstox_substance_id>
DTXSID70181017

> <Canonical_QSARr>
Nc1cc2c3ccccc3ccc2c2ccccc21

> <InChI_Code_QSARr>
InChI=1S/C18H13N/c19-18-11-17-13-6-2-1-5-12(13)9-10-15(17)14-7-3-4-8-16(14)18/h1-11H,19H2

> <InChI Key_QSARr>
KIVUHCNVDWYUNP-UHFFFAOYSA-N

> <LogKOC>
5.21

$$$$
100483
  -INDIGO-08031722282D

 26 26  0  0  0  0  0  0  0  0999 V2000
    1.3856    0.8000    0.0000 C   0  0  0  0  0  0  0  0  0  0  0  0
    2.7713    1.6001    0.0000 H   0  0  0  0  0  0  0  0  0  0  0  0
    1.3856    2.4000    0.0000 H   0  0  0  0  0  0  0  0  0  0  0  0
    2.7713    0.0001    0.0000 H   0  0  0  0  0  0  0  0  0  0  0  0
    0.0001    0.0001    0.0000 C   0  0  0  0  0  0  0  0  0  0  0  0
    0.0001   -1.6001    0.0000 C   0  0  0  0  0  0  0  0  0  0  0  0
    1.3856   -2.4000    0.0000 H   0  0  0  0  0  0  0  0  0  0  0  0
   -1.3856   -2.4000    0.0000 C   0  0  0  0  0  0  0  0  0  0  0  0
   -1.3856   -4.0000    0.0000 C   0  0  0  0  0  0  0  0  0  0  0  0
   -1.3856   -5.6000    0.0000 H   0  0  0  0  0  0  0  0  0  0  0  0
   -2.7713   -4.8001    0.0000 H   0  0  0  0  0  0  0  0  0  0  0  0
    0.0001   -4.8001    0.0000 H   0  0  0  0  0  0  0  0  0  0  0  0
   -2.7713   -1.5999    0.0000 C   0  0  0  0  0  0  0  0  0  0  0  0
   -4.1569   -2.4000    0.0000 H   0  0  0  0  0  0  0  0  0  0  0  0
   -2.7713    0.0001    0.0000 C   0  0  0  0  0  0  0  0  0  0  0  0
   -4.1569    0.8000    0.0000 O   0  0  0  0  0  0  0  0  0  0  0  0
   -5.5426    0.0001    0.0000 C   0  0  0  0  0  0  0  0  0  0  0  0
   -6.9283    0.8000    0.0000 N   0  0  0  0  0  0  0  0  0  0  0  0
   -6.9283    2.4000    0.0000 H   0  0  0  0  0  0  0  0  0  0  0  0
   -8.3138    0.0001    0.0000 C   0  0  0  0  0  0  0  0  0  0  0  0
   -9.6995   -0.8000    0.0000 H   0  0  0  0  0  0  0  0  0  0  0  0
   -9.6995    0.8000    0.0000 H   0  0  0  0  0  0  0  0  0  0  0  0
   -8.3138   -1.5999    0.0000 H   0  0  0  0  0  0  0  0  0  0  0  0
   -5.5426   -1.5999    0.0000 O   0  0  0  0  0  0  0  0  0  0  0  0
   -1.3856    0.8000    0.0000 C   0  0  0  0  0  0  0  0  0  0  0  0
   -1.3856    2.4000    0.0000 H   0  0  0  0  0  0  0  0  0  0  0  0
  1  2  1  0  0  0  0
  1  3  1  0  0  0  0
  1  4  1  0  0  0  0
  1  5  1  0  0  0  0
  5  6  1  0  0  0  0
  6  7  1  0  0  0  0
  6  8  2  0  0  0  0
  8  9  1  0  0  0  0
  9 10  1  0  0  0  0
  9 11  1  0  0  0  0
  9 12  1  0  0  0  0
  8 13  1  0  0  0  0
 13 14  1  0  0  0  0
 13 15  2  0  0  0  0
 15 16  1  0  0  0  0
 16 17  1  0  0  0  0
 17 18  1  0  0  0  0
 18 19  1  0  0  0  0
 18 20  1  0  0  0  0
 20 21  1  0  0  0  0
 20 22  1  0  0  0  0
 20 23  1  0  0  0  0
 17 24  2  0  0  0  0
 15 25  1  0  0  0  0
 25  5  2  0  0  0  0
 25 26  1  0  0  0  0
M  END
> <ChemID>
100483

> <source_casrn>
2655-14-3

> <CAS>
2655-14-3

> <SMILES>
CNC(=O)Oc1cc(C)cc(C)c1

> <NAME>
N-ME-3,5-DIMETHYLPHENYL CARBAMATE

> <preferred_name>
XMC

> <iupac>
3,5-dimethylphenyl methylcarbamate

> <MPID>
99753

> <dsstox_substance_id>
DTXSID7058042

> <Canonical_QSARr>
CNC(=O)Oc1cc(C)cc(C)c1

> <InChI_Code_QSARr>
InChI=1S/C10H13NO2/c1-7-4-8(2)6-9(5-7)13-10(12)11-3/h4-6H,1-3H3,(H,11,12)

> <InChI Key_QSARr>
CVQODEWAPZVVBU-UHFFFAOYSA-N

> <LogKOC>
1.71

$$$$
100484
  -INDIGO-08031722282D

 17 17  0  0  0  0  0  0  0  0999 V2000
    2.4000    1.3856    0.0000 C   0  0  0  0  0  0  0  0  0  0  0  0
    3.2001    2.7713    0.0000 H   0  0  0  0  0  0  0  0  0  0  0  0
    4.0000    1.3856    0.0000 H   0  0  0  0  0  0  0  0  0  0  0  0
    1.5999    2.7713    0.0000 H   0  0  0  0  0  0  0  0  0  0  0  0
    0.8000    1.3856    0.0000 O   0  0  0  0  0  0  0  0  0  0  0  0
    0.0001    0.0000    0.0000 C   0  0  0  0  0  0  0  0  0  0  0  0
    0.8000   -1.3856    0.0000 C   0  0  0  0  0  0  0  0  0  0  0  0
    2.4000   -1.3856    0.0000 H   0  0  0  0  0  0  0  0  0  0  0  0
    0.0001   -2.7713    0.0000 C   0  0  0  0  0  0  0  0  0  0  0  0
    0.8000   -4.1569    0.0000 Cl  0  0  0  0  0  0  0  0  0  0  0  0
   -1.5999   -2.7713    0.0000 C   0  0  0  0  0  0  0  0  0  0  0  0
   -2.4000   -4.1569    0.0000 Cl  0  0  0  0  0  0  0  0  0  0  0  0
   -2.4000   -1.3856    0.0000 C   0  0  0  0  0  0  0  0  0  0  0  0
   -4.0000   -1.3856    0.0000 Cl  0  0  0  0  0  0  0  0  0  0  0  0
   -1.5999    0.0000    0.0000 C   0  0  0  0  0  0  0  0  0  0  0  0
   -2.4000    1.3856    0.0000 O   0  0  0  0  0  0  0  0  0  0  0  0
   -4.0000    1.3856    0.0000 H   0  0  0  0  0  0  0  0  0  0  0  0
  1  2  1  0  0  0  0
  1  3  1  0  0  0  0
  1  4  1  0  0  0  0
  1  5  1  0  0  0  0
  5  6  1  0  0  0  0
  6  7  1  0  0  0  0
  7  8  1  0  0  0  0
  7  9  2  0  0  0  0
  9 10  1  0  0  0  0
  9 11  1  0  0  0  0
 11 12  1  0  0  0  0
 11 13  2  0  0  0  0
 13 14  1  0  0  0  0
 13 15  1  0  0  0  0
 15  6  2  0  0  0  0
 15 16  1  0  0  0  0
 16 17  1  0  0  0  0
M  END
> <ChemID>
100484

> <source_casrn>
2668-24-8

> <CAS>
2668-24-8

> <SMILES>
COc1cc(Cl)c(Cl)c(Cl)c1O

> <NAME>
4,5,6-TRICHLOROGUAIACOL

> <preferred_name>
4,5,6-Trichloroguaiacol

> <iupac>
C7H5Cl3O2

> <MPID>
99754

> <dsstox_substance_id>
DTXSID00858745

> <Canonical_QSARr>
COc1cc(Cl)c(Cl)c(Cl)c1O

> <InChI_Code_QSARr>
InChI=1S/C7H5Cl3O2/c1-12-4-2-3(8)5(9)6(10)7(4)11/h2,11H,1H3

> <InChI Key_QSARr>
NIAJPNQTKGWEOI-UHFFFAOYSA-N

> <LogKOC>
2.8

$$$$
100486
  -INDIGO-08031722282D

 29 29  0  0  0  0  0  0  0  0999 V2000
   -5.5426    1.6001    0.0000 C   0  0  0  0  0  0  0  0  0  0  0  0
   -5.5426    0.0001    0.0000 O   0  0  0  0  0  0  0  0  0  0  0  0
   -4.1569    2.4000    0.0000 O   0  0  0  0  0  0  0  0  0  0  0  0
   -2.7713    1.5999    0.0000 C   0  0  0  0  0  0  0  0  0  0  0  0
   -2.7713   -0.0001    0.0000 C   0  0  0  0  0  0  0  0  0  0  0  0
   -4.1569   -0.8000    0.0000 H   0  0  0  0  0  0  0  0  0  0  0  0
   -1.3856   -0.8000    0.0000 C   0  0  0  0  0  0  0  0  0  0  0  0
   -1.3856   -2.4000    0.0000 C   0  0  0  0  0  0  0  0  0  0  0  0
   -1.3856   -4.0000    0.0000 H   0  0  0  0  0  0  0  0  0  0  0  0
   -2.7713   -3.2001    0.0000 H   0  0  0  0  0  0  0  0  0  0  0  0
    0.0001   -3.2001    0.0000 H   0  0  0  0  0  0  0  0  0  0  0  0
    0.0001   -0.0001    0.0000 C   0  0  0  0  0  0  0  0  0  0  0  0
    1.3856   -0.8000    0.0000 C   0  0  0  0  0  0  0  0  0  0  0  0
    2.7713   -1.5999    0.0000 H   0  0  0  0  0  0  0  0  0  0  0  0
    2.7713    0.0001    0.0000 H   0  0  0  0  0  0  0  0  0  0  0  0
    1.3856   -2.4000    0.0000 H   0  0  0  0  0  0  0  0  0  0  0  0
    0.0001    1.5999    0.0000 C   0  0  0  0  0  0  0  0  0  0  0  0
    1.3856    2.4000    0.0000 C   0  0  0  0  0  0  0  0  0  0  0  0
    2.7713    3.2001    0.0000 H   0  0  0  0  0  0  0  0  0  0  0  0
    1.3856    4.0000    0.0000 H   0  0  0  0  0  0  0  0  0  0  0  0
    2.7713    1.6001    0.0000 H   0  0  0  0  0  0  0  0  0  0  0  0
   -1.3856    2.4000    0.0000 C   0  0  0  0  0  0  0  0  0  0  0  0
   -1.3856    4.0000    0.0000 H   0  0  0  0  0  0  0  0  0  0  0  0
   -6.9283    2.4000    0.0000 N   0  0  0  0  0  0  0  0  0  0  0  0
   -6.9283    4.0000    0.0000 H   0  0  0  0  0  0  0  0  0  0  0  0
   -8.3138    1.6001    0.0000 C   0  0  0  0  0  0  0  0  0  0  0  0
   -9.6995    0.8000    0.0000 H   0  0  0  0  0  0  0  0  0  0  0  0
   -9.6995    2.4000    0.0000 H   0  0  0  0  0  0  0  0  0  0  0  0
   -8.3138    0.0001    0.0000 H   0  0  0  0  0  0  0  0  0  0  0  0
  1  2  2  0  0  0  0
  1  3  1  0  0  0  0
  3  4  1  0  0  0  0
  4  5  1  0  0  0  0
  5  6  1  0  0  0  0
  5  7  2  0  0  0  0
  7  8  1  0  0  0  0
  8  9  1  0  0  0  0
  8 10  1  0  0  0  0
  8 11  1  0  0  0  0
  7 12  1  0  0  0  0
 12 13  1  0  0  0  0
 13 14  1  0  0  0  0
 13 15  1  0  0  0  0
 13 16  1  0  0  0  0
 12 17  2  0  0  0  0
 17 18  1  0  0  0  0
 18 19  1  0  0  0  0
 18 20  1  0  0  0  0
 18 21  1  0  0  0  0
 17 22  1  0  0  0  0
 22  4  2  0  0  0  0
 22 23  1  0  0  0  0
  1 24  1  0  0  0  0
 24 25  1  0  0  0  0
 24 26  1  0  0  0  0
 26 27  1  0  0  0  0
 26 28  1  0  0  0  0
 26 29  1  0  0  0  0
M  END
> <ChemID>
100486

> <source_casrn>
2686-99-9

> <CAS>
2686-99-9

> <SMILES>
CNC(=O)Oc1cc(C)c(C)c(C)c1

> <NAME>
N-ME-3,4,5-TRIMEPHENYL CARBAMATE

> <preferred_name>
3,4,5-Trimethylphenyl methylcarbamate

> <iupac>
3,4,5-trimethylphenyl methylcarbamate

> <MPID>
99756

> <dsstox_substance_id>
DTXSID1040322

> <Canonical_QSARr>
CNC(=O)Oc1cc(C)c(C)c(C)c1

> <InChI_Code_QSARr>
InChI=1S/C11H15NO2/c1-7-5-10(14-11(13)12-4)6-8(2)9(7)3/h5-6H,1-4H3,(H,12,13)

> <InChI Key_QSARr>
AUQAUAIUNJIIEP-UHFFFAOYSA-N

> <LogKOC>
2.6

$$$$
100488
  -INDIGO-08031722282D

 29 29  0  0  0  0  0  0  0  0999 V2000
    0.0001   -1.6000    0.0000 S   0  0  0  0  0  0  0  0  0  0  0  0
    0.0001    0.0000    0.0000 P   0  0  0  0  0  0  0  0  0  0  0  0
    1.3856    0.8000    0.0000 O   0  0  0  0  0  0  0  0  0  0  0  0
    2.7713    0.0000    0.0000 C   0  0  0  0  0  0  0  0  0  0  0  0
    2.7713   -1.6000    0.0000 N   0  0  0  0  0  0  0  0  0  0  0  0
    4.1570   -2.4001    0.0000 C   0  0  0  0  0  0  0  0  0  0  0  0
    4.1570   -4.0000    0.0000 Cl  0  0  0  0  0  0  0  0  0  0  0  0
    5.5425   -1.6000    0.0000 C   0  0  0  0  0  0  0  0  0  0  0  0
    6.9282   -2.4001    0.0000 Cl  0  0  0  0  0  0  0  0  0  0  0  0
    5.5425    0.0000    0.0000 C   0  0  0  0  0  0  0  0  0  0  0  0
    6.9282    0.8000    0.0000 H   0  0  0  0  0  0  0  0  0  0  0  0
    4.1570    0.8000    0.0000 C   0  0  0  0  0  0  0  0  0  0  0  0
    4.1570    2.4000    0.0000 Cl  0  0  0  0  0  0  0  0  0  0  0  0
   -1.3856   -0.8000    0.0000 O   0  0  0  0  0  0  0  0  0  0  0  0
   -2.7713    0.0000    0.0000 C   0  0  0  0  0  0  0  0  0  0  0  0
   -3.3835    1.4782    0.0000 H   0  0  0  0  0  0  0  0  0  0  0  0
   -2.1590    1.4782    0.0000 H   0  0  0  0  0  0  0  0  0  0  0  0
   -4.1569   -0.8000    0.0000 C   0  0  0  0  0  0  0  0  0  0  0  0
   -5.5426   -1.6000    0.0000 H   0  0  0  0  0  0  0  0  0  0  0  0
   -5.5426    0.0000    0.0000 H   0  0  0  0  0  0  0  0  0  0  0  0
   -4.1569   -2.4001    0.0000 H   0  0  0  0  0  0  0  0  0  0  0  0
   -1.3856    0.8000    0.0000 O   0  0  0  0  0  0  0  0  0  0  0  0
   -1.3856    2.4000    0.0000 C   0  0  0  0  0  0  0  0  0  0  0  0
   -0.4115    3.6694    0.0000 H   0  0  0  0  0  0  0  0  0  0  0  0
    0.2006    2.6088    0.0000 H   0  0  0  0  0  0  0  0  0  0  0  0
   -2.7713    3.2001    0.0000 C   0  0  0  0  0  0  0  0  0  0  0  0
   -2.7713    4.8000    0.0000 H   0  0  0  0  0  0  0  0  0  0  0  0
   -4.1569    4.0000    0.0000 H   0  0  0  0  0  0  0  0  0  0  0  0
   -4.1569    2.4000    0.0000 H   0  0  0  0  0  0  0  0  0  0  0  0
  1  2  2  0  0  0  0
  2  3  1  0  0  0  0
  3  4  1  0  0  0  0
  4  5  1  0  0  0  0
  5  6  2  0  0  0  0
  6  7  1  0  0  0  0
  6  8  1  0  0  0  0
  8  9  1  0  0  0  0
  8 10  2  0  0  0  0
 10 11  1  0  0  0  0
 10 12  1  0  0  0  0
 12  4  2  0  0  0  0
 12 13  1  0  0  0  0
  2 14  1  0  0  0  0
 14 15  1  0  0  0  0
 15 16  1  0  0  0  0
 15 17  1  0  0  0  0
 15 18  1  0  0  0  0
 18 19  1  0  0  0  0
 18 20  1  0  0  0  0
 18 21  1  0  0  0  0
  2 22  1  0  0  0  0
 22 23  1  0  0  0  0
 23 24  1  0  0  0  0
 23 25  1  0  0  0  0
 23 26  1  0  0  0  0
 26 27  1  0  0  0  0
 26 28  1  0  0  0  0
 26 29  1  0  0  0  0
M  END
> <ChemID>
100488

> <source_casrn>
2921-88-2

> <CAS>
2921-88-2

> <SMILES>
CCOP(=S)(Oc1[n]c(Cl)c(Cl)cc1Cl)OCC

> <NAME>
CHLORPYRIFOS

> <preferred_name>
Chlorpyrifos

> <iupac>
O,O-diethyl O-(3,5,6-trichloropyridin-2-yl) phosphorothioate

> <MPID>
99757

> <dsstox_substance_id>
DTXSID4020458

> <Canonical_QSARr>
CCOP(=S)(Oc1[n]c(Cl)c(Cl)cc1Cl)OCC

> <InChI_Code_QSARr>
InChI=1S/C9H11Cl3NO3PS/c1-3-14-17(18,15-4-2)16-9-7(11)5-6(10)8(12)13-9/h5H,3-4H2,1-2H3

> <InChI Key_QSARr>
SBPBAQFWLVIOKP-UHFFFAOYSA-N

> <LogKOC>
3.7

$$$$
100489
  -INDIGO-08031722282D

 18 18  0  0  0  0  0  0  0  0999 V2000
   -3.1999    2.7713    0.0000 Br  0  0  0  0  0  0  0  0  0  0  0  0
   -2.4000    1.3856    0.0000 C   0  0  0  0  0  0  0  0  0  0  0  0
   -0.8000    1.3856    0.0000 C   0  0  0  0  0  0  0  0  0  0  0  0
    0.0001    2.7713    0.0000 H   0  0  0  0  0  0  0  0  0  0  0  0
    0.0001    0.0000    0.0000 C   0  0  0  0  0  0  0  0  0  0  0  0
    1.6000    0.0000    0.0000 N   0  0  0  0  0  0  0  0  0  0  0  0
    2.4000    1.3856    0.0000 H   0  0  0  0  0  0  0  0  0  0  0  0
    2.4000   -1.3856    0.0000 C   0  0  0  0  0  0  0  0  0  0  0  0
    1.6000   -2.7713    0.0000 O   0  0  0  0  0  0  0  0  0  0  0  0
    4.0000   -1.3856    0.0000 N   0  0  0  0  0  0  0  0  0  0  0  0
    4.8000   -2.7713    0.0000 H   0  0  0  0  0  0  0  0  0  0  0  0
    4.8000   -0.0000    0.0000 H   0  0  0  0  0  0  0  0  0  0  0  0
   -0.8000   -1.3856    0.0000 C   0  0  0  0  0  0  0  0  0  0  0  0
   -0.0001   -2.7713    0.0000 H   0  0  0  0  0  0  0  0  0  0  0  0
   -2.4000   -1.3856    0.0000 C   0  0  0  0  0  0  0  0  0  0  0  0
   -3.1999   -2.7713    0.0000 H   0  0  0  0  0  0  0  0  0  0  0  0
   -3.1999   -0.0000    0.0000 C   0  0  0  0  0  0  0  0  0  0  0  0
   -4.8000    0.0000    0.0000 H   0  0  0  0  0  0  0  0  0  0  0  0
  1  2  1  0  0  0  0
  2  3  1  0  0  0  0
  3  4  1  0  0  0  0
  3  5  2  0  0  0  0
  5  6  1  0  0  0  0
  6  7  1  0  0  0  0
  6  8  1  0  0  0  0
  8  9  2  0  0  0  0
  8 10  1  0  0  0  0
 10 11  1  0  0  0  0
 10 12  1  0  0  0  0
  5 13  1  0  0  0  0
 13 14  1  0  0  0  0
 13 15  2  0  0  0  0
 15 16  1  0  0  0  0
 15 17  1  0  0  0  0
 17  2  2  0  0  0  0
 17 18  1  0  0  0  0
M  END
> <ChemID>
100489

> <source_casrn>
2989-98-2

> <CAS>
2989-98-2

> <SMILES>
NC(=O)Nc1cccc(Br)c1

> <NAME>
M-BROMOPHENYLUREA

> <preferred_name>
3-Bromophenylurea

> <iupac>
(3-bromophenyl)urea

> <MPID>
99758

> <dsstox_substance_id>
DTXSID70184008

> <Canonical_QSARr>
NC(=O)Nc1cccc(Br)c1

> <InChI_Code_QSARr>
InChI=1S/C7H7BrN2O/c8-5-2-1-3-6(4-5)10-7(9)11/h1-4H,(H3,9,10,11)

> <InChI Key_QSARr>
DHMRSMNEKFDABI-UHFFFAOYSA-N

> <LogKOC>
2.12

$$$$
100491
  -INDIGO-08031722282D

 34 34  0  0  0  0  0  0  0  0999 V2000
    1.3857   -0.8000    0.0000 O   0  0  0  0  0  0  0  0  0  0  0  0
   -0.0000    0.0000    0.0000 P   0  0  0  0  0  0  0  0  0  0  0  0
    1.3857    0.8000    0.0000 O   0  0  0  0  0  0  0  0  0  0  0  0
    2.7714    0.0000    0.0000 C   0  0  0  0  0  0  0  0  0  0  0  0
    2.1590   -1.4782    0.0000 H   0  0  0  0  0  0  0  0  0  0  0  0
    3.3835   -1.4782    0.0000 H   0  0  0  0  0  0  0  0  0  0  0  0
    4.1569    0.8000    0.0000 C   0  0  0  0  0  0  0  0  0  0  0  0
    5.5426    1.6000    0.0000 H   0  0  0  0  0  0  0  0  0  0  0  0
    5.5426    0.0000    0.0000 H   0  0  0  0  0  0  0  0  0  0  0  0
    4.1569    2.4000    0.0000 H   0  0  0  0  0  0  0  0  0  0  0  0
   -1.3857    0.8000    0.0000 O   0  0  0  0  0  0  0  0  0  0  0  0
   -2.7712    0.0000    0.0000 C   0  0  0  0  0  0  0  0  0  0  0  0
   -2.7712   -1.6000    0.0000 C   0  0  0  0  0  0  0  0  0  0  0  0
   -1.3857   -2.4000    0.0000 H   0  0  0  0  0  0  0  0  0  0  0  0
   -4.1569   -2.4000    0.0000 C   0  0  0  0  0  0  0  0  0  0  0  0
   -4.1569   -4.0000    0.0000 H   0  0  0  0  0  0  0  0  0  0  0  0
   -5.5426   -1.6000    0.0000 C   0  0  0  0  0  0  0  0  0  0  0  0
   -6.9283   -2.4000    0.0000 S   0  0  0  0  0  0  0  0  0  0  0  0
   -8.3138   -1.6000    0.0000 C   0  0  0  0  0  0  0  0  0  0  0  0
   -9.6995   -2.4000    0.0000 H   0  0  0  0  0  0  0  0  0  0  0  0
   -9.6995   -0.8000    0.0000 H   0  0  0  0  0  0  0  0  0  0  0  0
   -8.3138   -3.2000    0.0000 H   0  0  0  0  0  0  0  0  0  0  0  0
   -5.5426    0.0000    0.0000 C   0  0  0  0  0  0  0  0  0  0  0  0
   -6.9283    0.8000    0.0000 H   0  0  0  0  0  0  0  0  0  0  0  0
   -4.1569    0.8000    0.0000 C   0  0  0  0  0  0  0  0  0  0  0  0
   -4.1569    2.4000    0.0000 H   0  0  0  0  0  0  0  0  0  0  0  0
   -0.0000    1.6000    0.0000 S   0  0  0  0  0  0  0  0  0  0  0  0
    1.3857   -2.4000    0.0000 C   0  0  0  0  0  0  0  0  0  0  0  0
   -0.2007   -2.6089    0.0000 H   0  0  0  0  0  0  0  0  0  0  0  0
    0.4116   -3.6694    0.0000 H   0  0  0  0  0  0  0  0  0  0  0  0
    2.7714   -3.2000    0.0000 C   0  0  0  0  0  0  0  0  0  0  0  0
    4.1569   -4.0000    0.0000 H   0  0  0  0  0  0  0  0  0  0  0  0
    2.7714   -4.8000    0.0000 H   0  0  0  0  0  0  0  0  0  0  0  0
    4.1569   -2.4000    0.0000 H   0  0  0  0  0  0  0  0  0  0  0  0
  1  2  1  0  0  0  0
  2  3  1  0  0  0  0
  3  4  1  0  0  0  0
  4  5  1  0  0  0  0
  4  6  1  0  0  0  0
  4  7  1  0  0  0  0
  7  8  1  0  0  0  0
  7  9  1  0  0  0  0
  7 10  1  0  0  0  0
  2 11  1  0  0  0  0
 11 12  1  0  0  0  0
 12 13  1  0  0  0  0
 13 14  1  0  0  0  0
 13 15  2  0  0  0  0
 15 16  1  0  0  0  0
 15 17  1  0  0  0  0
 17 18  1  0  0  0  0
 18 19  1  0  0  0  0
 19 20  1  0  0  0  0
 19 21  1  0  0  0  0
 19 22  1  0  0  0  0
 17 23  2  0  0  0  0
 23 24  1  0  0  0  0
 23 25  1  0  0  0  0
 25 12  2  0  0  0  0
 25 26  1  0  0  0  0
  2 27  2  0  0  0  0
  1 28  1  0  0  0  0
 28 29  1  0  0  0  0
 28 30  1  0  0  0  0
 28 31  1  0  0  0  0
 31 32  1  0  0  0  0
 31 33  1  0  0  0  0
 31 34  1  0  0  0  0
M  END
> <ChemID>
100491

> <source_casrn>
3070-15-3

> <CAS>
3070-15-3

> <SMILES>
O(P(OCC)(Oc(ccc(SC)c1)c1)=S)CC

> <NAME>
FENSULFOTHION SULFIDE

> <preferred_name>
Phosphorothioic acid, O,O-diethyl O-[4-(methylthio)phenyl] ester

> <iupac>
diethoxy-(4-methylsulfanylphenoxy)-sulfanylidenephosphorane

> <MPID>
99760

> <dsstox_substance_id>
DTXSID7062827

> <Canonical_QSARr>
CSc1ccc(cc1)OP(=S)(OCC)OCC

> <InChI_Code_QSARr>
InChI=1S/C11H17O3PS2/c1-4-12-15(16,13-5-2)14-10-6-8-11(17-3)9-7-10/h6-9H,4-5H2,1-3H3

> <InChI Key_QSARr>
NYAZLCBHRWRNRY-UHFFFAOYSA-N

> <LogKOC>
3.18

$$$$
100492
  -INDIGO-08031722282D

 25 25  0  0  0  0  0  0  0  0999 V2000
   -4.1568    0.8000    0.0000 C   0  0  0  0  0  0  0  0  0  0  0  0
   -4.1568   -0.8000    0.0000 O   0  0  0  0  0  0  0  0  0  0  0  0
   -5.5426    1.6000    0.0000 O   0  0  0  0  0  0  0  0  0  0  0  0
   -6.9281    0.8000    0.0000 C   0  0  0  0  0  0  0  0  0  0  0  0
   -8.3138   -0.0000    0.0000 H   0  0  0  0  0  0  0  0  0  0  0  0
   -8.3138    1.6000    0.0000 H   0  0  0  0  0  0  0  0  0  0  0  0
   -6.9281   -0.8000    0.0000 H   0  0  0  0  0  0  0  0  0  0  0  0
   -2.7713    1.6000    0.0000 N   0  0  0  0  0  0  0  0  0  0  0  0
   -2.7713    3.2000    0.0000 H   0  0  0  0  0  0  0  0  0  0  0  0
   -1.3855    0.8000    0.0000 S   0  0  0  0  0  0  0  0  0  0  0  0
   -2.1856   -0.5856    0.0000 O   0  0  0  0  0  0  0  0  0  0  0  0
   -0.5857    2.1856    0.0000 O   0  0  0  0  0  0  0  0  0  0  0  0
    0.0000   -0.0000    0.0000 C   0  0  0  0  0  0  0  0  0  0  0  0
    0.0000   -1.6000    0.0000 C   0  0  0  0  0  0  0  0  0  0  0  0
   -1.3855   -2.4000    0.0000 H   0  0  0  0  0  0  0  0  0  0  0  0
    1.3857   -2.4000    0.0000 C   0  0  0  0  0  0  0  0  0  0  0  0
    1.3857   -4.0000    0.0000 H   0  0  0  0  0  0  0  0  0  0  0  0
    2.7713   -1.6000    0.0000 C   0  0  0  0  0  0  0  0  0  0  0  0
    4.1570   -2.4000    0.0000 N   0  0  0  0  0  0  0  0  0  0  0  0
    4.1570   -4.0000    0.0000 H   0  0  0  0  0  0  0  0  0  0  0  0
    5.5426   -1.6000    0.0000 H   0  0  0  0  0  0  0  0  0  0  0  0
    2.7713   -0.0000    0.0000 C   0  0  0  0  0  0  0  0  0  0  0  0
    4.1570    0.8000    0.0000 H   0  0  0  0  0  0  0  0  0  0  0  0
    1.3857    0.8000    0.0000 C   0  0  0  0  0  0  0  0  0  0  0  0
    1.3857    2.4000    0.0000 H   0  0  0  0  0  0  0  0  0  0  0  0
  1  2  2  0  0  0  0
  1  3  1  0  0  0  0
  3  4  1  0  0  0  0
  4  5  1  0  0  0  0
  4  6  1  0  0  0  0
  4  7  1  0  0  0  0
  1  8  1  0  0  0  0
  8  9  1  0  0  0  0
  8 10  1  0  0  0  0
 10 11  2  0  0  0  0
 10 12  2  0  0  0  0
 10 13  1  0  0  0  0
 13 14  1  0  0  0  0
 14 15  1  0  0  0  0
 14 16  2  0  0  0  0
 16 17  1  0  0  0  0
 16 18  1  0  0  0  0
 18 19  1  0  0  0  0
 19 20  1  0  0  0  0
 19 21  1  0  0  0  0
 18 22  2  0  0  0  0
 22 23  1  0  0  0  0
 22 24  1  0  0  0  0
 24 13  2  0  0  0  0
 24 25  1  0  0  0  0
M  END
> <ChemID>
100492

> <source_casrn>
3337-71-1

> <CAS>
3337-71-1

> <SMILES>
COC(=O)NS(=O)(=O)c1ccc(N)cc1

> <NAME>
ASULAM

> <preferred_name>
Asulam

> <iupac>
methyl [(4-aminophenyl)sulfonyl]carbamate

> <MPID>
99761

> <dsstox_substance_id>
DTXSID8023890

> <Canonical_QSARr>
COC(=O)NS(=O)(=O)c1ccc(N)cc1

> <InChI_Code_QSARr>
InChI=1S/C8H10N2O4S/c1-14-8(11)10-15(12,13)7-4-2-6(9)3-5-7/h2-5H,9H2,1H3,(H,10,11)

> <InChI Key_QSARr>
VGPYEHKOIGNJKV-UHFFFAOYSA-N

> <LogKOC>
1.6

$$$$
100493
  -INDIGO-08031722282D

 47 48  0  0  0  0  0  0  0  0999 V2000
   10.6269    0.3408    0.0000 C   0  0  0  0  0  0  0  0  0  0  0  0
   11.1741   -1.1627    0.0000 H   0  0  0  0  0  0  0  0  0  0  0  0
   11.6554    1.5664    0.0000 C   0  0  0  0  0  0  0  0  0  0  0  0
   13.2311    1.2887    0.0000 O   0  0  0  0  0  0  0  0  0  0  0  0
   14.2593    2.5143    0.0000 P   0  0  0  0  0  0  0  0  0  0  0  0
   14.8065    1.0108    0.0000 S   0  0  0  0  0  0  0  0  0  0  0  0
   15.8350    2.2365    0.0000 O   0  0  0  0  0  0  0  0  0  0  0  0
   16.8636    3.4621    0.0000 C   0  0  0  0  0  0  0  0  0  0  0  0
   18.4393    3.1844    0.0000 H   0  0  0  0  0  0  0  0  0  0  0  0
   17.8921    4.6879    0.0000 H   0  0  0  0  0  0  0  0  0  0  0  0
   17.4108    1.9586    0.0000 H   0  0  0  0  0  0  0  0  0  0  0  0
   15.2878    3.7400    0.0000 O   0  0  0  0  0  0  0  0  0  0  0  0
   14.7407    5.2435    0.0000 C   0  0  0  0  0  0  0  0  0  0  0  0
   14.1935    6.7470    0.0000 H   0  0  0  0  0  0  0  0  0  0  0  0
   15.7692    6.4691    0.0000 H   0  0  0  0  0  0  0  0  0  0  0  0
   13.1649    5.5214    0.0000 H   0  0  0  0  0  0  0  0  0  0  0  0
   11.1079    3.0701    0.0000 C   0  0  0  0  0  0  0  0  0  0  0  0
   12.1364    4.2957    0.0000 H   0  0  0  0  0  0  0  0  0  0  0  0
    9.5325    3.3478    0.0000 C   0  0  0  0  0  0  0  0  0  0  0  0
    8.9850    4.8513    0.0000 H   0  0  0  0  0  0  0  0  0  0  0  0
    8.5040    2.1222    0.0000 C   0  0  0  0  0  0  0  0  0  0  0  0
    6.9283    2.4000    0.0000 S   0  0  0  0  0  0  0  0  0  0  0  0
    5.5425    1.6001    0.0000 C   0  0  0  0  0  0  0  0  0  0  0  0
    4.1568    2.4000    0.0000 C   0  0  0  0  0  0  0  0  0  0  0  0
    4.1568    4.0000    0.0000 H   0  0  0  0  0  0  0  0  0  0  0  0
    2.7714    1.6001    0.0000 C   0  0  0  0  0  0  0  0  0  0  0  0
    1.3857    2.4000    0.0000 H   0  0  0  0  0  0  0  0  0  0  0  0
    2.7714   -0.0000    0.0000 C   0  0  0  0  0  0  0  0  0  0  0  0
    1.3857   -0.8001    0.0000 O   0  0  0  0  0  0  0  0  0  0  0  0
   -0.0001   -0.0000    0.0000 P   0  0  0  0  0  0  0  0  0  0  0  0
   -1.3858   -0.8001    0.0000 O   0  0  0  0  0  0  0  0  0  0  0  0
   -2.7712   -0.0000    0.0000 C   0  0  0  0  0  0  0  0  0  0  0  0
   -4.1569   -0.8001    0.0000 H   0  0  0  0  0  0  0  0  0  0  0  0
   -4.1569    0.8000    0.0000 H   0  0  0  0  0  0  0  0  0  0  0  0
   -2.7712   -1.6000    0.0000 H   0  0  0  0  0  0  0  0  0  0  0  0
   -1.3858    0.8000    0.0000 O   0  0  0  0  0  0  0  0  0  0  0  0
   -1.3858    2.4000    0.0000 C   0  0  0  0  0  0  0  0  0  0  0  0
   -1.3858    4.0000    0.0000 H   0  0  0  0  0  0  0  0  0  0  0  0
   -2.7712    3.2000    0.0000 H   0  0  0  0  0  0  0  0  0  0  0  0
   -0.0001    3.2000    0.0000 H   0  0  0  0  0  0  0  0  0  0  0  0
   -0.0001   -1.6000    0.0000 S   0  0  0  0  0  0  0  0  0  0  0  0
    4.1568   -0.8001    0.0000 C   0  0  0  0  0  0  0  0  0  0  0  0
    4.1568   -2.4000    0.0000 H   0  0  0  0  0  0  0  0  0  0  0  0
    5.5425   -0.0000    0.0000 C   0  0  0  0  0  0  0  0  0  0  0  0
    6.9283   -0.8001    0.0000 H   0  0  0  0  0  0  0  0  0  0  0  0
    9.0512    0.6187    0.0000 C   0  0  0  0  0  0  0  0  0  0  0  0
    8.0226   -0.6070    0.0000 H   0  0  0  0  0  0  0  0  0  0  0  0
  1  2  1  0  0  0  0
  1  3  1  0  0  0  0
  3  4  1  0  0  0  0
  4  5  1  0  0  0  0
  5  6  2  0  0  0  0
  5  7  1  0  0  0  0
  7  8  1  0  0  0  0
  8  9  1  0  0  0  0
  8 10  1  0  0  0  0
  8 11  1  0  0  0  0
  5 12  1  0  0  0  0
 12 13  1  0  0  0  0
 13 14  1  0  0  0  0
 13 15  1  0  0  0  0
 13 16  1  0  0  0  0
  3 17  2  0  0  0  0
 17 18  1  0  0  0  0
 17 19  1  0  0  0  0
 19 20  1  0  0  0  0
 19 21  2  0  0  0  0
 21 22  1  0  0  0  0
 22 23  1  0  0  0  0
 23 24  1  0  0  0  0
 24 25  1  0  0  0  0
 24 26  2  0  0  0  0
 26 27  1  0  0  0  0
 26 28  1  0  0  0  0
 28 29  1  0  0  0  0
 29 30  1  0  0  0  0
 30 31  1  0  0  0  0
 31 32  1  0  0  0  0
 32 33  1  0  0  0  0
 32 34  1  0  0  0  0
 32 35  1  0  0  0  0
 30 36  1  0  0  0  0
 36 37  1  0  0  0  0
 37 38  1  0  0  0  0
 37 39  1  0  0  0  0
 37 40  1  0  0  0  0
 30 41  2  0  0  0  0
 28 42  2  0  0  0  0
 42 43  1  0  0  0  0
 42 44  1  0  0  0  0
 44 23  2  0  0  0  0
 44 45  1  0  0  0  0
 21 46  1  0  0  0  0
 46  1  2  0  0  0  0
 46 47  1  0  0  0  0
M  END
> <ChemID>
100493

> <source_casrn>
3383-96-8

> <CAS>
3383-96-8

> <SMILES>
COP(=S)(Oc1ccc(cc1)Sc1ccc(cc1)OP(=S)(OC)OC)OC

> <NAME>
ABATE

> <preferred_name>
Temephos

> <iupac>
O,O,O',O'-tetramethyl O,O'-(sulfanediyldibenzene-4,1-diyl) bis(phosphorothioate)

> <MPID>
99762

> <dsstox_substance_id>
DTXSID1032484

> <Canonical_QSARr>
COP(=S)(Oc1ccc(cc1)Sc1ccc(cc1)OP(=S)(OC)OC)OC

> <InChI_Code_QSARr>
InChI=1S/C16H20O6P2S3/c1-17-23(25,18-2)21-13-5-9-15(10-6-13)27-16-11-7-14(8-12-16)22-24(26,19-3)20-4/h5-12H,1-4H3

> <InChI Key_QSARr>
WWJZWCUNLNYYAU-UHFFFAOYSA-N

> <LogKOC>
5.0

$$$$
100495
  -INDIGO-08031722282D

 26 27  0  0  0  0  0  0  0  0999 V2000
    2.1230   -1.7814    0.0000 C   0  0  0  0  0  0  0  0  0  0  0  0
    3.6986   -2.0592    0.0000 C   0  0  0  0  0  0  0  0  0  0  0  0
    4.2459   -3.5626    0.0000 H   0  0  0  0  0  0  0  0  0  0  0  0
    4.7270   -0.8335    0.0000 C   0  0  0  0  0  0  0  0  0  0  0  0
    6.3028   -1.1113    0.0000 H   0  0  0  0  0  0  0  0  0  0  0  0
    4.1799    0.6700    0.0000 C   0  0  0  0  0  0  0  0  0  0  0  0
    5.2083    1.8957    0.0000 H   0  0  0  0  0  0  0  0  0  0  0  0
    2.6041    0.9479    0.0000 C   0  0  0  0  0  0  0  0  0  0  0  0
    2.0570    2.4513    0.0000 H   0  0  0  0  0  0  0  0  0  0  0  0
    1.5757   -0.2779    0.0000 C   0  0  0  0  0  0  0  0  0  0  0  0
    0.0001   -0.0000    0.0000 C   0  0  0  0  0  0  0  0  0  0  0  0
   -0.2779    1.5757    0.0000 C   0  0  0  0  0  0  0  0  0  0  0  0
    0.9477    2.6042    0.0000 Cl  0  0  0  0  0  0  0  0  0  0  0  0
   -1.7814    2.1230    0.0000 Cl  0  0  0  0  0  0  0  0  0  0  0  0
   -1.3857   -0.8001    0.0000 C   0  0  0  0  0  0  0  0  0  0  0  0
   -1.3857   -2.4000    0.0000 C   0  0  0  0  0  0  0  0  0  0  0  0
    0.0001   -3.2000    0.0000 H   0  0  0  0  0  0  0  0  0  0  0  0
   -2.7713   -3.2000    0.0000 C   0  0  0  0  0  0  0  0  0  0  0  0
   -2.7713   -4.8000    0.0000 H   0  0  0  0  0  0  0  0  0  0  0  0
   -4.1569   -2.4000    0.0000 C   0  0  0  0  0  0  0  0  0  0  0  0
   -5.5426   -3.2000    0.0000 Cl  0  0  0  0  0  0  0  0  0  0  0  0
   -4.1569   -0.8001    0.0000 C   0  0  0  0  0  0  0  0  0  0  0  0
   -5.5426   -0.0000    0.0000 H   0  0  0  0  0  0  0  0  0  0  0  0
   -2.7713   -0.0000    0.0000 C   0  0  0  0  0  0  0  0  0  0  0  0
   -2.7713    1.6000    0.0000 H   0  0  0  0  0  0  0  0  0  0  0  0
    1.0945   -3.0070    0.0000 Cl  0  0  0  0  0  0  0  0  0  0  0  0
  1  2  1  0  0  0  0
  2  3  1  0  0  0  0
  2  4  2  0  0  0  0
  4  5  1  0  0  0  0
  4  6  1  0  0  0  0
  6  7  1  0  0  0  0
  6  8  2  0  0  0  0
  8  9  1  0  0  0  0
  8 10  1  0  0  0  0
 10  1  2  0  0  0  0
 10 11  1  0  0  0  0
 11 12  2  0  0  0  0
 12 13  1  0  0  0  0
 12 14  1  0  0  0  0
 11 15  1  0  0  0  0
 15 16  1  0  0  0  0
 16 17  1  0  0  0  0
 16 18  2  0  0  0  0
 18 19  1  0  0  0  0
 18 20  1  0  0  0  0
 20 21  1  0  0  0  0
 20 22  2  0  0  0  0
 22 23  1  0  0  0  0
 22 24  1  0  0  0  0
 24 15  2  0  0  0  0
 24 25  1  0  0  0  0
  1 26  1  0  0  0  0
M  END
> <ChemID>
100495

> <source_casrn>
3424-82-6

> <CAS>
3424-82-6

> <SMILES>
ClC(Cl)=C(c1ccccc1Cl)c1ccc(Cl)cc1

> <NAME>
O,P'-DDE

> <preferred_name>
o,p'-DDE

> <iupac>
1-chloro-2-[2,2-dichloro-1-(4-chlorophenyl)ethenyl]benzene

> <MPID>
99764

> <dsstox_substance_id>
DTXSID4022313

> <Canonical_QSARr>
ClC(Cl)=C(c1ccccc1Cl)c1ccc(Cl)cc1

> <InChI_Code_QSARr>
InChI=1S/C14H8Cl4/c15-10-7-5-9(6-8-10)13(14(17)18)11-3-1-2-4-12(11)16/h1-8H

> <InChI Key_QSARr>
ZDYJWDIWLRZXDB-UHFFFAOYSA-N

> <LogKOC>
5.49

$$$$
100496
  -INDIGO-08031722282D

 42 43  0  0  0  0  0  0  0  0999 V2000
   -8.2296    0.9625    0.0000 C   0  0  0  0  0  0  0  0  0  0  0  0
   -7.9518    2.5381    0.0000 O   0  0  0  0  0  0  0  0  0  0  0  0
   -9.7331    0.4152    0.0000 C   0  0  0  0  0  0  0  0  0  0  0  0
  -10.0109   -1.1605    0.0000 C   0  0  0  0  0  0  0  0  0  0  0  0
   -8.7854   -2.1889    0.0000 H   0  0  0  0  0  0  0  0  0  0  0  0
  -11.5144   -1.7077    0.0000 C   0  0  0  0  0  0  0  0  0  0  0  0
  -11.7924   -3.2834    0.0000 Cl  0  0  0  0  0  0  0  0  0  0  0  0
  -12.7402   -0.6792    0.0000 C   0  0  0  0  0  0  0  0  0  0  0  0
  -14.2437   -1.2265    0.0000 Cl  0  0  0  0  0  0  0  0  0  0  0  0
  -12.4624    0.8965    0.0000 C   0  0  0  0  0  0  0  0  0  0  0  0
  -13.6879    1.9249    0.0000 H   0  0  0  0  0  0  0  0  0  0  0  0
  -10.9589    1.4437    0.0000 C   0  0  0  0  0  0  0  0  0  0  0  0
  -10.6809    3.0194    0.0000 H   0  0  0  0  0  0  0  0  0  0  0  0
   -7.0038   -0.0660    0.0000 O   0  0  0  0  0  0  0  0  0  0  0  0
   -5.5006    0.4812    0.0000 C   0  0  0  0  0  0  0  0  0  0  0  0
   -4.6408    1.8306    0.0000 H   0  0  0  0  0  0  0  0  0  0  0  0
   -5.8469    2.0433    0.0000 H   0  0  0  0  0  0  0  0  0  0  0  0
   -4.2748   -0.5472    0.0000 C   0  0  0  0  0  0  0  0  0  0  0  0
   -5.1344   -1.8966    0.0000 H   0  0  0  0  0  0  0  0  0  0  0  0
   -3.9285   -2.1093    0.0000 H   0  0  0  0  0  0  0  0  0  0  0  0
   -2.7713    0.0000    0.0000 C   0  0  0  0  0  0  0  0  0  0  0  0
   -2.1591    1.4782    0.0000 H   0  0  0  0  0  0  0  0  0  0  0  0
   -3.3835    1.4782    0.0000 H   0  0  0  0  0  0  0  0  0  0  0  0
   -1.3857   -0.8000    0.0000 N   0  0  0  0  0  0  0  0  0  0  0  0
   -0.0000    0.0000    0.0000 C   0  0  0  0  0  0  0  0  0  0  0  0
   -1.0284    1.2257    0.0000 H   0  0  0  0  0  0  0  0  0  0  0  0
    0.5474    1.5036    0.0000 C   0  0  0  0  0  0  0  0  0  0  0  0
    1.0945    3.0070    0.0000 H   0  0  0  0  0  0  0  0  0  0  0  0
   -0.4812    2.7292    0.0000 H   0  0  0  0  0  0  0  0  0  0  0  0
    2.1228    1.7813    0.0000 H   0  0  0  0  0  0  0  0  0  0  0  0
    1.3856   -0.8000    0.0000 C   0  0  0  0  0  0  0  0  0  0  0  0
    1.9330    0.7036    0.0000 H   0  0  0  0  0  0  0  0  0  0  0  0
    2.9613   -1.0779    0.0000 H   0  0  0  0  0  0  0  0  0  0  0  0
    1.3856   -2.4000    0.0000 C   0  0  0  0  0  0  0  0  0  0  0  0
    2.9613   -2.1221    0.0000 H   0  0  0  0  0  0  0  0  0  0  0  0
    1.9330   -3.9035    0.0000 H   0  0  0  0  0  0  0  0  0  0  0  0
   -0.0000   -3.2000    0.0000 C   0  0  0  0  0  0  0  0  0  0  0  0
    1.0286   -4.4257    0.0000 H   0  0  0  0  0  0  0  0  0  0  0  0
   -1.0284   -4.4257    0.0000 H   0  0  0  0  0  0  0  0  0  0  0  0
   -1.3857   -2.4000    0.0000 C   0  0  0  0  0  0  0  0  0  0  0  0
   -1.9328   -3.9035    0.0000 H   0  0  0  0  0  0  0  0  0  0  0  0
   -2.9614   -2.1221    0.0000 H   0  0  0  0  0  0  0  0  0  0  0  0
  1  2  2  0  0  0  0
  1  3  1  0  0  0  0
  3  4  1  0  0  0  0
  4  5  1  0  0  0  0
  4  6  2  0  0  0  0
  6  7  1  0  0  0  0
  6  8  1  0  0  0  0
  8  9  1  0  0  0  0
  8 10  2  0  0  0  0
 10 11  1  0  0  0  0
 10 12  1  0  0  0  0
 12  3  2  0  0  0  0
 12 13  1  0  0  0  0
  1 14  1  0  0  0  0
 14 15  1  0  0  0  0
 15 16  1  0  0  0  0
 15 17  1  0  0  0  0
 15 18  1  0  0  0  0
 18 19  1  0  0  0  0
 18 20  1  0  0  0  0
 18 21  1  0  0  0  0
 21 22  1  0  0  0  0
 21 23  1  0  0  0  0
 21 24  1  0  0  0  0
 24 25  1  0  0  0  0
 25 26  1  0  0  0  0
 25 27  1  0  0  0  0
 27 28  1  0  0  0  0
 27 29  1  0  0  0  0
 27 30  1  0  0  0  0
 25 31  1  0  0  0  0
 31 32  1  0  0  0  0
 31 33  1  0  0  0  0
 31 34  1  0  0  0  0
 34 35  1  0  0  0  0
 34 36  1  0  0  0  0
 34 37  1  0  0  0  0
 37 38  1  0  0  0  0
 37 39  1  0  0  0  0
 37 40  1  0  0  0  0
 40 24  1  0  0  0  0
 40 41  1  0  0  0  0
 40 42  1  0  0  0  0
M  END
> <ChemID>
100496

> <source_casrn>
3478-94-2

> <CAS>
3478-94-2

> <SMILES>
CC1CCCCN1CCCOC(=O)c1cc(Cl)c(Cl)cc1

> <NAME>
PIPERALIN

> <preferred_name>
Piperalin

> <iupac>
3-(2-methylpiperidin-1-yl)propyl 3,4-dichlorobenzoate

> <MPID>
99765

> <dsstox_substance_id>
DTXSID7032634

> <Canonical_QSARr>
CC1CCCCN1CCCOC(=O)c1cc(Cl)c(Cl)cc1

> <InChI_Code_QSARr>
InChI=1S/C16H21Cl2NO2/c1-12-5-2-3-8-19(12)9-4-10-21-16(20)13-6-7-14(17)15(18)11-13/h6-7,11-12H,2-5,8-10H2,1H3

> <InChI Key_QSARr>
BZGLBXYQOMFXAU-UHFFFAOYSA-N

> <LogKOC>
3.7

$$$$
100497
  -INDIGO-08031722282D

 14 14  0  0  0  0  0  0  0  0999 V2000
    1.6000   -0.0000    0.0000 N   0  0  0  0  0  0  0  0  0  0  0  0
    2.4000    1.3856    0.0000 H   0  0  0  0  0  0  0  0  0  0  0  0
    2.4000   -1.3856    0.0000 H   0  0  0  0  0  0  0  0  0  0  0  0
    0.0000   -0.0000    0.0000 C   0  0  0  0  0  0  0  0  0  0  0  0
   -0.8000    1.3856    0.0000 C   0  0  0  0  0  0  0  0  0  0  0  0
    0.0000    2.7713    0.0000 Cl  0  0  0  0  0  0  0  0  0  0  0  0
   -2.4000    1.3856    0.0000 C   0  0  0  0  0  0  0  0  0  0  0  0
   -3.2000    2.7713    0.0000 Cl  0  0  0  0  0  0  0  0  0  0  0  0
   -3.2000   -0.0000    0.0000 C   0  0  0  0  0  0  0  0  0  0  0  0
   -4.8000   -0.0000    0.0000 H   0  0  0  0  0  0  0  0  0  0  0  0
   -2.4000   -1.3856    0.0000 C   0  0  0  0  0  0  0  0  0  0  0  0
   -3.2000   -2.7713    0.0000 Cl  0  0  0  0  0  0  0  0  0  0  0  0
   -0.8000   -1.3856    0.0000 C   0  0  0  0  0  0  0  0  0  0  0  0
    0.0000   -2.7713    0.0000 Cl  0  0  0  0  0  0  0  0  0  0  0  0
  1  2  1  0  0  0  0
  1  3  1  0  0  0  0
  1  4  1  0  0  0  0
  4  5  1  0  0  0  0
  5  6  1  0  0  0  0
  5  7  2  0  0  0  0
  7  8  1  0  0  0  0
  7  9  1  0  0  0  0
  9 10  1  0  0  0  0
  9 11  2  0  0  0  0
 11 12  1  0  0  0  0
 11 13  1  0  0  0  0
 13  4  2  0  0  0  0
 13 14  1  0  0  0  0
M  END
> <ChemID>
100497

> <source_casrn>
3481-20-7

> <CAS>
3481-20-7

> <SMILES>
Nc1c(Cl)c(Cl)cc(Cl)c1Cl

> <NAME>
2,3,5,6-TETRACHLOROANILINE

> <preferred_name>
2,3,5,6-Tetrachloroaniline

> <iupac>
2,3,5,6-tetrachloroaniline

> <MPID>
99766

> <dsstox_substance_id>
DTXSID2022208

> <Canonical_QSARr>
Nc1c(Cl)c(Cl)cc(Cl)c1Cl

> <InChI_Code_QSARr>
InChI=1S/C6H3Cl4N/c7-2-1-3(8)5(10)6(11)4(2)9/h1H,11H2

> <InChI Key_QSARr>
YTDHEFNWWHSXSU-UHFFFAOYSA-N

> <LogKOC>
3.94

$$$$
100499
  -INDIGO-08031722282D

 26 27  0  0  0  0  0  0  0  0999 V2000
    0.0000    0.0000    0.0000 C   0  0  0  0  0  0  0  0  0  0  0  0
    1.6000   -0.0000    0.0000 C   0  0  0  0  0  0  0  0  0  0  0  0
    2.4000   -1.3856    0.0000 C   0  0  0  0  0  0  0  0  0  0  0  0
    1.6000   -2.7713    0.0000 H   0  0  0  0  0  0  0  0  0  0  0  0
    4.0000   -1.3856    0.0000 C   0  0  0  0  0  0  0  0  0  0  0  0
    4.8000   -2.7713    0.0000 H   0  0  0  0  0  0  0  0  0  0  0  0
    4.8000    0.0000    0.0000 C   0  0  0  0  0  0  0  0  0  0  0  0
    6.4000    0.0000    0.0000 H   0  0  0  0  0  0  0  0  0  0  0  0
    4.0000    1.3856    0.0000 C   0  0  0  0  0  0  0  0  0  0  0  0
    4.8000    2.7713    0.0000 H   0  0  0  0  0  0  0  0  0  0  0  0
    2.4000    1.3856    0.0000 C   0  0  0  0  0  0  0  0  0  0  0  0
    1.6000    2.7713    0.0000 H   0  0  0  0  0  0  0  0  0  0  0  0
   -0.8000    1.3856    0.0000 C   0  0  0  0  0  0  0  0  0  0  0  0
    0.0000    2.7713    0.0000 H   0  0  0  0  0  0  0  0  0  0  0  0
   -2.4000    1.3856    0.0000 C   0  0  0  0  0  0  0  0  0  0  0  0
   -3.2000    2.7713    0.0000 H   0  0  0  0  0  0  0  0  0  0  0  0
   -3.2000    0.0000    0.0000 C   0  0  0  0  0  0  0  0  0  0  0  0
   -4.8000   -0.0000    0.0000 C   0  0  0  0  0  0  0  0  0  0  0  0
   -5.0088   -1.5863    0.0000 H   0  0  0  0  0  0  0  0  0  0  0  0
   -6.0694   -0.9740    0.0000 H   0  0  0  0  0  0  0  0  0  0  0  0
   -5.6000    1.3856    0.0000 O   0  0  0  0  0  0  0  0  0  0  0  0
   -7.2000    1.3856    0.0000 H   0  0  0  0  0  0  0  0  0  0  0  0
   -2.4000   -1.3856    0.0000 C   0  0  0  0  0  0  0  0  0  0  0  0
   -3.2000   -2.7713    0.0000 H   0  0  0  0  0  0  0  0  0  0  0  0
   -0.8000   -1.3856    0.0000 C   0  0  0  0  0  0  0  0  0  0  0  0
    0.0000   -2.7713    0.0000 H   0  0  0  0  0  0  0  0  0  0  0  0
  1  2  1  0  0  0  0
  2  3  1  0  0  0  0
  3  4  1  0  0  0  0
  3  5  2  0  0  0  0
  5  6  1  0  0  0  0
  5  7  1  0  0  0  0
  7  8  1  0  0  0  0
  7  9  2  0  0  0  0
  9 10  1  0  0  0  0
  9 11  1  0  0  0  0
 11  2  2  0  0  0  0
 11 12  1  0  0  0  0
  1 13  1  0  0  0  0
 13 14  1  0  0  0  0
 13 15  2  0  0  0  0
 15 16  1  0  0  0  0
 15 17  1  0  0  0  0
 17 18  1  0  0  0  0
 18 19  1  0  0  0  0
 18 20  1  0  0  0  0
 18 21  1  0  0  0  0
 21 22  1  0  0  0  0
 17 23  2  0  0  0  0
 23 24  1  0  0  0  0
 23 25  1  0  0  0  0
 25  1  2  0  0  0  0
 25 26  1  0  0  0  0
M  END
> <ChemID>
100499

> <source_casrn>
3597-91-9

> <CAS>
3597-91-9

> <SMILES>
OCc1ccc(cc1)-c1ccccc1

> <NAME>
4-Biphenylmethanol

> <preferred_name>
4-Biphenylmethanol

> <iupac>
(4-phenylphenyl)methanol

> <MPID>
99768

> <dsstox_substance_id>
DTXSID5075234

> <Canonical_QSARr>
OCc1ccc(cc1)-c1ccccc1

> <InChI_Code_QSARr>
InChI=1S/C13H12O/c14-10-11-6-8-13(9-7-11)12-4-2-1-3-5-12/h1-9,14H,10H2

> <InChI Key_QSARr>
AXCHZLOJGKSWLV-UHFFFAOYSA-N

> <LogKOC>
2.54

$$$$
100500
  -INDIGO-08031722282D

 32 32  0  0  0  0  0  0  0  0999 V2000
    2.6041    0.9478    0.0000 C   0  0  0  0  0  0  0  0  0  0  0  0
    4.1798    0.6700    0.0000 H   0  0  0  0  0  0  0  0  0  0  0  0
    3.6326    2.1735    0.0000 H   0  0  0  0  0  0  0  0  0  0  0  0
    3.1513   -0.5557    0.0000 H   0  0  0  0  0  0  0  0  0  0  0  0
    1.0284    1.2256    0.0000 C   0  0  0  0  0  0  0  0  0  0  0  0
    0.1688    2.5750    0.0000 H   0  0  0  0  0  0  0  0  0  0  0  0
    1.0983    2.8241    0.0000 H   0  0  0  0  0  0  0  0  0  0  0  0
   -0.0001    0.0000    0.0000 C   0  0  0  0  0  0  0  0  0  0  0  0
    1.3856   -0.8000    0.0000 H   0  0  0  0  0  0  0  0  0  0  0  0
   -1.3856    0.8000    0.0000 C   0  0  0  0  0  0  0  0  0  0  0  0
   -1.3856    2.4000    0.0000 H   0  0  0  0  0  0  0  0  0  0  0  0
   -2.7712    1.6000    0.0000 H   0  0  0  0  0  0  0  0  0  0  0  0
   -0.0001    1.6000    0.0000 H   0  0  0  0  0  0  0  0  0  0  0  0
   -0.8001   -1.3856    0.0000 C   0  0  0  0  0  0  0  0  0  0  0  0
   -2.4000   -1.3856    0.0000 C   0  0  0  0  0  0  0  0  0  0  0  0
   -3.2000    0.0000    0.0000 H   0  0  0  0  0  0  0  0  0  0  0  0
   -3.2000   -2.7713    0.0000 C   0  0  0  0  0  0  0  0  0  0  0  0
   -4.8000   -2.7713    0.0000 H   0  0  0  0  0  0  0  0  0  0  0  0
   -2.4000   -4.1569    0.0000 C   0  0  0  0  0  0  0  0  0  0  0  0
   -3.2000   -5.5426    0.0000 H   0  0  0  0  0  0  0  0  0  0  0  0
   -0.8001   -4.1569    0.0000 C   0  0  0  0  0  0  0  0  0  0  0  0
   -0.0001   -5.5426    0.0000 H   0  0  0  0  0  0  0  0  0  0  0  0
   -0.0001   -2.7713    0.0000 C   0  0  0  0  0  0  0  0  0  0  0  0
    1.6001   -2.7713    0.0000 O   0  0  0  0  0  0  0  0  0  0  0  0
    2.4001   -4.1569    0.0000 C   0  0  0  0  0  0  0  0  0  0  0  0
    4.0000   -4.1569    0.0000 N   0  0  0  0  0  0  0  0  0  0  0  0
    4.8000   -2.7713    0.0000 H   0  0  0  0  0  0  0  0  0  0  0  0
    4.8000   -5.5426    0.0000 C   0  0  0  0  0  0  0  0  0  0  0  0
    5.6000   -6.9282    0.0000 H   0  0  0  0  0  0  0  0  0  0  0  0
    6.4000   -5.5426    0.0000 H   0  0  0  0  0  0  0  0  0  0  0  0
    4.0000   -6.9282    0.0000 H   0  0  0  0  0  0  0  0  0  0  0  0
    1.6001   -5.5426    0.0000 O   0  0  0  0  0  0  0  0  0  0  0  0
  1  2  1  0  0  0  0
  1  3  1  0  0  0  0
  1  4  1  0  0  0  0
  1  5  1  0  0  0  0
  5  6  1  0  0  0  0
  5  7  1  0  0  0  0
  5  8  1  0  0  0  0
  8  9  1  0  0  0  0
  8 10  1  0  0  0  0
 10 11  1  0  0  0  0
 10 12  1  0  0  0  0
 10 13  1  0  0  0  0
  8 14  1  0  0  0  0
 14 15  1  0  0  0  0
 15 16  1  0  0  0  0
 15 17  2  0  0  0  0
 17 18  1  0  0  0  0
 17 19  1  0  0  0  0
 19 20  1  0  0  0  0
 19 21  2  0  0  0  0
 21 22  1  0  0  0  0
 21 23  1  0  0  0  0
 23 14  2  0  0  0  0
 23 24  1  0  0  0  0
 24 25  1  0  0  0  0
 25 26  1  0  0  0  0
 26 27  1  0  0  0  0
 26 28  1  0  0  0  0
 28 29  1  0  0  0  0
 28 30  1  0  0  0  0
 28 31  1  0  0  0  0
 25 32  2  0  0  0  0
M  END
> <ChemID>
100500

> <source_casrn>
3766-81-2

> <CAS>
3766-81-2

> <SMILES>
O=C(Oc(c(ccc1)C(CC)C)c1)NC

> <NAME>
N-METHYL O-SEC-BUTYL PHENYL CARBAMATE

> <preferred_name>
Fenobucarb

> <iupac>
2-sec-butylphenyl methylcarbamate

> <MPID>
99769

> <dsstox_substance_id>
DTXSID4058077

> <Canonical_QSARr>
CCC(C)c1ccccc1OC(=O)NC

> <InChI_Code_QSARr>
InChI=1S/C12H17NO2/c1-4-9(2)10-7-5-6-8-11(10)15-12(14)13-3/h5-9H,4H2,1-3H3,(H,13,14)

> <InChI Key_QSARr>
DIRFUJHNVNOBMY-UHFFFAOYSA-N

> <LogKOC>
1.71

$$$$
100501
  -INDIGO-08031722282D

 21 22  0  0  0  0  0  0  0  0999 V2000
    4.2758   -0.2435    0.0000 C   0  0  0  0  0  0  0  0  0  0  0  0
    4.6085    1.3215    0.0000 O   0  0  0  0  0  0  0  0  0  0  0  0
    5.4648   -1.3142    0.0000 O   0  0  0  0  0  0  0  0  0  0  0  0
    6.9865   -0.8197    0.0000 H   0  0  0  0  0  0  0  0  0  0  0  0
    2.7541   -0.7380    0.0000 C   0  0  0  0  0  0  0  0  0  0  0  0
    3.0456   -2.3112    0.0000 H   0  0  0  0  0  0  0  0  0  0  0  0
    1.8478   -2.0565    0.0000 H   0  0  0  0  0  0  0  0  0  0  0  0
    1.5651    0.3327    0.0000 N   0  0  0  0  0  0  0  0  0  0  0  0
    1.7323    1.9239    0.0000 C   0  0  0  0  0  0  0  0  0  0  0  0
    3.1179    2.7239    0.0000 O   0  0  0  0  0  0  0  0  0  0  0  0
    0.2707    2.5746    0.0000 S   0  0  0  0  0  0  0  0  0  0  0  0
   -0.8000    1.3856    0.0000 C   0  0  0  0  0  0  0  0  0  0  0  0
    0.0000   -0.0000    0.0000 C   0  0  0  0  0  0  0  0  0  0  0  0
   -0.8000   -1.3856    0.0000 C   0  0  0  0  0  0  0  0  0  0  0  0
   -2.4001   -1.3856    0.0000 C   0  0  0  0  0  0  0  0  0  0  0  0
   -3.2001   -2.7713    0.0000 H   0  0  0  0  0  0  0  0  0  0  0  0
   -3.2001   -0.0000    0.0000 C   0  0  0  0  0  0  0  0  0  0  0  0
   -4.8000   -0.0000    0.0000 H   0  0  0  0  0  0  0  0  0  0  0  0
   -2.4001    1.3856    0.0000 C   0  0  0  0  0  0  0  0  0  0  0  0
   -3.2001    2.7713    0.0000 H   0  0  0  0  0  0  0  0  0  0  0  0
    0.0000   -2.7713    0.0000 Cl  0  0  0  0  0  0  0  0  0  0  0  0
  1  2  2  0  0  0  0
  1  3  1  0  0  0  0
  3  4  1  0  0  0  0
  1  5  1  0  0  0  0
  5  6  1  0  0  0  0
  5  7  1  0  0  0  0
  5  8  1  0  0  0  0
  8  9  1  0  0  0  0
  9 10  2  0  0  0  0
  9 11  1  0  0  0  0
 11 12  1  0  0  0  0
 12 13  1  0  0  0  0
 13  8  1  0  0  0  0
 13 14  2  0  0  0  0
 14 15  1  0  0  0  0
 15 16  1  0  0  0  0
 15 17  2  0  0  0  0
 17 18  1  0  0  0  0
 17 19  1  0  0  0  0
 19 12  2  0  0  0  0
 19 20  1  0  0  0  0
 14 21  1  0  0  0  0
M  END
> <ChemID>
100501

> <source_casrn>
3813-05-6

> <CAS>
3813-05-6

> <SMILES>
OC(=O)CN1c2c(Cl)cccc2SC1=O

> <NAME>
BENAZOLIN

> <preferred_name>
Benazolin

> <iupac>
(4-chloro-2-oxo-1,3-benzothiazol-3(2H)-yl)acetic acid

> <MPID>
99770

> <dsstox_substance_id>
DTXSID2041620

> <Canonical_QSARr>
OC(=O)CN1c2c(Cl)cccc2SC1=O

> <InChI_Code_QSARr>
InChI=1S/C9H6ClNO3S/c10-5-2-1-3-6-8(5)11(4-7(12)13)9(14)15-6/h1-3H,4H2,(H,12,13)

> <InChI Key_QSARr>
HYJSGOXICXYZGS-UHFFFAOYSA-N

> <LogKOC>
1.52

$$$$
100504
  -INDIGO-08031722282D

 38 38  0  0  0  0  0  0  0  0999 V2000
    0.8001    1.3856    0.0000 C   0  0  0  0  0  0  0  0  0  0  0  0
    1.5999    2.7713    0.0000 H   0  0  0  0  0  0  0  0  0  0  0  0
    2.4000    1.3856    0.0000 H   0  0  0  0  0  0  0  0  0  0  0  0
    0.0000    2.7713    0.0000 H   0  0  0  0  0  0  0  0  0  0  0  0
    0.0000    0.0000    0.0000 C   0  0  0  0  0  0  0  0  0  0  0  0
   -0.8001   -1.3857    0.0000 H   0  0  0  0  0  0  0  0  0  0  0  0
    1.3857   -0.8001    0.0000 C   0  0  0  0  0  0  0  0  0  0  0  0
    2.7713   -1.6000    0.0000 H   0  0  0  0  0  0  0  0  0  0  0  0
    2.7713    0.0000    0.0000 H   0  0  0  0  0  0  0  0  0  0  0  0
    1.3857   -2.4000    0.0000 H   0  0  0  0  0  0  0  0  0  0  0  0
   -1.3855    0.8000    0.0000 N   0  0  0  0  0  0  0  0  0  0  0  0
   -1.3855    2.4000    0.0000 H   0  0  0  0  0  0  0  0  0  0  0  0
   -2.7713    0.0000    0.0000 C   0  0  0  0  0  0  0  0  0  0  0  0
   -2.7713   -1.6000    0.0000 N   0  0  0  0  0  0  0  0  0  0  0  0
   -4.1568   -2.4000    0.0000 C   0  0  0  0  0  0  0  0  0  0  0  0
   -4.1568   -4.0000    0.0000 S   0  0  0  0  0  0  0  0  0  0  0  0
   -5.5426   -4.7999    0.0000 C   0  0  0  0  0  0  0  0  0  0  0  0
   -6.5166   -3.5306    0.0000 H   0  0  0  0  0  0  0  0  0  0  0  0
   -7.1290   -4.5912    0.0000 H   0  0  0  0  0  0  0  0  0  0  0  0
   -5.5426   -6.4000    0.0000 C   0  0  0  0  0  0  0  0  0  0  0  0
   -5.5426   -8.0000    0.0000 H   0  0  0  0  0  0  0  0  0  0  0  0
   -6.9281   -7.2001    0.0000 H   0  0  0  0  0  0  0  0  0  0  0  0
   -4.1568   -7.2001    0.0000 H   0  0  0  0  0  0  0  0  0  0  0  0
   -5.5426   -1.6000    0.0000 N   0  0  0  0  0  0  0  0  0  0  0  0
   -5.5426    0.0000    0.0000 C   0  0  0  0  0  0  0  0  0  0  0  0
   -6.9281    0.8000    0.0000 N   0  0  0  0  0  0  0  0  0  0  0  0
   -6.9281    2.4000    0.0000 H   0  0  0  0  0  0  0  0  0  0  0  0
   -8.3138    0.0000    0.0000 C   0  0  0  0  0  0  0  0  0  0  0  0
   -7.5138   -1.3857    0.0000 H   0  0  0  0  0  0  0  0  0  0  0  0
   -9.6994   -0.8001    0.0000 C   0  0  0  0  0  0  0  0  0  0  0  0
  -11.0851   -1.6000    0.0000 H   0  0  0  0  0  0  0  0  0  0  0  0
  -11.0851    0.0000    0.0000 H   0  0  0  0  0  0  0  0  0  0  0  0
   -9.6994   -2.4000    0.0000 H   0  0  0  0  0  0  0  0  0  0  0  0
   -9.1139    1.3856    0.0000 C   0  0  0  0  0  0  0  0  0  0  0  0
   -9.9138    2.7713    0.0000 H   0  0  0  0  0  0  0  0  0  0  0  0
  -10.7138    1.3856    0.0000 H   0  0  0  0  0  0  0  0  0  0  0  0
   -8.3138    2.7713    0.0000 H   0  0  0  0  0  0  0  0  0  0  0  0
   -4.1568    0.8000    0.0000 N   0  0  0  0  0  0  0  0  0  0  0  0
  1  2  1  0  0  0  0
  1  3  1  0  0  0  0
  1  4  1  0  0  0  0
  1  5  1  0  0  0  0
  5  6  1  0  0  0  0
  5  7  1  0  0  0  0
  7  8  1  0  0  0  0
  7  9  1  0  0  0  0
  7 10  1  0  0  0  0
  5 11  1  0  0  0  0
 11 12  1  0  0  0  0
 11 13  1  0  0  0  0
 13 14  1  0  0  0  0
 14 15  2  0  0  0  0
 15 16  1  0  0  0  0
 16 17  1  0  0  0  0
 17 18  1  0  0  0  0
 17 19  1  0  0  0  0
 17 20  1  0  0  0  0
 20 21  1  0  0  0  0
 20 22  1  0  0  0  0
 20 23  1  0  0  0  0
 15 24  1  0  0  0  0
 24 25  2  0  0  0  0
 25 26  1  0  0  0  0
 26 27  1  0  0  0  0
 26 28  1  0  0  0  0
 28 29  1  0  0  0  0
 28 30  1  0  0  0  0
 30 31  1  0  0  0  0
 30 32  1  0  0  0  0
 30 33  1  0  0  0  0
 28 34  1  0  0  0  0
 34 35  1  0  0  0  0
 34 36  1  0  0  0  0
 34 37  1  0  0  0  0
 25 38  1  0  0  0  0
 38 13  2  0  0  0  0
M  END
> <ChemID>
100504

> <source_casrn>
4147-51-7

> <CAS>
4147-51-7

> <SMILES>
CCSc1[n]c(NC(C)C)[n]c(NC(C)C)[n]1

> <NAME>
DIPROPETRYNE

> <preferred_name>
Dipropetryn

> <iupac>
6-(ethylsulfanyl)-N,N'-di(propan-2-yl)-1,3,5-triazine-2,4-diamine

> <MPID>
99772

> <dsstox_substance_id>
DTXSID9037533

> <Canonical_QSARr>
CCSc1[n]c(NC(C)C)[n]c(NC(C)C)[n]1

> <InChI_Code_QSARr>
InChI=1S/C11H21N5S/c1-6-17-11-15-9(12-7(2)3)14-10(16-11)13-8(4)5/h7-8H,6H2,1-5H3,(H2,12,13,14,15,16)

> <InChI Key_QSARr>
NPWMZOGDXOFZIN-UHFFFAOYSA-N

> <LogKOC>
3.07

$$$$
100505
  -INDIGO-08031722282D

 14 14  0  0  0  0  0  0  0  0999 V2000
   -0.8000    1.3856    0.0000 N   0  0  0  0  0  0  0  0  0  0  0  0
   -0.0000   -0.0000    0.0000 C   0  0  0  0  0  0  0  0  0  0  0  0
    1.6000   -0.0000    0.0000 C   0  0  0  0  0  0  0  0  0  0  0  0
    2.4001   -1.3856    0.0000 O   0  0  0  0  0  0  0  0  0  0  0  0
    2.4001    1.3856    0.0000 O   0  0  0  0  0  0  0  0  0  0  0  0
    4.0000    1.3856    0.0000 H   0  0  0  0  0  0  0  0  0  0  0  0
   -0.8000   -1.3856    0.0000 C   0  0  0  0  0  0  0  0  0  0  0  0
   -0.0000   -2.7713    0.0000 H   0  0  0  0  0  0  0  0  0  0  0  0
   -2.4000   -1.3856    0.0000 C   0  0  0  0  0  0  0  0  0  0  0  0
   -3.2001   -2.7713    0.0000 H   0  0  0  0  0  0  0  0  0  0  0  0
   -3.2001   -0.0000    0.0000 C   0  0  0  0  0  0  0  0  0  0  0  0
   -4.8000   -0.0000    0.0000 H   0  0  0  0  0  0  0  0  0  0  0  0
   -2.4000    1.3856    0.0000 C   0  0  0  0  0  0  0  0  0  0  0  0
   -3.2001    2.7713    0.0000 Cl  0  0  0  0  0  0  0  0  0  0  0  0
  1  2  1  0  0  0  0
  2  3  1  0  0  0  0
  3  4  2  0  0  0  0
  3  5  1  0  0  0  0
  5  6  1  0  0  0  0
  2  7  2  0  0  0  0
  7  8  1  0  0  0  0
  7  9  1  0  0  0  0
  9 10  1  0  0  0  0
  9 11  2  0  0  0  0
 11 12  1  0  0  0  0
 11 13  1  0  0  0  0
 13  1  2  0  0  0  0
 13 14  1  0  0  0  0
M  END
> <ChemID>
100505

> <source_casrn>
4684-94-0

> <CAS>
4684-94-0

> <SMILES>
OC(=O)c1cccc(Cl)[n]1

> <NAME>
6-CHLOROPICOLINIC ACID

> <preferred_name>
6-Chloro-2-picolinic acid

> <iupac>
6-chloropyridine-2-carboxylic acid

> <MPID>
99773

> <dsstox_substance_id>
DTXSID7040289

> <Canonical_QSARr>
OC(=O)c1cccc(Cl)[n]1

> <InChI_Code_QSARr>
InChI=1S/C6H4ClNO2/c7-5-3-1-2-4(8-5)6(9)10/h1-3H,(H,9,10)

> <InChI Key_QSARr>
ZLKMOIHCHCMSFW-UHFFFAOYSA-N

> <LogKOC>
1.37

$$$$
100506
  -INDIGO-08031722282D

 42 42  0  0  0  0  0  0  0  0999 V2000
    2.3999    1.3857    0.0000 C   0  0  0  0  0  0  0  0  0  0  0  0
    2.1222    2.9613    0.0000 N   0  0  0  0  0  0  0  0  0  0  0  0
    3.3478    3.9898    0.0000 O   0  0  0  0  0  0  0  0  0  0  0  0
    0.6188    3.5085    0.0000 O   0  0  0  0  0  0  0  0  0  0  0  0
    1.6001    0.0000    0.0000 C   0  0  0  0  0  0  0  0  0  0  0  0
    0.0000    0.0000    0.0000 N   0  0  0  0  0  0  0  0  0  0  0  0
   -0.8000   -1.3856    0.0000 C   0  0  0  0  0  0  0  0  0  0  0  0
   -0.5911   -2.9720    0.0000 H   0  0  0  0  0  0  0  0  0  0  0  0
    0.4693   -2.3597    0.0000 H   0  0  0  0  0  0  0  0  0  0  0  0
   -2.1857   -2.1857    0.0000 C   0  0  0  0  0  0  0  0  0  0  0  0
   -3.1597   -0.9163    0.0000 H   0  0  0  0  0  0  0  0  0  0  0  0
   -3.7719   -1.9768    0.0000 H   0  0  0  0  0  0  0  0  0  0  0  0
   -2.1857   -3.7857    0.0000 C   0  0  0  0  0  0  0  0  0  0  0  0
   -2.1857   -5.3856    0.0000 H   0  0  0  0  0  0  0  0  0  0  0  0
   -3.5713   -4.5857    0.0000 H   0  0  0  0  0  0  0  0  0  0  0  0
   -0.8000   -4.5857    0.0000 H   0  0  0  0  0  0  0  0  0  0  0  0
   -0.8000    1.3857    0.0000 C   0  0  0  0  0  0  0  0  0  0  0  0
    0.4693    2.3597    0.0000 H   0  0  0  0  0  0  0  0  0  0  0  0
   -0.5911    2.9719    0.0000 H   0  0  0  0  0  0  0  0  0  0  0  0
   -2.4001    1.3857    0.0000 C   0  0  0  0  0  0  0  0  0  0  0  0
   -3.6693    0.4117    0.0000 H   0  0  0  0  0  0  0  0  0  0  0  0
   -2.3302   -0.2128    0.0000 H   0  0  0  0  0  0  0  0  0  0  0  0
   -3.1999    2.7713    0.0000 C   0  0  0  0  0  0  0  0  0  0  0  0
   -4.0000    4.1569    0.0000 H   0  0  0  0  0  0  0  0  0  0  0  0
   -4.8000    2.7713    0.0000 H   0  0  0  0  0  0  0  0  0  0  0  0
   -2.4001    4.1569    0.0000 H   0  0  0  0  0  0  0  0  0  0  0  0
    2.3999   -1.3856    0.0000 C   0  0  0  0  0  0  0  0  0  0  0  0
    2.1222   -2.9614    0.0000 N   0  0  0  0  0  0  0  0  0  0  0  0
    0.6188   -3.5086    0.0000 O   0  0  0  0  0  0  0  0  0  0  0  0
    3.3478   -3.9898    0.0000 O   0  0  0  0  0  0  0  0  0  0  0  0
    4.0000   -1.3856    0.0000 C   0  0  0  0  0  0  0  0  0  0  0  0
    4.8000   -2.7712    0.0000 H   0  0  0  0  0  0  0  0  0  0  0  0
    4.8000    0.0000    0.0000 C   0  0  0  0  0  0  0  0  0  0  0  0
    6.4001    0.0000    0.0000 S   0  0  0  0  0  0  0  0  0  0  0  0
    6.4001    1.6000    0.0000 O   0  0  0  0  0  0  0  0  0  0  0  0
    6.4001   -1.6001    0.0000 O   0  0  0  0  0  0  0  0  0  0  0  0
    7.9999    0.0000    0.0000 C   0  0  0  0  0  0  0  0  0  0  0  0
    9.6000    0.0000    0.0000 H   0  0  0  0  0  0  0  0  0  0  0  0
    8.8000    1.3857    0.0000 H   0  0  0  0  0  0  0  0  0  0  0  0
    8.8000   -1.3856    0.0000 H   0  0  0  0  0  0  0  0  0  0  0  0
    4.0000    1.3857    0.0000 C   0  0  0  0  0  0  0  0  0  0  0  0
    4.8000    2.7713    0.0000 H   0  0  0  0  0  0  0  0  0  0  0  0
  1  2  1  0  0  0  0
  2  3  1  0  0  0  0
  2  4  2  0  0  0  0
  1  5  1  0  0  0  0
  5  6  1  0  0  0  0
  6  7  1  0  0  0  0
  7  8  1  0  0  0  0
  7  9  1  0  0  0  0
  7 10  1  0  0  0  0
 10 11  1  0  0  0  0
 10 12  1  0  0  0  0
 10 13  1  0  0  0  0
 13 14  1  0  0  0  0
 13 15  1  0  0  0  0
 13 16  1  0  0  0  0
  6 17  1  0  0  0  0
 17 18  1  0  0  0  0
 17 19  1  0  0  0  0
 17 20  1  0  0  0  0
 20 21  1  0  0  0  0
 20 22  1  0  0  0  0
 20 23  1  0  0  0  0
 23 24  1  0  0  0  0
 23 25  1  0  0  0  0
 23 26  1  0  0  0  0
  5 27  2  0  0  0  0
 27 28  1  0  0  0  0
 28 29  1  0  0  0  0
 28 30  2  0  0  0  0
 27 31  1  0  0  0  0
 31 32  1  0  0  0  0
 31 33  2  0  0  0  0
 33 34  1  0  0  0  0
 34 35  2  0  0  0  0
 34 36  2  0  0  0  0
 34 37  1  0  0  0  0
 37 38  1  0  0  0  0
 37 39  1  0  0  0  0
 37 40  1  0  0  0  0
 33 41  1  0  0  0  0
 41  1  2  0  0  0  0
 41 42  1  0  0  0  0
M  CHG  4   2   1   3  -1  28   1  29  -1
M  END
> <ChemID>
100506

> <source_casrn>
4726-14-1

> <CAS>
4726-14-1

> <SMILES>
CS(=O)(=O)c1cc(c(c(c1)[N+]([O-])=O)N(CCC)CCC)[N+]([O-])=O

> <NAME>
NITRALIN

> <preferred_name>
Nitralin

> <iupac>
4-(methylsulfonyl)-2,6-dinitro-N,N-dipropylaniline

> <MPID>
99774

> <dsstox_substance_id>
DTXSID9042203

> <Canonical_QSARr>
CS(=O)(=O)c1cc(c(c(c1)[N+]([O-])=O)N(CCC)CCC)[N+]([O-])=O

> <InChI_Code_QSARr>
InChI=1S/C13H19N3O6S/c1-4-6-14(7-5-2)13-11(15(17)18)8-10(23(3,21)22)9-12(13)16(19)20/h8-9H,4-7H2,1-3H3

> <InChI Key_QSARr>
UMKANAFDOQQUKE-UHFFFAOYSA-N

> <LogKOC>
2.92

$$$$
100508
  -INDIGO-08031722282D

 13 13  0  0  0  0  0  0  0  0999 V2000
    0.8000    1.3856    0.0000 O   0  0  0  0  0  0  0  0  0  0  0  0
    2.4000    1.3856    0.0000 H   0  0  0  0  0  0  0  0  0  0  0  0
   -0.0000   -0.0000    0.0000 C   0  0  0  0  0  0  0  0  0  0  0  0
    0.8000   -1.3857    0.0000 C   0  0  0  0  0  0  0  0  0  0  0  0
    2.4000   -1.3857    0.0000 Cl  0  0  0  0  0  0  0  0  0  0  0  0
   -0.0000   -2.7713    0.0000 C   0  0  0  0  0  0  0  0  0  0  0  0
    0.8000   -4.1569    0.0000 Cl  0  0  0  0  0  0  0  0  0  0  0  0
   -1.6000   -2.7713    0.0000 C   0  0  0  0  0  0  0  0  0  0  0  0
   -2.4000   -4.1569    0.0000 Cl  0  0  0  0  0  0  0  0  0  0  0  0
   -2.4000   -1.3856    0.0000 C   0  0  0  0  0  0  0  0  0  0  0  0
   -4.0000   -1.3856    0.0000 Cl  0  0  0  0  0  0  0  0  0  0  0  0
   -1.6000   -0.0000    0.0000 C   0  0  0  0  0  0  0  0  0  0  0  0
   -2.4000    1.3856    0.0000 H   0  0  0  0  0  0  0  0  0  0  0  0
  1  2  1  0  0  0  0
  1  3  1  0  0  0  0
  3  4  1  0  0  0  0
  4  5  1  0  0  0  0
  4  6  2  0  0  0  0
  6  7  1  0  0  0  0
  6  8  1  0  0  0  0
  8  9  1  0  0  0  0
  8 10  2  0  0  0  0
 10 11  1  0  0  0  0
 10 12  1  0  0  0  0
 12  3  2  0  0  0  0
 12 13  1  0  0  0  0
M  END
> <ChemID>
100508

> <source_casrn>
4901-51-3

> <CAS>
4901-51-3

> <SMILES>
Oc1cc(Cl)c(Cl)c(Cl)c1Cl

> <NAME>
2,3,4,5-TETRACHLOROPHENOL

> <preferred_name>
2,3,4,5-Tetrachlorophenol

> <iupac>
2,3,4,5-tetrachlorophenol

> <MPID>
99776

> <dsstox_substance_id>
DTXSID0022220

> <Canonical_QSARr>
Oc1cc(Cl)c(Cl)c(Cl)c1Cl

> <InChI_Code_QSARr>
InChI=1S/C6H2Cl4O/c7-2-1-3(11)5(9)6(10)4(2)8/h1,11H

> <InChI Key_QSARr>
RULKYXXCCZZKDZ-UHFFFAOYSA-N

> <LogKOC>
4.12

$$$$
100509
  -INDIGO-08031722282D

 34 34  0  0  0  0  0  0  0  0999 V2000
    4.8000    0.0000    0.0000 N   0  0  0  0  0  0  0  0  0  0  0  0
    5.6000   -1.3857    0.0000 C   0  0  0  0  0  0  0  0  0  0  0  0
    7.2000   -1.3857    0.0000 N   0  0  0  0  0  0  0  0  0  0  0  0
    8.0000    0.0000    0.0000 C   0  0  0  0  0  0  0  0  0  0  0  0
    8.8000    1.3856    0.0000 H   0  0  0  0  0  0  0  0  0  0  0  0
    9.6000    0.0000    0.0000 H   0  0  0  0  0  0  0  0  0  0  0  0
    7.2000    1.3856    0.0000 H   0  0  0  0  0  0  0  0  0  0  0  0
    8.0000   -2.7713    0.0000 C   0  0  0  0  0  0  0  0  0  0  0  0
    8.8000   -4.1570    0.0000 H   0  0  0  0  0  0  0  0  0  0  0  0
    9.6000   -2.7713    0.0000 H   0  0  0  0  0  0  0  0  0  0  0  0
    7.2000   -4.1570    0.0000 H   0  0  0  0  0  0  0  0  0  0  0  0
    4.8000   -2.7713    0.0000 N   0  0  0  0  0  0  0  0  0  0  0  0
    3.2000   -2.7713    0.0000 C   0  0  0  0  0  0  0  0  0  0  0  0
    2.4000   -4.1569    0.0000 C   0  0  0  0  0  0  0  0  0  0  0  0
    1.6000   -5.5426    0.0000 H   0  0  0  0  0  0  0  0  0  0  0  0
    3.2000   -5.5426    0.0000 H   0  0  0  0  0  0  0  0  0  0  0  0
    0.8000   -4.1569    0.0000 H   0  0  0  0  0  0  0  0  0  0  0  0
    2.4000   -1.3856    0.0000 C   0  0  0  0  0  0  0  0  0  0  0  0
    0.8000   -1.3856    0.0000 C   0  0  0  0  0  0  0  0  0  0  0  0
   -0.4694   -2.3596    0.0000 H   0  0  0  0  0  0  0  0  0  0  0  0
    0.5912   -2.9720    0.0000 H   0  0  0  0  0  0  0  0  0  0  0  0
    0.0000    0.0000    0.0000 C   0  0  0  0  0  0  0  0  0  0  0  0
    1.2694    0.9740    0.0000 H   0  0  0  0  0  0  0  0  0  0  0  0
    0.2088    1.5863    0.0000 H   0  0  0  0  0  0  0  0  0  0  0  0
   -1.6000    0.0000    0.0000 C   0  0  0  0  0  0  0  0  0  0  0  0
   -2.8694   -0.9740    0.0000 H   0  0  0  0  0  0  0  0  0  0  0  0
   -1.8088   -1.5863    0.0000 H   0  0  0  0  0  0  0  0  0  0  0  0
   -2.4000    1.3857    0.0000 C   0  0  0  0  0  0  0  0  0  0  0  0
   -3.2000    2.7713    0.0000 H   0  0  0  0  0  0  0  0  0  0  0  0
   -4.0000    1.3857    0.0000 H   0  0  0  0  0  0  0  0  0  0  0  0
   -1.6000    2.7713    0.0000 H   0  0  0  0  0  0  0  0  0  0  0  0
    3.2000    0.0000    0.0000 C   0  0  0  0  0  0  0  0  0  0  0  0
    2.4000    1.3857    0.0000 O   0  0  0  0  0  0  0  0  0  0  0  0
    3.2000    2.7713    0.0000 H   0  0  0  0  0  0  0  0  0  0  0  0
  1  2  1  0  0  0  0
  2  3  1  0  0  0  0
  3  4  1  0  0  0  0
  4  5  1  0  0  0  0
  4  6  1  0  0  0  0
  4  7  1  0  0  0  0
  3  8  1  0  0  0  0
  8  9  1  0  0  0  0
  8 10  1  0  0  0  0
  8 11  1  0  0  0  0
  2 12  2  0  0  0  0
 12 13  1  0  0  0  0
 13 14  1  0  0  0  0
 14 15  1  0  0  0  0
 14 16  1  0  0  0  0
 14 17  1  0  0  0  0
 13 18  2  0  0  0  0
 18 19  1  0  0  0  0
 19 20  1  0  0  0  0
 19 21  1  0  0  0  0
 19 22  1  0  0  0  0
 22 23  1  0  0  0  0
 22 24  1  0  0  0  0
 22 25  1  0  0  0  0
 25 26  1  0  0  0  0
 25 27  1  0  0  0  0
 25 28  1  0  0  0  0
 28 29  1  0  0  0  0
 28 30  1  0  0  0  0
 28 31  1  0  0  0  0
 18 32  1  0  0  0  0
 32  1  2  0  0  0  0
 32 33  1  0  0  0  0
 33 34  1  0  0  0  0
M  END
> <ChemID>
100509

> <source_casrn>
5221-53-4

> <CAS>
5221-53-4

> <SMILES>
Cc1[n]c([n]c(O)c1CCCC)N(C)C

> <NAME>
Dimethirimol

> <preferred_name>
Dimethirimol

> <iupac>
5-butyl-2-(dimethylamino)-6-methylpyrimidin-4-ol

> <MPID>
99777

> <dsstox_substance_id>
DTXSID8041874

> <Canonical_QSARr>
Cc1[n]c([n]c(O)c1CCCC)N(C)C

> <InChI_Code_QSARr>
InChI=1S/C11H19N3O/c1-5-6-7-9-8(2)12-11(14(3)4)13-10(9)15/h5-7H2,1-4H3,(H,12,13,15)

> <InChI Key_QSARr>
CJHXCRMKMMBYJQ-UHFFFAOYSA-N

> <LogKOC>
1.95

$$$$
100510
  -INDIGO-08031722282D

 29 30  0  0  0  0  0  0  0  0999 V2000
    0.0000    0.0001    0.0000 C   0  0  0  0  0  0  0  0  0  0  0  0
    1.6000    0.0001    0.0000 C   0  0  0  0  0  0  0  0  0  0  0  0
    2.4000   -1.3856    0.0000 N   0  0  0  0  0  0  0  0  0  0  0  0
    1.6000   -2.7712    0.0000 H   0  0  0  0  0  0  0  0  0  0  0  0
    3.9999   -1.3856    0.0000 C   0  0  0  0  0  0  0  0  0  0  0  0
    4.7999   -2.7713    0.0000 C   0  0  0  0  0  0  0  0  0  0  0  0
    3.9999   -4.1569    0.0000 H   0  0  0  0  0  0  0  0  0  0  0  0
    6.4001   -2.7712    0.0000 C   0  0  0  0  0  0  0  0  0  0  0  0
    7.2000   -4.1569    0.0000 H   0  0  0  0  0  0  0  0  0  0  0  0
    7.2000   -1.3856    0.0000 C   0  0  0  0  0  0  0  0  0  0  0  0
    8.8000   -1.3856    0.0000 H   0  0  0  0  0  0  0  0  0  0  0  0
    6.4001    0.0001    0.0000 C   0  0  0  0  0  0  0  0  0  0  0  0
    7.2000    1.3856    0.0000 H   0  0  0  0  0  0  0  0  0  0  0  0
    4.7999    0.0001    0.0000 C   0  0  0  0  0  0  0  0  0  0  0  0
    3.9999    1.3856    0.0000 H   0  0  0  0  0  0  0  0  0  0  0  0
    2.4000    1.3856    0.0000 O   0  0  0  0  0  0  0  0  0  0  0  0
   -0.7999    1.3856    0.0000 C   0  0  0  0  0  0  0  0  0  0  0  0
    0.0000    2.7713    0.0000 C   0  0  0  0  0  0  0  0  0  0  0  0
    0.8000    4.1569    0.0000 H   0  0  0  0  0  0  0  0  0  0  0  0
   -0.7999    4.1569    0.0000 H   0  0  0  0  0  0  0  0  0  0  0  0
    1.6000    2.7713    0.0000 H   0  0  0  0  0  0  0  0  0  0  0  0
   -2.4001    1.3856    0.0000 O   0  0  0  0  0  0  0  0  0  0  0  0
   -3.2001    0.0001    0.0000 C   0  0  0  0  0  0  0  0  0  0  0  0
   -4.4257    1.0284    0.0000 H   0  0  0  0  0  0  0  0  0  0  0  0
   -4.4257   -1.0284    0.0000 H   0  0  0  0  0  0  0  0  0  0  0  0
   -2.4001   -1.3856    0.0000 C   0  0  0  0  0  0  0  0  0  0  0  0
   -3.9036   -1.9329    0.0000 H   0  0  0  0  0  0  0  0  0  0  0  0
   -2.1222   -2.9614    0.0000 H   0  0  0  0  0  0  0  0  0  0  0  0
   -0.7999   -1.3856    0.0000 S   0  0  0  0  0  0  0  0  0  0  0  0
  1  2  1  0  0  0  0
  2  3  1  0  0  0  0
  3  4  1  0  0  0  0
  3  5  1  0  0  0  0
  5  6  1  0  0  0  0
  6  7  1  0  0  0  0
  6  8  2  0  0  0  0
  8  9  1  0  0  0  0
  8 10  1  0  0  0  0
 10 11  1  0  0  0  0
 10 12  2  0  0  0  0
 12 13  1  0  0  0  0
 12 14  1  0  0  0  0
 14  5  2  0  0  0  0
 14 15  1  0  0  0  0
  2 16  2  0  0  0  0
  1 17  2  0  0  0  0
 17 18  1  0  0  0  0
 18 19  1  0  0  0  0
 18 20  1  0  0  0  0
 18 21  1  0  0  0  0
 17 22  1  0  0  0  0
 22 23  1  0  0  0  0
 23 24  1  0  0  0  0
 23 25  1  0  0  0  0
 23 26  1  0  0  0  0
 26 27  1  0  0  0  0
 26 28  1  0  0  0  0
 26 29  1  0  0  0  0
 29  1  1  0  0  0  0
M  END
> <ChemID>
100510

> <source_casrn>
5234-68-4

> <CAS>
5234-68-4

> <SMILES>
CC1OCCSC=1C(=O)Nc1ccccc1

> <NAME>
CARBOXIN

> <preferred_name>
Carboxin

> <iupac>
2-methyl-N-phenyl-5,6-dihydro-1,4-oxathiine-3-carboxamide

> <MPID>
99778

> <dsstox_substance_id>
DTXSID0023951

> <Canonical_QSARr>
CC1OCCSC=1C(=O)Nc1ccccc1

> <InChI_Code_QSARr>
InChI=1S/C12H13NO2S/c1-9-11(16-8-7-15-9)12(14)13-10-5-3-2-4-6-10/h2-6H,7-8H2,1H3,(H,13,14)

> <InChI Key_QSARr>
GYSSRZJIHXQEHQ-UHFFFAOYSA-N

> <LogKOC>
2.41

$$$$
100512
  -INDIGO-08031722282D

 18 18  0  0  0  0  0  0  0  0999 V2000
    0.0000    2.7713    0.0000 Cl  0  0  0  0  0  0  0  0  0  0  0  0
   -0.7999    1.3856    0.0000 C   0  0  0  0  0  0  0  0  0  0  0  0
    0.0000   -0.0000    0.0000 C   0  0  0  0  0  0  0  0  0  0  0  0
    1.6000   -0.0000    0.0000 O   0  0  0  0  0  0  0  0  0  0  0  0
    2.4001    1.3856    0.0000 C   0  0  0  0  0  0  0  0  0  0  0  0
    4.0000    1.3856    0.0000 H   0  0  0  0  0  0  0  0  0  0  0  0
    3.2000    2.7713    0.0000 H   0  0  0  0  0  0  0  0  0  0  0  0
    3.2000   -0.0000    0.0000 H   0  0  0  0  0  0  0  0  0  0  0  0
   -0.7999   -1.3856    0.0000 C   0  0  0  0  0  0  0  0  0  0  0  0
    0.0000   -2.7713    0.0000 H   0  0  0  0  0  0  0  0  0  0  0  0
   -2.4000   -1.3856    0.0000 C   0  0  0  0  0  0  0  0  0  0  0  0
   -3.2000   -2.7713    0.0000 H   0  0  0  0  0  0  0  0  0  0  0  0
   -3.2000   -0.0000    0.0000 C   0  0  0  0  0  0  0  0  0  0  0  0
   -4.8000   -0.0000    0.0000 N   0  0  0  0  0  0  0  0  0  0  0  0
   -5.6000   -1.3856    0.0000 H   0  0  0  0  0  0  0  0  0  0  0  0
   -5.6000    1.3856    0.0000 H   0  0  0  0  0  0  0  0  0  0  0  0
   -2.4000    1.3856    0.0000 C   0  0  0  0  0  0  0  0  0  0  0  0
   -3.2000    2.7713    0.0000 H   0  0  0  0  0  0  0  0  0  0  0  0
  1  2  1  0  0  0  0
  2  3  1  0  0  0  0
  3  4  1  0  0  0  0
  4  5  1  0  0  0  0
  5  6  1  0  0  0  0
  5  7  1  0  0  0  0
  5  8  1  0  0  0  0
  3  9  2  0  0  0  0
  9 10  1  0  0  0  0
  9 11  1  0  0  0  0
 11 12  1  0  0  0  0
 11 13  2  0  0  0  0
 13 14  1  0  0  0  0
 14 15  1  0  0  0  0
 14 16  1  0  0  0  0
 13 17  1  0  0  0  0
 17  2  2  0  0  0  0
 17 18  1  0  0  0  0
M  END
> <ChemID>
100512

> <source_casrn>
5345-54-0

> <CAS>
5345-54-0

> <SMILES>
COc1ccc(N)cc1Cl

> <NAME>
3-CHLORO-4-METHOXYANILINE

> <preferred_name>
2-Chloro-4-anisidine

> <iupac>
3-Chloro-4-methoxyaniline

> <MPID>
99780

> <dsstox_substance_id>
DTXSID00201616

> <Canonical_QSARr>
COc1ccc(N)cc1Cl

> <InChI_Code_QSARr>
InChI=1S/C7H8ClNO/c1-10-7-3-2-5(9)4-6(7)8/h2-4H,9H2,1H3

> <InChI Key_QSARr>
XQVCBOLNTSUFGD-UHFFFAOYSA-N

> <LogKOC>
1.93

$$$$
100513
  -INDIGO-08031722282D

 26 26  0  0  0  0  0  0  0  0999 V2000
   -2.7713   -0.0000    0.0000 O   0  0  0  0  0  0  0  0  0  0  0  0
   -1.3855   -0.8000    0.0000 C   0  0  0  0  0  0  0  0  0  0  0  0
   -1.9979   -2.2782    0.0000 H   0  0  0  0  0  0  0  0  0  0  0  0
   -0.7734   -2.2782    0.0000 H   0  0  0  0  0  0  0  0  0  0  0  0
    0.0000   -0.0000    0.0000 C   0  0  0  0  0  0  0  0  0  0  0  0
    0.6123    1.4782    0.0000 H   0  0  0  0  0  0  0  0  0  0  0  0
   -0.6123    1.4782    0.0000 H   0  0  0  0  0  0  0  0  0  0  0  0
    1.3855   -0.8000    0.0000 C   0  0  0  0  0  0  0  0  0  0  0  0
    2.7713   -1.6000    0.0000 H   0  0  0  0  0  0  0  0  0  0  0  0
    2.7713   -0.0000    0.0000 H   0  0  0  0  0  0  0  0  0  0  0  0
    1.3855   -2.4000    0.0000 H   0  0  0  0  0  0  0  0  0  0  0  0
   -4.1570   -0.8000    0.0000 C   0  0  0  0  0  0  0  0  0  0  0  0
   -4.1570   -2.4000    0.0000 O   0  0  0  0  0  0  0  0  0  0  0  0
   -5.5426   -0.0000    0.0000 N   0  0  0  0  0  0  0  0  0  0  0  0
   -5.5426    1.6000    0.0000 H   0  0  0  0  0  0  0  0  0  0  0  0
   -6.9283   -0.8000    0.0000 C   0  0  0  0  0  0  0  0  0  0  0  0
   -6.9283   -2.4000    0.0000 C   0  0  0  0  0  0  0  0  0  0  0  0
   -5.5426   -3.2000    0.0000 H   0  0  0  0  0  0  0  0  0  0  0  0
   -8.3138   -3.2000    0.0000 C   0  0  0  0  0  0  0  0  0  0  0  0
   -8.3138   -4.8000    0.0000 H   0  0  0  0  0  0  0  0  0  0  0  0
   -9.6996   -2.4000    0.0000 C   0  0  0  0  0  0  0  0  0  0  0  0
  -11.0851   -3.2000    0.0000 H   0  0  0  0  0  0  0  0  0  0  0  0
   -9.6996   -0.8000    0.0000 C   0  0  0  0  0  0  0  0  0  0  0  0
  -11.0851   -0.0000    0.0000 H   0  0  0  0  0  0  0  0  0  0  0  0
   -8.3138   -0.0000    0.0000 C   0  0  0  0  0  0  0  0  0  0  0  0
   -8.3138    1.6000    0.0000 H   0  0  0  0  0  0  0  0  0  0  0  0
  1  2  1  0  0  0  0
  2  3  1  0  0  0  0
  2  4  1  0  0  0  0
  2  5  1  0  0  0  0
  5  6  1  0  0  0  0
  5  7  1  0  0  0  0
  5  8  1  0  0  0  0
  8  9  1  0  0  0  0
  8 10  1  0  0  0  0
  8 11  1  0  0  0  0
  1 12  1  0  0  0  0
 12 13  2  0  0  0  0
 12 14  1  0  0  0  0
 14 15  1  0  0  0  0
 14 16  1  0  0  0  0
 16 17  1  0  0  0  0
 17 18  1  0  0  0  0
 17 19  2  0  0  0  0
 19 20  1  0  0  0  0
 19 21  1  0  0  0  0
 21 22  1  0  0  0  0
 21 23  2  0  0  0  0
 23 24  1  0  0  0  0
 23 25  1  0  0  0  0
 25 16  2  0  0  0  0
 25 26  1  0  0  0  0
M  END
> <ChemID>
100513

> <source_casrn>
5532-90-1

> <CAS>
5532-90-1

> <SMILES>
CCCOC(=O)Nc1ccccc1

> <NAME>
PROPYL N-PHENYLCARBAMATE

> <preferred_name>
Propyl N-phenylcarbamate

> <iupac>
Propyl N-phenylcarbamate

> <MPID>
99781

> <dsstox_substance_id>
DTXSID70203884

> <Canonical_QSARr>
CCCOC(=O)Nc1ccccc1

> <InChI_Code_QSARr>
InChI=1S/C10H13NO2/c1-2-8-13-10(12)11-9-6-4-3-5-7-9/h3-7H,2,8H2,1H3,(H,11,12)

> <InChI Key_QSARr>
QDZXCXBFZLLQFT-UHFFFAOYSA-N

> <LogKOC>
2.06

$$$$
100514
  -INDIGO-08031722282D

 23 23  0  0  0  0  0  0  0  0999 V2000
   -2.7712    0.0001    0.0000 C   0  0  0  0  0  0  0  0  0  0  0  0
   -1.3856    0.8000    0.0000 O   0  0  0  0  0  0  0  0  0  0  0  0
   -0.0001    0.0001    0.0000 P   0  0  0  0  0  0  0  0  0  0  0  0
   -0.0001   -1.5999    0.0000 S   0  0  0  0  0  0  0  0  0  0  0  0
    1.3856   -0.8000    0.0000 O   0  0  0  0  0  0  0  0  0  0  0  0
    2.7713    0.0001    0.0000 C   0  0  0  0  0  0  0  0  0  0  0  0
    4.1569   -0.8000    0.0000 H   0  0  0  0  0  0  0  0  0  0  0  0
    4.1569    0.8000    0.0000 H   0  0  0  0  0  0  0  0  0  0  0  0
    2.7713   -1.5999    0.0000 H   0  0  0  0  0  0  0  0  0  0  0  0
    1.3856    0.8000    0.0000 O   0  0  0  0  0  0  0  0  0  0  0  0
    1.3856    2.4000    0.0000 C   0  0  0  0  0  0  0  0  0  0  0  0
    1.3856    4.0000    0.0000 H   0  0  0  0  0  0  0  0  0  0  0  0
    2.7713    3.2001    0.0000 H   0  0  0  0  0  0  0  0  0  0  0  0
   -0.0001    3.2001    0.0000 H   0  0  0  0  0  0  0  0  0  0  0  0
   -2.7712   -1.6001    0.0000 N   0  0  0  0  0  0  0  0  0  0  0  0
   -4.1569   -2.4000    0.0000 C   0  0  0  0  0  0  0  0  0  0  0  0
   -4.1569   -4.0000    0.0000 Cl  0  0  0  0  0  0  0  0  0  0  0  0
   -5.5425   -1.5999    0.0000 C   0  0  0  0  0  0  0  0  0  0  0  0
   -6.9282   -2.4000    0.0000 Cl  0  0  0  0  0  0  0  0  0  0  0  0
   -5.5425    0.0001    0.0000 C   0  0  0  0  0  0  0  0  0  0  0  0
   -6.9282    0.8000    0.0000 H   0  0  0  0  0  0  0  0  0  0  0  0
   -4.1569    0.8000    0.0000 C   0  0  0  0  0  0  0  0  0  0  0  0
   -4.1569    2.4000    0.0000 Cl  0  0  0  0  0  0  0  0  0  0  0  0
  1  2  1  0  0  0  0
  2  3  1  0  0  0  0
  3  4  2  0  0  0  0
  3  5  1  0  0  0  0
  5  6  1  0  0  0  0
  6  7  1  0  0  0  0
  6  8  1  0  0  0  0
  6  9  1  0  0  0  0
  3 10  1  0  0  0  0
 10 11  1  0  0  0  0
 11 12  1  0  0  0  0
 11 13  1  0  0  0  0
 11 14  1  0  0  0  0
  1 15  1  0  0  0  0
 15 16  2  0  0  0  0
 16 17  1  0  0  0  0
 16 18  1  0  0  0  0
 18 19  1  0  0  0  0
 18 20  2  0  0  0  0
 20 21  1  0  0  0  0
 20 22  1  0  0  0  0
 22  1  2  0  0  0  0
 22 23  1  0  0  0  0
M  END
> <ChemID>
100514

> <source_casrn>
5598-13-0

> <CAS>
5598-13-0

> <SMILES>
COP(=S)(Oc1[n]c(Cl)c(Cl)cc1Cl)OC

> <NAME>
CHLORPYRIFOS METHYL

> <preferred_name>
Chlorpyrifos-methyl

> <iupac>
O,O-dimethyl O-(3,5,6-trichloropyridin-2-yl) phosphorothioate

> <MPID>
99782

> <dsstox_substance_id>
DTXSID6032352

> <Canonical_QSARr>
COP(=S)(Oc1[n]c(Cl)c(Cl)cc1Cl)OC

> <InChI_Code_QSARr>
InChI=1S/C7H7Cl3NO3PS/c1-12-15(16,13-2)14-7-5(9)3-4(8)6(10)11-7/h3H,1-2H3

> <InChI Key_QSARr>
HRBKVYFZANMGRE-UHFFFAOYSA-N

> <LogKOC>
3.52

$$$$
100516
  -INDIGO-08031722282D

 31 31  0  0  0  0  0  0  0  0999 V2000
   -2.7713    1.6000    0.0000 N   0  0  0  0  0  0  0  0  0  0  0  0
   -2.7713    0.0001    0.0000 C   0  0  0  0  0  0  0  0  0  0  0  0
   -1.3855   -0.8000    0.0000 N   0  0  0  0  0  0  0  0  0  0  0  0
   -1.3855   -2.4000    0.0000 H   0  0  0  0  0  0  0  0  0  0  0  0
    0.0000   -0.0001    0.0000 C   0  0  0  0  0  0  0  0  0  0  0  0
    1.3857    0.8000    0.0000 C   0  0  0  0  0  0  0  0  0  0  0  0
    2.7713    1.6000    0.0000 H   0  0  0  0  0  0  0  0  0  0  0  0
    2.7713   -0.0001    0.0000 H   0  0  0  0  0  0  0  0  0  0  0  0
    1.6636    2.3757    0.0000 H   0  0  0  0  0  0  0  0  0  0  0  0
    0.8001   -1.3856    0.0000 C   0  0  0  0  0  0  0  0  0  0  0  0
    1.5999   -2.7713    0.0000 H   0  0  0  0  0  0  0  0  0  0  0  0
    2.4000   -1.3856    0.0000 H   0  0  0  0  0  0  0  0  0  0  0  0
    0.0000   -2.7713    0.0000 H   0  0  0  0  0  0  0  0  0  0  0  0
   -0.8001    1.3856    0.0000 C   0  0  0  0  0  0  0  0  0  0  0  0
   -1.8285    2.6113    0.0000 H   0  0  0  0  0  0  0  0  0  0  0  0
   -0.2527    2.8892    0.0000 H   0  0  0  0  0  0  0  0  0  0  0  0
    0.7758    1.6635    0.0000 H   0  0  0  0  0  0  0  0  0  0  0  0
   -4.1568   -0.8000    0.0000 N   0  0  0  0  0  0  0  0  0  0  0  0
   -5.5426    0.0001    0.0000 C   0  0  0  0  0  0  0  0  0  0  0  0
   -6.9283   -0.8000    0.0000 N   0  0  0  0  0  0  0  0  0  0  0  0
   -6.9283   -2.4000    0.0000 H   0  0  0  0  0  0  0  0  0  0  0  0
   -8.3138    0.0001    0.0000 C   0  0  0  0  0  0  0  0  0  0  0  0
   -7.7015    1.4782    0.0000 H   0  0  0  0  0  0  0  0  0  0  0  0
   -8.9262    1.4782    0.0000 H   0  0  0  0  0  0  0  0  0  0  0  0
   -9.6994   -0.8000    0.0000 C   0  0  0  0  0  0  0  0  0  0  0  0
  -11.0851   -1.6000    0.0000 H   0  0  0  0  0  0  0  0  0  0  0  0
  -11.0851    0.0001    0.0000 H   0  0  0  0  0  0  0  0  0  0  0  0
   -9.6994   -2.4000    0.0000 H   0  0  0  0  0  0  0  0  0  0  0  0
   -5.5426    1.6000    0.0000 N   0  0  0  0  0  0  0  0  0  0  0  0
   -4.1568    2.4000    0.0000 C   0  0  0  0  0  0  0  0  0  0  0  0
   -4.1568    4.0000    0.0000 Cl  0  0  0  0  0  0  0  0  0  0  0  0
  1  2  1  0  0  0  0
  2  3  1  0  0  0  0
  3  4  1  0  0  0  0
  3  5  1  0  0  0  0
  5  6  1  0  0  0  0
  6  7  1  0  0  0  0
  6  8  1  0  0  0  0
  6  9  1  0  0  0  0
  5 10  1  0  0  0  0
 10 11  1  0  0  0  0
 10 12  1  0  0  0  0
 10 13  1  0  0  0  0
  5 14  1  0  0  0  0
 14 15  1  0  0  0  0
 14 16  1  0  0  0  0
 14 17  1  0  0  0  0
  2 18  2  0  0  0  0
 18 19  1  0  0  0  0
 19 20  1  0  0  0  0
 20 21  1  0  0  0  0
 20 22  1  0  0  0  0
 22 23  1  0  0  0  0
 22 24  1  0  0  0  0
 22 25  1  0  0  0  0
 25 26  1  0  0  0  0
 25 27  1  0  0  0  0
 25 28  1  0  0  0  0
 19 29  2  0  0  0  0
 29 30  1  0  0  0  0
 30  1  2  0  0  0  0
 30 31  1  0  0  0  0
M  END
> <ChemID>
100516

> <source_casrn>
5915-41-3

> <CAS>
5915-41-3

> <SMILES>
CCNc1[n]c(Cl)[n]c(NC(C)(C)C)[n]1

> <NAME>
TERBUTHYLAZINE

> <preferred_name>
Terbuthylazine

> <iupac>
N-tert-butyl-6-chloro-N'-ethyl-1,3,5-triazine-2,4-diamine

> <MPID>
99784

> <dsstox_substance_id>
DTXSID4027608

> <Canonical_QSARr>
CCNc1[n]c(Cl)[n]c(NC(C)(C)C)[n]1

> <InChI_Code_QSARr>
InChI=1S/C9H16ClN5/c1-5-11-7-12-6(10)13-8(14-7)15-9(2,3)4/h5H2,1-4H3,(H2,11,12,13,14,15)

> <InChI Key_QSARr>
FZXISNSWEXTPMF-UHFFFAOYSA-N

> <LogKOC>
2.32

$$$$
100517
  -INDIGO-08031722282D

 26 26  0  0  0  0  0  0  0  0999 V2000
    2.7714    0.0000    0.0000 N   0  0  0  0  0  0  0  0  0  0  0  0
    4.1569   -0.8001    0.0000 C   0  0  0  0  0  0  0  0  0  0  0  0
    4.1569   -2.4001    0.0000 H   0  0  0  0  0  0  0  0  0  0  0  0
    5.5425    0.0000    0.0000 N   0  0  0  0  0  0  0  0  0  0  0  0
    6.9282   -0.8001    0.0000 C   0  0  0  0  0  0  0  0  0  0  0  0
    8.3138   -1.6000    0.0000 H   0  0  0  0  0  0  0  0  0  0  0  0
    8.3138    0.0000    0.0000 H   0  0  0  0  0  0  0  0  0  0  0  0
    6.9282   -2.4001    0.0000 H   0  0  0  0  0  0  0  0  0  0  0  0
    5.5425    1.6000    0.0000 C   0  0  0  0  0  0  0  0  0  0  0  0
    5.5425    3.2000    0.0000 H   0  0  0  0  0  0  0  0  0  0  0  0
    6.9282    2.3999    0.0000 H   0  0  0  0  0  0  0  0  0  0  0  0
    4.1569    2.3999    0.0000 H   0  0  0  0  0  0  0  0  0  0  0  0
    1.3857   -0.8001    0.0000 C   0  0  0  0  0  0  0  0  0  0  0  0
    0.0000    0.0000    0.0000 C   0  0  0  0  0  0  0  0  0  0  0  0
    0.0000    1.6000    0.0000 C   0  0  0  0  0  0  0  0  0  0  0  0
    0.0000    3.2000    0.0000 H   0  0  0  0  0  0  0  0  0  0  0  0
   -1.3856    2.4001    0.0000 H   0  0  0  0  0  0  0  0  0  0  0  0
    1.3857    2.4001    0.0000 H   0  0  0  0  0  0  0  0  0  0  0  0
   -1.3856   -0.7999    0.0000 C   0  0  0  0  0  0  0  0  0  0  0  0
   -2.7713    0.0000    0.0000 H   0  0  0  0  0  0  0  0  0  0  0  0
   -1.3856   -2.4001    0.0000 C   0  0  0  0  0  0  0  0  0  0  0  0
   -2.7713   -3.2000    0.0000 Cl  0  0  0  0  0  0  0  0  0  0  0  0
    0.0000   -3.2000    0.0000 C   0  0  0  0  0  0  0  0  0  0  0  0
    0.0000   -4.8000    0.0000 H   0  0  0  0  0  0  0  0  0  0  0  0
    1.3857   -2.4001    0.0000 C   0  0  0  0  0  0  0  0  0  0  0  0
    2.7714   -3.2000    0.0000 H   0  0  0  0  0  0  0  0  0  0  0  0
  1  2  2  0  0  0  0
  2  3  1  0  0  0  0
  2  4  1  0  0  0  0
  4  5  1  0  0  0  0
  5  6  1  0  0  0  0
  5  7  1  0  0  0  0
  5  8  1  0  0  0  0
  4  9  1  0  0  0  0
  9 10  1  0  0  0  0
  9 11  1  0  0  0  0
  9 12  1  0  0  0  0
  1 13  1  0  0  0  0
 13 14  1  0  0  0  0
 14 15  1  0  0  0  0
 15 16  1  0  0  0  0
 15 17  1  0  0  0  0
 15 18  1  0  0  0  0
 14 19  2  0  0  0  0
 19 20  1  0  0  0  0
 19 21  1  0  0  0  0
 21 22  1  0  0  0  0
 21 23  2  0  0  0  0
 23 24  1  0  0  0  0
 23 25  1  0  0  0  0
 25 13  2  0  0  0  0
 25 26  1  0  0  0  0
M  END
> <ChemID>
100517

> <source_casrn>
6164-98-3

> <CAS>
6164-98-3

> <SMILES>
Cc1cc(Cl)ccc1N=CN(C)C

> <NAME>
CHLORDIMEFORM

> <preferred_name>
Chlordimeform

> <iupac>
N'-(4-chloro-2-methylphenyl)-N,N-dimethylimidoformamide

> <MPID>
99785

> <dsstox_substance_id>
DTXSID2037508

> <Canonical_QSARr>
Cc1cc(Cl)ccc1N=CN(C)C

> <InChI_Code_QSARr>
InChI=1S/C10H13ClN2/c1-8-6-9(11)4-5-10(8)12-7-13(2)3/h4-7H,1-3H3/b12-7+

> <InChI Key_QSARr>
STUSTWKEFDQFFZ-KPKJPENVSA-N

> <LogKOC>
2.91

$$$$
100518
  -INDIGO-08031722282D

 66 66  0  0  0  0  0  0  0  0999 V2000
    5.5426   -0.0000    0.0000 C   0  0  0  0  0  0  0  0  0  0  0  0
    6.9284    0.8000    0.0000 C   0  0  0  0  0  0  0  0  0  0  0  0
    6.9284    2.4001    0.0000 H   0  0  0  0  0  0  0  0  0  0  0  0
    8.3138   -0.0000    0.0000 C   0  0  0  0  0  0  0  0  0  0  0  0
    9.6993    0.8000    0.0000 H   0  0  0  0  0  0  0  0  0  0  0  0
    8.3138   -1.6000    0.0000 C   0  0  0  0  0  0  0  0  0  0  0  0
    9.6993   -2.4000    0.0000 C   0  0  0  0  0  0  0  0  0  0  0  0
    9.6993   -3.9999    0.0000 O   0  0  0  0  0  0  0  0  0  0  0  0
   11.0851   -1.6000    0.0000 O   0  0  0  0  0  0  0  0  0  0  0  0
   12.4706   -2.4000    0.0000 C   0  0  0  0  0  0  0  0  0  0  0  0
   11.8584   -3.8783    0.0000 H   0  0  0  0  0  0  0  0  0  0  0  0
   13.0832   -3.8783    0.0000 H   0  0  0  0  0  0  0  0  0  0  0  0
   13.8564   -1.6000    0.0000 C   0  0  0  0  0  0  0  0  0  0  0  0
   12.8280   -0.3743    0.0000 H   0  0  0  0  0  0  0  0  0  0  0  0
   14.8848   -0.3743    0.0000 C   0  0  0  0  0  0  0  0  0  0  0  0
   14.4037    1.1516    0.0000 H   0  0  0  0  0  0  0  0  0  0  0  0
   13.4655    0.3644    0.0000 H   0  0  0  0  0  0  0  0  0  0  0  0
   16.3885    0.1729    0.0000 C   0  0  0  0  0  0  0  0  0  0  0  0
   17.1271   -1.2462    0.0000 H   0  0  0  0  0  0  0  0  0  0  0  0
   17.9144   -0.3083    0.0000 H   0  0  0  0  0  0  0  0  0  0  0  0
   16.6662    1.7486    0.0000 C   0  0  0  0  0  0  0  0  0  0  0  0
   15.9276    3.1679    0.0000 H   0  0  0  0  0  0  0  0  0  0  0  0
   15.1404    2.2297    0.0000 H   0  0  0  0  0  0  0  0  0  0  0  0
   18.1695    2.2958    0.0000 C   0  0  0  0  0  0  0  0  0  0  0  0
   19.6732    2.8430    0.0000 H   0  0  0  0  0  0  0  0  0  0  0  0
   18.4476    3.8714    0.0000 H   0  0  0  0  0  0  0  0  0  0  0  0
   19.3955    1.2674    0.0000 H   0  0  0  0  0  0  0  0  0  0  0  0
   14.8848   -2.8257    0.0000 C   0  0  0  0  0  0  0  0  0  0  0  0
   16.4469   -3.1719    0.0000 H   0  0  0  0  0  0  0  0  0  0  0  0
   16.2341   -1.9660    0.0000 H   0  0  0  0  0  0  0  0  0  0  0  0
   14.3376   -4.3292    0.0000 C   0  0  0  0  0  0  0  0  0  0  0  0
   15.3660   -5.5548    0.0000 H   0  0  0  0  0  0  0  0  0  0  0  0
   13.7903   -5.8327    0.0000 H   0  0  0  0  0  0  0  0  0  0  0  0
   15.9132   -4.0514    0.0000 H   0  0  0  0  0  0  0  0  0  0  0  0
    6.9284   -2.4000    0.0000 C   0  0  0  0  0  0  0  0  0  0  0  0
    6.9284   -3.9999    0.0000 H   0  0  0  0  0  0  0  0  0  0  0  0
    5.5426   -1.6000    0.0000 C   0  0  0  0  0  0  0  0  0  0  0  0
    4.1571   -2.4000    0.0000 H   0  0  0  0  0  0  0  0  0  0  0  0
    4.1571    0.8000    0.0000 C   0  0  0  0  0  0  0  0  0  0  0  0
    4.1571    2.3999    0.0000 O   0  0  0  0  0  0  0  0  0  0  0  0
    2.7713   -0.0000    0.0000 O   0  0  0  0  0  0  0  0  0  0  0  0
    1.3858    0.8000    0.0000 C   0  0  0  0  0  0  0  0  0  0  0  0
    1.9980    2.2783    0.0000 H   0  0  0  0  0  0  0  0  0  0  0  0
    0.7732    2.2783    0.0000 H   0  0  0  0  0  0  0  0  0  0  0  0
   -0.0000   -0.0000    0.0000 C   0  0  0  0  0  0  0  0  0  0  0  0
    1.0284   -1.2257    0.0000 H   0  0  0  0  0  0  0  0  0  0  0  0
   -1.0284   -1.2257    0.0000 C   0  0  0  0  0  0  0  0  0  0  0  0
   -0.5473   -2.7516    0.0000 H   0  0  0  0  0  0  0  0  0  0  0  0
    0.3909   -1.9644    0.0000 H   0  0  0  0  0  0  0  0  0  0  0  0
   -2.5321   -1.7729    0.0000 C   0  0  0  0  0  0  0  0  0  0  0  0
   -3.2707   -0.3538    0.0000 H   0  0  0  0  0  0  0  0  0  0  0  0
   -4.0580   -1.2917    0.0000 H   0  0  0  0  0  0  0  0  0  0  0  0
   -2.8098   -3.3486    0.0000 C   0  0  0  0  0  0  0  0  0  0  0  0
   -2.0712   -4.7679    0.0000 H   0  0  0  0  0  0  0  0  0  0  0  0
   -1.2840   -3.8297    0.0000 H   0  0  0  0  0  0  0  0  0  0  0  0
   -4.3131   -3.8958    0.0000 C   0  0  0  0  0  0  0  0  0  0  0  0
   -5.8168   -4.4430    0.0000 H   0  0  0  0  0  0  0  0  0  0  0  0
   -4.5912   -5.4714    0.0000 H   0  0  0  0  0  0  0  0  0  0  0  0
   -5.5391   -2.8674    0.0000 H   0  0  0  0  0  0  0  0  0  0  0  0
   -1.0284    1.2257    0.0000 C   0  0  0  0  0  0  0  0  0  0  0  0
   -2.5905    1.5719    0.0000 H   0  0  0  0  0  0  0  0  0  0  0  0
   -2.3777    0.3660    0.0000 H   0  0  0  0  0  0  0  0  0  0  0  0
   -0.4812    2.7292    0.0000 C   0  0  0  0  0  0  0  0  0  0  0  0
   -1.5096    3.9548    0.0000 H   0  0  0  0  0  0  0  0  0  0  0  0
    0.0661    4.2327    0.0000 H   0  0  0  0  0  0  0  0  0  0  0  0
   -2.0568    2.4514    0.0000 H   0  0  0  0  0  0  0  0  0  0  0  0
  1  2  1  0  0  0  0
  2  3  1  0  0  0  0
  2  4  2  0  0  0  0
  4  5  1  0  0  0  0
  4  6  1  0  0  0  0
  6  7  1  0  0  0  0
  7  8  2  0  0  0  0
  7  9  1  0  0  0  0
  9 10  1  0  0  0  0
 10 11  1  0  0  0  0
 10 12  1  0  0  0  0
 10 13  1  0  0  0  0
 13 14  1  0  0  0  0
 13 15  1  0  0  0  0
 15 16  1  0  0  0  0
 15 17  1  0  0  0  0
 15 18  1  0  0  0  0
 18 19  1  0  0  0  0
 18 20  1  0  0  0  0
 18 21  1  0  0  0  0
 21 22  1  0  0  0  0
 21 23  1  0  0  0  0
 21 24  1  0  0  0  0
 24 25  1  0  0  0  0
 24 26  1  0  0  0  0
 24 27  1  0  0  0  0
 13 28  1  0  0  0  0
 28 29  1  0  0  0  0
 28 30  1  0  0  0  0
 28 31  1  0  0  0  0
 31 32  1  0  0  0  0
 31 33  1  0  0  0  0
 31 34  1  0  0  0  0
  6 35  2  0  0  0  0
 35 36  1  0  0  0  0
 35 37  1  0  0  0  0
 37  1  2  0  0  0  0
 37 38  1  0  0  0  0
  1 39  1  0  0  0  0
 39 40  2  0  0  0  0
 39 41  1  0  0  0  0
 41 42  1  0  0  0  0
 42 43  1  0  0  0  0
 42 44  1  0  0  0  0
 42 45  1  0  0  0  0
 45 46  1  0  0  0  0
 45 47  1  0  0  0  0
 47 48  1  0  0  0  0
 47 49  1  0  0  0  0
 47 50  1  0  0  0  0
 50 51  1  0  0  0  0
 50 52  1  0  0  0  0
 50 53  1  0  0  0  0
 53 54  1  0  0  0  0
 53 55  1  0  0  0  0
 53 56  1  0  0  0  0
 56 57  1  0  0  0  0
 56 58  1  0  0  0  0
 56 59  1  0  0  0  0
 45 60  1  0  0  0  0
 60 61  1  0  0  0  0
 60 62  1  0  0  0  0
 60 63  1  0  0  0  0
 63 64  1  0  0  0  0
 63 65  1  0  0  0  0
 63 66  1  0  0  0  0
M  END
> <ChemID>
100518

> <source_casrn>
6422-86-2

> <CAS>
6422-86-2

> <SMILES>
CCCCC(COC(=O)c1ccc(cc1)C(=O)OCC(CCCC)CC)CC

> <NAME>
BIS(2-ETHYLHEXYL) TEREPHTHALATE

> <preferred_name>
Bis(2-ethylhexyl) terephthalate

> <iupac>
bis(2-ethylhexyl) benzene-1,4-dicarboxylate

> <MPID>
99786

> <dsstox_substance_id>
DTXSID7027625

> <Canonical_QSARr>
CCCCC(COC(=O)c1ccc(cc1)C(=O)OCC(CCCC)CC)CC

> <InChI_Code_QSARr>
InChI=1S/C24H38O4/c1-5-9-11-19(7-3)17-27-23(25)21-13-15-22(16-14-21)24(26)28-18-20(8-4)12-10-6-2/h13-16,19-20H,5-12,17-18H2,1-4H3

> <InChI Key_QSARr>
RWPICVVBGZBXNA-UHFFFAOYSA-N

> <LogKOC>
4.16

$$$$
100520
  -INDIGO-08031722282D

 17 17  0  0  0  0  0  0  0  0999 V2000
    1.3856    2.4000    0.0000 Br  0  0  0  0  0  0  0  0  0  0  0  0
    0.0000    1.6000    0.0000 C   0  0  0  0  0  0  0  0  0  0  0  0
    0.0000    0.0000    0.0000 C   0  0  0  0  0  0  0  0  0  0  0  0
    1.3857   -0.8000    0.0000 C   0  0  0  0  0  0  0  0  0  0  0  0
    2.7713   -1.6000    0.0000 H   0  0  0  0  0  0  0  0  0  0  0  0
    2.7713    0.0000    0.0000 H   0  0  0  0  0  0  0  0  0  0  0  0
    1.3857   -2.4000    0.0000 H   0  0  0  0  0  0  0  0  0  0  0  0
   -1.3857   -0.8000    0.0000 C   0  0  0  0  0  0  0  0  0  0  0  0
   -1.3857   -2.4000    0.0000 H   0  0  0  0  0  0  0  0  0  0  0  0
   -2.7713    0.0000    0.0000 C   0  0  0  0  0  0  0  0  0  0  0  0
   -4.1570   -0.8000    0.0000 N   0  0  0  0  0  0  0  0  0  0  0  0
   -5.5426    0.0000    0.0000 H   0  0  0  0  0  0  0  0  0  0  0  0
   -4.1570   -2.4000    0.0000 H   0  0  0  0  0  0  0  0  0  0  0  0
   -2.7713    1.6000    0.0000 C   0  0  0  0  0  0  0  0  0  0  0  0
   -4.1570    2.4000    0.0000 H   0  0  0  0  0  0  0  0  0  0  0  0
   -1.3857    2.4000    0.0000 C   0  0  0  0  0  0  0  0  0  0  0  0
   -1.3856    4.0000    0.0000 H   0  0  0  0  0  0  0  0  0  0  0  0
  1  2  1  0  0  0  0
  2  3  1  0  0  0  0
  3  4  1  0  0  0  0
  4  5  1  0  0  0  0
  4  6  1  0  0  0  0
  4  7  1  0  0  0  0
  3  8  2  0  0  0  0
  8  9  1  0  0  0  0
  8 10  1  0  0  0  0
 10 11  1  0  0  0  0
 11 12  1  0  0  0  0
 11 13  1  0  0  0  0
 10 14  2  0  0  0  0
 14 15  1  0  0  0  0
 14 16  1  0  0  0  0
 16  2  2  0  0  0  0
 16 17  1  0  0  0  0
M  END
> <ChemID>
100520

> <source_casrn>
6933-10-4

> <CAS>
6933-10-4

> <SMILES>
Cc1cc(N)ccc1Br

> <NAME>
3-METHYL-4-BROMOANILINE

> <preferred_name>
4-Bromo-m-toluidine

> <iupac>
4-BROMO-3-METHYLANILINE

> <MPID>
99788

> <dsstox_substance_id>
DTXSID10219383

> <Canonical_QSARr>
Cc1cc(N)ccc1Br

> <InChI_Code_QSARr>
InChI=1S/C7H8BrN/c1-5-4-6(9)2-3-7(5)8/h2-4H,9H2,1H3

> <InChI Key_QSARr>
MMEGELSFOYDPQW-UHFFFAOYSA-N

> <LogKOC>
2.26

$$$$
100521
  -INDIGO-08031722282D

 29 30  0  0  0  0  0  0  0  0999 V2000
    4.8000   -0.0001    0.0000 C   0  0  0  0  0  0  0  0  0  0  0  0
    5.6001   -1.3857    0.0000 O   0  0  0  0  0  0  0  0  0  0  0  0
    3.2000   -0.0001    0.0000 O   0  0  0  0  0  0  0  0  0  0  0  0
    2.3999   -1.3857    0.0000 C   0  0  0  0  0  0  0  0  0  0  0  0
    0.8001   -1.3857    0.0000 C   0  0  0  0  0  0  0  0  0  0  0  0
    0.0000   -0.0001    0.0000 C   0  0  0  0  0  0  0  0  0  0  0  0
    1.4617    0.6508    0.0000 H   0  0  0  0  0  0  0  0  0  0  0  0
   -0.4945    1.5217    0.0000 O   0  0  0  0  0  0  0  0  0  0  0  0
   -2.0944    1.5217    0.0000 C   0  0  0  0  0  0  0  0  0  0  0  0
   -1.9271    3.1129    0.0000 H   0  0  0  0  0  0  0  0  0  0  0  0
   -3.6595    1.8544    0.0000 H   0  0  0  0  0  0  0  0  0  0  0  0
   -2.5889   -0.0001    0.0000 C   0  0  0  0  0  0  0  0  0  0  0  0
   -4.0505    0.6508    0.0000 H   0  0  0  0  0  0  0  0  0  0  0  0
   -3.3889   -1.3857    0.0000 H   0  0  0  0  0  0  0  0  0  0  0  0
   -1.2943   -0.9404    0.0000 O   0  0  0  0  0  0  0  0  0  0  0  0
    0.0000   -2.7712    0.0000 C   0  0  0  0  0  0  0  0  0  0  0  0
   -1.6000   -2.7712    0.0000 H   0  0  0  0  0  0  0  0  0  0  0  0
    0.8001   -4.1570    0.0000 C   0  0  0  0  0  0  0  0  0  0  0  0
    0.0000   -5.5426    0.0000 H   0  0  0  0  0  0  0  0  0  0  0  0
    2.3999   -4.1570    0.0000 C   0  0  0  0  0  0  0  0  0  0  0  0
    3.2000   -5.5426    0.0000 H   0  0  0  0  0  0  0  0  0  0  0  0
    3.2000   -2.7712    0.0000 C   0  0  0  0  0  0  0  0  0  0  0  0
    4.8000   -2.7712    0.0000 H   0  0  0  0  0  0  0  0  0  0  0  0
    5.6001    1.3857    0.0000 N   0  0  0  0  0  0  0  0  0  0  0  0
    4.8000    2.7712    0.0000 H   0  0  0  0  0  0  0  0  0  0  0  0
    7.1999    1.3857    0.0000 C   0  0  0  0  0  0  0  0  0  0  0  0
    8.8000    1.3857    0.0000 H   0  0  0  0  0  0  0  0  0  0  0  0
    8.0000    2.7712    0.0000 H   0  0  0  0  0  0  0  0  0  0  0  0
    8.0000   -0.0001    0.0000 H   0  0  0  0  0  0  0  0  0  0  0  0
  1  2  2  0  0  0  0
  1  3  1  0  0  0  0
  3  4  1  0  0  0  0
  4  5  1  0  0  0  0
  5  6  1  0  0  0  0
  6  7  1  0  0  0  0
  6  8  1  0  0  0  0
  8  9  1  0  0  0  0
  9 10  1  0  0  0  0
  9 11  1  0  0  0  0
  9 12  1  0  0  0  0
 12 13  1  0  0  0  0
 12 14  1  0  0  0  0
 12 15  1  0  0  0  0
 15  6  1  0  0  0  0
  5 16  2  0  0  0  0
 16 17  1  0  0  0  0
 16 18  1  0  0  0  0
 18 19  1  0  0  0  0
 18 20  2  0  0  0  0
 20 21  1  0  0  0  0
 20 22  1  0  0  0  0
 22  4  2  0  0  0  0
 22 23  1  0  0  0  0
  1 24  1  0  0  0  0
 24 25  1  0  0  0  0
 24 26  1  0  0  0  0
 26 27  1  0  0  0  0
 26 28  1  0  0  0  0
 26 29  1  0  0  0  0
M  END
> <ChemID>
100521

> <source_casrn>
6988-21-2

> <CAS>
6988-21-2

> <SMILES>
CNC(=O)Oc1ccccc1C1OCCO1

> <NAME>
DIOXACARB

> <preferred_name>
Dioxacarb

> <iupac>
2-(1,3-dioxolan-2-yl)phenyl methylcarbamate

> <MPID>
99789

> <dsstox_substance_id>
DTXSID2041886

> <Canonical_QSARr>
CNC(=O)Oc1ccccc1C1OCCO1

> <InChI_Code_QSARr>
InChI=1S/C11H13NO4/c1-12-11(13)16-9-5-3-2-4-8(9)10-14-6-7-15-10/h2-5,10H,6-7H2,1H3,(H,12,13)

> <InChI Key_QSARr>
SDKQRNRRDYRQKY-UHFFFAOYSA-N

> <LogKOC>
1.6

$$$$
100522
  -INDIGO-08031722282D

 22 23  0  0  0  0  0  0  0  0999 V2000
   -0.8001    1.3856    0.0000 C   0  0  0  0  0  0  0  0  0  0  0  0
   -0.0001   -0.0000    0.0000 C   0  0  0  0  0  0  0  0  0  0  0  0
    1.6001    0.0000    0.0000 C   0  0  0  0  0  0  0  0  0  0  0  0
    2.4001    1.3856    0.0000 C   0  0  0  0  0  0  0  0  0  0  0  0
    1.6001    2.7713    0.0000 H   0  0  0  0  0  0  0  0  0  0  0  0
    4.0000    1.3856    0.0000 C   0  0  0  0  0  0  0  0  0  0  0  0
    4.8000    2.7713    0.0000 H   0  0  0  0  0  0  0  0  0  0  0  0
    4.8000    0.0000    0.0000 C   0  0  0  0  0  0  0  0  0  0  0  0
    6.4000    0.0000    0.0000 Cl  0  0  0  0  0  0  0  0  0  0  0  0
    4.0000   -1.3856    0.0000 C   0  0  0  0  0  0  0  0  0  0  0  0
    4.8000   -2.7713    0.0000 H   0  0  0  0  0  0  0  0  0  0  0  0
    2.4001   -1.3856    0.0000 C   0  0  0  0  0  0  0  0  0  0  0  0
    1.6001   -2.7713    0.0000 H   0  0  0  0  0  0  0  0  0  0  0  0
   -0.8001   -1.3856    0.0000 C   0  0  0  0  0  0  0  0  0  0  0  0
   -0.0001   -2.7713    0.0000 H   0  0  0  0  0  0  0  0  0  0  0  0
   -2.4000   -1.3856    0.0000 C   0  0  0  0  0  0  0  0  0  0  0  0
   -3.2000   -2.7713    0.0000 H   0  0  0  0  0  0  0  0  0  0  0  0
   -3.2000   -0.0000    0.0000 C   0  0  0  0  0  0  0  0  0  0  0  0
   -4.8000   -0.0000    0.0000 Cl  0  0  0  0  0  0  0  0  0  0  0  0
   -2.4000    1.3856    0.0000 C   0  0  0  0  0  0  0  0  0  0  0  0
   -3.2000    2.7713    0.0000 H   0  0  0  0  0  0  0  0  0  0  0  0
   -0.0001    2.7713    0.0000 Cl  0  0  0  0  0  0  0  0  0  0  0  0
  1  2  1  0  0  0  0
  2  3  1  0  0  0  0
  3  4  1  0  0  0  0
  4  5  1  0  0  0  0
  4  6  2  0  0  0  0
  6  7  1  0  0  0  0
  6  8  1  0  0  0  0
  8  9  1  0  0  0  0
  8 10  2  0  0  0  0
 10 11  1  0  0  0  0
 10 12  1  0  0  0  0
 12  3  2  0  0  0  0
 12 13  1  0  0  0  0
  2 14  2  0  0  0  0
 14 15  1  0  0  0  0
 14 16  1  0  0  0  0
 16 17  1  0  0  0  0
 16 18  2  0  0  0  0
 18 19  1  0  0  0  0
 18 20  1  0  0  0  0
 20  1  2  0  0  0  0
 20 21  1  0  0  0  0
  1 22  1  0  0  0  0
M  END
> <ChemID>
100522

> <source_casrn>
7012-37-5

> <CAS>
7012-37-5

> <SMILES>
Clc1cc(Cl)ccc1-c1ccc(Cl)cc1

> <NAME>
2,4,4'-TRICHLOROBIPHENYL

> <preferred_name>
2,4,4'-Trichlorobiphenyl

> <iupac>
2,4,4'-trichlorobiphenyl

> <MPID>
99790

> <dsstox_substance_id>
DTXSID2038310

> <Canonical_QSARr>
Clc1cc(Cl)ccc1-c1ccc(Cl)cc1

> <InChI_Code_QSARr>
InChI=1S/C12H7Cl3/c13-9-3-1-8(2-4-9)11-6-5-10(14)7-12(11)15/h1-7H

> <InChI Key_QSARr>
BZTYNSQSZHARAZ-UHFFFAOYSA-N

> <LogKOC>
4.63

$$$$
100524
  -INDIGO-08031722282D

 18 18  0  0  0  0  0  0  0  0999 V2000
    2.7713    1.6000    0.0000 N   0  0  0  0  0  0  0  0  0  0  0  0
    2.7713    0.0000    0.0000 C   0  0  0  0  0  0  0  0  0  0  0  0
    4.1570   -0.8000    0.0000 O   0  0  0  0  0  0  0  0  0  0  0  0
    5.5426    0.0000    0.0000 C   0  0  0  0  0  0  0  0  0  0  0  0
    6.9282    0.8000    0.0000 H   0  0  0  0  0  0  0  0  0  0  0  0
    6.9282   -0.8000    0.0000 H   0  0  0  0  0  0  0  0  0  0  0  0
    5.5426    1.6000    0.0000 H   0  0  0  0  0  0  0  0  0  0  0  0
    1.3856   -0.8000    0.0000 C   0  0  0  0  0  0  0  0  0  0  0  0
    1.3856   -2.4000    0.0000 H   0  0  0  0  0  0  0  0  0  0  0  0
   -0.0000    0.0000    0.0000 C   0  0  0  0  0  0  0  0  0  0  0  0
   -1.3857   -0.8000    0.0000 C   0  0  0  0  0  0  0  0  0  0  0  0
   -2.7713   -1.6000    0.0000 Cl  0  0  0  0  0  0  0  0  0  0  0  0
   -2.7713    0.0000    0.0000 Cl  0  0  0  0  0  0  0  0  0  0  0  0
   -1.3857   -2.4000    0.0000 Cl  0  0  0  0  0  0  0  0  0  0  0  0
   -0.0000    1.6000    0.0000 C   0  0  0  0  0  0  0  0  0  0  0  0
   -1.3857    2.4000    0.0000 H   0  0  0  0  0  0  0  0  0  0  0  0
    1.3856    2.4000    0.0000 C   0  0  0  0  0  0  0  0  0  0  0  0
    1.3856    4.0000    0.0000 Cl  0  0  0  0  0  0  0  0  0  0  0  0
  1  2  1  0  0  0  0
  2  3  1  0  0  0  0
  3  4  1  0  0  0  0
  4  5  1  0  0  0  0
  4  6  1  0  0  0  0
  4  7  1  0  0  0  0
  2  8  2  0  0  0  0
  8  9  1  0  0  0  0
  8 10  1  0  0  0  0
 10 11  1  0  0  0  0
 11 12  1  0  0  0  0
 11 13  1  0  0  0  0
 11 14  1  0  0  0  0
 10 15  2  0  0  0  0
 15 16  1  0  0  0  0
 15 17  1  0  0  0  0
 17  1  2  0  0  0  0
 17 18  1  0  0  0  0
M  END
> <ChemID>
100524

> <source_casrn>
7159-34-4

> <CAS>
7159-34-4

> <SMILES>
c1c(OC)nc(Cl)cc1C(Cl)(Cl)Cl

> <NAME>
4-Picoline, 2-chloro-6-methoxy-alpha,alpha,alpha

> <preferred_name>
Pyroxychlor

> <iupac>
2-chloro-6-methoxy-4-(trichloromethyl)pyridine

> <MPID>
99792

> <dsstox_substance_id>
DTXSID1042362

> <Canonical_QSARr>
COc1cc(cc(Cl)[n]1)C(Cl)(Cl)Cl

> <InChI_Code_QSARr>
InChI=1S/C7H5Cl4NO/c1-13-6-3-4(7(9,10)11)2-5(8)12-6/h2-3H,1H3

> <InChI Key_QSARr>
RPCKKUFLSMORHB-UHFFFAOYSA-N

> <LogKOC>
3.48

$$$$
100525
  -INDIGO-08031722282D

 27 27  0  0  0  0  0  0  0  0999 V2000
   -2.4001    1.3856    0.0000 O   0  0  0  0  0  0  0  0  0  0  0  0
   -1.6001    0.0000    0.0000 C   0  0  0  0  0  0  0  0  0  0  0  0
   -2.4001   -1.3856    0.0000 N   0  0  0  0  0  0  0  0  0  0  0  0
   -1.6001   -2.7713    0.0000 H   0  0  0  0  0  0  0  0  0  0  0  0
   -4.0001   -1.3856    0.0000 C   0  0  0  0  0  0  0  0  0  0  0  0
   -4.7999    0.0000    0.0000 C   0  0  0  0  0  0  0  0  0  0  0  0
   -4.0001    1.3856    0.0000 H   0  0  0  0  0  0  0  0  0  0  0  0
   -6.3999    0.0000    0.0000 C   0  0  0  0  0  0  0  0  0  0  0  0
   -7.2000    1.3856    0.0000 H   0  0  0  0  0  0  0  0  0  0  0  0
   -7.2000   -1.3856    0.0000 C   0  0  0  0  0  0  0  0  0  0  0  0
   -8.8000   -1.3856    0.0000 C   0  0  0  0  0  0  0  0  0  0  0  0
  -10.4000   -1.3856    0.0000 H   0  0  0  0  0  0  0  0  0  0  0  0
   -9.6000   -2.7713    0.0000 H   0  0  0  0  0  0  0  0  0  0  0  0
   -9.6000    0.0000    0.0000 H   0  0  0  0  0  0  0  0  0  0  0  0
   -6.3999   -2.7713    0.0000 C   0  0  0  0  0  0  0  0  0  0  0  0
   -7.2000   -4.1569    0.0000 H   0  0  0  0  0  0  0  0  0  0  0  0
   -4.7999   -2.7713    0.0000 C   0  0  0  0  0  0  0  0  0  0  0  0
   -3.9999   -4.1569    0.0000 H   0  0  0  0  0  0  0  0  0  0  0  0
   -0.0000    0.0000    0.0000 N   0  0  0  0  0  0  0  0  0  0  0  0
    0.8000    1.3856    0.0000 C   0  0  0  0  0  0  0  0  0  0  0  0
    1.6000    2.7713    0.0000 H   0  0  0  0  0  0  0  0  0  0  0  0
    2.4000    1.3856    0.0000 H   0  0  0  0  0  0  0  0  0  0  0  0
   -0.0000    2.7713    0.0000 H   0  0  0  0  0  0  0  0  0  0  0  0
    0.8000   -1.3856    0.0000 C   0  0  0  0  0  0  0  0  0  0  0  0
    1.6000   -2.7713    0.0000 H   0  0  0  0  0  0  0  0  0  0  0  0
    2.4000   -1.3856    0.0000 H   0  0  0  0  0  0  0  0  0  0  0  0
   -0.0000   -2.7713    0.0000 H   0  0  0  0  0  0  0  0  0  0  0  0
  1  2  2  0  0  0  0
  2  3  1  0  0  0  0
  3  4  1  0  0  0  0
  3  5  1  0  0  0  0
  5  6  1  0  0  0  0
  6  7  1  0  0  0  0
  6  8  2  0  0  0  0
  8  9  1  0  0  0  0
  8 10  1  0  0  0  0
 10 11  1  0  0  0  0
 11 12  1  0  0  0  0
 11 13  1  0  0  0  0
 11 14  1  0  0  0  0
 10 15  2  0  0  0  0
 15 16  1  0  0  0  0
 15 17  1  0  0  0  0
 17  5  2  0  0  0  0
 17 18  1  0  0  0  0
  2 19  1  0  0  0  0
 19 20  1  0  0  0  0
 20 21  1  0  0  0  0
 20 22  1  0  0  0  0
 20 23  1  0  0  0  0
 19 24  1  0  0  0  0
 24 25  1  0  0  0  0
 24 26  1  0  0  0  0
 24 27  1  0  0  0  0
M  END
> <ChemID>
100525

> <source_casrn>
7160-01-2

> <CAS>
7160-01-2

> <SMILES>
Cc1ccc(cc1)NC(=O)N(C)C

> <NAME>
1,1-DIMETHYL-3-(P-TOLYL)UREA

> <preferred_name>
Urea, N,N-dimethyl-N'-(4-methylphenyl)-

> <iupac>
1,1-dimethyl-3-(4-methylphenyl)urea

> <MPID>
99793

> <dsstox_substance_id>
DTXSID60221835

> <Canonical_QSARr>
Cc1ccc(cc1)NC(=O)N(C)C

> <InChI_Code_QSARr>
InChI=1S/C10H14N2O/c1-8-4-6-9(7-5-8)11-10(13)12(2)3/h4-7H,1-3H3,(H,11,13)

> <InChI Key_QSARr>
QTERLAXNZRFFMZ-UHFFFAOYSA-N

> <LogKOC>
1.51

$$$$
100526
  -INDIGO-08031722282D

 28 28  0  0  0  0  0  0  0  0999 V2000
    1.6000    0.0000    0.0000 C   0  0  0  0  0  0  0  0  0  0  0  0
    2.4000   -1.3856    0.0000 O   0  0  0  0  0  0  0  0  0  0  0  0
    0.0000    0.0000    0.0000 N   0  0  0  0  0  0  0  0  0  0  0  0
   -0.8000   -1.3856    0.0000 C   0  0  0  0  0  0  0  0  0  0  0  0
   -1.6000   -2.7713    0.0000 H   0  0  0  0  0  0  0  0  0  0  0  0
   -2.4000   -1.3856    0.0000 H   0  0  0  0  0  0  0  0  0  0  0  0
    0.0000   -2.7713    0.0000 H   0  0  0  0  0  0  0  0  0  0  0  0
   -0.8000    1.3856    0.0000 C   0  0  0  0  0  0  0  0  0  0  0  0
   -1.6000    2.7713    0.0000 H   0  0  0  0  0  0  0  0  0  0  0  0
   -2.4000    1.3856    0.0000 H   0  0  0  0  0  0  0  0  0  0  0  0
    0.0000    2.7713    0.0000 H   0  0  0  0  0  0  0  0  0  0  0  0
    2.4000    1.3856    0.0000 N   0  0  0  0  0  0  0  0  0  0  0  0
    1.6000    2.7713    0.0000 H   0  0  0  0  0  0  0  0  0  0  0  0
    4.0000    1.3856    0.0000 C   0  0  0  0  0  0  0  0  0  0  0  0
    4.8000    2.7713    0.0000 C   0  0  0  0  0  0  0  0  0  0  0  0
    4.0000    4.1569    0.0000 H   0  0  0  0  0  0  0  0  0  0  0  0
    6.4000    2.7713    0.0000 C   0  0  0  0  0  0  0  0  0  0  0  0
    7.2000    4.1569    0.0000 H   0  0  0  0  0  0  0  0  0  0  0  0
    7.2000    1.3856    0.0000 C   0  0  0  0  0  0  0  0  0  0  0  0
    8.8000    1.3856    0.0000 O   0  0  0  0  0  0  0  0  0  0  0  0
    9.6000    2.7713    0.0000 C   0  0  0  0  0  0  0  0  0  0  0  0
   11.2000    2.7713    0.0000 H   0  0  0  0  0  0  0  0  0  0  0  0
   10.4000    4.1569    0.0000 H   0  0  0  0  0  0  0  0  0  0  0  0
   10.4000    1.3856    0.0000 H   0  0  0  0  0  0  0  0  0  0  0  0
    6.4000    0.0000    0.0000 C   0  0  0  0  0  0  0  0  0  0  0  0
    7.2000   -1.3856    0.0000 H   0  0  0  0  0  0  0  0  0  0  0  0
    4.8000    0.0000    0.0000 C   0  0  0  0  0  0  0  0  0  0  0  0
    4.0000   -1.3856    0.0000 H   0  0  0  0  0  0  0  0  0  0  0  0
  1  2  2  0  0  0  0
  1  3  1  0  0  0  0
  3  4  1  0  0  0  0
  4  5  1  0  0  0  0
  4  6  1  0  0  0  0
  4  7  1  0  0  0  0
  3  8  1  0  0  0  0
  8  9  1  0  0  0  0
  8 10  1  0  0  0  0
  8 11  1  0  0  0  0
  1 12  1  0  0  0  0
 12 13  1  0  0  0  0
 12 14  1  0  0  0  0
 14 15  1  0  0  0  0
 15 16  1  0  0  0  0
 15 17  2  0  0  0  0
 17 18  1  0  0  0  0
 17 19  1  0  0  0  0
 19 20  1  0  0  0  0
 20 21  1  0  0  0  0
 21 22  1  0  0  0  0
 21 23  1  0  0  0  0
 21 24  1  0  0  0  0
 19 25  2  0  0  0  0
 25 26  1  0  0  0  0
 25 27  1  0  0  0  0
 27 14  2  0  0  0  0
 27 28  1  0  0  0  0
M  END
> <ChemID>
100526

> <source_casrn>
7160-02-3

> <CAS>
7160-02-3

> <SMILES>
COc1ccc(NC(=O)N(C)C)cc1

> <NAME>
N'-(4-METHOXYPHENYL)-N,N-DIMETHYLUREA

> <preferred_name>


> <iupac>


> <MPID>
99794

> <dsstox_substance_id>
DTXSID00876065

> <Canonical_QSARr>
CN(C)C(=O)Nc1ccc(cc1)OC

> <InChI_Code_QSARr>
InChI=1S/C10H14N2O2/c1-12(2)10(13)11-8-4-6-9(14-3)7-5-8/h4-7H,1-3H3,(H,11,13)

> <InChI Key_QSARr>
LCLYWJDPJMDAQN-UHFFFAOYSA-N

> <LogKOC>
1.4

$$$$
100528
  -INDIGO-08031722282D

 35 35  0  0  0  0  0  0  0  0999 V2000
    0.8001    1.3857    0.0000 C   0  0  0  0  0  0  0  0  0  0  0  0
    1.5999    2.7713    0.0000 H   0  0  0  0  0  0  0  0  0  0  0  0
    2.4000    1.3857    0.0000 H   0  0  0  0  0  0  0  0  0  0  0  0
    0.0000    2.7713    0.0000 H   0  0  0  0  0  0  0  0  0  0  0  0
    0.0000   -0.0000    0.0000 C   0  0  0  0  0  0  0  0  0  0  0  0
   -0.8001   -1.3856    0.0000 H   0  0  0  0  0  0  0  0  0  0  0  0
    1.3857   -0.8000    0.0000 C   0  0  0  0  0  0  0  0  0  0  0  0
    2.7713   -1.6000    0.0000 H   0  0  0  0  0  0  0  0  0  0  0  0
    2.7713   -0.0000    0.0000 H   0  0  0  0  0  0  0  0  0  0  0  0
    1.3857   -2.4000    0.0000 H   0  0  0  0  0  0  0  0  0  0  0  0
   -1.3855    0.8000    0.0000 N   0  0  0  0  0  0  0  0  0  0  0  0
   -1.3855    2.4000    0.0000 H   0  0  0  0  0  0  0  0  0  0  0  0
   -2.7713   -0.0000    0.0000 C   0  0  0  0  0  0  0  0  0  0  0  0
   -4.1568    0.8000    0.0000 N   0  0  0  0  0  0  0  0  0  0  0  0
   -5.5426   -0.0000    0.0000 C   0  0  0  0  0  0  0  0  0  0  0  0
   -6.9281    0.8000    0.0000 N   0  0  0  0  0  0  0  0  0  0  0  0
   -6.9281    2.4000    0.0000 H   0  0  0  0  0  0  0  0  0  0  0  0
   -8.3138   -0.0000    0.0000 C   0  0  0  0  0  0  0  0  0  0  0  0
   -7.5138   -1.3856    0.0000 H   0  0  0  0  0  0  0  0  0  0  0  0
   -9.6994   -0.8000    0.0000 C   0  0  0  0  0  0  0  0  0  0  0  0
  -11.0851   -1.6000    0.0000 H   0  0  0  0  0  0  0  0  0  0  0  0
  -11.0851   -0.0000    0.0000 H   0  0  0  0  0  0  0  0  0  0  0  0
   -9.6994   -2.4000    0.0000 H   0  0  0  0  0  0  0  0  0  0  0  0
   -9.1139    1.3857    0.0000 C   0  0  0  0  0  0  0  0  0  0  0  0
   -9.9138    2.7713    0.0000 H   0  0  0  0  0  0  0  0  0  0  0  0
  -10.7138    1.3857    0.0000 H   0  0  0  0  0  0  0  0  0  0  0  0
   -8.3138    2.7713    0.0000 H   0  0  0  0  0  0  0  0  0  0  0  0
   -5.5426   -1.6000    0.0000 N   0  0  0  0  0  0  0  0  0  0  0  0
   -4.1568   -2.4000    0.0000 C   0  0  0  0  0  0  0  0  0  0  0  0
   -4.1568   -3.9999    0.0000 S   0  0  0  0  0  0  0  0  0  0  0  0
   -5.5426   -4.8000    0.0000 C   0  0  0  0  0  0  0  0  0  0  0  0
   -5.5426   -6.4000    0.0000 H   0  0  0  0  0  0  0  0  0  0  0  0
   -6.9281   -5.5999    0.0000 H   0  0  0  0  0  0  0  0  0  0  0  0
   -4.1570   -5.5999    0.0000 H   0  0  0  0  0  0  0  0  0  0  0  0
   -2.7713   -1.6000    0.0000 N   0  0  0  0  0  0  0  0  0  0  0  0
  1  2  1  0  0  0  0
  1  3  1  0  0  0  0
  1  4  1  0  0  0  0
  1  5  1  0  0  0  0
  5  6  1  0  0  0  0
  5  7  1  0  0  0  0
  7  8  1  0  0  0  0
  7  9  1  0  0  0  0
  7 10  1  0  0  0  0
  5 11  1  0  0  0  0
 11 12  1  0  0  0  0
 11 13  1  0  0  0  0
 13 14  1  0  0  0  0
 14 15  2  0  0  0  0
 15 16  1  0  0  0  0
 16 17  1  0  0  0  0
 16 18  1  0  0  0  0
 18 19  1  0  0  0  0
 18 20  1  0  0  0  0
 20 21  1  0  0  0  0
 20 22  1  0  0  0  0
 20 23  1  0  0  0  0
 18 24  1  0  0  0  0
 24 25  1  0  0  0  0
 24 26  1  0  0  0  0
 24 27  1  0  0  0  0
 15 28  1  0  0  0  0
 28 29  2  0  0  0  0
 29 30  1  0  0  0  0
 30 31  1  0  0  0  0
 31 32  1  0  0  0  0
 31 33  1  0  0  0  0
 31 34  1  0  0  0  0
 29 35  1  0  0  0  0
 35 13  2  0  0  0  0
M  END
> <ChemID>
100528

> <source_casrn>
7287-19-6

> <CAS>
7287-19-6

> <SMILES>
CSc1[n]c(NC(C)C)[n]c(NC(C)C)[n]1

> <NAME>
PROMETRYNE

> <preferred_name>
Prometryn

> <iupac>
6-(methylsulfanyl)-N,N'-di(propan-2-yl)-1,3,5-triazine-2,4-diamine

> <MPID>
99796

> <dsstox_substance_id>
DTXSID4024272

> <Canonical_QSARr>
CSc1[n]c(NC(C)C)[n]c(NC(C)C)[n]1

> <InChI_Code_QSARr>
InChI=1S/C10H19N5S/c1-6(2)11-8-13-9(12-7(3)4)15-10(14-8)16-5/h6-7H,1-5H3,(H2,11,12,13,14,15)

> <InChI Key_QSARr>
AAEVYOVXGOFMJO-UHFFFAOYSA-N

> <LogKOC>
2.85

$$$$
100529
  -INDIGO-08031722282D

 40 40  0  0  0  0  0  0  0  0999 V2000
   -7.1027   -2.4970    0.0000 P   0  0  0  0  0  0  0  0  0  0  0  0
   -5.5271   -2.2192    0.0000 O   0  0  0  0  0  0  0  0  0  0  0  0
   -4.4986   -3.4448    0.0000 C   0  0  0  0  0  0  0  0  0  0  0  0
   -2.9230   -3.1670    0.0000 C   0  0  0  0  0  0  0  0  0  0  0  0
   -1.8946   -4.3926    0.0000 H   0  0  0  0  0  0  0  0  0  0  0  0
   -2.3757   -1.6634    0.0000 C   0  0  0  0  0  0  0  0  0  0  0  0
   -0.8001   -1.3857    0.0000 O   0  0  0  0  0  0  0  0  0  0  0  0
   -0.0001    0.0000    0.0000 C   0  0  0  0  0  0  0  0  0  0  0  0
    0.7999    1.3856    0.0000 H   0  0  0  0  0  0  0  0  0  0  0  0
    1.3858   -0.8000    0.0000 C   0  0  0  0  0  0  0  0  0  0  0  0
    1.3858   -2.4000    0.0000 C   0  0  0  0  0  0  0  0  0  0  0  0
   -0.0001   -3.2001    0.0000 H   0  0  0  0  0  0  0  0  0  0  0  0
    2.7714   -3.2001    0.0000 C   0  0  0  0  0  0  0  0  0  0  0  0
    2.7714   -4.8000    0.0000 H   0  0  0  0  0  0  0  0  0  0  0  0
    4.1570   -2.4000    0.0000 C   0  0  0  0  0  0  0  0  0  0  0  0
    5.5426   -3.2001    0.0000 H   0  0  0  0  0  0  0  0  0  0  0  0
    4.1570   -0.8000    0.0000 C   0  0  0  0  0  0  0  0  0  0  0  0
    5.5426    0.0000    0.0000 H   0  0  0  0  0  0  0  0  0  0  0  0
    2.7714    0.0000    0.0000 C   0  0  0  0  0  0  0  0  0  0  0  0
    2.7714    1.6000    0.0000 H   0  0  0  0  0  0  0  0  0  0  0  0
   -1.2258    1.0284    0.0000 C   0  0  0  0  0  0  0  0  0  0  0  0
   -2.4514    2.0569    0.0000 H   0  0  0  0  0  0  0  0  0  0  0  0
   -0.9477    2.6042    0.0000 H   0  0  0  0  0  0  0  0  0  0  0  0
   -2.7292    0.4812    0.0000 H   0  0  0  0  0  0  0  0  0  0  0  0
   -3.4042   -0.4379    0.0000 O   0  0  0  0  0  0  0  0  0  0  0  0
   -5.0457   -4.9484    0.0000 C   0  0  0  0  0  0  0  0  0  0  0  0
   -5.5931   -6.4518    0.0000 H   0  0  0  0  0  0  0  0  0  0  0  0
   -6.6216   -5.2261    0.0000 H   0  0  0  0  0  0  0  0  0  0  0  0
   -4.0175   -6.1739    0.0000 H   0  0  0  0  0  0  0  0  0  0  0  0
   -7.6501   -4.0006    0.0000 O   0  0  0  0  0  0  0  0  0  0  0  0
   -8.6785   -2.7749    0.0000 O   0  0  0  0  0  0  0  0  0  0  0  0
   -9.7070   -1.5492    0.0000 C   0  0  0  0  0  0  0  0  0  0  0  0
  -11.2826   -1.8270    0.0000 H   0  0  0  0  0  0  0  0  0  0  0  0
  -10.7355   -0.3234    0.0000 H   0  0  0  0  0  0  0  0  0  0  0  0
  -10.2541   -3.0526    0.0000 H   0  0  0  0  0  0  0  0  0  0  0  0
   -8.1312   -1.2713    0.0000 O   0  0  0  0  0  0  0  0  0  0  0  0
   -7.5841    0.2322    0.0000 C   0  0  0  0  0  0  0  0  0  0  0  0
   -7.0367    1.7357    0.0000 H   0  0  0  0  0  0  0  0  0  0  0  0
   -8.6126    1.4579    0.0000 H   0  0  0  0  0  0  0  0  0  0  0  0
   -6.0082    0.5101    0.0000 H   0  0  0  0  0  0  0  0  0  0  0  0
  1  2  1  0  0  0  0
  2  3  1  0  0  0  0
  3  4  2  0  0  0  0
  4  5  1  0  0  0  0
  4  6  1  0  0  0  0
  6  7  1  0  0  0  0
  7  8  1  0  0  0  0
  8  9  1  0  0  0  0
  8 10  1  0  0  0  0
 10 11  1  0  0  0  0
 11 12  1  0  0  0  0
 11 13  2  0  0  0  0
 13 14  1  0  0  0  0
 13 15  1  0  0  0  0
 15 16  1  0  0  0  0
 15 17  2  0  0  0  0
 17 18  1  0  0  0  0
 17 19  1  0  0  0  0
 19 10  2  0  0  0  0
 19 20  1  0  0  0  0
  8 21  1  0  0  0  0
 21 22  1  0  0  0  0
 21 23  1  0  0  0  0
 21 24  1  0  0  0  0
  6 25  2  0  0  0  0
  3 26  1  0  0  0  0
 26 27  1  0  0  0  0
 26 28  1  0  0  0  0
 26 29  1  0  0  0  0
  1 30  2  0  0  0  0
  1 31  1  0  0  0  0
 31 32  1  0  0  0  0
 32 33  1  0  0  0  0
 32 34  1  0  0  0  0
 32 35  1  0  0  0  0
  1 36  1  0  0  0  0
 36 37  1  0  0  0  0
 37 38  1  0  0  0  0
 37 39  1  0  0  0  0
 37 40  1  0  0  0  0
M  END
> <ChemID>
100529

> <source_casrn>
7700-17-6

> <CAS>
7700-17-6

> <SMILES>
C/C(=C\C(=O)OC(C)c1ccccc1)/OP(=O)(OC)OC

> <NAME>
CROTOXYPHOS

> <preferred_name>
Crotoxyphos

> <iupac>
1-phenylethyl (2E)-3-[(dimethoxyphosphoryl)oxy]but-2-enoate

> <MPID>
99797

> <dsstox_substance_id>
DTXSID6037514

> <Canonical_QSARr>
CC(=CC(=O)OC(C)c1ccccc1)OP(=O)(OC)OC

> <InChI_Code_QSARr>
InChI=1S/C14H19O6P/c1-11(20-21(16,17-3)18-4)10-14(15)19-12(2)13-8-6-5-7-9-13/h5-10,12H,1-4H3/b11-10-

> <InChI Key_QSARr>
XXXSILNSXNPGKG-KHPPLWFESA-N

> <LogKOC>
2.0

$$$$
100537
  -INDIGO-08031722282D

 51 53  0  0  0  0  0  0  0  0999 V2000
    1.3857    0.8001    0.0000 C   0  0  0  0  0  0  0  0  0  0  0  0
    2.4141   -0.4256    0.0000 H   0  0  0  0  0  0  0  0  0  0  0  0
   -0.0001    0.0000    0.0000 C   0  0  0  0  0  0  0  0  0  0  0  0
    0.5473   -1.5035    0.0000 C   0  0  0  0  0  0  0  0  0  0  0  0
    1.0944   -3.0070    0.0000 H   0  0  0  0  0  0  0  0  0  0  0  0
   -0.4811   -2.7292    0.0000 H   0  0  0  0  0  0  0  0  0  0  0  0
    2.1228   -1.7814    0.0000 H   0  0  0  0  0  0  0  0  0  0  0  0
   -1.5756   -0.2779    0.0000 C   0  0  0  0  0  0  0  0  0  0  0  0
   -3.1514   -0.5557    0.0000 H   0  0  0  0  0  0  0  0  0  0  0  0
   -2.1230   -1.7814    0.0000 H   0  0  0  0  0  0  0  0  0  0  0  0
   -2.6041    0.9478    0.0000 H   0  0  0  0  0  0  0  0  0  0  0  0
   -0.0001    1.6000    0.0000 C   0  0  0  0  0  0  0  0  0  0  0  0
   -1.5756    1.8778    0.0000 H   0  0  0  0  0  0  0  0  0  0  0  0
    0.8001    2.9856    0.0000 C   0  0  0  0  0  0  0  0  0  0  0  0
    1.6554    3.4214    0.0000 H   0  0  0  0  0  0  0  0  0  0  0  0
   -0.0001    4.3713    0.0000 C   0  0  0  0  0  0  0  0  0  0  0  0
    0.8001    5.7569    0.0000 C   0  0  0  0  0  0  0  0  0  0  0  0
    1.6000    7.1426    0.0000 H   0  0  0  0  0  0  0  0  0  0  0  0
   -0.0001    7.1426    0.0000 H   0  0  0  0  0  0  0  0  0  0  0  0
    2.3999    5.7569    0.0000 H   0  0  0  0  0  0  0  0  0  0  0  0
   -1.5999    4.3713    0.0000 C   0  0  0  0  0  0  0  0  0  0  0  0
   -2.4001    5.7569    0.0000 H   0  0  0  0  0  0  0  0  0  0  0  0
   -3.2000    4.3713    0.0000 H   0  0  0  0  0  0  0  0  0  0  0  0
   -0.8000    5.7569    0.0000 H   0  0  0  0  0  0  0  0  0  0  0  0
    2.4141    2.0257    0.0000 C   0  0  0  0  0  0  0  0  0  0  0  0
    2.3999    2.9856    0.0000 O   0  0  0  0  0  0  0  0  0  0  0  0
    3.9897    1.7479    0.0000 O   0  0  0  0  0  0  0  0  0  0  0  0
    5.0181    2.9735    0.0000 C   0  0  0  0  0  0  0  0  0  0  0  0
    5.0880    4.5720    0.0000 H   0  0  0  0  0  0  0  0  0  0  0  0
    3.9373    4.1532    0.0000 H   0  0  0  0  0  0  0  0  0  0  0  0
    6.5940    2.6957    0.0000 C   0  0  0  0  0  0  0  0  0  0  0  0
    7.7450    3.8071    0.0000 C   0  0  0  0  0  0  0  0  0  0  0  0
    7.5223    5.3916    0.0000 H   0  0  0  0  0  0  0  0  0  0  0  0
    9.1577    3.0559    0.0000 O   0  0  0  0  0  0  0  0  0  0  0  0
    8.8797    1.4803    0.0000 C   0  0  0  0  0  0  0  0  0  0  0  0
    9.9913    0.3292    0.0000 C   0  0  0  0  0  0  0  0  0  0  0  0
    8.9952   -0.9229    0.0000 H   0  0  0  0  0  0  0  0  0  0  0  0
   10.1722   -1.2604    0.0000 H   0  0  0  0  0  0  0  0  0  0  0  0
   11.5438    0.7164    0.0000 C   0  0  0  0  0  0  0  0  0  0  0  0
   11.9846    2.2545    0.0000 C   0  0  0  0  0  0  0  0  0  0  0  0
   10.8732    3.4053    0.0000 H   0  0  0  0  0  0  0  0  0  0  0  0
   13.5373    2.6415    0.0000 C   0  0  0  0  0  0  0  0  0  0  0  0
   13.9781    4.1795    0.0000 H   0  0  0  0  0  0  0  0  0  0  0  0
   14.6487    1.4905    0.0000 C   0  0  0  0  0  0  0  0  0  0  0  0
   16.2011    1.8777    0.0000 H   0  0  0  0  0  0  0  0  0  0  0  0
   14.2076   -0.0474    0.0000 C   0  0  0  0  0  0  0  0  0  0  0  0
   15.3192   -1.1984    0.0000 H   0  0  0  0  0  0  0  0  0  0  0  0
   12.6551   -0.4346    0.0000 C   0  0  0  0  0  0  0  0  0  0  0  0
   12.2140   -1.9726    0.0000 H   0  0  0  0  0  0  0  0  0  0  0  0
    7.2953    1.2576    0.0000 C   0  0  0  0  0  0  0  0  0  0  0  0
    6.5442   -0.1552    0.0000 H   0  0  0  0  0  0  0  0  0  0  0  0
  1  2  1  0  0  0  0
  1  3  1  0  0  0  0
  3  4  1  0  0  0  0
  4  5  1  0  0  0  0
  4  6  1  0  0  0  0
  4  7  1  0  0  0  0
  3  8  1  0  0  0  0
  8  9  1  0  0  0  0
  8 10  1  0  0  0  0
  8 11  1  0  0  0  0
  3 12  1  0  0  0  0
 12  1  1  0  0  0  0
 12 13  1  0  0  0  0
 12 14  1  0  0  0  0
 14 15  1  0  0  0  0
 14 16  2  0  0  0  0
 16 17  1  0  0  0  0
 17 18  1  0  0  0  0
 17 19  1  0  0  0  0
 17 20  1  0  0  0  0
 16 21  1  0  0  0  0
 21 22  1  0  0  0  0
 21 23  1  0  0  0  0
 21 24  1  0  0  0  0
  1 25  1  0  0  0  0
 25 26  2  0  0  0  0
 25 27  1  0  0  0  0
 27 28  1  0  0  0  0
 28 29  1  0  0  0  0
 28 30  1  0  0  0  0
 28 31  1  0  0  0  0
 31 32  2  0  0  0  0
 32 33  1  0  0  0  0
 32 34  1  0  0  0  0
 34 35  1  0  0  0  0
 35 36  1  0  0  0  0
 36 37  1  0  0  0  0
 36 38  1  0  0  0  0
 36 39  1  0  0  0  0
 39 40  1  0  0  0  0
 40 41  1  0  0  0  0
 40 42  2  0  0  0  0
 42 43  1  0  0  0  0
 42 44  1  0  0  0  0
 44 45  1  0  0  0  0
 44 46  2  0  0  0  0
 46 47  1  0  0  0  0
 46 48  1  0  0  0  0
 48 39  2  0  0  0  0
 48 49  1  0  0  0  0
 35 50  2  0  0  0  0
 50 31  1  0  0  0  0
 50 51  1  0  0  0  0
M  END
> <ChemID>
100537

> <source_casrn>
10453-86-8

> <CAS>
10453-86-8

> <SMILES>
CC(C)=CC1C(C(=O)OCc2coc(Cc3ccccc3)c2)C1(C)C

> <NAME>
RESMETHRIN

> <preferred_name>
Resmethrin

> <iupac>
C22H26O3

> <MPID>
99800

> <dsstox_substance_id>
DTXSID7022253

> <Canonical_QSARr>
CC(C)=CC1C(C(=O)OCc2coc(Cc3ccccc3)c2)C1(C)C

> <InChI_Code_QSARr>
InChI=1S/C22H26O3/c1-15(2)10-19-20(22(19,3)4)21(23)25-14-17-12-18(24-13-17)11-16-8-6-5-7-9-16/h5-10,12-13,19-20H,11,14H2,1-4H3

> <InChI Key_QSARr>
VEMKTZHHVJILDY-UHFFFAOYSA-N

> <LogKOC>
5.0

$$$$
100538
  -INDIGO-08031722282D

 37 36  0  0  0  0  0  0  0  0999 V2000
    7.2061    2.1810    0.0000 C   0  0  0  0  0  0  0  0  0  0  0  0
    8.4319    3.2094    0.0000 H   0  0  0  0  0  0  0  0  0  0  0  0
    6.9284    3.7567    0.0000 H   0  0  0  0  0  0  0  0  0  0  0  0
    8.7096    1.6337    0.0000 H   0  0  0  0  0  0  0  0  0  0  0  0
    5.9805    1.1525    0.0000 C   0  0  0  0  0  0  0  0  0  0  0  0
    4.8010    2.2334    0.0000 H   0  0  0  0  0  0  0  0  0  0  0  0
    4.3820    1.0827    0.0000 H   0  0  0  0  0  0  0  0  0  0  0  0
    6.2584   -0.4232    0.0000 O   0  0  0  0  0  0  0  0  0  0  0  0
    5.0328   -1.4516    0.0000 P   0  0  0  0  0  0  0  0  0  0  0  0
    5.3105   -3.0273    0.0000 S   0  0  0  0  0  0  0  0  0  0  0  0
    6.5363   -1.9989    0.0000 O   0  0  0  0  0  0  0  0  0  0  0  0
    7.7619   -0.9704    0.0000 C   0  0  0  0  0  0  0  0  0  0  0  0
    8.1082    0.5917    0.0000 H   0  0  0  0  0  0  0  0  0  0  0  0
    6.9022    0.3790    0.0000 H   0  0  0  0  0  0  0  0  0  0  0  0
    9.2654   -1.5177    0.0000 C   0  0  0  0  0  0  0  0  0  0  0  0
   10.7689   -2.0649    0.0000 H   0  0  0  0  0  0  0  0  0  0  0  0
   10.4910   -0.4892    0.0000 H   0  0  0  0  0  0  0  0  0  0  0  0
    9.5433   -3.0934    0.0000 H   0  0  0  0  0  0  0  0  0  0  0  0
    3.5293   -0.9045    0.0000 S   0  0  0  0  0  0  0  0  0  0  0  0
    2.3035   -1.9329    0.0000 C   0  0  0  0  0  0  0  0  0  0  0  0
    1.9572   -3.4949    0.0000 H   0  0  0  0  0  0  0  0  0  0  0  0
    3.1632   -3.2823    0.0000 H   0  0  0  0  0  0  0  0  0  0  0  0
    0.8000   -1.3857    0.0000 S   0  0  0  0  0  0  0  0  0  0  0  0
   -0.0000    0.0000    0.0000 C   0  0  0  0  0  0  0  0  0  0  0  0
   -0.8000    1.3856    0.0000 C   0  0  0  0  0  0  0  0  0  0  0  0
   -1.6000    2.7713    0.0000 H   0  0  0  0  0  0  0  0  0  0  0  0
   -2.4000    1.3856    0.0000 H   0  0  0  0  0  0  0  0  0  0  0  0
   -0.0000    2.7713    0.0000 H   0  0  0  0  0  0  0  0  0  0  0  0
    1.3857    0.8000    0.0000 C   0  0  0  0  0  0  0  0  0  0  0  0
    2.7712    1.6000    0.0000 H   0  0  0  0  0  0  0  0  0  0  0  0
    2.7712    0.0000    0.0000 H   0  0  0  0  0  0  0  0  0  0  0  0
    1.3857    2.3999    0.0000 H   0  0  0  0  0  0  0  0  0  0  0  0
   -1.3856   -0.8000    0.0000 C   0  0  0  0  0  0  0  0  0  0  0  0
   -2.7713   -1.6000    0.0000 H   0  0  0  0  0  0  0  0  0  0  0  0
   -1.3856   -2.4000    0.0000 H   0  0  0  0  0  0  0  0  0  0  0  0
   -2.7713    0.0000    0.0000 H   0  0  0  0  0  0  0  0  0  0  0  0
   -0.0000   -2.7713    0.0000 O   0  0  0  0  0  0  0  0  0  0  0  0
  1  2  1  0  0  0  0
  1  3  1  0  0  0  0
  1  4  1  0  0  0  0
  1  5  1  0  0  0  0
  5  6  1  0  0  0  0
  5  7  1  0  0  0  0
  5  8  1  0  0  0  0
  8  9  1  0  0  0  0
  9 10  2  0  0  0  0
  9 11  1  0  0  0  0
 11 12  1  0  0  0  0
 12 13  1  0  0  0  0
 12 14  1  0  0  0  0
 12 15  1  0  0  0  0
 15 16  1  0  0  0  0
 15 17  1  0  0  0  0
 15 18  1  0  0  0  0
  9 19  1  0  0  0  0
 19 20  1  0  0  0  0
 20 21  1  0  0  0  0
 20 22  1  0  0  0  0
 20 23  1  0  0  0  0
 23 24  1  0  0  0  0
 24 25  1  0  0  0  0
 25 26  1  0  0  0  0
 25 27  1  0  0  0  0
 25 28  1  0  0  0  0
 24 29  1  0  0  0  0
 29 30  1  0  0  0  0
 29 31  1  0  0  0  0
 29 32  1  0  0  0  0
 24 33  1  0  0  0  0
 33 34  1  0  0  0  0
 33 35  1  0  0  0  0
 33 36  1  0  0  0  0
 23 37  2  0  0  0  0
M  END
> <ChemID>
100538

> <source_casrn>
10548-10-4

> <CAS>
10548-10-4

> <SMILES>
CCOP(=S)(OCC)SCS(=O)C(C)(C)C

> <NAME>
TERBUFOS SULFOXIDE

> <preferred_name>
Terbufos sulfoxide

> <iupac>
S-[(tert-butylsulfinyl)methyl] O,O-diethyl phosphorodithioate

> <MPID>
99801

> <dsstox_substance_id>
DTXSID6042444

> <Canonical_QSARr>
CC(C)(C)S(=O)CSP(=S)(OCC)OCC

> <InChI_Code_QSARr>
InChI=1S/C9H21O3PS3/c1-6-11-13(14,12-7-2)15-8-16(10)9(3,4)5/h6-8H2,1-5H3

> <InChI Key_QSARr>
KKOYBOFPUBHPFO-UHFFFAOYSA-N

> <LogKOC>
2.18

$$$$
100539
  -INDIGO-08031722282D

 23 24  0  0  0  0  0  0  0  0999 V2000
   -3.9179    1.3383    0.0000 N   0  0  0  0  0  0  0  0  0  0  0  0
   -3.9179    2.9383    0.0000 H   0  0  0  0  0  0  0  0  0  0  0  0
   -5.3035    0.5382    0.0000 C   0  0  0  0  0  0  0  0  0  0  0  0
   -5.3035   -1.0617    0.0000 O   0  0  0  0  0  0  0  0  0  0  0  0
   -6.6891    1.3383    0.0000 O   0  0  0  0  0  0  0  0  0  0  0  0
   -8.0749    0.5382    0.0000 C   0  0  0  0  0  0  0  0  0  0  0  0
   -9.4605   -0.2617    0.0000 H   0  0  0  0  0  0  0  0  0  0  0  0
   -9.4605    1.3383    0.0000 H   0  0  0  0  0  0  0  0  0  0  0  0
   -8.0749   -1.0617    0.0000 H   0  0  0  0  0  0  0  0  0  0  0  0
   -2.5323    0.5382    0.0000 C   0  0  0  0  0  0  0  0  0  0  0  0
   -2.3649   -1.0530    0.0000 N   0  0  0  0  0  0  0  0  0  0  0  0
   -0.8001   -1.3857    0.0000 C   0  0  0  0  0  0  0  0  0  0  0  0
   -0.0000    0.0000    0.0000 C   0  0  0  0  0  0  0  0  0  0  0  0
    1.6000    0.0000    0.0000 C   0  0  0  0  0  0  0  0  0  0  0  0
    2.4000    1.3856    0.0000 H   0  0  0  0  0  0  0  0  0  0  0  0
    2.4000   -1.3857    0.0000 C   0  0  0  0  0  0  0  0  0  0  0  0
    4.0000   -1.3857    0.0000 H   0  0  0  0  0  0  0  0  0  0  0  0
    1.6000   -2.7712    0.0000 C   0  0  0  0  0  0  0  0  0  0  0  0
    2.4000   -4.1569    0.0000 H   0  0  0  0  0  0  0  0  0  0  0  0
   -0.0000   -2.7712    0.0000 C   0  0  0  0  0  0  0  0  0  0  0  0
   -0.8001   -4.1569    0.0000 H   0  0  0  0  0  0  0  0  0  0  0  0
   -1.0706    1.1890    0.0000 N   0  0  0  0  0  0  0  0  0  0  0  0
   -0.7380    2.7541    0.0000 H   0  0  0  0  0  0  0  0  0  0  0  0
  1  2  1  0  0  0  0
  1  3  1  0  0  0  0
  3  4  2  0  0  0  0
  3  5  1  0  0  0  0
  5  6  1  0  0  0  0
  6  7  1  0  0  0  0
  6  8  1  0  0  0  0
  6  9  1  0  0  0  0
  1 10  1  0  0  0  0
 10 11  2  0  0  0  0
 11 12  1  0  0  0  0
 12 13  1  0  0  0  0
 13 14  2  0  0  0  0
 14 15  1  0  0  0  0
 14 16  1  0  0  0  0
 16 17  1  0  0  0  0
 16 18  2  0  0  0  0
 18 19  1  0  0  0  0
 18 20  1  0  0  0  0
 20 12  2  0  0  0  0
 20 21  1  0  0  0  0
 13 22  1  0  0  0  0
 22 10  1  0  0  0  0
 22 23  1  0  0  0  0
M  END
> <ChemID>
100539

> <source_casrn>
10605-21-7

> <CAS>
10605-21-7

> <SMILES>
COC(=O)Nc1[nH]c2ccccc2[n]1

> <NAME>
CARBENDAZIM

> <preferred_name>
Carbendazim

> <iupac>
methyl 1H-benzimidazol-2-ylcarbamate

> <MPID>
99802

> <dsstox_substance_id>
DTXSID4024729

> <Canonical_QSARr>
COC(=O)Nc1[nH]c2ccccc2[n]1

> <InChI_Code_QSARr>
InChI=1S/C9H9N3O2/c1-14-9(13)12-8-10-6-4-2-3-5-7(6)11-8/h2-5H,1H3,(H2,10,11,12,13)

> <InChI Key_QSARr>
TWFZGCMQGLPBSX-UHFFFAOYSA-N

> <LogKOC>
2.35

$$$$
100540
  -INDIGO-08031722282D

 18 17  0  0  0  0  0  0  0  0999 V2000
    4.1569   -0.8000    0.0000 S   0  0  0  0  0  0  0  0  0  0  0  0
    5.5426    0.0000    0.0000 H   0  0  0  0  0  0  0  0  0  0  0  0
    2.7713    0.0000    0.0000 C   0  0  0  0  0  0  0  0  0  0  0  0
    2.7713    1.6000    0.0000 S   0  0  0  0  0  0  0  0  0  0  0  0
    1.3856   -0.8000    0.0000 N   0  0  0  0  0  0  0  0  0  0  0  0
    1.3856   -2.4000    0.0000 H   0  0  0  0  0  0  0  0  0  0  0  0
   -0.0001    0.0000    0.0000 C   0  0  0  0  0  0  0  0  0  0  0  0
    0.6123    1.4782    0.0000 H   0  0  0  0  0  0  0  0  0  0  0  0
   -0.6122    1.4782    0.0000 H   0  0  0  0  0  0  0  0  0  0  0  0
   -1.3856   -0.8000    0.0000 C   0  0  0  0  0  0  0  0  0  0  0  0
   -1.9979   -2.2782    0.0000 H   0  0  0  0  0  0  0  0  0  0  0  0
   -0.7734   -2.2782    0.0000 H   0  0  0  0  0  0  0  0  0  0  0  0
   -2.7713    0.0000    0.0000 N   0  0  0  0  0  0  0  0  0  0  0  0
   -2.7713    1.6000    0.0000 H   0  0  0  0  0  0  0  0  0  0  0  0
   -4.1570   -0.8000    0.0000 C   0  0  0  0  0  0  0  0  0  0  0  0
   -5.5425    0.0000    0.0000 S   0  0  0  0  0  0  0  0  0  0  0  0
   -6.9282   -0.8000    0.0000 H   0  0  0  0  0  0  0  0  0  0  0  0
   -4.1570   -2.4000    0.0000 S   0  0  0  0  0  0  0  0  0  0  0  0
  1  2  1  0  0  0  0
  1  3  1  0  0  0  0
  3  4  2  0  0  0  0
  3  5  1  0  0  0  0
  5  6  1  0  0  0  0
  5  7  1  0  0  0  0
  7  8  1  0  0  0  0
  7  9  1  0  0  0  0
  7 10  1  0  0  0  0
 10 11  1  0  0  0  0
 10 12  1  0  0  0  0
 10 13  1  0  0  0  0
 13 14  1  0  0  0  0
 13 15  1  0  0  0  0
 15 16  1  0  0  0  0
 16 17  1  0  0  0  0
 15 18  2  0  0  0  0
M  END
> <ChemID>
100540

> <source_casrn>
12122-67-7

> <CAS>
12122-67-7

> <SMILES>
[Zn+2].[S-]C(=S)NCCNC([S-])=S

> <NAME>
ZINEB

> <preferred_name>
Zineb

> <iupac>
zinc ethane-1,2-diyldicarbamodithioate

> <MPID>
99803

> <dsstox_substance_id>
DTXSID5021465

> <Canonical_QSARr>
SC(=S)NCCNC(S)=S

> <InChI_Code_QSARr>
InChI=1S/C4H8N2S4/c7-3(8)5-1-2-6-4(9)10/h1-2H2,(H2,5,7,8)(H2,6,9,10)

> <InChI Key_QSARr>
AWYFNIZYMPNGAI-UHFFFAOYSA-N

> <LogKOC>
3.0

$$$$
100541
  -INDIGO-08031722282D

 18 17  0  0  0  0  0  0  0  0999 V2000
    4.1569   -0.8000    0.0000 S   0  0  0  0  0  0  0  0  0  0  0  0
    5.5426    0.0000    0.0000 H   0  0  0  0  0  0  0  0  0  0  0  0
    2.7713    0.0000    0.0000 C   0  0  0  0  0  0  0  0  0  0  0  0
    2.7713    1.6000    0.0000 S   0  0  0  0  0  0  0  0  0  0  0  0
    1.3856   -0.8000    0.0000 N   0  0  0  0  0  0  0  0  0  0  0  0
    1.3856   -2.4000    0.0000 H   0  0  0  0  0  0  0  0  0  0  0  0
   -0.0001    0.0000    0.0000 C   0  0  0  0  0  0  0  0  0  0  0  0
    0.6123    1.4782    0.0000 H   0  0  0  0  0  0  0  0  0  0  0  0
   -0.6122    1.4782    0.0000 H   0  0  0  0  0  0  0  0  0  0  0  0
   -1.3856   -0.8000    0.0000 C   0  0  0  0  0  0  0  0  0  0  0  0
   -1.9979   -2.2782    0.0000 H   0  0  0  0  0  0  0  0  0  0  0  0
   -0.7734   -2.2782    0.0000 H   0  0  0  0  0  0  0  0  0  0  0  0
   -2.7713    0.0000    0.0000 N   0  0  0  0  0  0  0  0  0  0  0  0
   -2.7713    1.6000    0.0000 H   0  0  0  0  0  0  0  0  0  0  0  0
   -4.1570   -0.8000    0.0000 C   0  0  0  0  0  0  0  0  0  0  0  0
   -5.5425    0.0000    0.0000 S   0  0  0  0  0  0  0  0  0  0  0  0
   -6.9282   -0.8000    0.0000 H   0  0  0  0  0  0  0  0  0  0  0  0
   -4.1570   -2.4000    0.0000 S   0  0  0  0  0  0  0  0  0  0  0  0
  1  2  1  0  0  0  0
  1  3  1  0  0  0  0
  3  4  2  0  0  0  0
  3  5  1  0  0  0  0
  5  6  1  0  0  0  0
  5  7  1  0  0  0  0
  7  8  1  0  0  0  0
  7  9  1  0  0  0  0
  7 10  1  0  0  0  0
 10 11  1  0  0  0  0
 10 12  1  0  0  0  0
 10 13  1  0  0  0  0
 13 14  1  0  0  0  0
 13 15  1  0  0  0  0
 15 16  1  0  0  0  0
 16 17  1  0  0  0  0
 15 18  2  0  0  0  0
M  END
> <ChemID>
100541

> <source_casrn>
12427-38-2

> <CAS>
12427-38-2

> <SMILES>
[Mn+2].[S-]C(=S)NCCNC([S-])=S

> <NAME>
Maneb

> <preferred_name>
Maneb

> <iupac>
manganese(2+) ethane-1,2-diyldicarbamodithioate

> <MPID>
99804

> <dsstox_substance_id>
DTXSID9020794

> <Canonical_QSARr>
SC(=S)NCCNC(S)=S

> <InChI_Code_QSARr>
InChI=1S/C4H8N2S4/c7-3(8)5-1-2-6-4(9)10/h1-2H2,(H2,5,7,8)(H2,6,9,10)

> <InChI Key_QSARr>
AWYFNIZYMPNGAI-UHFFFAOYSA-N

> <LogKOC>
2.38

$$$$
100543
  -INDIGO-08031722282D

 22 23  0  0  0  0  0  0  0  0999 V2000
   -0.0001    0.0000    0.0000 C   0  0  0  0  0  0  0  0  0  0  0  0
    1.6001   -0.0000    0.0000 C   0  0  0  0  0  0  0  0  0  0  0  0
    2.4001   -1.3856    0.0000 C   0  0  0  0  0  0  0  0  0  0  0  0
    1.6001   -2.7713    0.0000 Cl  0  0  0  0  0  0  0  0  0  0  0  0
    4.0000   -1.3856    0.0000 C   0  0  0  0  0  0  0  0  0  0  0  0
    4.8000   -2.7713    0.0000 H   0  0  0  0  0  0  0  0  0  0  0  0
    4.8000    0.0000    0.0000 C   0  0  0  0  0  0  0  0  0  0  0  0
    6.4000    0.0000    0.0000 H   0  0  0  0  0  0  0  0  0  0  0  0
    4.0000    1.3856    0.0000 C   0  0  0  0  0  0  0  0  0  0  0  0
    4.8000    2.7713    0.0000 H   0  0  0  0  0  0  0  0  0  0  0  0
    2.4001    1.3856    0.0000 C   0  0  0  0  0  0  0  0  0  0  0  0
    1.6001    2.7713    0.0000 H   0  0  0  0  0  0  0  0  0  0  0  0
   -0.8001    1.3856    0.0000 C   0  0  0  0  0  0  0  0  0  0  0  0
   -0.0001    2.7713    0.0000 Cl  0  0  0  0  0  0  0  0  0  0  0  0
   -2.4000    1.3856    0.0000 C   0  0  0  0  0  0  0  0  0  0  0  0
   -3.2000    2.7713    0.0000 H   0  0  0  0  0  0  0  0  0  0  0  0
   -3.2000    0.0000    0.0000 C   0  0  0  0  0  0  0  0  0  0  0  0
   -4.8000   -0.0000    0.0000 H   0  0  0  0  0  0  0  0  0  0  0  0
   -2.4000   -1.3856    0.0000 C   0  0  0  0  0  0  0  0  0  0  0  0
   -3.2000   -2.7713    0.0000 H   0  0  0  0  0  0  0  0  0  0  0  0
   -0.8001   -1.3856    0.0000 C   0  0  0  0  0  0  0  0  0  0  0  0
   -0.0001   -2.7713    0.0000 H   0  0  0  0  0  0  0  0  0  0  0  0
  1  2  1  0  0  0  0
  2  3  1  0  0  0  0
  3  4  1  0  0  0  0
  3  5  2  0  0  0  0
  5  6  1  0  0  0  0
  5  7  1  0  0  0  0
  7  8  1  0  0  0  0
  7  9  2  0  0  0  0
  9 10  1  0  0  0  0
  9 11  1  0  0  0  0
 11  2  2  0  0  0  0
 11 12  1  0  0  0  0
  1 13  1  0  0  0  0
 13 14  1  0  0  0  0
 13 15  2  0  0  0  0
 15 16  1  0  0  0  0
 15 17  1  0  0  0  0
 17 18  1  0  0  0  0
 17 19  2  0  0  0  0
 19 20  1  0  0  0  0
 19 21  1  0  0  0  0
 21  1  2  0  0  0  0
 21 22  1  0  0  0  0
M  END
> <ChemID>
100543

> <source_casrn>
13029-08-8

> <CAS>
13029-08-8

> <SMILES>
Clc1ccccc1-c1ccccc1Cl

> <NAME>
2,2'-DICHLOROBIPHENYL

> <preferred_name>
2,2'-Dichlorobiphenyl

> <iupac>
2,2'-dichlorobiphenyl

> <MPID>
99806

> <dsstox_substance_id>
DTXSID4044533

> <Canonical_QSARr>
Clc1ccccc1-c1ccccc1Cl

> <InChI_Code_QSARr>
InChI=1S/C12H8Cl2/c13-11-7-3-1-5-9(11)10-6-2-4-8-12(10)14/h1-8H

> <InChI Key_QSARr>
JAYCNKDKIKZTAF-UHFFFAOYSA-N

> <LogKOC>
3.92

$$$$
100544
  -INDIGO-08031722282D

 36 35  0  0  0  0  0  0  0  0999 V2000
    7.2061    2.1810    0.0000 C   0  0  0  0  0  0  0  0  0  0  0  0
    8.4319    3.2094    0.0000 H   0  0  0  0  0  0  0  0  0  0  0  0
    6.9284    3.7567    0.0000 H   0  0  0  0  0  0  0  0  0  0  0  0
    8.7096    1.6337    0.0000 H   0  0  0  0  0  0  0  0  0  0  0  0
    5.9805    1.1525    0.0000 C   0  0  0  0  0  0  0  0  0  0  0  0
    4.8010    2.2334    0.0000 H   0  0  0  0  0  0  0  0  0  0  0  0
    4.3820    1.0827    0.0000 H   0  0  0  0  0  0  0  0  0  0  0  0
    6.2584   -0.4232    0.0000 O   0  0  0  0  0  0  0  0  0  0  0  0
    5.0328   -1.4516    0.0000 P   0  0  0  0  0  0  0  0  0  0  0  0
    5.3105   -3.0273    0.0000 S   0  0  0  0  0  0  0  0  0  0  0  0
    6.5363   -1.9989    0.0000 O   0  0  0  0  0  0  0  0  0  0  0  0
    7.7619   -0.9704    0.0000 C   0  0  0  0  0  0  0  0  0  0  0  0
    8.1082    0.5917    0.0000 H   0  0  0  0  0  0  0  0  0  0  0  0
    6.9022    0.3790    0.0000 H   0  0  0  0  0  0  0  0  0  0  0  0
    9.2654   -1.5177    0.0000 C   0  0  0  0  0  0  0  0  0  0  0  0
   10.7689   -2.0649    0.0000 H   0  0  0  0  0  0  0  0  0  0  0  0
   10.4910   -0.4892    0.0000 H   0  0  0  0  0  0  0  0  0  0  0  0
    9.5433   -3.0934    0.0000 H   0  0  0  0  0  0  0  0  0  0  0  0
    3.5293   -0.9045    0.0000 S   0  0  0  0  0  0  0  0  0  0  0  0
    2.3035   -1.9329    0.0000 C   0  0  0  0  0  0  0  0  0  0  0  0
    1.9572   -3.4949    0.0000 H   0  0  0  0  0  0  0  0  0  0  0  0
    3.1632   -3.2823    0.0000 H   0  0  0  0  0  0  0  0  0  0  0  0
    0.8000   -1.3857    0.0000 S   0  0  0  0  0  0  0  0  0  0  0  0
   -0.0000    0.0000    0.0000 C   0  0  0  0  0  0  0  0  0  0  0  0
   -1.3856   -0.8000    0.0000 C   0  0  0  0  0  0  0  0  0  0  0  0
   -2.7713   -1.6000    0.0000 H   0  0  0  0  0  0  0  0  0  0  0  0
   -2.7713    0.0000    0.0000 H   0  0  0  0  0  0  0  0  0  0  0  0
   -1.3856   -2.4000    0.0000 H   0  0  0  0  0  0  0  0  0  0  0  0
   -0.8000    1.3856    0.0000 C   0  0  0  0  0  0  0  0  0  0  0  0
   -1.6000    2.7713    0.0000 H   0  0  0  0  0  0  0  0  0  0  0  0
   -0.0000    2.7713    0.0000 H   0  0  0  0  0  0  0  0  0  0  0  0
   -2.4000    1.3856    0.0000 H   0  0  0  0  0  0  0  0  0  0  0  0
    1.3857    0.8000    0.0000 C   0  0  0  0  0  0  0  0  0  0  0  0
    2.7712    1.6000    0.0000 H   0  0  0  0  0  0  0  0  0  0  0  0
    2.7712    0.0000    0.0000 H   0  0  0  0  0  0  0  0  0  0  0  0
    1.3857    2.4000    0.0000 H   0  0  0  0  0  0  0  0  0  0  0  0
  1  2  1  0  0  0  0
  1  3  1  0  0  0  0
  1  4  1  0  0  0  0
  1  5  1  0  0  0  0
  5  6  1  0  0  0  0
  5  7  1  0  0  0  0
  5  8  1  0  0  0  0
  8  9  1  0  0  0  0
  9 10  2  0  0  0  0
  9 11  1  0  0  0  0
 11 12  1  0  0  0  0
 12 13  1  0  0  0  0
 12 14  1  0  0  0  0
 12 15  1  0  0  0  0
 15 16  1  0  0  0  0
 15 17  1  0  0  0  0
 15 18  1  0  0  0  0
  9 19  1  0  0  0  0
 19 20  1  0  0  0  0
 20 21  1  0  0  0  0
 20 22  1  0  0  0  0
 20 23  1  0  0  0  0
 23 24  1  0  0  0  0
 24 25  1  0  0  0  0
 25 26  1  0  0  0  0
 25 27  1  0  0  0  0
 25 28  1  0  0  0  0
 24 29  1  0  0  0  0
 29 30  1  0  0  0  0
 29 31  1  0  0  0  0
 29 32  1  0  0  0  0
 24 33  1  0  0  0  0
 33 34  1  0  0  0  0
 33 35  1  0  0  0  0
 33 36  1  0  0  0  0
M  END
> <ChemID>
100544

> <source_casrn>
13071-79-9

> <CAS>
13071-79-9

> <SMILES>
CC(C)(C)SCSP(=S)(OCC)OCC

> <NAME>
TERBUFOS

> <preferred_name>
Terbufos

> <iupac>
S-[(tert-butylsulfanyl)methyl] O,O-diethyl phosphorodithioate

> <MPID>
99807

> <dsstox_substance_id>
DTXSID2022254

> <Canonical_QSARr>
CC(C)(C)SCSP(=S)(OCC)OCC

> <InChI_Code_QSARr>
InChI=1S/C9H21O2PS3/c1-6-10-12(13,11-7-2)15-8-14-9(3,4)5/h6-8H2,1-5H3

> <InChI Key_QSARr>
XLNZEKHULJKQBA-UHFFFAOYSA-N

> <LogKOC>
2.82

$$$$
100545
  -INDIGO-08031722282D

 21 21  0  0  0  0  0  0  0  0999 V2000
   -2.7712   -0.0000    0.0000 C   0  0  0  0  0  0  0  0  0  0  0  0
   -1.3857    0.8000    0.0000 C   0  0  0  0  0  0  0  0  0  0  0  0
   -1.3857    2.4000    0.0000 H   0  0  0  0  0  0  0  0  0  0  0  0
   -0.0000   -0.0000    0.0000 C   0  0  0  0  0  0  0  0  0  0  0  0
    1.3856    0.8000    0.0000 C   0  0  0  0  0  0  0  0  0  0  0  0
    2.7713    1.6000    0.0000 F   0  0  0  0  0  0  0  0  0  0  0  0
    2.7713   -0.0000    0.0000 F   0  0  0  0  0  0  0  0  0  0  0  0
    1.3856    2.4000    0.0000 F   0  0  0  0  0  0  0  0  0  0  0  0
   -0.0000   -1.6000    0.0000 C   0  0  0  0  0  0  0  0  0  0  0  0
    1.3856   -2.4000    0.0000 H   0  0  0  0  0  0  0  0  0  0  0  0
   -1.3857   -2.4000    0.0000 C   0  0  0  0  0  0  0  0  0  0  0  0
   -1.3857   -4.0000    0.0000 H   0  0  0  0  0  0  0  0  0  0  0  0
   -2.7712   -1.6000    0.0000 C   0  0  0  0  0  0  0  0  0  0  0  0
   -4.1569   -2.4000    0.0000 H   0  0  0  0  0  0  0  0  0  0  0  0
   -4.1569    0.8000    0.0000 N   0  0  0  0  0  0  0  0  0  0  0  0
   -4.1569    2.4000    0.0000 H   0  0  0  0  0  0  0  0  0  0  0  0
   -5.5425   -0.0000    0.0000 C   0  0  0  0  0  0  0  0  0  0  0  0
   -6.9282    0.8000    0.0000 N   0  0  0  0  0  0  0  0  0  0  0  0
   -8.3138   -0.0000    0.0000 H   0  0  0  0  0  0  0  0  0  0  0  0
   -6.9282    2.4000    0.0000 H   0  0  0  0  0  0  0  0  0  0  0  0
   -5.5425   -1.6000    0.0000 O   0  0  0  0  0  0  0  0  0  0  0  0
  1  2  1  0  0  0  0
  2  3  1  0  0  0  0
  2  4  2  0  0  0  0
  4  5  1  0  0  0  0
  5  6  1  0  0  0  0
  5  7  1  0  0  0  0
  5  8  1  0  0  0  0
  4  9  1  0  0  0  0
  9 10  1  0  0  0  0
  9 11  2  0  0  0  0
 11 12  1  0  0  0  0
 11 13  1  0  0  0  0
 13  1  2  0  0  0  0
 13 14  1  0  0  0  0
  1 15  1  0  0  0  0
 15 16  1  0  0  0  0
 15 17  1  0  0  0  0
 17 18  1  0  0  0  0
 18 19  1  0  0  0  0
 18 20  1  0  0  0  0
 17 21  2  0  0  0  0
M  END
> <ChemID>
100545

> <source_casrn>
13114-87-9

> <CAS>
13114-87-9

> <SMILES>
NC(=O)Nc1cc(ccc1)C(F)(F)F

> <NAME>
3-(TRIFLUOROMETHYL)PHENYLUREA

> <preferred_name>
[3-(Trifluoromethyl)phenyl]urea

> <iupac>
[3-(trifluoromethyl)phenyl]urea

> <MPID>
99808

> <dsstox_substance_id>
DTXSID0065355

> <Canonical_QSARr>
NC(=O)Nc1cc(ccc1)C(F)(F)F

> <InChI_Code_QSARr>
InChI=1S/C8H7F3N2O/c9-8(10,11)5-2-1-3-6(4-5)13-7(12)14/h1-4H,(H3,12,13,14)

> <InChI Key_QSARr>
FQEIBEOBXKJAMZ-UHFFFAOYSA-N

> <LogKOC>
1.98

$$$$
100547
  -INDIGO-08031722282D

 31 32  0  0  0  0  0  0  0  0999 V2000
   -2.9671   -1.1988    0.0000 O   0  0  0  0  0  0  0  0  0  0  0  0
   -2.7443    0.3857    0.0000 C   0  0  0  0  0  0  0  0  0  0  0  0
   -1.2609    0.9851    0.0000 N   0  0  0  0  0  0  0  0  0  0  0  0
   -1.3166    2.5840    0.0000 H   0  0  0  0  0  0  0  0  0  0  0  0
    0.0000    0.0000    0.0000 C   0  0  0  0  0  0  0  0  0  0  0  0
   -1.2945   -0.9405    0.0000 H   0  0  0  0  0  0  0  0  0  0  0  0
    1.0707    1.1890    0.0000 C   0  0  0  0  0  0  0  0  0  0  0  0
   -0.2238    2.1295    0.0000 H   0  0  0  0  0  0  0  0  0  0  0  0
    1.8707    2.5747    0.0000 H   0  0  0  0  0  0  0  0  0  0  0  0
    2.5323    0.5383    0.0000 C   0  0  0  0  0  0  0  0  0  0  0  0
    3.0266    2.0600    0.0000 H   0  0  0  0  0  0  0  0  0  0  0  0
    4.0973    0.2056    0.0000 H   0  0  0  0  0  0  0  0  0  0  0  0
    2.3650   -1.0530    0.0000 C   0  0  0  0  0  0  0  0  0  0  0  0
    3.9650   -1.0530    0.0000 H   0  0  0  0  0  0  0  0  0  0  0  0
    2.5323   -2.6443    0.0000 H   0  0  0  0  0  0  0  0  0  0  0  0
    0.8000   -1.3856    0.0000 C   0  0  0  0  0  0  0  0  0  0  0  0
    1.2945   -2.9073    0.0000 H   0  0  0  0  0  0  0  0  0  0  0  0
   -0.6616   -2.0364    0.0000 H   0  0  0  0  0  0  0  0  0  0  0  0
   -4.0052    1.3707    0.0000 N   0  0  0  0  0  0  0  0  0  0  0  0
   -3.7824    2.9552    0.0000 H   0  0  0  0  0  0  0  0  0  0  0  0
   -5.4886    0.7714    0.0000 C   0  0  0  0  0  0  0  0  0  0  0  0
   -5.7114   -0.8131    0.0000 C   0  0  0  0  0  0  0  0  0  0  0  0
   -4.4505   -1.7981    0.0000 H   0  0  0  0  0  0  0  0  0  0  0  0
   -7.1948   -1.4124    0.0000 C   0  0  0  0  0  0  0  0  0  0  0  0
   -7.4175   -2.9968    0.0000 H   0  0  0  0  0  0  0  0  0  0  0  0
   -8.4557   -0.4273    0.0000 C   0  0  0  0  0  0  0  0  0  0  0  0
   -9.9391   -1.0267    0.0000 H   0  0  0  0  0  0  0  0  0  0  0  0
   -8.2329    1.1570    0.0000 C   0  0  0  0  0  0  0  0  0  0  0  0
   -9.4938    2.1421    0.0000 H   0  0  0  0  0  0  0  0  0  0  0  0
   -6.7495    1.7564    0.0000 C   0  0  0  0  0  0  0  0  0  0  0  0
   -6.5268    3.3409    0.0000 H   0  0  0  0  0  0  0  0  0  0  0  0
  1  2  2  0  0  0  0
  2  3  1  0  0  0  0
  3  4  1  0  0  0  0
  3  5  1  0  0  0  0
  5  6  1  0  0  0  0
  5  7  1  0  0  0  0
  7  8  1  0  0  0  0
  7  9  1  0  0  0  0
  7 10  1  0  0  0  0
 10 11  1  0  0  0  0
 10 12  1  0  0  0  0
 10 13  1  0  0  0  0
 13 14  1  0  0  0  0
 13 15  1  0  0  0  0
 13 16  1  0  0  0  0
 16  5  1  0  0  0  0
 16 17  1  0  0  0  0
 16 18  1  0  0  0  0
  2 19  1  0  0  0  0
 19 20  1  0  0  0  0
 19 21  1  0  0  0  0
 21 22  1  0  0  0  0
 22 23  1  0  0  0  0
 22 24  2  0  0  0  0
 24 25  1  0  0  0  0
 24 26  1  0  0  0  0
 26 27  1  0  0  0  0
 26 28  2  0  0  0  0
 28 29  1  0  0  0  0
 28 30  1  0  0  0  0
 30 21  2  0  0  0  0
 30 31  1  0  0  0  0
M  END
> <ChemID>
100547

> <source_casrn>
13140-89-1

> <CAS>
13140-89-1

> <SMILES>
O=C(Nc1ccccc1)NC1CCCC1

> <NAME>
N-CYCLOPENTYL-N'-PHENYLUREA

> <preferred_name>
N-Cyclopentyl-N'-phenylurea

> <iupac>
1-cyclopentyl-3-phenylurea

> <MPID>
99810

> <dsstox_substance_id>
DTXSID40157027

> <Canonical_QSARr>
O=C(Nc1ccccc1)NC1CCCC1

> <InChI_Code_QSARr>
InChI=1S/C12H16N2O/c15-12(14-11-8-4-5-9-11)13-10-6-2-1-3-7-10/h1-3,6-7,11H,4-5,8-9H2,(H2,13,14,15)

> <InChI Key_QSARr>
KODZEKGCUPWVLU-UHFFFAOYSA-N

> <LogKOC>
1.93

$$$$
100548
  -INDIGO-08031722282D

 37 36  0  0  0  0  0  0  0  0999 V2000
   -7.2000    1.3856    0.0000 O   0  0  0  0  0  0  0  0  0  0  0  0
   -6.4001   -0.0001    0.0000 P   0  0  0  0  0  0  0  0  0  0  0  0
   -4.8000    0.0001    0.0000 O   0  0  0  0  0  0  0  0  0  0  0  0
   -4.0001    1.3856    0.0000 C   0  0  0  0  0  0  0  0  0  0  0  0
   -2.4000    1.3856    0.0000 C   0  0  0  0  0  0  0  0  0  0  0  0
   -1.6000    0.0001    0.0000 C   0  0  0  0  0  0  0  0  0  0  0  0
   -2.4000   -1.3856    0.0000 O   0  0  0  0  0  0  0  0  0  0  0  0
    0.0001    0.0001    0.0000 N   0  0  0  0  0  0  0  0  0  0  0  0
    0.8000    1.3856    0.0000 C   0  0  0  0  0  0  0  0  0  0  0  0
    2.2782    1.9979    0.0000 H   0  0  0  0  0  0  0  0  0  0  0  0
    2.2782    0.7734    0.0000 H   0  0  0  0  0  0  0  0  0  0  0  0
    0.0001    2.7713    0.0000 C   0  0  0  0  0  0  0  0  0  0  0  0
    0.8000    4.1569    0.0000 H   0  0  0  0  0  0  0  0  0  0  0  0
   -0.8001    4.1569    0.0000 H   0  0  0  0  0  0  0  0  0  0  0  0
    1.5999    2.7713    0.0000 H   0  0  0  0  0  0  0  0  0  0  0  0
    0.8000   -1.3856    0.0000 C   0  0  0  0  0  0  0  0  0  0  0  0
    2.2782   -0.7734    0.0000 H   0  0  0  0  0  0  0  0  0  0  0  0
    2.2782   -1.9979    0.0000 H   0  0  0  0  0  0  0  0  0  0  0  0
    0.0001   -2.7712    0.0000 C   0  0  0  0  0  0  0  0  0  0  0  0
    0.8000   -4.1569    0.0000 H   0  0  0  0  0  0  0  0  0  0  0  0
   -0.8001   -4.1569    0.0000 H   0  0  0  0  0  0  0  0  0  0  0  0
    1.5999   -2.7712    0.0000 H   0  0  0  0  0  0  0  0  0  0  0  0
   -1.6000    2.7713    0.0000 Cl  0  0  0  0  0  0  0  0  0  0  0  0
   -4.8000    2.7712    0.0000 C   0  0  0  0  0  0  0  0  0  0  0  0
   -5.5999    4.1569    0.0000 H   0  0  0  0  0  0  0  0  0  0  0  0
   -6.4001    2.7712    0.0000 H   0  0  0  0  0  0  0  0  0  0  0  0
   -4.0001    4.1569    0.0000 H   0  0  0  0  0  0  0  0  0  0  0  0
   -8.0000   -0.0001    0.0000 O   0  0  0  0  0  0  0  0  0  0  0  0
   -8.7999   -1.3856    0.0000 C   0  0  0  0  0  0  0  0  0  0  0  0
  -10.4000   -1.3856    0.0000 H   0  0  0  0  0  0  0  0  0  0  0  0
   -9.6001   -2.7713    0.0000 H   0  0  0  0  0  0  0  0  0  0  0  0
   -9.6001   -0.0001    0.0000 H   0  0  0  0  0  0  0  0  0  0  0  0
   -7.2000   -1.3856    0.0000 O   0  0  0  0  0  0  0  0  0  0  0  0
   -6.4001   -2.7712    0.0000 C   0  0  0  0  0  0  0  0  0  0  0  0
   -5.5999   -4.1569    0.0000 H   0  0  0  0  0  0  0  0  0  0  0  0
   -7.2000   -4.1569    0.0000 H   0  0  0  0  0  0  0  0  0  0  0  0
   -4.8000   -2.7712    0.0000 H   0  0  0  0  0  0  0  0  0  0  0  0
  1  2  2  0  0  0  0
  2  3  1  0  0  0  0
  3  4  1  0  0  0  0
  4  5  2  0  0  0  0
  5  6  1  0  0  0  0
  6  7  2  0  0  0  0
  6  8  1  0  0  0  0
  8  9  1  0  0  0  0
  9 10  1  0  0  0  0
  9 11  1  0  0  0  0
  9 12  1  0  0  0  0
 12 13  1  0  0  0  0
 12 14  1  0  0  0  0
 12 15  1  0  0  0  0
  8 16  1  0  0  0  0
 16 17  1  0  0  0  0
 16 18  1  0  0  0  0
 16 19  1  0  0  0  0
 19 20  1  0  0  0  0
 19 21  1  0  0  0  0
 19 22  1  0  0  0  0
  5 23  1  0  0  0  0
  4 24  1  0  0  0  0
 24 25  1  0  0  0  0
 24 26  1  0  0  0  0
 24 27  1  0  0  0  0
  2 28  1  0  0  0  0
 28 29  1  0  0  0  0
 29 30  1  0  0  0  0
 29 31  1  0  0  0  0
 29 32  1  0  0  0  0
  2 33  1  0  0  0  0
 33 34  1  0  0  0  0
 34 35  1  0  0  0  0
 34 36  1  0  0  0  0
 34 37  1  0  0  0  0
M  END
> <ChemID>
100548

> <source_casrn>
13171-21-6

> <CAS>
13171-21-6

> <SMILES>
CCN(CC)C(=O)C(Cl)=C(C)OP(=O)(OC)OC

> <NAME>
PHOSPHAMIDON

> <preferred_name>
Phosphamidon

> <iupac>
3-chloro-4-(diethylamino)-4-oxobut-2-en-2-yl dimethyl phosphate

> <MPID>
99811

> <dsstox_substance_id>
DTXSID7021156

> <Canonical_QSARr>
CC(OP(=O)(OC)OC)=C(Cl)C(=O)N(CC)CC

> <InChI_Code_QSARr>
InChI=1S/C10H19ClNO5P/c1-6-12(7-2)10(13)9(11)8(3)17-18(14,15-4)16-5/h6-7H2,1-5H3/b9-8+

> <InChI Key_QSARr>
RGCLLPNLLBQHPF-CMDGGOBGSA-N

> <LogKOC>
0.85

$$$$
100549
  -INDIGO-08031722282D

 32 31  0  0  0  0  0  0  0  0999 V2000
    3.9999   -1.3856    0.0000 P   0  0  0  0  0  0  0  0  0  0  0  0
    4.7999    0.0000    0.0000 O   0  0  0  0  0  0  0  0  0  0  0  0
    5.5999   -1.3856    0.0000 S   0  0  0  0  0  0  0  0  0  0  0  0
    6.3999    0.0000    0.0000 C   0  0  0  0  0  0  0  0  0  0  0  0
    5.1306    0.9741    0.0000 H   0  0  0  0  0  0  0  0  0  0  0  0
    6.1911    1.5864    0.0000 H   0  0  0  0  0  0  0  0  0  0  0  0
    8.0000    0.0000    0.0000 C   0  0  0  0  0  0  0  0  0  0  0  0
    9.2693   -0.9740    0.0000 H   0  0  0  0  0  0  0  0  0  0  0  0
    8.2088   -1.5863    0.0000 H   0  0  0  0  0  0  0  0  0  0  0  0
    8.8000    1.3857    0.0000 C   0  0  0  0  0  0  0  0  0  0  0  0
    9.6000    2.7713    0.0000 H   0  0  0  0  0  0  0  0  0  0  0  0
   10.4000    1.3857    0.0000 H   0  0  0  0  0  0  0  0  0  0  0  0
    8.0000    2.7713    0.0000 H   0  0  0  0  0  0  0  0  0  0  0  0
    2.4001   -1.3856    0.0000 S   0  0  0  0  0  0  0  0  0  0  0  0
    1.6001    0.0000    0.0000 C   0  0  0  0  0  0  0  0  0  0  0  0
    1.8089    1.5864    0.0000 H   0  0  0  0  0  0  0  0  0  0  0  0
    2.8694    0.9741    0.0000 H   0  0  0  0  0  0  0  0  0  0  0  0
    0.0000    0.0000    0.0000 C   0  0  0  0  0  0  0  0  0  0  0  0
   -0.2088   -1.5863    0.0000 H   0  0  0  0  0  0  0  0  0  0  0  0
   -1.2693   -0.9740    0.0000 H   0  0  0  0  0  0  0  0  0  0  0  0
   -0.8000    1.3857    0.0000 C   0  0  0  0  0  0  0  0  0  0  0  0
   -1.6000    2.7713    0.0000 H   0  0  0  0  0  0  0  0  0  0  0  0
   -2.4000    1.3857    0.0000 H   0  0  0  0  0  0  0  0  0  0  0  0
    0.0000    2.7713    0.0000 H   0  0  0  0  0  0  0  0  0  0  0  0
    4.7999   -2.7713    0.0000 O   0  0  0  0  0  0  0  0  0  0  0  0
    3.9999   -4.1570    0.0000 C   0  0  0  0  0  0  0  0  0  0  0  0
    2.5218   -4.7693    0.0000 H   0  0  0  0  0  0  0  0  0  0  0  0
    2.5218   -3.5447    0.0000 H   0  0  0  0  0  0  0  0  0  0  0  0
    4.7999   -5.5426    0.0000 C   0  0  0  0  0  0  0  0  0  0  0  0
    5.5999   -6.9282    0.0000 H   0  0  0  0  0  0  0  0  0  0  0  0
    3.9999   -6.9282    0.0000 H   0  0  0  0  0  0  0  0  0  0  0  0
    6.3999   -5.5426    0.0000 H   0  0  0  0  0  0  0  0  0  0  0  0
  1  2  2  0  0  0  0
  1  3  1  0  0  0  0
  3  4  1  0  0  0  0
  4  5  1  0  0  0  0
  4  6  1  0  0  0  0
  4  7  1  0  0  0  0
  7  8  1  0  0  0  0
  7  9  1  0  0  0  0
  7 10  1  0  0  0  0
 10 11  1  0  0  0  0
 10 12  1  0  0  0  0
 10 13  1  0  0  0  0
  1 14  1  0  0  0  0
 14 15  1  0  0  0  0
 15 16  1  0  0  0  0
 15 17  1  0  0  0  0
 15 18  1  0  0  0  0
 18 19  1  0  0  0  0
 18 20  1  0  0  0  0
 18 21  1  0  0  0  0
 21 22  1  0  0  0  0
 21 23  1  0  0  0  0
 21 24  1  0  0  0  0
  1 25  1  0  0  0  0
 25 26  1  0  0  0  0
 26 27  1  0  0  0  0
 26 28  1  0  0  0  0
 26 29  1  0  0  0  0
 29 30  1  0  0  0  0
 29 31  1  0  0  0  0
 29 32  1  0  0  0  0
M  END
> <ChemID>
100549

> <source_casrn>
13194-48-4

> <CAS>
13194-48-4

> <SMILES>
CCOP(=O)(SCCC)SCCC

> <NAME>
O-ETHYL S,S-DIPROPYL PHOSPHORODITHIOATE

> <preferred_name>
Ethoprop

> <iupac>
C8H19O2PS2

> <MPID>
99812

> <dsstox_substance_id>
DTXSID4032611

> <Canonical_QSARr>
CCOP(=O)(SCCC)SCCC

> <InChI_Code_QSARr>
InChI=1S/C8H19O2PS2/c1-4-7-12-11(9,10-6-3)13-8-5-2/h4-8H2,1-3H3

> <InChI Key_QSARr>
VJYFKVYYMZPMAB-UHFFFAOYSA-N

> <LogKOC>
1.85

$$$$
100552
  -INDIGO-08031722282D

 25 25  0  0  0  0  0  0  0  0999 V2000
    0.0001    0.0000    0.0000 C   0  0  0  0  0  0  0  0  0  0  0  0
    1.6001    0.0000    0.0000 N   0  0  0  0  0  0  0  0  0  0  0  0
    2.3999   -1.3856    0.0000 H   0  0  0  0  0  0  0  0  0  0  0  0
    2.3999    1.3856    0.0000 C   0  0  0  0  0  0  0  0  0  0  0  0
    3.9999    1.3856    0.0000 N   0  0  0  0  0  0  0  0  0  0  0  0
    4.8000    0.0000    0.0000 O   0  0  0  0  0  0  0  0  0  0  0  0
    6.4000    0.0000    0.0000 C   0  0  0  0  0  0  0  0  0  0  0  0
    8.0000    0.0000    0.0000 H   0  0  0  0  0  0  0  0  0  0  0  0
    7.2000   -1.3856    0.0000 H   0  0  0  0  0  0  0  0  0  0  0  0
    5.6000   -1.3856    0.0000 H   0  0  0  0  0  0  0  0  0  0  0  0
    4.8000    2.7713    0.0000 C   0  0  0  0  0  0  0  0  0  0  0  0
    5.6000    4.1569    0.0000 H   0  0  0  0  0  0  0  0  0  0  0  0
    6.4000    2.7713    0.0000 H   0  0  0  0  0  0  0  0  0  0  0  0
    3.9999    4.1569    0.0000 H   0  0  0  0  0  0  0  0  0  0  0  0
    1.6001    2.7713    0.0000 O   0  0  0  0  0  0  0  0  0  0  0  0
   -0.7999    1.3856    0.0000 C   0  0  0  0  0  0  0  0  0  0  0  0
    0.0001    2.7713    0.0000 H   0  0  0  0  0  0  0  0  0  0  0  0
   -2.4000    1.3856    0.0000 C   0  0  0  0  0  0  0  0  0  0  0  0
   -3.2000    2.7713    0.0000 Cl  0  0  0  0  0  0  0  0  0  0  0  0
   -3.2000    0.0000    0.0000 C   0  0  0  0  0  0  0  0  0  0  0  0
   -4.8000    0.0000    0.0000 Br  0  0  0  0  0  0  0  0  0  0  0  0
   -2.4000   -1.3856    0.0000 C   0  0  0  0  0  0  0  0  0  0  0  0
   -3.2000   -2.7713    0.0000 H   0  0  0  0  0  0  0  0  0  0  0  0
   -0.7999   -1.3856    0.0000 C   0  0  0  0  0  0  0  0  0  0  0  0
    0.0001   -2.7713    0.0000 H   0  0  0  0  0  0  0  0  0  0  0  0
  1  2  1  0  0  0  0
  2  3  1  0  0  0  0
  2  4  1  0  0  0  0
  4  5  1  0  0  0  0
  5  6  1  0  0  0  0
  6  7  1  0  0  0  0
  7  8  1  0  0  0  0
  7  9  1  0  0  0  0
  7 10  1  0  0  0  0
  5 11  1  0  0  0  0
 11 12  1  0  0  0  0
 11 13  1  0  0  0  0
 11 14  1  0  0  0  0
  4 15  2  0  0  0  0
  1 16  1  0  0  0  0
 16 17  1  0  0  0  0
 16 18  2  0  0  0  0
 18 19  1  0  0  0  0
 18 20  1  0  0  0  0
 20 21  1  0  0  0  0
 20 22  2  0  0  0  0
 22 23  1  0  0  0  0
 22 24  1  0  0  0  0
 24  1  2  0  0  0  0
 24 25  1  0  0  0  0
M  END
> <ChemID>
100552

> <source_casrn>
13360-45-7

> <CAS>
13360-45-7

> <SMILES>
CON(C)C(=O)Nc1ccc(Br)c(Cl)c1

> <NAME>
CHLORBROMURON

> <preferred_name>
Chlorbromuron

> <iupac>
3-(4-bromo-3-chlorophenyl)-1-methoxy-1-methylurea

> <MPID>
99814

> <dsstox_substance_id>
DTXSID6040290

> <Canonical_QSARr>
CON(C)C(=O)Nc1ccc(Br)c(Cl)c1

> <InChI_Code_QSARr>
InChI=1S/C9H10BrClN2O2/c1-13(15-2)9(14)12-6-3-4-7(10)8(11)5-6/h3-5H,1-2H3,(H,12,14)

> <InChI Key_QSARr>
NLYNUTMZTCLNOO-UHFFFAOYSA-N

> <LogKOC>
2.7

$$$$
100553
  -INDIGO-08031722282D

 38 39  0  0  0  0  0  0  0  0999 V2000
    2.7713   -0.0000    0.0000 C   0  0  0  0  0  0  0  0  0  0  0  0
    2.7713   -1.6000    0.0000 O   0  0  0  0  0  0  0  0  0  0  0  0
    4.1569    0.8000    0.0000 O   0  0  0  0  0  0  0  0  0  0  0  0
    5.5426   -0.0000    0.0000 C   0  0  0  0  0  0  0  0  0  0  0  0
    6.1550   -1.4782    0.0000 H   0  0  0  0  0  0  0  0  0  0  0  0
    4.9301   -1.4782    0.0000 H   0  0  0  0  0  0  0  0  0  0  0  0
    6.9282    0.8000    0.0000 C   0  0  0  0  0  0  0  0  0  0  0  0
    8.3138    1.6000    0.0000 H   0  0  0  0  0  0  0  0  0  0  0  0
    8.3138   -0.0000    0.0000 H   0  0  0  0  0  0  0  0  0  0  0  0
    6.9282    2.4000    0.0000 H   0  0  0  0  0  0  0  0  0  0  0  0
    1.3856    0.8000    0.0000 N   0  0  0  0  0  0  0  0  0  0  0  0
    1.3856    2.4000    0.0000 H   0  0  0  0  0  0  0  0  0  0  0  0
    0.0000   -0.0000    0.0000 C   0  0  0  0  0  0  0  0  0  0  0  0
   -1.3856    0.8000    0.0000 C   0  0  0  0  0  0  0  0  0  0  0  0
   -1.3856    2.4000    0.0000 H   0  0  0  0  0  0  0  0  0  0  0  0
   -2.7713   -0.0000    0.0000 C   0  0  0  0  0  0  0  0  0  0  0  0
   -4.1569    0.8000    0.0000 O   0  0  0  0  0  0  0  0  0  0  0  0
   -5.5426   -0.0000    0.0000 C   0  0  0  0  0  0  0  0  0  0  0  0
   -5.5426   -1.6000    0.0000 O   0  0  0  0  0  0  0  0  0  0  0  0
   -6.9282    0.8000    0.0000 N   0  0  0  0  0  0  0  0  0  0  0  0
   -6.9282    2.4000    0.0000 H   0  0  0  0  0  0  0  0  0  0  0  0
   -8.3138   -0.0000    0.0000 C   0  0  0  0  0  0  0  0  0  0  0  0
   -9.6995    0.8000    0.0000 C   0  0  0  0  0  0  0  0  0  0  0  0
   -9.6995    2.4000    0.0000 H   0  0  0  0  0  0  0  0  0  0  0  0
  -11.0851   -0.0000    0.0000 C   0  0  0  0  0  0  0  0  0  0  0  0
  -12.4708    0.8000    0.0000 H   0  0  0  0  0  0  0  0  0  0  0  0
  -11.0851   -1.6000    0.0000 C   0  0  0  0  0  0  0  0  0  0  0  0
  -12.4708   -2.4000    0.0000 H   0  0  0  0  0  0  0  0  0  0  0  0
   -9.6995   -2.4000    0.0000 C   0  0  0  0  0  0  0  0  0  0  0  0
   -9.6995   -4.0000    0.0000 H   0  0  0  0  0  0  0  0  0  0  0  0
   -8.3138   -1.6000    0.0000 C   0  0  0  0  0  0  0  0  0  0  0  0
   -6.9282   -2.4000    0.0000 H   0  0  0  0  0  0  0  0  0  0  0  0
   -2.7713   -1.6000    0.0000 C   0  0  0  0  0  0  0  0  0  0  0  0
   -4.1569   -2.4000    0.0000 H   0  0  0  0  0  0  0  0  0  0  0  0
   -1.3856   -2.4000    0.0000 C   0  0  0  0  0  0  0  0  0  0  0  0
   -1.3856   -4.0000    0.0000 H   0  0  0  0  0  0  0  0  0  0  0  0
    0.0000   -1.6000    0.0000 C   0  0  0  0  0  0  0  0  0  0  0  0
    1.3856   -2.4000    0.0000 H   0  0  0  0  0  0  0  0  0  0  0  0
  1  2  2  0  0  0  0
  1  3  1  0  0  0  0
  3  4  1  0  0  0  0
  4  5  1  0  0  0  0
  4  6  1  0  0  0  0
  4  7  1  0  0  0  0
  7  8  1  0  0  0  0
  7  9  1  0  0  0  0
  7 10  1  0  0  0  0
  1 11  1  0  0  0  0
 11 12  1  0  0  0  0
 11 13  1  0  0  0  0
 13 14  1  0  0  0  0
 14 15  1  0  0  0  0
 14 16  2  0  0  0  0
 16 17  1  0  0  0  0
 17 18  1  0  0  0  0
 18 19  2  0  0  0  0
 18 20  1  0  0  0  0
 20 21  1  0  0  0  0
 20 22  1  0  0  0  0
 22 23  1  0  0  0  0
 23 24  1  0  0  0  0
 23 25  2  0  0  0  0
 25 26  1  0  0  0  0
 25 27  1  0  0  0  0
 27 28  1  0  0  0  0
 27 29  2  0  0  0  0
 29 30  1  0  0  0  0
 29 31  1  0  0  0  0
 31 22  2  0  0  0  0
 31 32  1  0  0  0  0
 16 33  1  0  0  0  0
 33 34  1  0  0  0  0
 33 35  2  0  0  0  0
 35 36  1  0  0  0  0
 35 37  1  0  0  0  0
 37 13  2  0  0  0  0
 37 38  1  0  0  0  0
M  END
> <ChemID>
100553

> <source_casrn>
13684-56-5

> <CAS>
13684-56-5

> <SMILES>
CCOC(=O)Nc1cccc(c1)OC(=O)Nc1ccccc1

> <NAME>
DESMEDIPHAM

> <preferred_name>
Desmedipham

> <iupac>
3-[(ethoxycarbonyl)amino]phenyl phenylcarbamate

> <MPID>
99815

> <dsstox_substance_id>
DTXSID0034518

> <Canonical_QSARr>
CCOC(=O)Nc1cccc(c1)OC(=O)Nc1ccccc1

> <InChI_Code_QSARr>
InChI=1S/C16H16N2O4/c1-2-21-15(19)18-13-9-6-10-14(11-13)22-16(20)17-12-7-4-3-5-8-12/h3-11H,2H2,1H3,(H,17,20)(H,18,19)

> <InChI Key_QSARr>
WZJZMXBKUWKXTQ-UHFFFAOYSA-N

> <LogKOC>
3.18

$$$$
100554
  -INDIGO-08031722282D

 38 39  0  0  0  0  0  0  0  0999 V2000
   -4.7999    2.7713    0.0000 C   0  0  0  0  0  0  0  0  0  0  0  0
   -3.2000    2.7713    0.0000 N   0  0  0  0  0  0  0  0  0  0  0  0
   -2.3999    4.1570    0.0000 H   0  0  0  0  0  0  0  0  0  0  0  0
   -2.3999    1.3856    0.0000 C   0  0  0  0  0  0  0  0  0  0  0  0
   -0.8000    1.3856    0.0000 C   0  0  0  0  0  0  0  0  0  0  0  0
    0.0001    2.7713    0.0000 H   0  0  0  0  0  0  0  0  0  0  0  0
    0.0001   -0.0000    0.0000 C   0  0  0  0  0  0  0  0  0  0  0  0
    1.6001   -0.0000    0.0000 C   0  0  0  0  0  0  0  0  0  0  0  0
    3.2000   -0.0000    0.0000 H   0  0  0  0  0  0  0  0  0  0  0  0
    2.3999   -1.3857    0.0000 H   0  0  0  0  0  0  0  0  0  0  0  0
    2.3999    1.3856    0.0000 H   0  0  0  0  0  0  0  0  0  0  0  0
   -0.8000   -1.3857    0.0000 C   0  0  0  0  0  0  0  0  0  0  0  0
    0.0001   -2.7713    0.0000 H   0  0  0  0  0  0  0  0  0  0  0  0
   -2.3999   -1.3857    0.0000 C   0  0  0  0  0  0  0  0  0  0  0  0
   -3.2000   -2.7713    0.0000 H   0  0  0  0  0  0  0  0  0  0  0  0
   -3.2000   -0.0000    0.0000 C   0  0  0  0  0  0  0  0  0  0  0  0
   -4.7999   -0.0000    0.0000 H   0  0  0  0  0  0  0  0  0  0  0  0
   -5.6000    4.1570    0.0000 O   0  0  0  0  0  0  0  0  0  0  0  0
   -7.2000    4.1570    0.0000 C   0  0  0  0  0  0  0  0  0  0  0  0
   -8.0001    2.7713    0.0000 C   0  0  0  0  0  0  0  0  0  0  0  0
   -7.2000    1.3856    0.0000 H   0  0  0  0  0  0  0  0  0  0  0  0
   -9.6000    2.7713    0.0000 C   0  0  0  0  0  0  0  0  0  0  0  0
  -10.4001    1.3856    0.0000 N   0  0  0  0  0  0  0  0  0  0  0  0
   -9.6000   -0.0000    0.0000 H   0  0  0  0  0  0  0  0  0  0  0  0
  -12.0000    1.3856    0.0000 C   0  0  0  0  0  0  0  0  0  0  0  0
  -12.7999    2.7713    0.0000 O   0  0  0  0  0  0  0  0  0  0  0  0
  -12.7999   -0.0000    0.0000 O   0  0  0  0  0  0  0  0  0  0  0  0
  -14.4001   -0.0000    0.0000 C   0  0  0  0  0  0  0  0  0  0  0  0
  -16.0000   -0.0000    0.0000 H   0  0  0  0  0  0  0  0  0  0  0  0
  -15.1999   -1.3857    0.0000 H   0  0  0  0  0  0  0  0  0  0  0  0
  -15.1999    1.3856    0.0000 H   0  0  0  0  0  0  0  0  0  0  0  0
  -10.4001    4.1570    0.0000 C   0  0  0  0  0  0  0  0  0  0  0  0
  -12.0000    4.1570    0.0000 H   0  0  0  0  0  0  0  0  0  0  0  0
   -9.6000    5.5426    0.0000 C   0  0  0  0  0  0  0  0  0  0  0  0
  -10.4001    6.9282    0.0000 H   0  0  0  0  0  0  0  0  0  0  0  0
   -8.0001    5.5426    0.0000 C   0  0  0  0  0  0  0  0  0  0  0  0
   -7.2000    6.9282    0.0000 H   0  0  0  0  0  0  0  0  0  0  0  0
   -5.6000    1.3856    0.0000 O   0  0  0  0  0  0  0  0  0  0  0  0
  1  2  1  0  0  0  0
  2  3  1  0  0  0  0
  2  4  1  0  0  0  0
  4  5  1  0  0  0  0
  5  6  1  0  0  0  0
  5  7  2  0  0  0  0
  7  8  1  0  0  0  0
  8  9  1  0  0  0  0
  8 10  1  0  0  0  0
  8 11  1  0  0  0  0
  7 12  1  0  0  0  0
 12 13  1  0  0  0  0
 12 14  2  0  0  0  0
 14 15  1  0  0  0  0
 14 16  1  0  0  0  0
 16  4  2  0  0  0  0
 16 17  1  0  0  0  0
  1 18  1  0  0  0  0
 18 19  1  0  0  0  0
 19 20  1  0  0  0  0
 20 21  1  0  0  0  0
 20 22  2  0  0  0  0
 22 23  1  0  0  0  0
 23 24  1  0  0  0  0
 23 25  1  0  0  0  0
 25 26  2  0  0  0  0
 25 27  1  0  0  0  0
 27 28  1  0  0  0  0
 28 29  1  0  0  0  0
 28 30  1  0  0  0  0
 28 31  1  0  0  0  0
 22 32  1  0  0  0  0
 32 33  1  0  0  0  0
 32 34  2  0  0  0  0
 34 35  1  0  0  0  0
 34 36  1  0  0  0  0
 36 19  2  0  0  0  0
 36 37  1  0  0  0  0
  1 38  2  0  0  0  0
M  END
> <ChemID>
100554

> <source_casrn>
13684-63-4

> <CAS>
13684-63-4

> <SMILES>
Cc1cc(ccc1)NC(=O)Oc1cc(ccc1)NC(=O)OC

> <NAME>
PHENMEDIPHAM

> <preferred_name>
Phenmedipham

> <iupac>
3-[(methoxycarbonyl)amino]phenyl (3-methylphenyl)carbamate

> <MPID>
99816

> <dsstox_substance_id>
DTXSID1024255

> <Canonical_QSARr>
Cc1cc(ccc1)NC(=O)Oc1cc(ccc1)NC(=O)OC

> <InChI_Code_QSARr>
InChI=1S/C16H16N2O4/c1-11-5-3-6-12(9-11)18-16(20)22-14-8-4-7-13(10-14)17-15(19)21-2/h3-10H,1-2H3,(H,17,19)(H,18,20)

> <InChI Key_QSARr>
IDOWTHOLJBTAFI-UHFFFAOYSA-N

> <LogKOC>
3.38

$$$$
100557
  -INDIGO-08031722282D

 41 42  0  0  0  0  0  0  0  0999 V2000
    1.3855    0.8000    0.0000 C   0  0  0  0  0  0  0  0  0  0  0  0
    2.9612    0.5222    0.0000 C   0  0  0  0  0  0  0  0  0  0  0  0
    2.6835   -1.0535    0.0000 H   0  0  0  0  0  0  0  0  0  0  0  0
    4.5369    0.2443    0.0000 O   0  0  0  0  0  0  0  0  0  0  0  0
    5.3370   -1.1412    0.0000 C   0  0  0  0  0  0  0  0  0  0  0  0
    6.9369   -1.1412    0.0000 C   0  0  0  0  0  0  0  0  0  0  0  0
    7.7370   -2.5270    0.0000 C   0  0  0  0  0  0  0  0  0  0  0  0
    9.3370   -2.5270    0.0000 C   0  0  0  0  0  0  0  0  0  0  0  0
   10.1371   -3.9125    0.0000 H   0  0  0  0  0  0  0  0  0  0  0  0
   10.1371   -1.1412    0.0000 C   0  0  0  0  0  0  0  0  0  0  0  0
   11.7370   -1.1412    0.0000 H   0  0  0  0  0  0  0  0  0  0  0  0
    9.3370    0.2443    0.0000 C   0  0  0  0  0  0  0  0  0  0  0  0
   10.1371    1.6300    0.0000 H   0  0  0  0  0  0  0  0  0  0  0  0
    7.7370    0.2443    0.0000 C   0  0  0  0  0  0  0  0  0  0  0  0
    6.9369    1.6300    0.0000 H   0  0  0  0  0  0  0  0  0  0  0  0
    6.9369   -3.9125    0.0000 C   0  0  0  0  0  0  0  0  0  0  0  0
    7.7370   -5.2982    0.0000 H   0  0  0  0  0  0  0  0  0  0  0  0
    5.3370   -3.9125    0.0000 C   0  0  0  0  0  0  0  0  0  0  0  0
    4.5369   -5.2982    0.0000 H   0  0  0  0  0  0  0  0  0  0  0  0
    4.5369   -2.5270    0.0000 C   0  0  0  0  0  0  0  0  0  0  0  0
    2.9370   -2.5270    0.0000 H   0  0  0  0  0  0  0  0  0  0  0  0
    3.2392    2.0978    0.0000 C   0  0  0  0  0  0  0  0  0  0  0  0
    3.5171    3.6735    0.0000 H   0  0  0  0  0  0  0  0  0  0  0  0
    4.7426    2.6451    0.0000 H   0  0  0  0  0  0  0  0  0  0  0  0
    2.0134    3.1264    0.0000 H   0  0  0  0  0  0  0  0  0  0  0  0
   -0.0000   -0.0000    0.0000 N   0  0  0  0  0  0  0  0  0  0  0  0
   -1.3856    0.8000    0.0000 C   0  0  0  0  0  0  0  0  0  0  0  0
   -1.9980    2.2783    0.0000 H   0  0  0  0  0  0  0  0  0  0  0  0
   -0.7734    2.2783    0.0000 H   0  0  0  0  0  0  0  0  0  0  0  0
   -2.7714   -0.0000    0.0000 C   0  0  0  0  0  0  0  0  0  0  0  0
   -4.1569    0.8000    0.0000 H   0  0  0  0  0  0  0  0  0  0  0  0
   -4.1569   -0.8000    0.0000 H   0  0  0  0  0  0  0  0  0  0  0  0
   -2.7714    1.6000    0.0000 H   0  0  0  0  0  0  0  0  0  0  0  0
   -0.0000   -1.6000    0.0000 C   0  0  0  0  0  0  0  0  0  0  0  0
    1.5863   -1.8088    0.0000 H   0  0  0  0  0  0  0  0  0  0  0  0
    0.9740   -2.8693    0.0000 H   0  0  0  0  0  0  0  0  0  0  0  0
   -1.3856   -2.4001    0.0000 C   0  0  0  0  0  0  0  0  0  0  0  0
   -2.7714   -3.2000    0.0000 H   0  0  0  0  0  0  0  0  0  0  0  0
   -1.3856   -4.0000    0.0000 H   0  0  0  0  0  0  0  0  0  0  0  0
   -2.7714   -1.6000    0.0000 H   0  0  0  0  0  0  0  0  0  0  0  0
    0.8384    2.3034    0.0000 O   0  0  0  0  0  0  0  0  0  0  0  0
  1  2  1  0  0  0  0
  2  3  1  0  0  0  0
  2  4  1  0  0  0  0
  4  5  1  0  0  0  0
  5  6  1  0  0  0  0
  6  7  1  0  0  0  0
  7  8  2  0  0  0  0
  8  9  1  0  0  0  0
  8 10  1  0  0  0  0
 10 11  1  0  0  0  0
 10 12  2  0  0  0  0
 12 13  1  0  0  0  0
 12 14  1  0  0  0  0
 14  6  2  0  0  0  0
 14 15  1  0  0  0  0
  7 16  1  0  0  0  0
 16 17  1  0  0  0  0
 16 18  2  0  0  0  0
 18 19  1  0  0  0  0
 18 20  1  0  0  0  0
 20  5  2  0  0  0  0
 20 21  1  0  0  0  0
  2 22  1  0  0  0  0
 22 23  1  0  0  0  0
 22 24  1  0  0  0  0
 22 25  1  0  0  0  0
  1 26  1  0  0  0  0
 26 27  1  0  0  0  0
 27 28  1  0  0  0  0
 27 29  1  0  0  0  0
 27 30  1  0  0  0  0
 30 31  1  0  0  0  0
 30 32  1  0  0  0  0
 30 33  1  0  0  0  0
 26 34  1  0  0  0  0
 34 35  1  0  0  0  0
 34 36  1  0  0  0  0
 34 37  1  0  0  0  0
 37 38  1  0  0  0  0
 37 39  1  0  0  0  0
 37 40  1  0  0  0  0
  1 41  2  0  0  0  0
M  END
> <ChemID>
100557

> <source_casrn>
15299-99-7

> <CAS>
15299-99-7

> <SMILES>
CC(Oc1cccc2ccccc21)C(=O)N(CC)CC

> <NAME>
N,N-DIETHYL-2-(1-NAPHTHALENYLOXY)PROPANAMIDE

> <preferred_name>
Napropamide

> <iupac>
N,N-diethyl-2-(naphthalen-1-yloxy)propanamide

> <MPID>
99818

> <dsstox_substance_id>
DTXSID5024211

> <Canonical_QSARr>
CC(Oc1cccc2ccccc21)C(=O)N(CC)CC

> <InChI_Code_QSARr>
InChI=1S/C17H21NO2/c1-4-18(5-2)17(19)13(3)20-16-12-8-10-14-9-6-7-11-15(14)16/h6-13H,4-5H2,1-3H3

> <InChI Key_QSARr>
WXZVAROIGSFCFJ-UHFFFAOYSA-N

> <LogKOC>
2.76

$$$$
100558
  -INDIGO-08031722282D

 26 27  0  0  0  0  0  0  0  0999 V2000
   -2.4000   -1.3856    0.0000 C   0  0  0  0  0  0  0  0  0  0  0  0
   -1.6000   -2.7713    0.0000 O   0  0  0  0  0  0  0  0  0  0  0  0
   -4.0000   -1.3856    0.0000 C   0  0  0  0  0  0  0  0  0  0  0  0
   -4.8000   -2.7713    0.0000 C   0  0  0  0  0  0  0  0  0  0  0  0
   -4.0000   -4.1569    0.0000 I   0  0  0  0  0  0  0  0  0  0  0  0
   -6.4000   -2.7713    0.0000 C   0  0  0  0  0  0  0  0  0  0  0  0
   -7.2000   -4.1569    0.0000 H   0  0  0  0  0  0  0  0  0  0  0  0
   -7.2000   -1.3856    0.0000 C   0  0  0  0  0  0  0  0  0  0  0  0
   -8.8000   -1.3856    0.0000 H   0  0  0  0  0  0  0  0  0  0  0  0
   -6.4000    0.0000    0.0000 C   0  0  0  0  0  0  0  0  0  0  0  0
   -7.2000    1.3856    0.0000 H   0  0  0  0  0  0  0  0  0  0  0  0
   -4.8000    0.0000    0.0000 C   0  0  0  0  0  0  0  0  0  0  0  0
   -4.0000    1.3856    0.0000 H   0  0  0  0  0  0  0  0  0  0  0  0
   -1.6000    0.0000    0.0000 N   0  0  0  0  0  0  0  0  0  0  0  0
   -2.4000    1.3856    0.0000 H   0  0  0  0  0  0  0  0  0  0  0  0
    0.0000    0.0000    0.0000 C   0  0  0  0  0  0  0  0  0  0  0  0
    0.8000    1.3856    0.0000 C   0  0  0  0  0  0  0  0  0  0  0  0
    0.0000    2.7713    0.0000 H   0  0  0  0  0  0  0  0  0  0  0  0
    2.4000    1.3856    0.0000 C   0  0  0  0  0  0  0  0  0  0  0  0
    3.2000    2.7713    0.0000 H   0  0  0  0  0  0  0  0  0  0  0  0
    3.2000    0.0000    0.0000 C   0  0  0  0  0  0  0  0  0  0  0  0
    4.8000    0.0000    0.0000 H   0  0  0  0  0  0  0  0  0  0  0  0
    2.4000   -1.3856    0.0000 C   0  0  0  0  0  0  0  0  0  0  0  0
    3.2000   -2.7713    0.0000 H   0  0  0  0  0  0  0  0  0  0  0  0
    0.8000   -1.3856    0.0000 C   0  0  0  0  0  0  0  0  0  0  0  0
    0.0000   -2.7713    0.0000 H   0  0  0  0  0  0  0  0  0  0  0  0
  1  2  2  0  0  0  0
  1  3  1  0  0  0  0
  3  4  1  0  0  0  0
  4  5  1  0  0  0  0
  4  6  2  0  0  0  0
  6  7  1  0  0  0  0
  6  8  1  0  0  0  0
  8  9  1  0  0  0  0
  8 10  2  0  0  0  0
 10 11  1  0  0  0  0
 10 12  1  0  0  0  0
 12  3  2  0  0  0  0
 12 13  1  0  0  0  0
  1 14  1  0  0  0  0
 14 15  1  0  0  0  0
 14 16  1  0  0  0  0
 16 17  1  0  0  0  0
 17 18  1  0  0  0  0
 17 19  2  0  0  0  0
 19 20  1  0  0  0  0
 19 21  1  0  0  0  0
 21 22  1  0  0  0  0
 21 23  2  0  0  0  0
 23 24  1  0  0  0  0
 23 25  1  0  0  0  0
 25 16  2  0  0  0  0
 25 26  1  0  0  0  0
M  END
> <ChemID>
100558

> <source_casrn>
15310-01-7

> <CAS>
15310-01-7

> <SMILES>
O=C(Nc1ccccc1)c1ccccc1I

> <NAME>
BENZAMIDE, 2-IODO-N-PHENYL

> <preferred_name>
Benodanil

> <iupac>
2-iodo-N-phenylbenzamide

> <MPID>
99819

> <dsstox_substance_id>
DTXSID7041623

> <Canonical_QSARr>
O=C(Nc1ccccc1)c1ccccc1I

> <InChI_Code_QSARr>
InChI=1S/C13H10INO/c14-12-9-5-4-8-11(12)13(16)15-10-6-2-1-3-7-10/h1-9H,(H,15,16)

> <InChI Key_QSARr>
LJOZMWRYMKECFF-UHFFFAOYSA-N

> <LogKOC>
2.82

$$$$
100559
  -INDIGO-08031722282D

 27 27  0  0  0  0  0  0  0  0999 V2000
    1.6001    0.0000    0.0000 C   0  0  0  0  0  0  0  0  0  0  0  0
    2.4001    1.3856    0.0000 O   0  0  0  0  0  0  0  0  0  0  0  0
    0.0000    0.0000    0.0000 N   0  0  0  0  0  0  0  0  0  0  0  0
   -0.8000    1.3856    0.0000 C   0  0  0  0  0  0  0  0  0  0  0  0
   -1.6000    2.7713    0.0000 H   0  0  0  0  0  0  0  0  0  0  0  0
   -2.4000    1.3856    0.0000 H   0  0  0  0  0  0  0  0  0  0  0  0
    0.0000    2.7713    0.0000 H   0  0  0  0  0  0  0  0  0  0  0  0
   -0.8000   -1.3856    0.0000 C   0  0  0  0  0  0  0  0  0  0  0  0
   -1.6000   -2.7713    0.0000 H   0  0  0  0  0  0  0  0  0  0  0  0
   -2.4000   -1.3856    0.0000 H   0  0  0  0  0  0  0  0  0  0  0  0
    0.0000   -2.7713    0.0000 H   0  0  0  0  0  0  0  0  0  0  0  0
    2.4001   -1.3856    0.0000 N   0  0  0  0  0  0  0  0  0  0  0  0
    1.6001   -2.7713    0.0000 H   0  0  0  0  0  0  0  0  0  0  0  0
    4.0001   -1.3856    0.0000 C   0  0  0  0  0  0  0  0  0  0  0  0
    4.7999    0.0000    0.0000 C   0  0  0  0  0  0  0  0  0  0  0  0
    4.0001    1.3856    0.0000 H   0  0  0  0  0  0  0  0  0  0  0  0
    6.3999    0.0000    0.0000 C   0  0  0  0  0  0  0  0  0  0  0  0
    7.2000    1.3856    0.0000 Cl  0  0  0  0  0  0  0  0  0  0  0  0
    7.2000   -1.3856    0.0000 C   0  0  0  0  0  0  0  0  0  0  0  0
    8.8000   -1.3856    0.0000 C   0  0  0  0  0  0  0  0  0  0  0  0
   10.4000   -1.3856    0.0000 H   0  0  0  0  0  0  0  0  0  0  0  0
    9.6000   -2.7713    0.0000 H   0  0  0  0  0  0  0  0  0  0  0  0
    9.6000    0.0000    0.0000 H   0  0  0  0  0  0  0  0  0  0  0  0
    6.3999   -2.7713    0.0000 C   0  0  0  0  0  0  0  0  0  0  0  0
    7.2000   -4.1569    0.0000 H   0  0  0  0  0  0  0  0  0  0  0  0
    4.7999   -2.7713    0.0000 C   0  0  0  0  0  0  0  0  0  0  0  0
    3.9999   -4.1569    0.0000 H   0  0  0  0  0  0  0  0  0  0  0  0
  1  2  2  0  0  0  0
  1  3  1  0  0  0  0
  3  4  1  0  0  0  0
  4  5  1  0  0  0  0
  4  6  1  0  0  0  0
  4  7  1  0  0  0  0
  3  8  1  0  0  0  0
  8  9  1  0  0  0  0
  8 10  1  0  0  0  0
  8 11  1  0  0  0  0
  1 12  1  0  0  0  0
 12 13  1  0  0  0  0
 12 14  1  0  0  0  0
 14 15  1  0  0  0  0
 15 16  1  0  0  0  0
 15 17  2  0  0  0  0
 17 18  1  0  0  0  0
 17 19  1  0  0  0  0
 19 20  1  0  0  0  0
 20 21  1  0  0  0  0
 20 22  1  0  0  0  0
 20 23  1  0  0  0  0
 19 24  2  0  0  0  0
 24 25  1  0  0  0  0
 24 26  1  0  0  0  0
 26 14  2  0  0  0  0
 26 27  1  0  0  0  0
M  END
> <ChemID>
100559

> <source_casrn>
15545-48-9

> <CAS>
15545-48-9

> <SMILES>
Cc1ccc(cc1Cl)NC(=O)N(C)C

> <NAME>
CHLORTOLURON

> <preferred_name>
Chlorotoluron

> <iupac>
3-(3-chloro-4-methylphenyl)-1,1-dimethylurea

> <MPID>
99820

> <dsstox_substance_id>
DTXSID8052853

> <Canonical_QSARr>
Cc1ccc(cc1Cl)NC(=O)N(C)C

> <InChI_Code_QSARr>
InChI=1S/C10H13ClN2O/c1-7-4-5-8(6-9(7)11)12-10(14)13(2)3/h4-6H,1-3H3,(H,12,14)

> <InChI Key_QSARr>
JXCGFZXSOMJFOA-UHFFFAOYSA-N

> <LogKOC>
2.02

$$$$
100561
  -INDIGO-08031722282D

 38 38  0  0  0  0  0  0  0  0999 V2000
    0.8000    1.3857    0.0000 C   0  0  0  0  0  0  0  0  0  0  0  0
    2.4000    1.3857    0.0000 C   0  0  0  0  0  0  0  0  0  0  0  0
    3.6693    0.4116    0.0000 H   0  0  0  0  0  0  0  0  0  0  0  0
    2.6088   -0.2007    0.0000 H   0  0  0  0  0  0  0  0  0  0  0  0
    3.2000    2.7712    0.0000 C   0  0  0  0  0  0  0  0  0  0  0  0
    4.0001    4.1569    0.0000 H   0  0  0  0  0  0  0  0  0  0  0  0
    4.8001    2.7712    0.0000 H   0  0  0  0  0  0  0  0  0  0  0  0
    2.4000    4.1569    0.0000 H   0  0  0  0  0  0  0  0  0  0  0  0
   -0.0000    2.7712    0.0000 C   0  0  0  0  0  0  0  0  0  0  0  0
    0.8000    4.1569    0.0000 H   0  0  0  0  0  0  0  0  0  0  0  0
   -1.6001    2.7712    0.0000 C   0  0  0  0  0  0  0  0  0  0  0  0
   -2.3999    4.1569    0.0000 H   0  0  0  0  0  0  0  0  0  0  0  0
   -2.3999    1.3857    0.0000 C   0  0  0  0  0  0  0  0  0  0  0  0
   -4.0000    1.3857    0.0000 H   0  0  0  0  0  0  0  0  0  0  0  0
   -1.6001   -0.0000    0.0000 C   0  0  0  0  0  0  0  0  0  0  0  0
   -2.6284   -1.2256    0.0000 C   0  0  0  0  0  0  0  0  0  0  0  0
   -1.5475   -2.4053    0.0000 H   0  0  0  0  0  0  0  0  0  0  0  0
   -2.6983   -2.8242    0.0000 H   0  0  0  0  0  0  0  0  0  0  0  0
   -4.2042   -0.9478    0.0000 C   0  0  0  0  0  0  0  0  0  0  0  0
   -5.7798   -0.6701    0.0000 H   0  0  0  0  0  0  0  0  0  0  0  0
   -5.2326   -2.1736    0.0000 H   0  0  0  0  0  0  0  0  0  0  0  0
   -4.7513    0.5557    0.0000 H   0  0  0  0  0  0  0  0  0  0  0  0
   -0.0000   -0.0000    0.0000 C   0  0  0  0  0  0  0  0  0  0  0  0
    0.8000   -1.3856    0.0000 N   0  0  0  0  0  0  0  0  0  0  0  0
    2.3034   -1.9329    0.0000 C   0  0  0  0  0  0  0  0  0  0  0  0
    3.1632   -3.2822    0.0000 H   0  0  0  0  0  0  0  0  0  0  0  0
    1.9573   -3.4950    0.0000 H   0  0  0  0  0  0  0  0  0  0  0  0
    3.5291   -0.9044    0.0000 O   0  0  0  0  0  0  0  0  0  0  0  0
    5.0327   -1.4516    0.0000 C   0  0  0  0  0  0  0  0  0  0  0  0
    6.5362   -1.9988    0.0000 H   0  0  0  0  0  0  0  0  0  0  0  0
    6.2584   -0.4232    0.0000 H   0  0  0  0  0  0  0  0  0  0  0  0
    5.3105   -3.0273    0.0000 H   0  0  0  0  0  0  0  0  0  0  0  0
   -0.4257   -2.4140    0.0000 C   0  0  0  0  0  0  0  0  0  0  0  0
   -1.6514   -1.3856    0.0000 O   0  0  0  0  0  0  0  0  0  0  0  0
   -0.4257   -4.0141    0.0000 C   0  0  0  0  0  0  0  0  0  0  0  0
   -0.4257   -5.6141    0.0000 H   0  0  0  0  0  0  0  0  0  0  0  0
   -1.8113   -4.8140    0.0000 H   0  0  0  0  0  0  0  0  0  0  0  0
    0.9599   -4.8140    0.0000 Cl  0  0  0  0  0  0  0  0  0  0  0  0
  1  2  1  0  0  0  0
  2  3  1  0  0  0  0
  2  4  1  0  0  0  0
  2  5  1  0  0  0  0
  5  6  1  0  0  0  0
  5  7  1  0  0  0  0
  5  8  1  0  0  0  0
  1  9  1  0  0  0  0
  9 10  1  0  0  0  0
  9 11  2  0  0  0  0
 11 12  1  0  0  0  0
 11 13  1  0  0  0  0
 13 14  1  0  0  0  0
 13 15  2  0  0  0  0
 15 16  1  0  0  0  0
 16 17  1  0  0  0  0
 16 18  1  0  0  0  0
 16 19  1  0  0  0  0
 19 20  1  0  0  0  0
 19 21  1  0  0  0  0
 19 22  1  0  0  0  0
 15 23  1  0  0  0  0
 23  1  2  0  0  0  0
 23 24  1  0  0  0  0
 24 25  1  0  0  0  0
 25 26  1  0  0  0  0
 25 27  1  0  0  0  0
 25 28  1  0  0  0  0
 28 29  1  0  0  0  0
 29 30  1  0  0  0  0
 29 31  1  0  0  0  0
 29 32  1  0  0  0  0
 24 33  1  0  0  0  0
 33 34  2  0  0  0  0
 33 35  1  0  0  0  0
 35 36  1  0  0  0  0
 35 37  1  0  0  0  0
 35 38  1  0  0  0  0
M  END
> <ChemID>
100561

> <source_casrn>
15972-60-8

> <CAS>
15972-60-8

> <SMILES>
COCN(C(=O)CCl)c1c(CC)cccc1CC

> <NAME>
ALACHLOR

> <preferred_name>
Alachlor

> <iupac>
2-chloro-N-(2,6-diethylphenyl)-N-(methoxymethyl)acetamide

> <MPID>
99822

> <dsstox_substance_id>
DTXSID1022265

> <Canonical_QSARr>
COCN(C(=O)CCl)c1c(CC)cccc1CC

> <InChI_Code_QSARr>
InChI=1S/C14H20ClNO2/c1-4-11-7-6-8-12(5-2)14(11)16(10-18-3)13(17)9-15/h6-8H,4-5,9-10H2,1-3H3

> <InChI Key_QSARr>
XCSGPAVHZFQHGE-UHFFFAOYSA-N

> <LogKOC>
2.28

$$$$
100562
  -INDIGO-08031722282D

 13 12  0  0  0  0  0  0  0  0999 V2000
   -1.3856    0.8000    0.0000 P   0  0  0  0  0  0  0  0  0  0  0  0
    0.0000    0.0000    0.0000 C   0  0  0  0  0  0  0  0  0  0  0  0
   -0.6123   -1.4782    0.0000 H   0  0  0  0  0  0  0  0  0  0  0  0
    0.6123   -1.4782    0.0000 H   0  0  0  0  0  0  0  0  0  0  0  0
    1.3856    0.8000    0.0000 C   0  0  0  0  0  0  0  0  0  0  0  0
    2.7713    1.6000    0.0000 H   0  0  0  0  0  0  0  0  0  0  0  0
    2.7713    0.0000    0.0000 H   0  0  0  0  0  0  0  0  0  0  0  0
    1.3856    2.4000    0.0000 Cl  0  0  0  0  0  0  0  0  0  0  0  0
   -1.3856    2.4000    0.0000 O   0  0  0  0  0  0  0  0  0  0  0  0
   -2.7713    1.6000    0.0000 O   0  0  0  0  0  0  0  0  0  0  0  0
   -4.1569    0.8000    0.0000 H   0  0  0  0  0  0  0  0  0  0  0  0
   -2.7713    0.0000    0.0000 O   0  0  0  0  0  0  0  0  0  0  0  0
   -2.7713   -1.6000    0.0000 H   0  0  0  0  0  0  0  0  0  0  0  0
  1  2  1  0  0  0  0
  2  3  1  0  0  0  0
  2  4  1  0  0  0  0
  2  5  1  0  0  0  0
  5  6  1  0  0  0  0
  5  7  1  0  0  0  0
  5  8  1  0  0  0  0
  1  9  2  0  0  0  0
  1 10  1  0  0  0  0
 10 11  1  0  0  0  0
  1 12  1  0  0  0  0
 12 13  1  0  0  0  0
M  END
> <ChemID>
100562

> <source_casrn>
16672-87-0

> <CAS>
16672-87-0

> <SMILES>
OP(O)(=O)CCCl

> <NAME>
ETHEPHON

> <preferred_name>
Ethephon

> <iupac>
(2-chloroethyl)phosphonic acid

> <MPID>
99823

> <dsstox_substance_id>
DTXSID7024085

> <Canonical_QSARr>
OP(O)(=O)CCCl

> <InChI_Code_QSARr>
InChI=1S/C2H6ClO3P/c3-1-2-7(4,5)6/h1-2H2,(H2,4,5,6)

> <InChI Key_QSARr>
UDPGUMQDCGORJQ-UHFFFAOYSA-N

> <LogKOC>
0.0

$$$$
100563
  -INDIGO-08031722282D

 20 19  0  0  0  0  0  0  0  0999 V2000
   -1.3857    2.4000    0.0000 C   0  0  0  0  0  0  0  0  0  0  0  0
   -1.3857    4.0000    0.0000 H   0  0  0  0  0  0  0  0  0  0  0  0
   -2.7712    3.2000    0.0000 H   0  0  0  0  0  0  0  0  0  0  0  0
   -0.0000    3.2000    0.0000 H   0  0  0  0  0  0  0  0  0  0  0  0
   -0.0000    1.6000    0.0000 S   0  0  0  0  0  0  0  0  0  0  0  0
   -0.0000    0.0000    0.0000 C   0  0  0  0  0  0  0  0  0  0  0  0
    1.3856   -0.8000    0.0000 C   0  0  0  0  0  0  0  0  0  0  0  0
    2.7713   -1.6000    0.0000 H   0  0  0  0  0  0  0  0  0  0  0  0
    1.3856   -2.4000    0.0000 H   0  0  0  0  0  0  0  0  0  0  0  0
    2.7713    0.0000    0.0000 H   0  0  0  0  0  0  0  0  0  0  0  0
   -1.3857   -0.8000    0.0000 N   0  0  0  0  0  0  0  0  0  0  0  0
   -2.7712    0.0000    0.0000 O   0  0  0  0  0  0  0  0  0  0  0  0
   -4.1569   -0.8000    0.0000 C   0  0  0  0  0  0  0  0  0  0  0  0
   -4.1569   -2.4000    0.0000 O   0  0  0  0  0  0  0  0  0  0  0  0
   -5.5425    0.0000    0.0000 N   0  0  0  0  0  0  0  0  0  0  0  0
   -5.5425    1.6000    0.0000 H   0  0  0  0  0  0  0  0  0  0  0  0
   -6.9282   -0.8000    0.0000 C   0  0  0  0  0  0  0  0  0  0  0  0
   -8.3138   -1.6000    0.0000 H   0  0  0  0  0  0  0  0  0  0  0  0
   -8.3138    0.0000    0.0000 H   0  0  0  0  0  0  0  0  0  0  0  0
   -6.9282   -2.4000    0.0000 H   0  0  0  0  0  0  0  0  0  0  0  0
  1  2  1  0  0  0  0
  1  3  1  0  0  0  0
  1  4  1  0  0  0  0
  1  5  1  0  0  0  0
  5  6  1  0  0  0  0
  6  7  1  0  0  0  0
  7  8  1  0  0  0  0
  7  9  1  0  0  0  0
  7 10  1  0  0  0  0
  6 11  2  0  0  0  0
 11 12  1  0  0  0  0
 12 13  1  0  0  0  0
 13 14  2  0  0  0  0
 13 15  1  0  0  0  0
 15 16  1  0  0  0  0
 15 17  1  0  0  0  0
 17 18  1  0  0  0  0
 17 19  1  0  0  0  0
 17 20  1  0  0  0  0
M  END
> <ChemID>
100563

> <source_casrn>
16752-77-5

> <CAS>
NOCAS_860187

> <SMILES>
CC(=NOC(=O)NC)SC

> <NAME>
METHOMYL

> <preferred_name>
Methomyl

> <iupac>
methyl N-[(methylcarbamoyl)oxy]ethanimidothioate

> <MPID>
99824

> <dsstox_substance_id>
DTXSID60860187

> <Canonical_QSARr>
CC(=NOC(=O)NC)SC

> <InChI_Code_QSARr>
InChI=1S/C5H10N2O2S/c1-4(10-3)7-9-5(8)6-2/h1-3H3,(H,6,8)/b7-4-

> <InChI Key_QSARr>
UHXUZOCRWCRNSJ-DAXSKMNVSA-N

> <LogKOC>
1.3

$$$$
100566
  -INDIGO-08031722282D

 26 27  0  0  0  0  0  0  0  0999 V2000
   -1.6000    0.0000    0.0000 C   0  0  0  0  0  0  0  0  0  0  0  0
    0.0000    0.0000    0.0000 N   0  0  0  0  0  0  0  0  0  0  0  0
    0.8000   -1.3857    0.0000 C   0  0  0  0  0  0  0  0  0  0  0  0
    0.0000   -2.7713    0.0000 O   0  0  0  0  0  0  0  0  0  0  0  0
    2.4000   -1.3857    0.0000 N   0  0  0  0  0  0  0  0  0  0  0  0
    3.2000    0.0000    0.0000 H   0  0  0  0  0  0  0  0  0  0  0  0
    3.2000   -2.7713    0.0000 C   0  0  0  0  0  0  0  0  0  0  0  0
    4.0000   -4.1569    0.0000 H   0  0  0  0  0  0  0  0  0  0  0  0
    4.8000   -2.7713    0.0000 H   0  0  0  0  0  0  0  0  0  0  0  0
    2.4000   -4.1569    0.0000 H   0  0  0  0  0  0  0  0  0  0  0  0
    0.8000    1.3857    0.0000 C   0  0  0  0  0  0  0  0  0  0  0  0
    1.6000    2.7713    0.0000 H   0  0  0  0  0  0  0  0  0  0  0  0
    2.4000    1.3857    0.0000 H   0  0  0  0  0  0  0  0  0  0  0  0
    0.0000    2.7713    0.0000 H   0  0  0  0  0  0  0  0  0  0  0  0
   -2.5404    1.2944    0.0000 N   0  0  0  0  0  0  0  0  0  0  0  0
   -4.0621    0.8000    0.0000 C   0  0  0  0  0  0  0  0  0  0  0  0
   -4.0621   -0.8000    0.0000 C   0  0  0  0  0  0  0  0  0  0  0  0
   -5.4478   -1.6000    0.0000 C   0  0  0  0  0  0  0  0  0  0  0  0
   -5.4478   -3.2000    0.0000 H   0  0  0  0  0  0  0  0  0  0  0  0
   -6.8334   -0.8000    0.0000 C   0  0  0  0  0  0  0  0  0  0  0  0
   -8.2191   -1.6000    0.0000 H   0  0  0  0  0  0  0  0  0  0  0  0
   -6.8334    0.8000    0.0000 C   0  0  0  0  0  0  0  0  0  0  0  0
   -8.2191    1.6000    0.0000 H   0  0  0  0  0  0  0  0  0  0  0  0
   -5.4478    1.6000    0.0000 C   0  0  0  0  0  0  0  0  0  0  0  0
   -5.4478    3.2000    0.0000 H   0  0  0  0  0  0  0  0  0  0  0  0
   -2.5404   -1.2944    0.0000 S   0  0  0  0  0  0  0  0  0  0  0  0
  1  2  1  0  0  0  0
  2  3  1  0  0  0  0
  3  4  2  0  0  0  0
  3  5  1  0  0  0  0
  5  6  1  0  0  0  0
  5  7  1  0  0  0  0
  7  8  1  0  0  0  0
  7  9  1  0  0  0  0
  7 10  1  0  0  0  0
  2 11  1  0  0  0  0
 11 12  1  0  0  0  0
 11 13  1  0  0  0  0
 11 14  1  0  0  0  0
  1 15  2  0  0  0  0
 15 16  1  0  0  0  0
 16 17  1  0  0  0  0
 17 18  2  0  0  0  0
 18 19  1  0  0  0  0
 18 20  1  0  0  0  0
 20 21  1  0  0  0  0
 20 22  2  0  0  0  0
 22 23  1  0  0  0  0
 22 24  1  0  0  0  0
 24 16  2  0  0  0  0
 24 25  1  0  0  0  0
 17 26  1  0  0  0  0
 26  1  1  0  0  0  0
M  END
> <ChemID>
100566

> <source_casrn>
18691-97-9

> <CAS>
18691-97-9

> <SMILES>
CNC(=O)N(C)c1[n]c2ccccc2[s]1

> <NAME>
Methabenzthiazuron

> <preferred_name>
Methabenzthiazuron

> <iupac>
1-(1,3-benzothiazol-2-yl)-1,3-dimethylurea

> <MPID>
99826

> <dsstox_substance_id>
DTXSID0037570

> <Canonical_QSARr>
CNC(=O)N(C)c1[n]c2ccccc2[s]1

> <InChI_Code_QSARr>
InChI=1S/C10H11N3OS/c1-11-9(14)13(2)10-12-7-5-3-4-6-8(7)15-10/h3-6H,1-2H3,(H,11,14)

> <InChI Key_QSARr>
RRVIAQKBTUQODI-UHFFFAOYSA-N

> <LogKOC>
2.8

$$$$
100567
  -INDIGO-08031722282D

 41 41  0  0  0  0  0  0  0  0999 V2000
    2.4000    1.3857    0.0000 C   0  0  0  0  0  0  0  0  0  0  0  0
    2.1221    2.9613    0.0000 N   0  0  0  0  0  0  0  0  0  0  0  0
    3.3478    3.9898    0.0000 O   0  0  0  0  0  0  0  0  0  0  0  0
    0.6186    3.5085    0.0000 O   0  0  0  0  0  0  0  0  0  0  0  0
    1.6000    0.0000    0.0000 C   0  0  0  0  0  0  0  0  0  0  0  0
    0.0000    0.0000    0.0000 N   0  0  0  0  0  0  0  0  0  0  0  0
   -0.8000   -1.3856    0.0000 C   0  0  0  0  0  0  0  0  0  0  0  0
   -0.5912   -2.9720    0.0000 H   0  0  0  0  0  0  0  0  0  0  0  0
    0.4694   -2.3597    0.0000 H   0  0  0  0  0  0  0  0  0  0  0  0
   -2.1856   -2.1857    0.0000 C   0  0  0  0  0  0  0  0  0  0  0  0
   -3.1597   -0.9163    0.0000 H   0  0  0  0  0  0  0  0  0  0  0  0
   -3.7719   -1.9768    0.0000 H   0  0  0  0  0  0  0  0  0  0  0  0
   -2.1856   -3.7857    0.0000 C   0  0  0  0  0  0  0  0  0  0  0  0
   -2.1856   -5.3856    0.0000 H   0  0  0  0  0  0  0  0  0  0  0  0
   -3.5713   -4.5857    0.0000 H   0  0  0  0  0  0  0  0  0  0  0  0
   -0.8000   -4.5857    0.0000 H   0  0  0  0  0  0  0  0  0  0  0  0
   -0.8000    1.3857    0.0000 C   0  0  0  0  0  0  0  0  0  0  0  0
    0.4694    2.3597    0.0000 H   0  0  0  0  0  0  0  0  0  0  0  0
   -0.5912    2.9719    0.0000 H   0  0  0  0  0  0  0  0  0  0  0  0
   -2.4000    1.3857    0.0000 C   0  0  0  0  0  0  0  0  0  0  0  0
   -3.6694    0.4117    0.0000 H   0  0  0  0  0  0  0  0  0  0  0  0
   -2.3303   -0.2128    0.0000 H   0  0  0  0  0  0  0  0  0  0  0  0
   -3.2000    2.7713    0.0000 C   0  0  0  0  0  0  0  0  0  0  0  0
   -4.0000    4.1569    0.0000 H   0  0  0  0  0  0  0  0  0  0  0  0
   -4.8000    2.7713    0.0000 H   0  0  0  0  0  0  0  0  0  0  0  0
   -2.4000    4.1569    0.0000 H   0  0  0  0  0  0  0  0  0  0  0  0
    2.4000   -1.3856    0.0000 C   0  0  0  0  0  0  0  0  0  0  0  0
    2.1221   -2.9614    0.0000 N   0  0  0  0  0  0  0  0  0  0  0  0
    0.6186   -3.5086    0.0000 O   0  0  0  0  0  0  0  0  0  0  0  0
    3.3478   -3.9898    0.0000 O   0  0  0  0  0  0  0  0  0  0  0  0
    4.0000   -1.3856    0.0000 C   0  0  0  0  0  0  0  0  0  0  0  0
    4.8000   -2.7712    0.0000 H   0  0  0  0  0  0  0  0  0  0  0  0
    4.8000    0.0000    0.0000 C   0  0  0  0  0  0  0  0  0  0  0  0
    6.4000    0.0000    0.0000 S   0  0  0  0  0  0  0  0  0  0  0  0
    6.4000    1.6000    0.0000 O   0  0  0  0  0  0  0  0  0  0  0  0
    6.4000   -1.6001    0.0000 O   0  0  0  0  0  0  0  0  0  0  0  0
    8.0000    0.0000    0.0000 N   0  0  0  0  0  0  0  0  0  0  0  0
    8.8000   -1.3856    0.0000 H   0  0  0  0  0  0  0  0  0  0  0  0
    8.8000    1.3857    0.0000 H   0  0  0  0  0  0  0  0  0  0  0  0
    4.0000    1.3857    0.0000 C   0  0  0  0  0  0  0  0  0  0  0  0
    4.8000    2.7713    0.0000 H   0  0  0  0  0  0  0  0  0  0  0  0
  1  2  1  0  0  0  0
  2  3  1  0  0  0  0
  2  4  2  0  0  0  0
  1  5  1  0  0  0  0
  5  6  1  0  0  0  0
  6  7  1  0  0  0  0
  7  8  1  0  0  0  0
  7  9  1  0  0  0  0
  7 10  1  0  0  0  0
 10 11  1  0  0  0  0
 10 12  1  0  0  0  0
 10 13  1  0  0  0  0
 13 14  1  0  0  0  0
 13 15  1  0  0  0  0
 13 16  1  0  0  0  0
  6 17  1  0  0  0  0
 17 18  1  0  0  0  0
 17 19  1  0  0  0  0
 17 20  1  0  0  0  0
 20 21  1  0  0  0  0
 20 22  1  0  0  0  0
 20 23  1  0  0  0  0
 23 24  1  0  0  0  0
 23 25  1  0  0  0  0
 23 26  1  0  0  0  0
  5 27  2  0  0  0  0
 27 28  1  0  0  0  0
 28 29  1  0  0  0  0
 28 30  2  0  0  0  0
 27 31  1  0  0  0  0
 31 32  1  0  0  0  0
 31 33  2  0  0  0  0
 33 34  1  0  0  0  0
 34 35  2  0  0  0  0
 34 36  2  0  0  0  0
 34 37  1  0  0  0  0
 37 38  1  0  0  0  0
 37 39  1  0  0  0  0
 33 40  1  0  0  0  0
 40  1  2  0  0  0  0
 40 41  1  0  0  0  0
M  CHG  4   2   1   3  -1  28   1  29  -1
M  END
> <ChemID>
100567

> <source_casrn>
19044-88-3

> <CAS>
19044-88-3

> <SMILES>
CCCN(CCC)c1c(cc(cc1[N+]([O-])=O)S(N)(=O)=O)[N+]([O-])=O

> <NAME>
ORYZALIN

> <preferred_name>
Oryzalin

> <iupac>
4-(dipropylamino)-3,5-dinitrobenzenesulfonamide

> <MPID>
99827

> <dsstox_substance_id>
DTXSID8024238

> <Canonical_QSARr>
CCCN(CCC)c1c(cc(cc1[N+]([O-])=O)S(N)(=O)=O)[N+]([O-])=O

> <InChI_Code_QSARr>
InChI=1S/C12H18N4O6S/c1-3-5-14(6-4-2)12-10(15(17)18)7-9(23(13,21)22)8-11(12)16(19)20/h7-8H,3-6H2,1-2H3,(H2,13,21,22)

> <InChI Key_QSARr>
UNAHYJYOSSSJHH-UHFFFAOYSA-N

> <LogKOC>
3.4

$$$$
100568
  -INDIGO-08031722282D

 37 38  0  0  0  0  0  0  0  0999 V2000
   -2.5983   -1.8680    0.0000 O   0  0  0  0  0  0  0  0  0  0  0  0
   -2.7574   -0.2760    0.0000 C   0  0  0  0  0  0  0  0  0  0  0  0
   -1.4585    0.6581    0.0000 N   0  0  0  0  0  0  0  0  0  0  0  0
   -1.8918    2.1982    0.0000 H   0  0  0  0  0  0  0  0  0  0  0  0
    0.0001   -0.0000    0.0000 C   0  0  0  0  0  0  0  0  0  0  0  0
   -1.1730   -1.0882    0.0000 H   0  0  0  0  0  0  0  0  0  0  0  0
    0.5846    1.4895    0.0000 C   0  0  0  0  0  0  0  0  0  0  0  0
   -0.9975    1.7279    0.0000 H   0  0  0  0  0  0  0  0  0  0  0  0
    0.4651    3.0849    0.0000 H   0  0  0  0  0  0  0  0  0  0  0  0
    2.1135    1.9610    0.0000 C   0  0  0  0  0  0  0  0  0  0  0  0
    1.5662    3.4645    0.0000 H   0  0  0  0  0  0  0  0  0  0  0  0
    3.0795    3.2364    0.0000 H   0  0  0  0  0  0  0  0  0  0  0  0
    3.4355    1.0597    0.0000 C   0  0  0  0  0  0  0  0  0  0  0  0
    4.0201    2.5491    0.0000 H   0  0  0  0  0  0  0  0  0  0  0  0
    5.0349    1.0996    0.0000 H   0  0  0  0  0  0  0  0  0  0  0  0
    3.5551   -0.5359    0.0000 C   0  0  0  0  0  0  0  0  0  0  0  0
    5.0839   -0.0642    0.0000 H   0  0  0  0  0  0  0  0  0  0  0  0
    4.5834   -1.7615    0.0000 H   0  0  0  0  0  0  0  0  0  0  0  0
    2.3821   -1.6241    0.0000 C   0  0  0  0  0  0  0  0  0  0  0  0
    3.7041   -2.5255    0.0000 H   0  0  0  0  0  0  0  0  0  0  0  0
    2.0651   -3.1924    0.0000 H   0  0  0  0  0  0  0  0  0  0  0  0
    0.8001   -1.3856    0.0000 C   0  0  0  0  0  0  0  0  0  0  0  0
    0.9197   -2.9811    0.0000 H   0  0  0  0  0  0  0  0  0  0  0  0
   -0.6239   -2.1156    0.0000 H   0  0  0  0  0  0  0  0  0  0  0  0
   -4.2160    0.3821    0.0000 N   0  0  0  0  0  0  0  0  0  0  0  0
   -4.3751    1.9742    0.0000 H   0  0  0  0  0  0  0  0  0  0  0  0
   -5.5149   -0.5519    0.0000 C   0  0  0  0  0  0  0  0  0  0  0  0
   -5.3558   -2.1439    0.0000 C   0  0  0  0  0  0  0  0  0  0  0  0
   -3.8972   -2.8020    0.0000 H   0  0  0  0  0  0  0  0  0  0  0  0
   -6.6547   -3.0779    0.0000 C   0  0  0  0  0  0  0  0  0  0  0  0
   -6.4956   -4.6699    0.0000 H   0  0  0  0  0  0  0  0  0  0  0  0
   -8.1133   -2.4198    0.0000 C   0  0  0  0  0  0  0  0  0  0  0  0
   -9.4124   -3.3539    0.0000 H   0  0  0  0  0  0  0  0  0  0  0  0
   -8.2726   -0.8278    0.0000 C   0  0  0  0  0  0  0  0  0  0  0  0
   -9.7309   -0.1697    0.0000 H   0  0  0  0  0  0  0  0  0  0  0  0
   -6.9735    0.1062    0.0000 C   0  0  0  0  0  0  0  0  0  0  0  0
   -7.1328    1.6982    0.0000 H   0  0  0  0  0  0  0  0  0  0  0  0
  1  2  2  0  0  0  0
  2  3  1  0  0  0  0
  3  4  1  0  0  0  0
  3  5  1  0  0  0  0
  5  6  1  0  0  0  0
  5  7  1  0  0  0  0
  7  8  1  0  0  0  0
  7  9  1  0  0  0  0
  7 10  1  0  0  0  0
 10 11  1  0  0  0  0
 10 12  1  0  0  0  0
 10 13  1  0  0  0  0
 13 14  1  0  0  0  0
 13 15  1  0  0  0  0
 13 16  1  0  0  0  0
 16 17  1  0  0  0  0
 16 18  1  0  0  0  0
 16 19  1  0  0  0  0
 19 20  1  0  0  0  0
 19 21  1  0  0  0  0
 19 22  1  0  0  0  0
 22  5  1  0  0  0  0
 22 23  1  0  0  0  0
 22 24  1  0  0  0  0
  2 25  1  0  0  0  0
 25 26  1  0  0  0  0
 25 27  1  0  0  0  0
 27 28  1  0  0  0  0
 28 29  1  0  0  0  0
 28 30  2  0  0  0  0
 30 31  1  0  0  0  0
 30 32  1  0  0  0  0
 32 33  1  0  0  0  0
 32 34  2  0  0  0  0
 34 35  1  0  0  0  0
 34 36  1  0  0  0  0
 36 27  2  0  0  0  0
 36 37  1  0  0  0  0
M  END
> <ChemID>
100568

> <source_casrn>
19095-79-5

> <CAS>
19095-79-5

> <SMILES>
O=C(Nc1ccccc1)NC1CCCCCC1

> <NAME>
N-CYCLOHEPTYL-N'-PHENYLUREA

> <preferred_name>
N-Cycloheptyl-N'-phenylurea

> <iupac>
1-cycloheptyl-3-phenylurea

> <MPID>
99828

> <dsstox_substance_id>
DTXSID10172606

> <Canonical_QSARr>
O=C(Nc1ccccc1)NC1CCCCCC1

> <InChI_Code_QSARr>
InChI=1S/C14H20N2O/c17-14(16-13-10-6-3-7-11-13)15-12-8-4-1-2-5-9-12/h3,6-7,10-12H,1-2,4-5,8-9H2,(H2,15,16,17)

> <InChI Key_QSARr>
MMNBZHUPPBZRSD-UHFFFAOYSA-N

> <LogKOC>
2.37

$$$$
100570
  -INDIGO-08031722282D

 28 28  0  0  0  0  0  0  0  0999 V2000
    1.6000    0.0000    0.0000 C   0  0  0  0  0  0  0  0  0  0  0  0
    2.4000   -1.3856    0.0000 O   0  0  0  0  0  0  0  0  0  0  0  0
    0.0000    0.0000    0.0000 N   0  0  0  0  0  0  0  0  0  0  0  0
   -0.8000   -1.3856    0.0000 C   0  0  0  0  0  0  0  0  0  0  0  0
   -1.6000   -2.7713    0.0000 H   0  0  0  0  0  0  0  0  0  0  0  0
   -2.4000   -1.3856    0.0000 H   0  0  0  0  0  0  0  0  0  0  0  0
    0.0000   -2.7713    0.0000 H   0  0  0  0  0  0  0  0  0  0  0  0
   -0.8000    1.3856    0.0000 C   0  0  0  0  0  0  0  0  0  0  0  0
   -1.6000    2.7713    0.0000 H   0  0  0  0  0  0  0  0  0  0  0  0
   -2.4000    1.3856    0.0000 H   0  0  0  0  0  0  0  0  0  0  0  0
    0.0000    2.7713    0.0000 H   0  0  0  0  0  0  0  0  0  0  0  0
    2.4000    1.3856    0.0000 N   0  0  0  0  0  0  0  0  0  0  0  0
    1.6000    2.7713    0.0000 H   0  0  0  0  0  0  0  0  0  0  0  0
    4.0000    1.3856    0.0000 C   0  0  0  0  0  0  0  0  0  0  0  0
    4.8000    2.7713    0.0000 C   0  0  0  0  0  0  0  0  0  0  0  0
    4.0000    4.1569    0.0000 H   0  0  0  0  0  0  0  0  0  0  0  0
    6.4000    2.7713    0.0000 C   0  0  0  0  0  0  0  0  0  0  0  0
    7.2000    4.1569    0.0000 Cl  0  0  0  0  0  0  0  0  0  0  0  0
    7.2000    1.3856    0.0000 C   0  0  0  0  0  0  0  0  0  0  0  0
    8.8000    1.3856    0.0000 O   0  0  0  0  0  0  0  0  0  0  0  0
    9.6000    2.7713    0.0000 C   0  0  0  0  0  0  0  0  0  0  0  0
   11.2000    2.7713    0.0000 H   0  0  0  0  0  0  0  0  0  0  0  0
   10.4000    4.1569    0.0000 H   0  0  0  0  0  0  0  0  0  0  0  0
   10.4000    1.3856    0.0000 H   0  0  0  0  0  0  0  0  0  0  0  0
    6.4000    0.0000    0.0000 C   0  0  0  0  0  0  0  0  0  0  0  0
    7.2000   -1.3856    0.0000 H   0  0  0  0  0  0  0  0  0  0  0  0
    4.8000    0.0000    0.0000 C   0  0  0  0  0  0  0  0  0  0  0  0
    4.0000   -1.3856    0.0000 H   0  0  0  0  0  0  0  0  0  0  0  0
  1  2  2  0  0  0  0
  1  3  1  0  0  0  0
  3  4  1  0  0  0  0
  4  5  1  0  0  0  0
  4  6  1  0  0  0  0
  4  7  1  0  0  0  0
  3  8  1  0  0  0  0
  8  9  1  0  0  0  0
  8 10  1  0  0  0  0
  8 11  1  0  0  0  0
  1 12  1  0  0  0  0
 12 13  1  0  0  0  0
 12 14  1  0  0  0  0
 14 15  1  0  0  0  0
 15 16  1  0  0  0  0
 15 17  2  0  0  0  0
 17 18  1  0  0  0  0
 17 19  1  0  0  0  0
 19 20  1  0  0  0  0
 20 21  1  0  0  0  0
 21 22  1  0  0  0  0
 21 23  1  0  0  0  0
 21 24  1  0  0  0  0
 19 25  2  0  0  0  0
 25 26  1  0  0  0  0
 25 27  1  0  0  0  0
 27 14  2  0  0  0  0
 27 28  1  0  0  0  0
M  END
> <ChemID>
100570

> <source_casrn>
19937-59-8

> <CAS>
19937-59-8

> <SMILES>
COc1ccc(cc1Cl)NC(=O)N(C)C

> <NAME>
METOXURON

> <preferred_name>
Metoxuron

> <iupac>
3-(3-chloro-4-methoxyphenyl)-1,1-dimethylurea

> <MPID>
99830

> <dsstox_substance_id>
DTXSID1042158

> <Canonical_QSARr>
COc1ccc(cc1Cl)NC(=O)N(C)C

> <InChI_Code_QSARr>
InChI=1S/C10H13ClN2O2/c1-13(2)10(14)12-7-4-5-9(15-3)8(11)6-7/h4-6H,1-3H3,(H,12,14)

> <InChI Key_QSARr>
DSRNRYQBBJQVCW-UHFFFAOYSA-N

> <LogKOC>
1.72

$$$$
100571
  -INDIGO-08031722282D

 22 23  0  0  0  0  0  0  0  0999 V2000
    2.5404   -1.2944    0.0000 C   0  0  0  0  0  0  0  0  0  0  0  0
    4.0622   -0.8000    0.0000 N   0  0  0  0  0  0  0  0  0  0  0  0
    5.3565   -1.7405    0.0000 C   0  0  0  0  0  0  0  0  0  0  0  0
    6.6511   -2.6809    0.0000 H   0  0  0  0  0  0  0  0  0  0  0  0
    6.8182   -1.0897    0.0000 H   0  0  0  0  0  0  0  0  0  0  0  0
    5.1894   -3.3317    0.0000 H   0  0  0  0  0  0  0  0  0  0  0  0
    4.0622    0.8000    0.0000 C   0  0  0  0  0  0  0  0  0  0  0  0
    5.3565    1.7405    0.0000 O   0  0  0  0  0  0  0  0  0  0  0  0
    2.5404    1.2944    0.0000 O   0  0  0  0  0  0  0  0  0  0  0  0
    1.5999   -0.0000    0.0000 N   0  0  0  0  0  0  0  0  0  0  0  0
   -0.0001   -0.0000    0.0000 C   0  0  0  0  0  0  0  0  0  0  0  0
   -0.8000    1.3857    0.0000 C   0  0  0  0  0  0  0  0  0  0  0  0
   -0.0001    2.7713    0.0000 H   0  0  0  0  0  0  0  0  0  0  0  0
   -2.3999    1.3857    0.0000 C   0  0  0  0  0  0  0  0  0  0  0  0
   -3.2000    2.7713    0.0000 Cl  0  0  0  0  0  0  0  0  0  0  0  0
   -3.2000   -0.0000    0.0000 C   0  0  0  0  0  0  0  0  0  0  0  0
   -4.8000   -0.0000    0.0000 Cl  0  0  0  0  0  0  0  0  0  0  0  0
   -2.3999   -1.3857    0.0000 C   0  0  0  0  0  0  0  0  0  0  0  0
   -3.2000   -2.7713    0.0000 H   0  0  0  0  0  0  0  0  0  0  0  0
   -0.8000   -1.3857    0.0000 C   0  0  0  0  0  0  0  0  0  0  0  0
   -0.0001   -2.7713    0.0000 H   0  0  0  0  0  0  0  0  0  0  0  0
    2.0460   -2.8162    0.0000 O   0  0  0  0  0  0  0  0  0  0  0  0
  1  2  1  0  0  0  0
  2  3  1  0  0  0  0
  3  4  1  0  0  0  0
  3  5  1  0  0  0  0
  3  6  1  0  0  0  0
  2  7  1  0  0  0  0
  7  8  2  0  0  0  0
  7  9  1  0  0  0  0
  9 10  1  0  0  0  0
 10  1  1  0  0  0  0
 10 11  1  0  0  0  0
 11 12  1  0  0  0  0
 12 13  1  0  0  0  0
 12 14  2  0  0  0  0
 14 15  1  0  0  0  0
 14 16  1  0  0  0  0
 16 17  1  0  0  0  0
 16 18  2  0  0  0  0
 18 19  1  0  0  0  0
 18 20  1  0  0  0  0
 20 11  2  0  0  0  0
 20 21  1  0  0  0  0
  1 22  2  0  0  0  0
M  END
> <ChemID>
100571

> <source_casrn>
20354-26-1

> <CAS>
20354-26-1

> <SMILES>
CN1C(=O)N(OC1=O)c1cc(Cl)c(Cl)cc1

> <NAME>
METHAZOLE

> <preferred_name>
Methazole

> <iupac>
2-(3,4-dichlorophenyl)-4-methyl-1,2,4-oxadiazolidine-3,5-dione

> <MPID>
99831

> <dsstox_substance_id>
DTXSID1040293

> <Canonical_QSARr>
CN1C(=O)N(OC1=O)c1cc(Cl)c(Cl)cc1

> <InChI_Code_QSARr>
InChI=1S/C9H6Cl2N2O3/c1-12-8(14)13(16-9(12)15)5-2-3-6(10)7(11)4-5/h2-4H,1H3

> <InChI Key_QSARr>
LRUUNMYPIBZBQH-UHFFFAOYSA-N

> <LogKOC>
3.48

$$$$
100572
  -INDIGO-08031722282D

 25 25  0  0  0  0  0  0  0  0999 V2000
   -4.1569    0.8000    0.0000 Cl  0  0  0  0  0  0  0  0  0  0  0  0
   -2.7714   -0.0000    0.0000 C   0  0  0  0  0  0  0  0  0  0  0  0
   -1.3856    0.8000    0.0000 C   0  0  0  0  0  0  0  0  0  0  0  0
   -1.3856    2.4000    0.0000 H   0  0  0  0  0  0  0  0  0  0  0  0
    0.0001   -0.0000    0.0000 C   0  0  0  0  0  0  0  0  0  0  0  0
    1.3856    0.8000    0.0000 N   0  0  0  0  0  0  0  0  0  0  0  0
    1.3856    2.4000    0.0000 H   0  0  0  0  0  0  0  0  0  0  0  0
    2.7714   -0.0000    0.0000 C   0  0  0  0  0  0  0  0  0  0  0  0
    2.7714   -1.6000    0.0000 O   0  0  0  0  0  0  0  0  0  0  0  0
    4.1569    0.8000    0.0000 N   0  0  0  0  0  0  0  0  0  0  0  0
    4.1569    2.4000    0.0000 H   0  0  0  0  0  0  0  0  0  0  0  0
    5.5427   -0.0000    0.0000 C   0  0  0  0  0  0  0  0  0  0  0  0
    6.9282   -0.8000    0.0000 H   0  0  0  0  0  0  0  0  0  0  0  0
    6.9282    0.8000    0.0000 H   0  0  0  0  0  0  0  0  0  0  0  0
    5.5427   -1.6000    0.0000 H   0  0  0  0  0  0  0  0  0  0  0  0
    0.0001   -1.6000    0.0000 C   0  0  0  0  0  0  0  0  0  0  0  0
    1.3856   -2.4000    0.0000 H   0  0  0  0  0  0  0  0  0  0  0  0
   -1.3856   -2.4000    0.0000 C   0  0  0  0  0  0  0  0  0  0  0  0
   -1.3856   -4.0000    0.0000 H   0  0  0  0  0  0  0  0  0  0  0  0
   -2.7714   -1.6000    0.0000 C   0  0  0  0  0  0  0  0  0  0  0  0
   -4.1569   -2.4000    0.0000 O   0  0  0  0  0  0  0  0  0  0  0  0
   -5.5427   -1.6000    0.0000 C   0  0  0  0  0  0  0  0  0  0  0  0
   -6.9282   -2.4000    0.0000 H   0  0  0  0  0  0  0  0  0  0  0  0
   -6.9282   -0.8000    0.0000 H   0  0  0  0  0  0  0  0  0  0  0  0
   -5.5427   -3.2000    0.0000 H   0  0  0  0  0  0  0  0  0  0  0  0
  1  2  1  0  0  0  0
  2  3  1  0  0  0  0
  3  4  1  0  0  0  0
  3  5  2  0  0  0  0
  5  6  1  0  0  0  0
  6  7  1  0  0  0  0
  6  8  1  0  0  0  0
  8  9  2  0  0  0  0
  8 10  1  0  0  0  0
 10 11  1  0  0  0  0
 10 12  1  0  0  0  0
 12 13  1  0  0  0  0
 12 14  1  0  0  0  0
 12 15  1  0  0  0  0
  5 16  1  0  0  0  0
 16 17  1  0  0  0  0
 16 18  2  0  0  0  0
 18 19  1  0  0  0  0
 18 20  1  0  0  0  0
 20  2  2  0  0  0  0
 20 21  1  0  0  0  0
 21 22  1  0  0  0  0
 22 23  1  0  0  0  0
 22 24  1  0  0  0  0
 22 25  1  0  0  0  0
M  END
> <ChemID>
100572

> <source_casrn>
20782-57-4

> <CAS>
20782-57-4

> <SMILES>
CNC(=O)Nc1ccc(OC)c(Cl)c1

> <NAME>
1-ME-3-(3-CL-4-MEO PHENYL) UREA

> <preferred_name>
Urea, N-(3-chloro-4-methoxyphenyl)-N'-methyl-

> <iupac>
1-(3-chloro-4-methoxyphenyl)-3-methylurea

> <MPID>
99832

> <dsstox_substance_id>
DTXSID20174873

> <Canonical_QSARr>
CNC(=O)Nc1cc(Cl)c(cc1)OC

> <InChI_Code_QSARr>
InChI=1S/C9H11ClN2O2/c1-11-9(13)12-6-3-4-8(14-2)7(10)5-6/h3-5H,1-2H3,(H2,11,12,13)

> <InChI Key_QSARr>
YWHRNWZTCCNWSH-UHFFFAOYSA-N

> <LogKOC>
1.84

$$$$
100574
  -INDIGO-08031722282D

 28 28  0  0  0  0  0  0  0  0999 V2000
   -4.0000    1.3857    0.0000 N   0  0  0  0  0  0  0  0  0  0  0  0
   -2.4000    1.3857    0.0000 C   0  0  0  0  0  0  0  0  0  0  0  0
   -1.6000    2.7713    0.0000 O   0  0  0  0  0  0  0  0  0  0  0  0
   -1.6000   -0.0000    0.0000 C   0  0  0  0  0  0  0  0  0  0  0  0
    0.0000   -0.0000    0.0000 C   0  0  0  0  0  0  0  0  0  0  0  0
    1.6000   -0.0000    0.0000 C   0  0  0  0  0  0  0  0  0  0  0  0
    3.2000   -0.0000    0.0000 H   0  0  0  0  0  0  0  0  0  0  0  0
    2.4000   -1.3857    0.0000 H   0  0  0  0  0  0  0  0  0  0  0  0
    2.6285    1.2257    0.0000 H   0  0  0  0  0  0  0  0  0  0  0  0
    0.0000   -1.6000    0.0000 C   0  0  0  0  0  0  0  0  0  0  0  0
    0.0000   -3.2000    0.0000 H   0  0  0  0  0  0  0  0  0  0  0  0
    1.3856   -2.4000    0.0000 H   0  0  0  0  0  0  0  0  0  0  0  0
   -1.3856   -2.4000    0.0000 H   0  0  0  0  0  0  0  0  0  0  0  0
    0.0000    1.6000    0.0000 C   0  0  0  0  0  0  0  0  0  0  0  0
   -0.2778    3.1757    0.0000 H   0  0  0  0  0  0  0  0  0  0  0  0
    1.2257    2.6285    0.0000 H   0  0  0  0  0  0  0  0  0  0  0  0
    1.5035    1.0527    0.0000 H   0  0  0  0  0  0  0  0  0  0  0  0
   -2.4000   -1.3857    0.0000 N   0  0  0  0  0  0  0  0  0  0  0  0
   -4.0000   -1.3857    0.0000 N   0  0  0  0  0  0  0  0  0  0  0  0
   -4.8000   -0.0000    0.0000 C   0  0  0  0  0  0  0  0  0  0  0  0
   -6.4000   -0.0000    0.0000 S   0  0  0  0  0  0  0  0  0  0  0  0
   -7.2000   -1.3857    0.0000 C   0  0  0  0  0  0  0  0  0  0  0  0
   -8.0000   -2.7713    0.0000 H   0  0  0  0  0  0  0  0  0  0  0  0
   -8.8000   -1.3857    0.0000 H   0  0  0  0  0  0  0  0  0  0  0  0
   -6.4000   -2.7713    0.0000 H   0  0  0  0  0  0  0  0  0  0  0  0
   -4.8000    2.7713    0.0000 N   0  0  0  0  0  0  0  0  0  0  0  0
   -6.4000    2.7713    0.0000 H   0  0  0  0  0  0  0  0  0  0  0  0
   -4.0000    4.1569    0.0000 H   0  0  0  0  0  0  0  0  0  0  0  0
  1  2  1  0  0  0  0
  2  3  2  0  0  0  0
  2  4  1  0  0  0  0
  4  5  1  0  0  0  0
  5  6  1  0  0  0  0
  6  7  1  0  0  0  0
  6  8  1  0  0  0  0
  6  9  1  0  0  0  0
  5 10  1  0  0  0  0
 10 11  1  0  0  0  0
 10 12  1  0  0  0  0
 10 13  1  0  0  0  0
  5 14  1  0  0  0  0
 14 15  1  0  0  0  0
 14 16  1  0  0  0  0
 14 17  1  0  0  0  0
  4 18  2  0  0  0  0
 18 19  1  0  0  0  0
 19 20  2  0  0  0  0
 20  1  1  0  0  0  0
 20 21  1  0  0  0  0
 21 22  1  0  0  0  0
 22 23  1  0  0  0  0
 22 24  1  0  0  0  0
 22 25  1  0  0  0  0
  1 26  1  0  0  0  0
 26 27  1  0  0  0  0
 26 28  1  0  0  0  0
M  END
> <ChemID>
100574

> <source_casrn>
21087-64-9

> <CAS>
21087-64-9

> <SMILES>
CSC1=NN=C(C(=O)N1N)C(C)(C)C

> <NAME>
METRIBUZIN

> <preferred_name>
Metribuzin

> <iupac>
4-amino-6-tert-butyl-3-(methylsulfanyl)-1,2,4-triazin-5(4H)-one

> <MPID>
99834

> <dsstox_substance_id>
DTXSID6024204

> <Canonical_QSARr>
CSC1=NN=C(C(=O)N1N)C(C)(C)C

> <InChI_Code_QSARr>
InChI=1S/C8H14N4OS/c1-8(2,3)5-6(13)12(9)7(14-4)11-10-5/h9H2,1-4H3

> <InChI Key_QSARr>
FOXFZRUHNHCZPX-UHFFFAOYSA-N

> <LogKOC>
1.71

$$$$
100575
  -INDIGO-08031722282D

 30 31  0  0  0  0  0  0  0  0999 V2000
    0.0001   -0.0000    0.0000 P   0  0  0  0  0  0  0  0  0  0  0  0
    1.3856    0.8000    0.0000 O   0  0  0  0  0  0  0  0  0  0  0  0
    2.7713   -0.0000    0.0000 C   0  0  0  0  0  0  0  0  0  0  0  0
    4.1570    0.8000    0.0000 C   0  0  0  0  0  0  0  0  0  0  0  0
    4.1570    2.4001    0.0000 H   0  0  0  0  0  0  0  0  0  0  0  0
    5.5425   -0.0000    0.0000 C   0  0  0  0  0  0  0  0  0  0  0  0
    6.9282    0.8000    0.0000 Cl  0  0  0  0  0  0  0  0  0  0  0  0
    5.5425   -1.6000    0.0000 C   0  0  0  0  0  0  0  0  0  0  0  0
    6.9282   -2.4000    0.0000 Br  0  0  0  0  0  0  0  0  0  0  0  0
    4.1570   -2.4000    0.0000 C   0  0  0  0  0  0  0  0  0  0  0  0
    4.1570   -4.0000    0.0000 H   0  0  0  0  0  0  0  0  0  0  0  0
    2.7713   -1.6000    0.0000 C   0  0  0  0  0  0  0  0  0  0  0  0
    1.3856   -2.4000    0.0000 Cl  0  0  0  0  0  0  0  0  0  0  0  0
    1.3856   -0.8000    0.0000 S   0  0  0  0  0  0  0  0  0  0  0  0
   -1.3856   -0.8000    0.0000 C   0  0  0  0  0  0  0  0  0  0  0  0
   -1.3856   -2.4000    0.0000 C   0  0  0  0  0  0  0  0  0  0  0  0
    0.0001   -3.2001    0.0000 H   0  0  0  0  0  0  0  0  0  0  0  0
   -2.7713   -3.2001    0.0000 C   0  0  0  0  0  0  0  0  0  0  0  0
   -2.7713   -4.8000    0.0000 H   0  0  0  0  0  0  0  0  0  0  0  0
   -4.1569   -2.4000    0.0000 C   0  0  0  0  0  0  0  0  0  0  0  0
   -5.5426   -3.2001    0.0000 H   0  0  0  0  0  0  0  0  0  0  0  0
   -4.1569   -0.8000    0.0000 C   0  0  0  0  0  0  0  0  0  0  0  0
   -5.5426   -0.0000    0.0000 H   0  0  0  0  0  0  0  0  0  0  0  0
   -2.7713   -0.0000    0.0000 C   0  0  0  0  0  0  0  0  0  0  0  0
   -2.7713    1.6000    0.0000 H   0  0  0  0  0  0  0  0  0  0  0  0
    0.0001    1.6000    0.0000 O   0  0  0  0  0  0  0  0  0  0  0  0
    1.3856    2.4001    0.0000 C   0  0  0  0  0  0  0  0  0  0  0  0
    1.3856    4.0000    0.0000 H   0  0  0  0  0  0  0  0  0  0  0  0
    2.7713    3.2000    0.0000 H   0  0  0  0  0  0  0  0  0  0  0  0
    0.0001    3.2000    0.0000 H   0  0  0  0  0  0  0  0  0  0  0  0
  1  2  1  0  0  0  0
  2  3  1  0  0  0  0
  3  4  1  0  0  0  0
  4  5  1  0  0  0  0
  4  6  2  0  0  0  0
  6  7  1  0  0  0  0
  6  8  1  0  0  0  0
  8  9  1  0  0  0  0
  8 10  2  0  0  0  0
 10 11  1  0  0  0  0
 10 12  1  0  0  0  0
 12  3  2  0  0  0  0
 12 13  1  0  0  0  0
  1 14  2  0  0  0  0
  1 15  1  0  0  0  0
 15 16  1  0  0  0  0
 16 17  1  0  0  0  0
 16 18  2  0  0  0  0
 18 19  1  0  0  0  0
 18 20  1  0  0  0  0
 20 21  1  0  0  0  0
 20 22  2  0  0  0  0
 22 23  1  0  0  0  0
 22 24  1  0  0  0  0
 24 15  2  0  0  0  0
 24 25  1  0  0  0  0
  1 26  1  0  0  0  0
 26 27  1  0  0  0  0
 27 28  1  0  0  0  0
 27 29  1  0  0  0  0
 27 30  1  0  0  0  0
M  END
> <ChemID>
100575

> <source_casrn>
21609-90-5

> <CAS>
21609-90-5

> <SMILES>
COP(=S)(Oc1cc(Cl)c(Br)cc1Cl)c1ccccc1

> <NAME>
LEPTOPHOS

> <preferred_name>
Leptophos

> <iupac>
O-(4-bromo-2,5-dichlorophenyl) O-methyl phenylphosphonothioate

> <MPID>
99835

> <dsstox_substance_id>
DTXSID3040279

> <Canonical_QSARr>
COP(=S)(Oc1cc(Cl)c(Br)cc1Cl)c1ccccc1

> <InChI_Code_QSARr>
InChI=1S/C13H10BrCl2O2PS/c1-17-19(20,9-5-3-2-4-6-9)18-13-8-11(15)10(14)7-12(13)16/h2-8H,1H3

> <InChI Key_QSARr>
CVRALZAYCYJELZ-UHFFFAOYSA-N

> <LogKOC>
4.5

$$$$
100576
  -INDIGO-08031722282D

 29 29  0  0  0  0  0  0  0  0999 V2000
    2.7713    0.0001    0.0000 C   0  0  0  0  0  0  0  0  0  0  0  0
    4.1570    0.8000    0.0000 N   0  0  0  0  0  0  0  0  0  0  0  0
    5.5426    0.0001    0.0000 C   0  0  0  0  0  0  0  0  0  0  0  0
    6.9283    0.8000    0.0000 N   0  0  0  0  0  0  0  0  0  0  0  0
    6.9283    2.4000    0.0000 H   0  0  0  0  0  0  0  0  0  0  0  0
    8.3138    0.0001    0.0000 C   0  0  0  0  0  0  0  0  0  0  0  0
    7.7015   -1.4782    0.0000 H   0  0  0  0  0  0  0  0  0  0  0  0
    8.9262   -1.4782    0.0000 H   0  0  0  0  0  0  0  0  0  0  0  0
    9.6996    0.8000    0.0000 C   0  0  0  0  0  0  0  0  0  0  0  0
   11.0851    1.6000    0.0000 H   0  0  0  0  0  0  0  0  0  0  0  0
   11.0851    0.0001    0.0000 H   0  0  0  0  0  0  0  0  0  0  0  0
    9.6996    2.4000    0.0000 H   0  0  0  0  0  0  0  0  0  0  0  0
    5.5426   -1.6000    0.0000 N   0  0  0  0  0  0  0  0  0  0  0  0
    4.1570   -2.4000    0.0000 C   0  0  0  0  0  0  0  0  0  0  0  0
    4.1570   -4.0000    0.0000 Cl  0  0  0  0  0  0  0  0  0  0  0  0
    2.7713   -1.6000    0.0000 N   0  0  0  0  0  0  0  0  0  0  0  0
    1.3857    0.8000    0.0000 N   0  0  0  0  0  0  0  0  0  0  0  0
    1.3855    2.4000    0.0000 H   0  0  0  0  0  0  0  0  0  0  0  0
    0.0000    0.0001    0.0000 C   0  0  0  0  0  0  0  0  0  0  0  0
    0.8001   -1.3856    0.0000 C   0  0  0  0  0  0  0  0  0  0  0  0
    1.5999   -2.7713    0.0000 N   0  0  0  0  0  0  0  0  0  0  0  0
   -1.3855   -0.8000    0.0000 C   0  0  0  0  0  0  0  0  0  0  0  0
   -2.7713   -1.6000    0.0000 H   0  0  0  0  0  0  0  0  0  0  0  0
   -2.7713    0.0001    0.0000 H   0  0  0  0  0  0  0  0  0  0  0  0
   -1.3857   -2.4000    0.0000 H   0  0  0  0  0  0  0  0  0  0  0  0
   -0.8001    1.3856    0.0000 C   0  0  0  0  0  0  0  0  0  0  0  0
   -1.5999    2.7713    0.0000 H   0  0  0  0  0  0  0  0  0  0  0  0
   -2.4000    1.3856    0.0000 H   0  0  0  0  0  0  0  0  0  0  0  0
    0.0000    2.7713    0.0000 H   0  0  0  0  0  0  0  0  0  0  0  0
  1  2  1  0  0  0  0
  2  3  2  0  0  0  0
  3  4  1  0  0  0  0
  4  5  1  0  0  0  0
  4  6  1  0  0  0  0
  6  7  1  0  0  0  0
  6  8  1  0  0  0  0
  6  9  1  0  0  0  0
  9 10  1  0  0  0  0
  9 11  1  0  0  0  0
  9 12  1  0  0  0  0
  3 13  1  0  0  0  0
 13 14  2  0  0  0  0
 14 15  1  0  0  0  0
 14 16  1  0  0  0  0
 16  1  2  0  0  0  0
  1 17  1  0  0  0  0
 17 18  1  0  0  0  0
 17 19  1  0  0  0  0
 19 20  1  0  0  0  0
 20 21  3  0  0  0  0
 19 22  1  0  0  0  0
 22 23  1  0  0  0  0
 22 24  1  0  0  0  0
 22 25  1  0  0  0  0
 19 26  1  0  0  0  0
 26 27  1  0  0  0  0
 26 28  1  0  0  0  0
 26 29  1  0  0  0  0
M  END
> <ChemID>
100576

> <source_casrn>
21725-46-2

> <CAS>
21725-46-2

> <SMILES>
CCNc1[n]c(Cl)[n]c(NC(C)(C)C#N)[n]1

> <NAME>
CYANAZINE

> <preferred_name>
Cyanazine

> <iupac>
2-{[4-chloro-6-(ethylamino)-1,3,5-triazin-2-yl]amino}-2-methylpropanenitrile

> <MPID>
99836

> <dsstox_substance_id>
DTXSID1023990

> <Canonical_QSARr>
CCNc1[n]c(Cl)[n]c(NC(C)(C)C#N)[n]1

> <InChI_Code_QSARr>
InChI=1S/C9H13ClN6/c1-4-12-7-13-6(10)14-8(15-7)16-9(2,3)5-11/h4H2,1-3H3,(H2,12,13,14,15,16)

> <InChI Key_QSARr>
MZZBPDKVEFVLFF-UHFFFAOYSA-N

> <LogKOC>
2.28

$$$$
100578
  -INDIGO-08031722282D

 41 41  0  0  0  0  0  0  0  0999 V2000
   -2.6285   -1.2258    0.0000 P   0  0  0  0  0  0  0  0  0  0  0  0
   -1.0285   -1.2258    0.0000 N   0  0  0  0  0  0  0  0  0  0  0  0
   -0.4812   -2.7291    0.0000 H   0  0  0  0  0  0  0  0  0  0  0  0
   -0.0001    0.0001    0.0000 C   0  0  0  0  0  0  0  0  0  0  0  0
   -1.2257    1.0285    0.0000 H   0  0  0  0  0  0  0  0  0  0  0  0
    1.0286    1.2257    0.0000 C   0  0  0  0  0  0  0  0  0  0  0  0
    2.0570    2.4514    0.0000 H   0  0  0  0  0  0  0  0  0  0  0  0
    2.6041    0.9478    0.0000 H   0  0  0  0  0  0  0  0  0  0  0  0
    0.4813    2.7291    0.0000 H   0  0  0  0  0  0  0  0  0  0  0  0
    1.2258   -1.0285    0.0000 C   0  0  0  0  0  0  0  0  0  0  0  0
    2.4514   -2.0569    0.0000 H   0  0  0  0  0  0  0  0  0  0  0  0
    2.7292   -0.4812    0.0000 H   0  0  0  0  0  0  0  0  0  0  0  0
    0.9478   -2.6041    0.0000 H   0  0  0  0  0  0  0  0  0  0  0  0
   -3.4285    0.1599    0.0000 O   0  0  0  0  0  0  0  0  0  0  0  0
   -5.0284    0.1599    0.0000 C   0  0  0  0  0  0  0  0  0  0  0  0
   -5.8284    1.5456    0.0000 C   0  0  0  0  0  0  0  0  0  0  0  0
   -5.0284    2.9312    0.0000 H   0  0  0  0  0  0  0  0  0  0  0  0
   -7.4284    1.5456    0.0000 C   0  0  0  0  0  0  0  0  0  0  0  0
   -8.2286    2.9312    0.0000 C   0  0  0  0  0  0  0  0  0  0  0  0
   -9.0285    4.3169    0.0000 H   0  0  0  0  0  0  0  0  0  0  0  0
   -7.4284    4.3169    0.0000 H   0  0  0  0  0  0  0  0  0  0  0  0
   -9.8285    2.9312    0.0000 H   0  0  0  0  0  0  0  0  0  0  0  0
   -8.2286    0.1599    0.0000 C   0  0  0  0  0  0  0  0  0  0  0  0
   -9.8285    0.1599    0.0000 S   0  0  0  0  0  0  0  0  0  0  0  0
  -10.6285   -1.2258    0.0000 C   0  0  0  0  0  0  0  0  0  0  0  0
  -12.2285   -1.2258    0.0000 H   0  0  0  0  0  0  0  0  0  0  0  0
  -11.4285   -2.6112    0.0000 H   0  0  0  0  0  0  0  0  0  0  0  0
  -11.4285    0.1599    0.0000 H   0  0  0  0  0  0  0  0  0  0  0  0
   -7.4284   -1.2256    0.0000 C   0  0  0  0  0  0  0  0  0  0  0  0
   -8.2286   -2.6112    0.0000 H   0  0  0  0  0  0  0  0  0  0  0  0
   -5.8284   -1.2258    0.0000 C   0  0  0  0  0  0  0  0  0  0  0  0
   -5.0284   -2.6112    0.0000 H   0  0  0  0  0  0  0  0  0  0  0  0
   -1.8285    0.1599    0.0000 O   0  0  0  0  0  0  0  0  0  0  0  0
   -1.8285   -2.6112    0.0000 O   0  0  0  0  0  0  0  0  0  0  0  0
   -2.6285   -3.9969    0.0000 C   0  0  0  0  0  0  0  0  0  0  0  0
   -4.1066   -4.6092    0.0000 H   0  0  0  0  0  0  0  0  0  0  0  0
   -4.1066   -3.3846    0.0000 H   0  0  0  0  0  0  0  0  0  0  0  0
   -1.8285   -5.3826    0.0000 C   0  0  0  0  0  0  0  0  0  0  0  0
   -2.6285   -6.7682    0.0000 H   0  0  0  0  0  0  0  0  0  0  0  0
   -1.0285   -6.7682    0.0000 H   0  0  0  0  0  0  0  0  0  0  0  0
   -3.4285   -5.3826    0.0000 H   0  0  0  0  0  0  0  0  0  0  0  0
  1  2  1  0  0  0  0
  2  3  1  0  0  0  0
  2  4  1  0  0  0  0
  4  5  1  0  0  0  0
  4  6  1  0  0  0  0
  6  7  1  0  0  0  0
  6  8  1  0  0  0  0
  6  9  1  0  0  0  0
  4 10  1  0  0  0  0
 10 11  1  0  0  0  0
 10 12  1  0  0  0  0
 10 13  1  0  0  0  0
  1 14  1  0  0  0  0
 14 15  1  0  0  0  0
 15 16  1  0  0  0  0
 16 17  1  0  0  0  0
 16 18  2  0  0  0  0
 18 19  1  0  0  0  0
 19 20  1  0  0  0  0
 19 21  1  0  0  0  0
 19 22  1  0  0  0  0
 18 23  1  0  0  0  0
 23 24  1  0  0  0  0
 24 25  1  0  0  0  0
 25 26  1  0  0  0  0
 25 27  1  0  0  0  0
 25 28  1  0  0  0  0
 23 29  2  0  0  0  0
 29 30  1  0  0  0  0
 29 31  1  0  0  0  0
 31 15  2  0  0  0  0
 31 32  1  0  0  0  0
  1 33  2  0  0  0  0
  1 34  1  0  0  0  0
 34 35  1  0  0  0  0
 35 36  1  0  0  0  0
 35 37  1  0  0  0  0
 35 38  1  0  0  0  0
 38 39  1  0  0  0  0
 38 40  1  0  0  0  0
 38 41  1  0  0  0  0
M  END
> <ChemID>
100578

> <source_casrn>
22224-92-6

> <CAS>
22224-92-6

> <SMILES>
Cc1cc(ccc1SC)OP(=O)(NC(C)C)OCC

> <NAME>
FENAMIPHOS

> <preferred_name>
Fenamiphos

> <iupac>
ethyl 3-methyl-4-(methylsulfanyl)phenyl propan-2-ylphosphoramidate

> <MPID>
99838

> <dsstox_substance_id>
DTXSID3024102

> <Canonical_QSARr>
Cc1cc(ccc1SC)OP(=O)(NC(C)C)OCC

> <InChI_Code_QSARr>
InChI=1S/C13H22NO3PS/c1-6-16-18(15,14-10(2)3)17-12-7-8-13(19-5)11(4)9-12/h7-10H,6H2,1-5H3,(H,14,15)

> <InChI Key_QSARr>
ZCJPOPBZHLUFHF-UHFFFAOYSA-N

> <LogKOC>
2.51

$$$$
100580
  -INDIGO-08031722282D

 29 30  0  0  0  0  0  0  0  0999 V2000
    1.4616    0.6508    0.0000 O   0  0  0  0  0  0  0  0  0  0  0  0
   -0.0000   -0.0000    0.0000 C   0  0  0  0  0  0  0  0  0  0  0  0
   -0.4943    1.5217    0.0000 C   0  0  0  0  0  0  0  0  0  0  0  0
   -0.9888    3.0434    0.0000 H   0  0  0  0  0  0  0  0  0  0  0  0
   -2.0596    1.8544    0.0000 H   0  0  0  0  0  0  0  0  0  0  0  0
    0.5762    2.7107    0.0000 H   0  0  0  0  0  0  0  0  0  0  0  0
   -1.5651   -0.3327    0.0000 C   0  0  0  0  0  0  0  0  0  0  0  0
   -3.1301   -0.6653    0.0000 H   0  0  0  0  0  0  0  0  0  0  0  0
   -2.0596   -1.8544    0.0000 H   0  0  0  0  0  0  0  0  0  0  0  0
   -2.6356    0.8564    0.0000 H   0  0  0  0  0  0  0  0  0  0  0  0
    0.1672   -1.5913    0.0000 O   0  0  0  0  0  0  0  0  0  0  0  0
    1.7324   -1.9239    0.0000 C   0  0  0  0  0  0  0  0  0  0  0  0
    2.5323   -0.5382    0.0000 C   0  0  0  0  0  0  0  0  0  0  0  0
    4.1323   -0.5382    0.0000 C   0  0  0  0  0  0  0  0  0  0  0  0
    4.9322   -1.9239    0.0000 C   0  0  0  0  0  0  0  0  0  0  0  0
    6.5323   -1.9239    0.0000 H   0  0  0  0  0  0  0  0  0  0  0  0
    4.1323   -3.3096    0.0000 C   0  0  0  0  0  0  0  0  0  0  0  0
    4.9322   -4.6952    0.0000 H   0  0  0  0  0  0  0  0  0  0  0  0
    2.5323   -3.3096    0.0000 C   0  0  0  0  0  0  0  0  0  0  0  0
    1.7324   -4.6952    0.0000 H   0  0  0  0  0  0  0  0  0  0  0  0
    4.9322    0.8474    0.0000 O   0  0  0  0  0  0  0  0  0  0  0  0
    6.5323    0.8474    0.0000 C   0  0  0  0  0  0  0  0  0  0  0  0
    7.3322   -0.5382    0.0000 O   0  0  0  0  0  0  0  0  0  0  0  0
    7.3322    2.2331    0.0000 N   0  0  0  0  0  0  0  0  0  0  0  0
    6.5323    3.6187    0.0000 H   0  0  0  0  0  0  0  0  0  0  0  0
    8.9322    2.2331    0.0000 C   0  0  0  0  0  0  0  0  0  0  0  0
   10.5323    2.2331    0.0000 H   0  0  0  0  0  0  0  0  0  0  0  0
    9.7324    3.6187    0.0000 H   0  0  0  0  0  0  0  0  0  0  0  0
    9.7324    0.8474    0.0000 H   0  0  0  0  0  0  0  0  0  0  0  0
  1  2  1  0  0  0  0
  2  3  1  0  0  0  0
  3  4  1  0  0  0  0
  3  5  1  0  0  0  0
  3  6  1  0  0  0  0
  2  7  1  0  0  0  0
  7  8  1  0  0  0  0
  7  9  1  0  0  0  0
  7 10  1  0  0  0  0
  2 11  1  0  0  0  0
 11 12  1  0  0  0  0
 12 13  1  0  0  0  0
 13  1  1  0  0  0  0
 13 14  2  0  0  0  0
 14 15  1  0  0  0  0
 15 16  1  0  0  0  0
 15 17  2  0  0  0  0
 17 18  1  0  0  0  0
 17 19  1  0  0  0  0
 19 12  2  0  0  0  0
 19 20  1  0  0  0  0
 14 21  1  0  0  0  0
 21 22  1  0  0  0  0
 22 23  2  0  0  0  0
 22 24  1  0  0  0  0
 24 25  1  0  0  0  0
 24 26  1  0  0  0  0
 26 27  1  0  0  0  0
 26 28  1  0  0  0  0
 26 29  1  0  0  0  0
M  END
> <ChemID>
100580

> <source_casrn>
22781-23-3

> <CAS>
22781-23-3

> <SMILES>
CNC(=O)Oc1cccc2OC(C)(C)Oc21

> <NAME>
BENDIOCARB

> <preferred_name>
Bendiocarb

> <iupac>
2,2-dimethyl-1,3-benzodioxol-4-yl methylcarbamate

> <MPID>
99840

> <dsstox_substance_id>
DTXSID9032327

> <Canonical_QSARr>
CNC(=O)Oc1cccc2OC(C)(C)Oc21

> <InChI_Code_QSARr>
InChI=1S/C11H13NO4/c1-11(2)15-8-6-4-5-7(9(8)16-11)14-10(13)12-3/h4-6H,1-3H3,(H,12,13)

> <InChI Key_QSARr>
XEGGRYVFLWGFHI-UHFFFAOYSA-N

> <LogKOC>
2.75

$$$$
100581
  -INDIGO-08031722282D

 35 35  0  0  0  0  0  0  0  0999 V2000
    0.0001    2.7713    0.0000 N   0  0  0  0  0  0  0  0  0  0  0  0
    0.7999    1.3856    0.0000 C   0  0  0  0  0  0  0  0  0  0  0  0
    2.3999    1.3856    0.0000 O   0  0  0  0  0  0  0  0  0  0  0  0
    3.1999    2.7713    0.0000 C   0  0  0  0  0  0  0  0  0  0  0  0
    4.8000    2.7713    0.0000 N   0  0  0  0  0  0  0  0  0  0  0  0
    5.6000    4.1570    0.0000 C   0  0  0  0  0  0  0  0  0  0  0  0
    6.4000    5.5426    0.0000 H   0  0  0  0  0  0  0  0  0  0  0  0
    7.2000    4.1570    0.0000 H   0  0  0  0  0  0  0  0  0  0  0  0
    4.8000    5.5426    0.0000 H   0  0  0  0  0  0  0  0  0  0  0  0
    5.6000    1.3856    0.0000 C   0  0  0  0  0  0  0  0  0  0  0  0
    6.4000   -0.0000    0.0000 H   0  0  0  0  0  0  0  0  0  0  0  0
    7.2000    1.3856    0.0000 H   0  0  0  0  0  0  0  0  0  0  0  0
    4.8000   -0.0000    0.0000 H   0  0  0  0  0  0  0  0  0  0  0  0
    2.3999    4.1570    0.0000 O   0  0  0  0  0  0  0  0  0  0  0  0
    0.0001   -0.0000    0.0000 C   0  0  0  0  0  0  0  0  0  0  0  0
    0.7999   -1.3857    0.0000 C   0  0  0  0  0  0  0  0  0  0  0  0
    1.5999   -2.7713    0.0000 H   0  0  0  0  0  0  0  0  0  0  0  0
    2.3999   -1.3857    0.0000 H   0  0  0  0  0  0  0  0  0  0  0  0
    0.0001   -2.7713    0.0000 H   0  0  0  0  0  0  0  0  0  0  0  0
   -1.5999   -0.0000    0.0000 C   0  0  0  0  0  0  0  0  0  0  0  0
   -2.4000   -1.3857    0.0000 C   0  0  0  0  0  0  0  0  0  0  0  0
   -3.2000   -2.7713    0.0000 H   0  0  0  0  0  0  0  0  0  0  0  0
   -4.0000   -1.3857    0.0000 H   0  0  0  0  0  0  0  0  0  0  0  0
   -1.5999   -2.7713    0.0000 H   0  0  0  0  0  0  0  0  0  0  0  0
   -2.4000    1.3856    0.0000 N   0  0  0  0  0  0  0  0  0  0  0  0
   -1.5999    2.7713    0.0000 C   0  0  0  0  0  0  0  0  0  0  0  0
   -2.4000    4.1570    0.0000 N   0  0  0  0  0  0  0  0  0  0  0  0
   -1.5999    5.5426    0.0000 C   0  0  0  0  0  0  0  0  0  0  0  0
   -0.7999    6.9282    0.0000 H   0  0  0  0  0  0  0  0  0  0  0  0
   -2.4000    6.9282    0.0000 H   0  0  0  0  0  0  0  0  0  0  0  0
    0.0001    5.5426    0.0000 H   0  0  0  0  0  0  0  0  0  0  0  0
   -4.0000    4.1570    0.0000 C   0  0  0  0  0  0  0  0  0  0  0  0
   -5.6000    4.1570    0.0000 H   0  0  0  0  0  0  0  0  0  0  0  0
   -4.8000    5.5426    0.0000 H   0  0  0  0  0  0  0  0  0  0  0  0
   -4.8000    2.7713    0.0000 H   0  0  0  0  0  0  0  0  0  0  0  0
  1  2  1  0  0  0  0
  2  3  1  0  0  0  0
  3  4  1  0  0  0  0
  4  5  1  0  0  0  0
  5  6  1  0  0  0  0
  6  7  1  0  0  0  0
  6  8  1  0  0  0  0
  6  9  1  0  0  0  0
  5 10  1  0  0  0  0
 10 11  1  0  0  0  0
 10 12  1  0  0  0  0
 10 13  1  0  0  0  0
  4 14  2  0  0  0  0
  2 15  2  0  0  0  0
 15 16  1  0  0  0  0
 16 17  1  0  0  0  0
 16 18  1  0  0  0  0
 16 19  1  0  0  0  0
 15 20  1  0  0  0  0
 20 21  1  0  0  0  0
 21 22  1  0  0  0  0
 21 23  1  0  0  0  0
 21 24  1  0  0  0  0
 20 25  2  0  0  0  0
 25 26  1  0  0  0  0
 26  1  2  0  0  0  0
 26 27  1  0  0  0  0
 27 28  1  0  0  0  0
 28 29  1  0  0  0  0
 28 30  1  0  0  0  0
 28 31  1  0  0  0  0
 27 32  1  0  0  0  0
 32 33  1  0  0  0  0
 32 34  1  0  0  0  0
 32 35  1  0  0  0  0
M  END
> <ChemID>
100581

> <source_casrn>
23103-98-2

> <CAS>
23103-98-2

> <SMILES>
Cc1[n]c([n]c(OC(=O)N(C)C)c1C)N(C)C

> <NAME>
PIRIMICARB

> <preferred_name>
Pirimicarb

> <iupac>
2-(dimethylamino)-5,6-dimethylpyrimidin-4-yl dimethylcarbamate

> <MPID>
99841

> <dsstox_substance_id>
DTXSID1032569

> <Canonical_QSARr>
Cc1[n]c([n]c(OC(=O)N(C)C)c1C)N(C)C

> <InChI_Code_QSARr>
InChI=1S/C11H18N4O2/c1-7-8(2)12-10(14(3)4)13-9(7)17-11(16)15(5)6/h1-6H3

> <InChI Key_QSARr>
YFGYUFNIOHWBOB-UHFFFAOYSA-N

> <LogKOC>
1.9

$$$$
100583
  -INDIGO-08031722282D

 47 47  0  0  0  0  0  0  0  0999 V2000
   -1.6000    0.0000    0.0000 N   0  0  0  0  0  0  0  0  0  0  0  0
    0.0000    0.0000    0.0000 C   0  0  0  0  0  0  0  0  0  0  0  0
    0.7999    1.3856    0.0000 C   0  0  0  0  0  0  0  0  0  0  0  0
    0.2528    2.8892    0.0000 C   0  0  0  0  0  0  0  0  0  0  0  0
   -1.0966    3.7489    0.0000 H   0  0  0  0  0  0  0  0  0  0  0  0
   -1.3094    2.5428    0.0000 H   0  0  0  0  0  0  0  0  0  0  0  0
    1.2811    4.1149    0.0000 C   0  0  0  0  0  0  0  0  0  0  0  0
    2.3097    5.3406    0.0000 H   0  0  0  0  0  0  0  0  0  0  0  0
    0.7340    5.6183    0.0000 H   0  0  0  0  0  0  0  0  0  0  0  0
    2.8568    3.8369    0.0000 H   0  0  0  0  0  0  0  0  0  0  0  0
    2.3999    1.3856    0.0000 C   0  0  0  0  0  0  0  0  0  0  0  0
    3.2000    2.7714    0.0000 H   0  0  0  0  0  0  0  0  0  0  0  0
    3.2000    0.0000    0.0000 C   0  0  0  0  0  0  0  0  0  0  0  0
    4.8000    0.0000    0.0000 H   0  0  0  0  0  0  0  0  0  0  0  0
    2.3999   -1.3856    0.0000 C   0  0  0  0  0  0  0  0  0  0  0  0
    3.2000   -2.7712    0.0000 H   0  0  0  0  0  0  0  0  0  0  0  0
    0.7999   -1.3856    0.0000 C   0  0  0  0  0  0  0  0  0  0  0  0
    0.0000   -2.7712    0.0000 C   0  0  0  0  0  0  0  0  0  0  0  0
   -1.3494   -1.9117    0.0000 H   0  0  0  0  0  0  0  0  0  0  0  0
   -1.4781   -3.3836    0.0000 H   0  0  0  0  0  0  0  0  0  0  0  0
    0.7999   -4.1570    0.0000 C   0  0  0  0  0  0  0  0  0  0  0  0
    1.6000   -5.5426    0.0000 H   0  0  0  0  0  0  0  0  0  0  0  0
    0.0000   -5.5426    0.0000 H   0  0  0  0  0  0  0  0  0  0  0  0
    2.3999   -4.1570    0.0000 H   0  0  0  0  0  0  0  0  0  0  0  0
   -1.8778    1.5756    0.0000 C   0  0  0  0  0  0  0  0  0  0  0  0
   -0.3744    2.1230    0.0000 O   0  0  0  0  0  0  0  0  0  0  0  0
   -3.1034    2.6041    0.0000 C   0  0  0  0  0  0  0  0  0  0  0  0
   -4.3291    3.6326    0.0000 H   0  0  0  0  0  0  0  0  0  0  0  0
   -2.8256    4.1798    0.0000 H   0  0  0  0  0  0  0  0  0  0  0  0
   -4.6069    2.0569    0.0000 Cl  0  0  0  0  0  0  0  0  0  0  0  0
   -2.9855   -0.7999    0.0000 C   0  0  0  0  0  0  0  0  0  0  0  0
   -2.3733   -2.2782    0.0000 H   0  0  0  0  0  0  0  0  0  0  0  0
   -3.5980   -2.2782    0.0000 H   0  0  0  0  0  0  0  0  0  0  0  0
   -4.3713    0.0000    0.0000 O   0  0  0  0  0  0  0  0  0  0  0  0
   -5.7568   -0.7999    0.0000 C   0  0  0  0  0  0  0  0  0  0  0  0
   -5.1447   -2.2782    0.0000 H   0  0  0  0  0  0  0  0  0  0  0  0
   -6.3693   -2.2782    0.0000 H   0  0  0  0  0  0  0  0  0  0  0  0
   -7.1426    0.0000    0.0000 C   0  0  0  0  0  0  0  0  0  0  0  0
   -7.7548    1.4782    0.0000 H   0  0  0  0  0  0  0  0  0  0  0  0
   -6.5302    1.4782    0.0000 H   0  0  0  0  0  0  0  0  0  0  0  0
   -8.5282   -0.7999    0.0000 C   0  0  0  0  0  0  0  0  0  0  0  0
   -7.9160   -2.2782    0.0000 H   0  0  0  0  0  0  0  0  0  0  0  0
   -9.1406   -2.2782    0.0000 H   0  0  0  0  0  0  0  0  0  0  0  0
   -9.9139    0.0000    0.0000 C   0  0  0  0  0  0  0  0  0  0  0  0
  -11.2995    0.7999    0.0000 H   0  0  0  0  0  0  0  0  0  0  0  0
  -11.2995   -0.7999    0.0000 H   0  0  0  0  0  0  0  0  0  0  0  0
   -9.9139    1.6000    0.0000 H   0  0  0  0  0  0  0  0  0  0  0  0
  1  2  1  0  0  0  0
  2  3  1  0  0  0  0
  3  4  1  0  0  0  0
  4  5  1  0  0  0  0
  4  6  1  0  0  0  0
  4  7  1  0  0  0  0
  7  8  1  0  0  0  0
  7  9  1  0  0  0  0
  7 10  1  0  0  0  0
  3 11  2  0  0  0  0
 11 12  1  0  0  0  0
 11 13  1  0  0  0  0
 13 14  1  0  0  0  0
 13 15  2  0  0  0  0
 15 16  1  0  0  0  0
 15 17  1  0  0  0  0
 17  2  2  0  0  0  0
 17 18  1  0  0  0  0
 18 19  1  0  0  0  0
 18 20  1  0  0  0  0
 18 21  1  0  0  0  0
 21 22  1  0  0  0  0
 21 23  1  0  0  0  0
 21 24  1  0  0  0  0
  1 25  1  0  0  0  0
 25 26  2  0  0  0  0
 25 27  1  0  0  0  0
 27 28  1  0  0  0  0
 27 29  1  0  0  0  0
 27 30  1  0  0  0  0
  1 31  1  0  0  0  0
 31 32  1  0  0  0  0
 31 33  1  0  0  0  0
 31 34  1  0  0  0  0
 34 35  1  0  0  0  0
 35 36  1  0  0  0  0
 35 37  1  0  0  0  0
 35 38  1  0  0  0  0
 38 39  1  0  0  0  0
 38 40  1  0  0  0  0
 38 41  1  0  0  0  0
 41 42  1  0  0  0  0
 41 43  1  0  0  0  0
 41 44  1  0  0  0  0
 44 45  1  0  0  0  0
 44 46  1  0  0  0  0
 44 47  1  0  0  0  0
M  END
> <ChemID>
100583

> <source_casrn>
23184-66-9

> <CAS>
23184-66-9

> <SMILES>
CCCCOCN(C(=O)CCl)c1c(CC)cccc1CC

> <NAME>
BUTACHLOR

> <preferred_name>
Butachlor

> <iupac>
N-(butoxymethyl)-2-chloro-N-(2,6-diethylphenyl)acetamide

> <MPID>
99843

> <dsstox_substance_id>
DTXSID3034402

> <Canonical_QSARr>
CCCCOCN(C(=O)CCl)c1c(CC)cccc1CC

> <InChI_Code_QSARr>
InChI=1S/C17H26ClNO2/c1-4-7-11-21-13-19(16(20)12-18)17-14(5-2)9-8-10-15(17)6-3/h8-10H,4-7,11-13H2,1-3H3

> <InChI Key_QSARr>
HKPHPIREJKHECO-UHFFFAOYSA-N

> <LogKOC>
2.86

$$$$
100585
  -INDIGO-08031722282D

 45 45  0  0  0  0  0  0  0  0999 V2000
   -2.4001   -1.3856    0.0000 N   0  0  0  0  0  0  0  0  0  0  0  0
   -0.7999   -1.3856    0.0000 C   0  0  0  0  0  0  0  0  0  0  0  0
    0.0000   -0.0001    0.0000 N   0  0  0  0  0  0  0  0  0  0  0  0
   -0.7999    1.3856    0.0000 C   0  0  0  0  0  0  0  0  0  0  0  0
   -2.2783    1.9979    0.0000 H   0  0  0  0  0  0  0  0  0  0  0  0
   -2.2783    0.7733    0.0000 H   0  0  0  0  0  0  0  0  0  0  0  0
    0.0000    2.7713    0.0000 C   0  0  0  0  0  0  0  0  0  0  0  0
    0.8000    4.1569    0.0000 H   0  0  0  0  0  0  0  0  0  0  0  0
   -0.7999    4.1569    0.0000 H   0  0  0  0  0  0  0  0  0  0  0  0
    1.5999    2.7713    0.0000 H   0  0  0  0  0  0  0  0  0  0  0  0
    1.5999   -0.0001    0.0000 C   0  0  0  0  0  0  0  0  0  0  0  0
    1.8089   -1.5863    0.0000 H   0  0  0  0  0  0  0  0  0  0  0  0
    2.8693   -0.9740    0.0000 H   0  0  0  0  0  0  0  0  0  0  0  0
    2.4001    1.3856    0.0000 C   0  0  0  0  0  0  0  0  0  0  0  0
    4.0000    1.3856    0.0000 H   0  0  0  0  0  0  0  0  0  0  0  0
    3.2000    2.7713    0.0000 H   0  0  0  0  0  0  0  0  0  0  0  0
    3.2000   -0.0001    0.0000 H   0  0  0  0  0  0  0  0  0  0  0  0
    0.0000   -2.7712    0.0000 N   0  0  0  0  0  0  0  0  0  0  0  0
   -0.7999   -4.1569    0.0000 C   0  0  0  0  0  0  0  0  0  0  0  0
    0.0000   -5.5425    0.0000 C   0  0  0  0  0  0  0  0  0  0  0  0
    0.8000   -6.9282    0.0000 H   0  0  0  0  0  0  0  0  0  0  0  0
    1.5999   -5.5425    0.0000 H   0  0  0  0  0  0  0  0  0  0  0  0
   -0.7999   -6.9282    0.0000 H   0  0  0  0  0  0  0  0  0  0  0  0
   -2.4001   -4.1569    0.0000 C   0  0  0  0  0  0  0  0  0  0  0  0
   -3.2000   -5.5425    0.0000 H   0  0  0  0  0  0  0  0  0  0  0  0
   -3.2000   -2.7712    0.0000 C   0  0  0  0  0  0  0  0  0  0  0  0
   -4.7999   -2.7712    0.0000 O   0  0  0  0  0  0  0  0  0  0  0  0
   -5.6001   -1.3856    0.0000 P   0  0  0  0  0  0  0  0  0  0  0  0
   -4.7999   -0.0001    0.0000 S   0  0  0  0  0  0  0  0  0  0  0  0
   -7.2000   -1.3856    0.0000 O   0  0  0  0  0  0  0  0  0  0  0  0
   -8.0000   -2.7712    0.0000 C   0  0  0  0  0  0  0  0  0  0  0  0
   -7.7912   -4.3577    0.0000 H   0  0  0  0  0  0  0  0  0  0  0  0
   -6.7306   -3.7453    0.0000 H   0  0  0  0  0  0  0  0  0  0  0  0
   -9.6001   -2.7712    0.0000 C   0  0  0  0  0  0  0  0  0  0  0  0
  -11.2000   -2.7712    0.0000 H   0  0  0  0  0  0  0  0  0  0  0  0
  -10.4001   -4.1569    0.0000 H   0  0  0  0  0  0  0  0  0  0  0  0
  -10.4001   -1.3856    0.0000 H   0  0  0  0  0  0  0  0  0  0  0  0
   -6.4001   -0.0001    0.0000 O   0  0  0  0  0  0  0  0  0  0  0  0
   -8.0000   -0.0001    0.0000 C   0  0  0  0  0  0  0  0  0  0  0  0
   -9.2694   -0.9740    0.0000 H   0  0  0  0  0  0  0  0  0  0  0  0
   -8.2089   -1.5863    0.0000 H   0  0  0  0  0  0  0  0  0  0  0  0
   -8.7999    1.3856    0.0000 C   0  0  0  0  0  0  0  0  0  0  0  0
   -9.6001    2.7713    0.0000 H   0  0  0  0  0  0  0  0  0  0  0  0
  -10.4001    1.3856    0.0000 H   0  0  0  0  0  0  0  0  0  0  0  0
   -8.0000    2.7713    0.0000 H   0  0  0  0  0  0  0  0  0  0  0  0
  1  2  1  0  0  0  0
  2  3  1  0  0  0  0
  3  4  1  0  0  0  0
  4  5  1  0  0  0  0
  4  6  1  0  0  0  0
  4  7  1  0  0  0  0
  7  8  1  0  0  0  0
  7  9  1  0  0  0  0
  7 10  1  0  0  0  0
  3 11  1  0  0  0  0
 11 12  1  0  0  0  0
 11 13  1  0  0  0  0
 11 14  1  0  0  0  0
 14 15  1  0  0  0  0
 14 16  1  0  0  0  0
 14 17  1  0  0  0  0
  2 18  2  0  0  0  0
 18 19  1  0  0  0  0
 19 20  1  0  0  0  0
 20 21  1  0  0  0  0
 20 22  1  0  0  0  0
 20 23  1  0  0  0  0
 19 24  2  0  0  0  0
 24 25  1  0  0  0  0
 24 26  1  0  0  0  0
 26  1  2  0  0  0  0
 26 27  1  0  0  0  0
 27 28  1  0  0  0  0
 28 29  2  0  0  0  0
 28 30  1  0  0  0  0
 30 31  1  0  0  0  0
 31 32  1  0  0  0  0
 31 33  1  0  0  0  0
 31 34  1  0  0  0  0
 34 35  1  0  0  0  0
 34 36  1  0  0  0  0
 34 37  1  0  0  0  0
 28 38  1  0  0  0  0
 38 39  1  0  0  0  0
 39 40  1  0  0  0  0
 39 41  1  0  0  0  0
 39 42  1  0  0  0  0
 42 43  1  0  0  0  0
 42 44  1  0  0  0  0
 42 45  1  0  0  0  0
M  END
> <ChemID>
100585

> <source_casrn>
23505-41-1

> <CAS>
23505-41-1

> <SMILES>
CCOP(=S)(OCC)Oc1cc(C)nc(n1)N(CC)CC

> <NAME>
PIRIMIPHOS ETHYL

> <preferred_name>
Pirimiphos-ethyl

> <iupac>
O-[2-(diethylamino)-6-methylpyrimidin-4-yl] O,O-diethyl phosphorothioate

> <MPID>
99845

> <dsstox_substance_id>
DTXSID5042297

> <Canonical_QSARr>
Cc1cc([n]c([n]1)N(CC)CC)OP(=S)(OCC)OCC

> <InChI_Code_QSARr>
InChI=1S/C13H24N3O3PS/c1-6-16(7-2)13-14-11(5)10-12(15-13)19-20(21,17-8-3)18-9-4/h10H,6-9H2,1-5H3

> <InChI Key_QSARr>
TZBPRYIIJAJUOY-UHFFFAOYSA-N

> <LogKOC>
2.48

$$$$
100586
  -INDIGO-08031722282D

 36 36  0  0  0  0  0  0  0  0999 V2000
    2.4000    1.3857    0.0000 C   0  0  0  0  0  0  0  0  0  0  0  0
    3.2001    2.7713    0.0000 N   0  0  0  0  0  0  0  0  0  0  0  0
    2.4000    4.1569    0.0000 H   0  0  0  0  0  0  0  0  0  0  0  0
    4.8000    2.7713    0.0000 C   0  0  0  0  0  0  0  0  0  0  0  0
    5.6001    1.3857    0.0000 O   0  0  0  0  0  0  0  0  0  0  0  0
    5.6001    4.1569    0.0000 O   0  0  0  0  0  0  0  0  0  0  0  0
    7.2001    4.1569    0.0000 C   0  0  0  0  0  0  0  0  0  0  0  0
    8.8000    4.1569    0.0000 H   0  0  0  0  0  0  0  0  0  0  0  0
    7.9999    5.5426    0.0000 H   0  0  0  0  0  0  0  0  0  0  0  0
    7.9999    2.7713    0.0000 H   0  0  0  0  0  0  0  0  0  0  0  0
    0.8001    1.3857    0.0000 N   0  0  0  0  0  0  0  0  0  0  0  0
   -0.0000    2.7713    0.0000 H   0  0  0  0  0  0  0  0  0  0  0  0
   -0.0000   -0.0001    0.0000 C   0  0  0  0  0  0  0  0  0  0  0  0
   -1.6000   -0.0001    0.0000 C   0  0  0  0  0  0  0  0  0  0  0  0
   -2.4001    1.3857    0.0000 N   0  0  0  0  0  0  0  0  0  0  0  0
   -1.6000    2.7713    0.0000 H   0  0  0  0  0  0  0  0  0  0  0  0
   -4.0000    1.3857    0.0000 C   0  0  0  0  0  0  0  0  0  0  0  0
   -4.8001    2.7713    0.0000 N   0  0  0  0  0  0  0  0  0  0  0  0
   -4.0000    4.1569    0.0000 H   0  0  0  0  0  0  0  0  0  0  0  0
   -6.4000    2.7713    0.0000 C   0  0  0  0  0  0  0  0  0  0  0  0
   -7.2001    1.3857    0.0000 O   0  0  0  0  0  0  0  0  0  0  0  0
   -7.1999    4.1569    0.0000 O   0  0  0  0  0  0  0  0  0  0  0  0
   -8.8001    4.1569    0.0000 C   0  0  0  0  0  0  0  0  0  0  0  0
  -10.4000    4.1569    0.0000 H   0  0  0  0  0  0  0  0  0  0  0  0
   -9.5999    5.5426    0.0000 H   0  0  0  0  0  0  0  0  0  0  0  0
   -9.5999    2.7713    0.0000 H   0  0  0  0  0  0  0  0  0  0  0  0
   -4.8001   -0.0001    0.0000 S   0  0  0  0  0  0  0  0  0  0  0  0
   -2.4001   -1.3857    0.0000 C   0  0  0  0  0  0  0  0  0  0  0  0
   -4.0000   -1.3857    0.0000 H   0  0  0  0  0  0  0  0  0  0  0  0
   -1.6000   -2.7713    0.0000 C   0  0  0  0  0  0  0  0  0  0  0  0
   -2.4001   -4.1569    0.0000 H   0  0  0  0  0  0  0  0  0  0  0  0
   -0.0000   -2.7713    0.0000 C   0  0  0  0  0  0  0  0  0  0  0  0
    0.8001   -4.1569    0.0000 H   0  0  0  0  0  0  0  0  0  0  0  0
    0.8001   -1.3857    0.0000 C   0  0  0  0  0  0  0  0  0  0  0  0
    2.4000   -1.3857    0.0000 H   0  0  0  0  0  0  0  0  0  0  0  0
    3.2001   -0.0001    0.0000 S   0  0  0  0  0  0  0  0  0  0  0  0
  1  2  1  0  0  0  0
  2  3  1  0  0  0  0
  2  4  1  0  0  0  0
  4  5  2  0  0  0  0
  4  6  1  0  0  0  0
  6  7  1  0  0  0  0
  7  8  1  0  0  0  0
  7  9  1  0  0  0  0
  7 10  1  0  0  0  0
  1 11  1  0  0  0  0
 11 12  1  0  0  0  0
 11 13  1  0  0  0  0
 13 14  1  0  0  0  0
 14 15  1  0  0  0  0
 15 16  1  0  0  0  0
 15 17  1  0  0  0  0
 17 18  1  0  0  0  0
 18 19  1  0  0  0  0
 18 20  1  0  0  0  0
 20 21  2  0  0  0  0
 20 22  1  0  0  0  0
 22 23  1  0  0  0  0
 23 24  1  0  0  0  0
 23 25  1  0  0  0  0
 23 26  1  0  0  0  0
 17 27  2  0  0  0  0
 14 28  2  0  0  0  0
 28 29  1  0  0  0  0
 28 30  1  0  0  0  0
 30 31  1  0  0  0  0
 30 32  2  0  0  0  0
 32 33  1  0  0  0  0
 32 34  1  0  0  0  0
 34 13  2  0  0  0  0
 34 35  1  0  0  0  0
  1 36  2  0  0  0  0
M  END
> <ChemID>
100586

> <source_casrn>
23564-05-8

> <CAS>
23564-05-8

> <SMILES>
COC(=O)NC(=S)Nc1ccccc1NC(=S)NC(=O)OC

> <NAME>
THIOPHANATE-METHYL

> <preferred_name>
Thiophanate-methyl

> <iupac>
dimethyl (benzene-1,2-diyldicarbamothioyl)biscarbamate

> <MPID>
99846

> <dsstox_substance_id>
DTXSID1024338

> <Canonical_QSARr>
COC(=O)NC(=S)Nc1ccccc1NC(=S)NC(=O)OC

> <InChI_Code_QSARr>
InChI=1S/C12H14N4O4S2/c1-19-11(17)15-9(21)13-7-5-3-4-6-8(7)14-10(22)16-12(18)20-2/h3-6H,1-2H3,(H2,13,15,17,21)(H2,14,16,18,22)

> <InChI Key_QSARr>
QGHREAKMXXNCOA-UHFFFAOYSA-N

> <LogKOC>
3.25

$$$$
100588
  -INDIGO-08031722282D

 49 49  0  0  0  0  0  0  0  0999 V2000
   -8.8996    5.1423    0.0000 C   0  0  0  0  0  0  0  0  0  0  0  0
   -8.6219    6.7180    0.0000 H   0  0  0  0  0  0  0  0  0  0  0  0
  -10.1254    6.1708    0.0000 H   0  0  0  0  0  0  0  0  0  0  0  0
   -7.3961    5.6895    0.0000 H   0  0  0  0  0  0  0  0  0  0  0  0
   -9.1774    3.5666    0.0000 C   0  0  0  0  0  0  0  0  0  0  0  0
  -10.3570    2.4858    0.0000 H   0  0  0  0  0  0  0  0  0  0  0  0
  -10.7759    3.6364    0.0000 H   0  0  0  0  0  0  0  0  0  0  0  0
   -7.9519    2.5381    0.0000 C   0  0  0  0  0  0  0  0  0  0  0  0
   -6.7723    3.6191    0.0000 H   0  0  0  0  0  0  0  0  0  0  0  0
   -6.3532    2.4684    0.0000 H   0  0  0  0  0  0  0  0  0  0  0  0
   -8.2297    0.9626    0.0000 O   0  0  0  0  0  0  0  0  0  0  0  0
   -7.0039   -0.0659    0.0000 P   0  0  0  0  0  0  0  0  0  0  0  0
   -8.5074   -0.6132    0.0000 O   0  0  0  0  0  0  0  0  0  0  0  0
   -8.7854   -2.1889    0.0000 C   0  0  0  0  0  0  0  0  0  0  0  0
   -8.0466   -3.6082    0.0000 H   0  0  0  0  0  0  0  0  0  0  0  0
   -7.2594   -2.6701    0.0000 H   0  0  0  0  0  0  0  0  0  0  0  0
  -10.2889   -2.7361    0.0000 C   0  0  0  0  0  0  0  0  0  0  0  0
  -11.0277   -1.3170    0.0000 H   0  0  0  0  0  0  0  0  0  0  0  0
  -11.8149   -2.2551    0.0000 H   0  0  0  0  0  0  0  0  0  0  0  0
  -10.5667   -4.3118    0.0000 C   0  0  0  0  0  0  0  0  0  0  0  0
  -10.8444   -5.8875    0.0000 H   0  0  0  0  0  0  0  0  0  0  0  0
  -12.0702   -4.8591    0.0000 H   0  0  0  0  0  0  0  0  0  0  0  0
   -9.3409   -5.3403    0.0000 H   0  0  0  0  0  0  0  0  0  0  0  0
   -7.2817   -1.6417    0.0000 S   0  0  0  0  0  0  0  0  0  0  0  0
   -5.5004    0.4813    0.0000 S   0  0  0  0  0  0  0  0  0  0  0  0
   -4.2747   -0.5472    0.0000 C   0  0  0  0  0  0  0  0  0  0  0  0
   -3.9286   -2.1093    0.0000 H   0  0  0  0  0  0  0  0  0  0  0  0
   -5.1344   -1.8967    0.0000 H   0  0  0  0  0  0  0  0  0  0  0  0
   -2.7712    0.0000    0.0000 C   0  0  0  0  0  0  0  0  0  0  0  0
   -1.3856   -0.7999    0.0000 N   0  0  0  0  0  0  0  0  0  0  0  0
   -1.3856   -2.4001    0.0000 C   0  0  0  0  0  0  0  0  0  0  0  0
   -2.9614   -2.1221    0.0000 H   0  0  0  0  0  0  0  0  0  0  0  0
   -1.9329   -3.9035    0.0000 H   0  0  0  0  0  0  0  0  0  0  0  0
   -0.0000   -3.2001    0.0000 C   0  0  0  0  0  0  0  0  0  0  0  0
   -1.0285   -4.4257    0.0000 H   0  0  0  0  0  0  0  0  0  0  0  0
    1.0285   -4.4257    0.0000 H   0  0  0  0  0  0  0  0  0  0  0  0
    1.3856   -2.4001    0.0000 C   0  0  0  0  0  0  0  0  0  0  0  0
    1.9329   -3.9035    0.0000 H   0  0  0  0  0  0  0  0  0  0  0  0
    2.9613   -2.1221    0.0000 H   0  0  0  0  0  0  0  0  0  0  0  0
    1.3856   -0.7999    0.0000 C   0  0  0  0  0  0  0  0  0  0  0  0
    2.9613   -1.0779    0.0000 H   0  0  0  0  0  0  0  0  0  0  0  0
    1.9329    0.7035    0.0000 H   0  0  0  0  0  0  0  0  0  0  0  0
   -0.0000    0.0000    0.0000 C   0  0  0  0  0  0  0  0  0  0  0  0
    1.0285    1.2257    0.0000 H   0  0  0  0  0  0  0  0  0  0  0  0
   -0.5473    1.5034    0.0000 C   0  0  0  0  0  0  0  0  0  0  0  0
    0.4812    2.7293    0.0000 H   0  0  0  0  0  0  0  0  0  0  0  0
   -1.0945    3.0070    0.0000 H   0  0  0  0  0  0  0  0  0  0  0  0
   -2.1230    1.7814    0.0000 H   0  0  0  0  0  0  0  0  0  0  0  0
   -3.3185    1.5034    0.0000 O   0  0  0  0  0  0  0  0  0  0  0  0
  1  2  1  0  0  0  0
  1  3  1  0  0  0  0
  1  4  1  0  0  0  0
  1  5  1  0  0  0  0
  5  6  1  0  0  0  0
  5  7  1  0  0  0  0
  5  8  1  0  0  0  0
  8  9  1  0  0  0  0
  8 10  1  0  0  0  0
  8 11  1  0  0  0  0
 11 12  1  0  0  0  0
 12 13  1  0  0  0  0
 13 14  1  0  0  0  0
 14 15  1  0  0  0  0
 14 16  1  0  0  0  0
 14 17  1  0  0  0  0
 17 18  1  0  0  0  0
 17 19  1  0  0  0  0
 17 20  1  0  0  0  0
 20 21  1  0  0  0  0
 20 22  1  0  0  0  0
 20 23  1  0  0  0  0
 12 24  2  0  0  0  0
 12 25  1  0  0  0  0
 25 26  1  0  0  0  0
 26 27  1  0  0  0  0
 26 28  1  0  0  0  0
 26 29  1  0  0  0  0
 29 30  1  0  0  0  0
 30 31  1  0  0  0  0
 31 32  1  0  0  0  0
 31 33  1  0  0  0  0
 31 34  1  0  0  0  0
 34 35  1  0  0  0  0
 34 36  1  0  0  0  0
 34 37  1  0  0  0  0
 37 38  1  0  0  0  0
 37 39  1  0  0  0  0
 37 40  1  0  0  0  0
 40 41  1  0  0  0  0
 40 42  1  0  0  0  0
 40 43  1  0  0  0  0
 43 30  1  0  0  0  0
 43 44  1  0  0  0  0
 43 45  1  0  0  0  0
 45 46  1  0  0  0  0
 45 47  1  0  0  0  0
 45 48  1  0  0  0  0
 29 49  2  0  0  0  0
M  END
> <ChemID>
100588

> <source_casrn>
24151-93-7

> <CAS>
24151-93-7

> <SMILES>
CC1CCCCN1C(=O)CSP(=S)(OCCC)OCCC

> <NAME>
PIPEROPHOS

> <preferred_name>
Piperophos

> <iupac>
S-[2-(2-methylpiperidin-1-yl)-2-oxoethyl] O,O-dipropyl phosphorodithioate

> <MPID>
99848

> <dsstox_substance_id>
DTXSID8058031

> <Canonical_QSARr>
CC1CCCCN1C(=O)CSP(=S)(OCCC)OCCC

> <InChI_Code_QSARr>
InChI=1S/C14H28NO3PS2/c1-4-10-17-19(20,18-11-5-2)21-12-14(16)15-9-7-6-8-13(15)3/h13H,4-12H2,1-3H3

> <InChI Key_QSARr>
UNLYSVIDNRIVFJ-UHFFFAOYSA-N

> <LogKOC>
3.44

$$$$
100589
  -INDIGO-08031722282D

 24 24  0  0  0  0  0  0  0  0999 V2000
    0.0000   -0.0000    0.0000 N   0  0  0  0  0  0  0  0  0  0  0  0
    1.2257    1.0285    0.0000 C   0  0  0  0  0  0  0  0  0  0  0  0
    2.4513    2.0570    0.0000 H   0  0  0  0  0  0  0  0  0  0  0  0
    2.7292    0.4812    0.0000 H   0  0  0  0  0  0  0  0  0  0  0  0
    1.5035    2.6042    0.0000 H   0  0  0  0  0  0  0  0  0  0  0  0
    1.2257   -1.0285    0.0000 C   0  0  0  0  0  0  0  0  0  0  0  0
    2.4513   -2.0570    0.0000 H   0  0  0  0  0  0  0  0  0  0  0  0
    2.7292   -0.4812    0.0000 H   0  0  0  0  0  0  0  0  0  0  0  0
    1.5035   -2.6042    0.0000 H   0  0  0  0  0  0  0  0  0  0  0  0
   -0.8000    1.3857    0.0000 C   0  0  0  0  0  0  0  0  0  0  0  0
    0.7035    1.9329    0.0000 H   0  0  0  0  0  0  0  0  0  0  0  0
   -1.0778    2.9613    0.0000 H   0  0  0  0  0  0  0  0  0  0  0  0
   -2.4000    1.3857    0.0000 C   0  0  0  0  0  0  0  0  0  0  0  0
   -2.1222    2.9613    0.0000 H   0  0  0  0  0  0  0  0  0  0  0  0
   -3.9035    1.9329    0.0000 H   0  0  0  0  0  0  0  0  0  0  0  0
   -3.2000   -0.0000    0.0000 C   0  0  0  0  0  0  0  0  0  0  0  0
   -4.4257    1.0285    0.0000 H   0  0  0  0  0  0  0  0  0  0  0  0
   -4.4257   -1.0285    0.0000 H   0  0  0  0  0  0  0  0  0  0  0  0
   -2.4000   -1.3857    0.0000 C   0  0  0  0  0  0  0  0  0  0  0  0
   -3.9035   -1.9329    0.0000 H   0  0  0  0  0  0  0  0  0  0  0  0
   -2.1222   -2.9613    0.0000 H   0  0  0  0  0  0  0  0  0  0  0  0
   -0.8000   -1.3857    0.0000 C   0  0  0  0  0  0  0  0  0  0  0  0
   -1.0778   -2.9613    0.0000 H   0  0  0  0  0  0  0  0  0  0  0  0
    0.7035   -1.9329    0.0000 H   0  0  0  0  0  0  0  0  0  0  0  0
  1  2  1  0  0  0  0
  2  3  1  0  0  0  0
  2  4  1  0  0  0  0
  2  5  1  0  0  0  0
  1  6  1  0  0  0  0
  6  7  1  0  0  0  0
  6  8  1  0  0  0  0
  6  9  1  0  0  0  0
  1 10  1  0  0  0  0
 10 11  1  0  0  0  0
 10 12  1  0  0  0  0
 10 13  1  0  0  0  0
 13 14  1  0  0  0  0
 13 15  1  0  0  0  0
 13 16  1  0  0  0  0
 16 17  1  0  0  0  0
 16 18  1  0  0  0  0
 16 19  1  0  0  0  0
 19 20  1  0  0  0  0
 19 21  1  0  0  0  0
 19 22  1  0  0  0  0
 22  1  1  0  0  0  0
 22 23  1  0  0  0  0
 22 24  1  0  0  0  0
M  CHG  1   1   1
M  END
> <ChemID>
100589

> <source_casrn>
24307-26-4

> <CAS>
24307-26-4

> <SMILES>
[Cl-].C[N+]1(C)CCCCC1

> <NAME>
Mepiquat chloride

> <preferred_name>
Mepiquat chloride

> <iupac>
1,1-dimethylpiperidinium chloride

> <MPID>
99849

> <dsstox_substance_id>
DTXSID1024170

> <Canonical_QSARr>
C[N+]1(C)CCCCC1

> <InChI_Code_QSARr>
InChI=1S/C7H16N/c1-8(2)6-4-3-5-7-8/h3-7H2,1-2H3/q+1

> <InChI Key_QSARr>
NNCAWEWCFVZOGF-UHFFFAOYSA-N

> <LogKOC>
6.0

$$$$
100590
  -INDIGO-08031722282D

 26 27  0  0  0  0  0  0  0  0999 V2000
    0.4461    2.8161    0.0000 C   0  0  0  0  0  0  0  0  0  0  0  0
    1.5166    4.0052    0.0000 H   0  0  0  0  0  0  0  0  0  0  0  0
   -0.0484    4.3378    0.0000 H   0  0  0  0  0  0  0  0  0  0  0  0
    2.0111    2.4835    0.0000 H   0  0  0  0  0  0  0  0  0  0  0  0
    0.9404    1.2944    0.0000 C   0  0  0  0  0  0  0  0  0  0  0  0
    0.0000    0.0000    0.0000 C   0  0  0  0  0  0  0  0  0  0  0  0
   -1.6000    0.0000    0.0000 C   0  0  0  0  0  0  0  0  0  0  0  0
   -2.4000    1.3856    0.0000 N   0  0  0  0  0  0  0  0  0  0  0  0
   -1.6000    2.7713    0.0000 H   0  0  0  0  0  0  0  0  0  0  0  0
   -4.0000    1.3856    0.0000 C   0  0  0  0  0  0  0  0  0  0  0  0
   -4.7999    2.7713    0.0000 C   0  0  0  0  0  0  0  0  0  0  0  0
   -4.0000    4.1569    0.0000 H   0  0  0  0  0  0  0  0  0  0  0  0
   -6.4000    2.7713    0.0000 C   0  0  0  0  0  0  0  0  0  0  0  0
   -7.1999    4.1569    0.0000 H   0  0  0  0  0  0  0  0  0  0  0  0
   -7.1999    1.3856    0.0000 C   0  0  0  0  0  0  0  0  0  0  0  0
   -8.8000    1.3856    0.0000 H   0  0  0  0  0  0  0  0  0  0  0  0
   -6.4000    0.0000    0.0000 C   0  0  0  0  0  0  0  0  0  0  0  0
   -7.1999   -1.3857    0.0000 H   0  0  0  0  0  0  0  0  0  0  0  0
   -4.7999    0.0000    0.0000 C   0  0  0  0  0  0  0  0  0  0  0  0
   -4.0000   -1.3857    0.0000 H   0  0  0  0  0  0  0  0  0  0  0  0
   -2.4000   -1.3857    0.0000 O   0  0  0  0  0  0  0  0  0  0  0  0
    0.9404   -1.2944    0.0000 C   0  0  0  0  0  0  0  0  0  0  0  0
    0.4461   -2.8161    0.0000 H   0  0  0  0  0  0  0  0  0  0  0  0
    2.4621   -0.8000    0.0000 C   0  0  0  0  0  0  0  0  0  0  0  0
    3.7566   -1.7404    0.0000 H   0  0  0  0  0  0  0  0  0  0  0  0
    2.4621    0.8000    0.0000 O   0  0  0  0  0  0  0  0  0  0  0  0
  1  2  1  0  0  0  0
  1  3  1  0  0  0  0
  1  4  1  0  0  0  0
  1  5  1  0  0  0  0
  5  6  2  0  0  0  0
  6  7  1  0  0  0  0
  7  8  1  0  0  0  0
  8  9  1  0  0  0  0
  8 10  1  0  0  0  0
 10 11  1  0  0  0  0
 11 12  1  0  0  0  0
 11 13  2  0  0  0  0
 13 14  1  0  0  0  0
 13 15  1  0  0  0  0
 15 16  1  0  0  0  0
 15 17  2  0  0  0  0
 17 18  1  0  0  0  0
 17 19  1  0  0  0  0
 19 10  2  0  0  0  0
 19 20  1  0  0  0  0
  7 21  2  0  0  0  0
  6 22  1  0  0  0  0
 22 23  1  0  0  0  0
 22 24  2  0  0  0  0
 24 25  1  0  0  0  0
 24 26  1  0  0  0  0
 26  5  1  0  0  0  0
M  END
> <ChemID>
100590

> <source_casrn>
24691-80-3

> <CAS>
24691-80-3

> <SMILES>
Cc1occc1C(=O)Nc1ccccc1

> <NAME>
Fenfuram

> <preferred_name>
Fenfuram

> <iupac>
2-methyl-N-phenyl-3-furamide

> <MPID>
99850

> <dsstox_substance_id>
DTXSID8058035

> <Canonical_QSARr>
Cc1occc1C(=O)Nc1ccccc1

> <InChI_Code_QSARr>
InChI=1S/C12H11NO2/c1-9-11(7-8-15-9)12(14)13-10-5-3-2-4-6-10/h2-8H,1H3,(H,13,14)

> <InChI Key_QSARr>
JFSPBVWPKOEZCB-UHFFFAOYSA-N

> <LogKOC>
2.48

$$$$
100591
  -INDIGO-08031722282D

 27 27  0  0  0  0  0  0  0  0999 V2000
   -8.8000   -1.3856    0.0000 Cl  0  0  0  0  0  0  0  0  0  0  0  0
   -7.2000   -1.3856    0.0000 C   0  0  0  0  0  0  0  0  0  0  0  0
   -6.4000    0.0000    0.0000 C   0  0  0  0  0  0  0  0  0  0  0  0
   -7.2000    1.3856    0.0000 H   0  0  0  0  0  0  0  0  0  0  0  0
   -4.8000    0.0000    0.0000 C   0  0  0  0  0  0  0  0  0  0  0  0
   -4.0000    1.3856    0.0000 H   0  0  0  0  0  0  0  0  0  0  0  0
   -4.0000   -1.3856    0.0000 C   0  0  0  0  0  0  0  0  0  0  0  0
   -2.4000   -1.3856    0.0000 C   0  0  0  0  0  0  0  0  0  0  0  0
   -1.6000   -2.7713    0.0000 O   0  0  0  0  0  0  0  0  0  0  0  0
   -1.6000    0.0000    0.0000 N   0  0  0  0  0  0  0  0  0  0  0  0
   -2.4000    1.3856    0.0000 H   0  0  0  0  0  0  0  0  0  0  0  0
    0.0000    0.0000    0.0000 C   0  0  0  0  0  0  0  0  0  0  0  0
    1.6000    0.0000    0.0000 C   0  0  0  0  0  0  0  0  0  0  0  0
    3.2000    0.0000    0.0000 H   0  0  0  0  0  0  0  0  0  0  0  0
    2.4000    1.3856    0.0000 H   0  0  0  0  0  0  0  0  0  0  0  0
    2.4000   -1.3856    0.0000 H   0  0  0  0  0  0  0  0  0  0  0  0
    0.0000    1.6000    0.0000 C   0  0  0  0  0  0  0  0  0  0  0  0
    0.0000    3.2000    0.0000 H   0  0  0  0  0  0  0  0  0  0  0  0
    1.3856    2.4001    0.0000 H   0  0  0  0  0  0  0  0  0  0  0  0
   -1.3856    2.4001    0.0000 H   0  0  0  0  0  0  0  0  0  0  0  0
    0.0000   -1.6000    0.0000 C   0  0  0  0  0  0  0  0  0  0  0  0
    0.0000   -3.2000    0.0000 C   0  0  0  0  0  0  0  0  0  0  0  0
    0.0000   -4.8000    0.0000 H   0  0  0  0  0  0  0  0  0  0  0  0
   -4.8000   -2.7713    0.0000 C   0  0  0  0  0  0  0  0  0  0  0  0
   -4.0000   -4.1569    0.0000 H   0  0  0  0  0  0  0  0  0  0  0  0
   -6.4000   -2.7713    0.0000 C   0  0  0  0  0  0  0  0  0  0  0  0
   -7.2000   -4.1569    0.0000 H   0  0  0  0  0  0  0  0  0  0  0  0
  1  2  1  0  0  0  0
  2  3  1  0  0  0  0
  3  4  1  0  0  0  0
  3  5  2  0  0  0  0
  5  6  1  0  0  0  0
  5  7  1  0  0  0  0
  7  8  1  0  0  0  0
  8  9  2  0  0  0  0
  8 10  1  0  0  0  0
 10 11  1  0  0  0  0
 10 12  1  0  0  0  0
 12 13  1  0  0  0  0
 13 14  1  0  0  0  0
 13 15  1  0  0  0  0
 13 16  1  0  0  0  0
 12 17  1  0  0  0  0
 17 18  1  0  0  0  0
 17 19  1  0  0  0  0
 17 20  1  0  0  0  0
 12 21  1  0  0  0  0
 21 22  3  0  0  0  0
 22 23  1  0  0  0  0
  7 24  2  0  0  0  0
 24 25  1  0  0  0  0
 24 26  1  0  0  0  0
 26  2  2  0  0  0  0
 26 27  1  0  0  0  0
M  END
> <ChemID>
100591

> <source_casrn>
24911-15-7

> <CAS>
24911-15-7

> <SMILES>
CC(C)(C#C)NC(=O)c1ccc(Cl)cc1

> <NAME>
4-CHLORO-N-(1,1-DIMETHYL-2-PROPYNYL)BENZAMIDE

> <preferred_name>
4-Chloro-N-(1,1-dimethyl-2-propynyl)benzamide

> <iupac>
4-chloro-N-(2-methylbut-3-yn-2-yl)benzamide

> <MPID>
99851

> <dsstox_substance_id>
DTXSID60179625

> <Canonical_QSARr>
CC(C)(C#C)NC(=O)c1ccc(Cl)cc1

> <InChI_Code_QSARr>
InChI=1S/C12H12ClNO/c1-4-12(2,3)14-11(15)9-5-7-10(13)8-6-9/h1,5-8H,2-3H3,(H,14,15)

> <InChI Key_QSARr>
JSBUIJZRVJLNAV-UHFFFAOYSA-N

> <LogKOC>
1.9

$$$$
100594
  -INDIGO-08031722282D

 22 22  0  0  0  0  0  0  0  0999 V2000
    3.2000    2.7713    0.0000 Cl  0  0  0  0  0  0  0  0  0  0  0  0
    2.4000    1.3856    0.0000 C   0  0  0  0  0  0  0  0  0  0  0  0
    3.2000   -0.0000    0.0000 C   0  0  0  0  0  0  0  0  0  0  0  0
    4.8000   -0.0000    0.0000 O   0  0  0  0  0  0  0  0  0  0  0  0
    5.6000    1.3856    0.0000 C   0  0  0  0  0  0  0  0  0  0  0  0
    7.2000    1.3856    0.0000 H   0  0  0  0  0  0  0  0  0  0  0  0
    6.4000    2.7713    0.0000 H   0  0  0  0  0  0  0  0  0  0  0  0
    6.4000   -0.0000    0.0000 H   0  0  0  0  0  0  0  0  0  0  0  0
    2.4000   -1.3856    0.0000 C   0  0  0  0  0  0  0  0  0  0  0  0
    3.2000   -2.7713    0.0000 H   0  0  0  0  0  0  0  0  0  0  0  0
    0.8000   -1.3856    0.0000 C   0  0  0  0  0  0  0  0  0  0  0  0
    0.0000   -2.7713    0.0000 H   0  0  0  0  0  0  0  0  0  0  0  0
    0.0000    0.0000    0.0000 C   0  0  0  0  0  0  0  0  0  0  0  0
   -1.6000    0.0000    0.0000 N   0  0  0  0  0  0  0  0  0  0  0  0
   -2.4000    1.3856    0.0000 H   0  0  0  0  0  0  0  0  0  0  0  0
   -2.4000   -1.3856    0.0000 C   0  0  0  0  0  0  0  0  0  0  0  0
   -1.6000   -2.7713    0.0000 O   0  0  0  0  0  0  0  0  0  0  0  0
   -4.0000   -1.3856    0.0000 N   0  0  0  0  0  0  0  0  0  0  0  0
   -4.8000   -2.7713    0.0000 H   0  0  0  0  0  0  0  0  0  0  0  0
   -4.8000    0.0000    0.0000 H   0  0  0  0  0  0  0  0  0  0  0  0
    0.8000    1.3856    0.0000 C   0  0  0  0  0  0  0  0  0  0  0  0
    0.0000    2.7713    0.0000 H   0  0  0  0  0  0  0  0  0  0  0  0
  1  2  1  0  0  0  0
  2  3  1  0  0  0  0
  3  4  1  0  0  0  0
  4  5  1  0  0  0  0
  5  6  1  0  0  0  0
  5  7  1  0  0  0  0
  5  8  1  0  0  0  0
  3  9  2  0  0  0  0
  9 10  1  0  0  0  0
  9 11  1  0  0  0  0
 11 12  1  0  0  0  0
 11 13  2  0  0  0  0
 13 14  1  0  0  0  0
 14 15  1  0  0  0  0
 14 16  1  0  0  0  0
 16 17  2  0  0  0  0
 16 18  1  0  0  0  0
 18 19  1  0  0  0  0
 18 20  1  0  0  0  0
 13 21  1  0  0  0  0
 21  2  2  0  0  0  0
 21 22  1  0  0  0  0
M  END
> <ChemID>
100594

> <source_casrn>
25277-05-8

> <CAS>
25277-05-8

> <SMILES>
COc1ccc(cc1Cl)NC(N)=O

> <NAME>
(3-CHLORO-4-METHOXYPHENYL)UREA

> <preferred_name>
Urea, (3-chloro-4-methoxyphenyl)-

> <iupac>
(3-CHLORO-4-METHOXYPHENYL)UREA

> <MPID>
99853

> <dsstox_substance_id>
DTXSID60179923

> <Canonical_QSARr>
COc1ccc(cc1Cl)NC(N)=O

> <InChI_Code_QSARr>
InChI=1S/C8H9ClN2O2/c1-13-7-3-2-5(4-6(7)9)11-8(10)12/h2-4H,1H3,(H3,10,11,12)

> <InChI Key_QSARr>
UBUDYOAQLWPSQY-UHFFFAOYSA-N

> <LogKOC>
2.0

$$$$
100595
  -INDIGO-08031722282D

 46 46  0  0  0  0  0  0  0  0999 V2000
    0.2528   -2.8891    0.0000 P   0  0  0  0  0  0  0  0  0  0  0  0
    1.8528   -2.8891    0.0000 O   0  0  0  0  0  0  0  0  0  0  0  0
    2.6528   -4.2748    0.0000 C   0  0  0  0  0  0  0  0  0  0  0  0
    4.2529   -4.2748    0.0000 C   0  0  0  0  0  0  0  0  0  0  0  0
    5.0529   -2.8891    0.0000 C   0  0  0  0  0  0  0  0  0  0  0  0
    6.6529   -2.8891    0.0000 O   0  0  0  0  0  0  0  0  0  0  0  0
    7.4527   -1.5035    0.0000 C   0  0  0  0  0  0  0  0  0  0  0  0
    6.0672   -0.7034    0.0000 H   0  0  0  0  0  0  0  0  0  0  0  0
    8.2527   -0.1178    0.0000 C   0  0  0  0  0  0  0  0  0  0  0  0
    9.0527    1.2677    0.0000 H   0  0  0  0  0  0  0  0  0  0  0  0
    9.8527   -0.1178    0.0000 H   0  0  0  0  0  0  0  0  0  0  0  0
    7.4527    1.2677    0.0000 H   0  0  0  0  0  0  0  0  0  0  0  0
    8.8384   -2.3035    0.0000 C   0  0  0  0  0  0  0  0  0  0  0  0
   10.2241   -3.1036    0.0000 H   0  0  0  0  0  0  0  0  0  0  0  0
    8.8384   -3.9035    0.0000 H   0  0  0  0  0  0  0  0  0  0  0  0
   10.2241   -1.5035    0.0000 H   0  0  0  0  0  0  0  0  0  0  0  0
    4.2529   -1.5035    0.0000 O   0  0  0  0  0  0  0  0  0  0  0  0
    5.0529   -5.6605    0.0000 C   0  0  0  0  0  0  0  0  0  0  0  0
    6.6529   -5.6605    0.0000 H   0  0  0  0  0  0  0  0  0  0  0  0
    4.2529   -7.0460    0.0000 C   0  0  0  0  0  0  0  0  0  0  0  0
    5.0529   -8.4317    0.0000 H   0  0  0  0  0  0  0  0  0  0  0  0
    2.6528   -7.0460    0.0000 C   0  0  0  0  0  0  0  0  0  0  0  0
    1.8528   -8.4317    0.0000 H   0  0  0  0  0  0  0  0  0  0  0  0
    1.8528   -5.6605    0.0000 C   0  0  0  0  0  0  0  0  0  0  0  0
    0.2528   -5.6605    0.0000 H   0  0  0  0  0  0  0  0  0  0  0  0
   -0.5472   -1.5035    0.0000 N   0  0  0  0  0  0  0  0  0  0  0  0
   -2.1230   -1.7814    0.0000 H   0  0  0  0  0  0  0  0  0  0  0  0
    0.0000   -0.0000    0.0000 C   0  0  0  0  0  0  0  0  0  0  0  0
    1.5036   -0.5472    0.0000 H   0  0  0  0  0  0  0  0  0  0  0  0
    0.5472    1.5035    0.0000 C   0  0  0  0  0  0  0  0  0  0  0  0
    1.0944    3.0070    0.0000 H   0  0  0  0  0  0  0  0  0  0  0  0
   -0.4811    2.7291    0.0000 H   0  0  0  0  0  0  0  0  0  0  0  0
    2.1230    1.7814    0.0000 H   0  0  0  0  0  0  0  0  0  0  0  0
   -1.5035    0.5472    0.0000 C   0  0  0  0  0  0  0  0  0  0  0  0
   -3.0071    1.0945    0.0000 H   0  0  0  0  0  0  0  0  0  0  0  0
   -1.7813    2.1230    0.0000 H   0  0  0  0  0  0  0  0  0  0  0  0
   -2.7291   -0.4812    0.0000 H   0  0  0  0  0  0  0  0  0  0  0  0
    1.0528   -1.5035    0.0000 S   0  0  0  0  0  0  0  0  0  0  0  0
   -1.3472   -2.8891    0.0000 O   0  0  0  0  0  0  0  0  0  0  0  0
   -2.1472   -4.2748    0.0000 C   0  0  0  0  0  0  0  0  0  0  0  0
   -1.9383   -5.8610    0.0000 H   0  0  0  0  0  0  0  0  0  0  0  0
   -0.8779   -5.2487    0.0000 H   0  0  0  0  0  0  0  0  0  0  0  0
   -3.7472   -4.2748    0.0000 C   0  0  0  0  0  0  0  0  0  0  0  0
   -4.5472   -5.6605    0.0000 H   0  0  0  0  0  0  0  0  0  0  0  0
   -5.3472   -4.2748    0.0000 H   0  0  0  0  0  0  0  0  0  0  0  0
   -2.9472   -5.6605    0.0000 H   0  0  0  0  0  0  0  0  0  0  0  0
  1  2  1  0  0  0  0
  2  3  1  0  0  0  0
  3  4  1  0  0  0  0
  4  5  1  0  0  0  0
  5  6  1  0  0  0  0
  6  7  1  0  0  0  0
  7  8  1  0  0  0  0
  7  9  1  0  0  0  0
  9 10  1  0  0  0  0
  9 11  1  0  0  0  0
  9 12  1  0  0  0  0
  7 13  1  0  0  0  0
 13 14  1  0  0  0  0
 13 15  1  0  0  0  0
 13 16  1  0  0  0  0
  5 17  2  0  0  0  0
  4 18  2  0  0  0  0
 18 19  1  0  0  0  0
 18 20  1  0  0  0  0
 20 21  1  0  0  0  0
 20 22  2  0  0  0  0
 22 23  1  0  0  0  0
 22 24  1  0  0  0  0
 24  3  2  0  0  0  0
 24 25  1  0  0  0  0
  1 26  1  0  0  0  0
 26 27  1  0  0  0  0
 26 28  1  0  0  0  0
 28 29  1  0  0  0  0
 28 30  1  0  0  0  0
 30 31  1  0  0  0  0
 30 32  1  0  0  0  0
 30 33  1  0  0  0  0
 28 34  1  0  0  0  0
 34 35  1  0  0  0  0
 34 36  1  0  0  0  0
 34 37  1  0  0  0  0
  1 38  2  0  0  0  0
  1 39  1  0  0  0  0
 39 40  1  0  0  0  0
 40 41  1  0  0  0  0
 40 42  1  0  0  0  0
 40 43  1  0  0  0  0
 43 44  1  0  0  0  0
 43 45  1  0  0  0  0
 43 46  1  0  0  0  0
M  END
> <ChemID>
100595

> <source_casrn>
25311-71-1

> <CAS>
25311-71-1

> <SMILES>
CCOP(=S)(NC(C)C)Oc1ccccc1C(=O)OC(C)C

> <NAME>
ISOFENPHOS

> <preferred_name>
Isofenphos

> <iupac>
propan-2-yl 2-{[ethoxy(propan-2-ylamino)phosphorothioyl]oxy}benzoate

> <MPID>
99854

> <dsstox_substance_id>
DTXSID8032417

> <Canonical_QSARr>
CCOP(=S)(NC(C)C)Oc1ccccc1C(=O)OC(C)C

> <InChI_Code_QSARr>
InChI=1S/C15H24NO4PS/c1-6-18-21(22,16-11(2)3)20-14-10-8-7-9-13(14)15(17)19-12(4)5/h7-12H,6H2,1-5H3,(H,16,22)

> <InChI Key_QSARr>
HOQADATXFBOEGG-UHFFFAOYSA-N

> <LogKOC>
2.78

$$$$
100596
  -INDIGO-08031722282D

 33 32  0  0  0  0  0  0  0  0999 V2000
    5.5426   -0.0000    0.0000 C   0  0  0  0  0  0  0  0  0  0  0  0
    5.5426   -1.6000    0.0000 O   0  0  0  0  0  0  0  0  0  0  0  0
    6.9282    0.8000    0.0000 O   0  0  0  0  0  0  0  0  0  0  0  0
    8.3138   -0.0000    0.0000 C   0  0  0  0  0  0  0  0  0  0  0  0
    8.9260   -1.4782    0.0000 H   0  0  0  0  0  0  0  0  0  0  0  0
    7.7015   -1.4782    0.0000 H   0  0  0  0  0  0  0  0  0  0  0  0
    9.6996    0.8000    0.0000 C   0  0  0  0  0  0  0  0  0  0  0  0
    9.0871    2.2782    0.0000 H   0  0  0  0  0  0  0  0  0  0  0  0
   10.3118    2.2782    0.0000 H   0  0  0  0  0  0  0  0  0  0  0  0
   11.0852   -0.0000    0.0000 C   0  0  0  0  0  0  0  0  0  0  0  0
   12.4708   -0.8000    0.0000 H   0  0  0  0  0  0  0  0  0  0  0  0
   12.4708    0.8000    0.0000 H   0  0  0  0  0  0  0  0  0  0  0  0
   11.0852   -1.6000    0.0000 H   0  0  0  0  0  0  0  0  0  0  0  0
    4.1568    0.8000    0.0000 N   0  0  0  0  0  0  0  0  0  0  0  0
    4.1568    2.4000    0.0000 H   0  0  0  0  0  0  0  0  0  0  0  0
    2.7712   -0.0000    0.0000 C   0  0  0  0  0  0  0  0  0  0  0  0
    3.3835   -1.4782    0.0000 H   0  0  0  0  0  0  0  0  0  0  0  0
    2.1590   -1.4782    0.0000 H   0  0  0  0  0  0  0  0  0  0  0  0
    1.3856    0.8000    0.0000 C   0  0  0  0  0  0  0  0  0  0  0  0
    0.7734    2.2782    0.0000 H   0  0  0  0  0  0  0  0  0  0  0  0
    1.9979    2.2782    0.0000 H   0  0  0  0  0  0  0  0  0  0  0  0
    0.0001   -0.0000    0.0000 C   0  0  0  0  0  0  0  0  0  0  0  0
    0.6123   -1.4782    0.0000 H   0  0  0  0  0  0  0  0  0  0  0  0
   -0.6122   -1.4782    0.0000 H   0  0  0  0  0  0  0  0  0  0  0  0
   -1.3858    0.8000    0.0000 N   0  0  0  0  0  0  0  0  0  0  0  0
   -2.7713   -0.0000    0.0000 C   0  0  0  0  0  0  0  0  0  0  0  0
   -4.1569   -0.8000    0.0000 H   0  0  0  0  0  0  0  0  0  0  0  0
   -4.1569    0.8000    0.0000 H   0  0  0  0  0  0  0  0  0  0  0  0
   -2.7713   -1.6000    0.0000 H   0  0  0  0  0  0  0  0  0  0  0  0
   -1.3858    2.4000    0.0000 C   0  0  0  0  0  0  0  0  0  0  0  0
   -1.3858    4.0000    0.0000 H   0  0  0  0  0  0  0  0  0  0  0  0
   -2.7713    3.2000    0.0000 H   0  0  0  0  0  0  0  0  0  0  0  0
    0.0001    3.2000    0.0000 H   0  0  0  0  0  0  0  0  0  0  0  0
  1  2  2  0  0  0  0
  1  3  1  0  0  0  0
  3  4  1  0  0  0  0
  4  5  1  0  0  0  0
  4  6  1  0  0  0  0
  4  7  1  0  0  0  0
  7  8  1  0  0  0  0
  7  9  1  0  0  0  0
  7 10  1  0  0  0  0
 10 11  1  0  0  0  0
 10 12  1  0  0  0  0
 10 13  1  0  0  0  0
  1 14  1  0  0  0  0
 14 15  1  0  0  0  0
 14 16  1  0  0  0  0
 16 17  1  0  0  0  0
 16 18  1  0  0  0  0
 16 19  1  0  0  0  0
 19 20  1  0  0  0  0
 19 21  1  0  0  0  0
 19 22  1  0  0  0  0
 22 23  1  0  0  0  0
 22 24  1  0  0  0  0
 22 25  1  0  0  0  0
 25 26  1  0  0  0  0
 26 27  1  0  0  0  0
 26 28  1  0  0  0  0
 26 29  1  0  0  0  0
 25 30  1  0  0  0  0
 30 31  1  0  0  0  0
 30 32  1  0  0  0  0
 30 33  1  0  0  0  0
M  END
> <ChemID>
100596

> <source_casrn>
25606-41-1

> <CAS>
25606-41-1

> <SMILES>
Cl.CCCOC(=O)NCCCN(C)C

> <NAME>
PROPAMOCARB HCL

> <preferred_name>
Propamocarb hydrochloride

> <iupac>
propyl [3-(dimethylamino)propyl]carbamate hydrochloride (1:1)

> <MPID>
99855

> <dsstox_substance_id>
DTXSID6034849

> <Canonical_QSARr>
CCCOC(=O)NCCCN(C)C

> <InChI_Code_QSARr>
InChI=1S/C9H20N2O2/c1-4-8-13-9(12)10-6-5-7-11(2)3/h4-8H2,1-3H3,(H,10,12)

> <InChI Key_QSARr>
WZZLDXDUQPOXNW-UHFFFAOYSA-N

> <LogKOC>
2.49

$$$$
100598
  -INDIGO-08031722282D

 39 39  0  0  0  0  0  0  0  0999 V2000
    1.3857   -0.8000    0.0000 C   0  0  0  0  0  0  0  0  0  0  0  0
    2.7713   -1.6000    0.0000 H   0  0  0  0  0  0  0  0  0  0  0  0
    1.3857   -2.3999    0.0000 H   0  0  0  0  0  0  0  0  0  0  0  0
    2.7713   -0.0000    0.0000 H   0  0  0  0  0  0  0  0  0  0  0  0
    0.0001   -0.0000    0.0000 C   0  0  0  0  0  0  0  0  0  0  0  0
   -1.3856    0.8001    0.0000 H   0  0  0  0  0  0  0  0  0  0  0  0
   -0.7999   -1.3857    0.0000 C   0  0  0  0  0  0  0  0  0  0  0  0
   -1.6001   -2.7713    0.0000 H   0  0  0  0  0  0  0  0  0  0  0  0
    0.0001   -2.7713    0.0000 H   0  0  0  0  0  0  0  0  0  0  0  0
   -2.4001   -1.3857    0.0000 H   0  0  0  0  0  0  0  0  0  0  0  0
    0.8000    1.3856    0.0000 O   0  0  0  0  0  0  0  0  0  0  0  0
    0.0001    2.7713    0.0000 P   0  0  0  0  0  0  0  0  0  0  0  0
    0.8000    4.1570    0.0000 O   0  0  0  0  0  0  0  0  0  0  0  0
    1.6000    2.7713    0.0000 O   0  0  0  0  0  0  0  0  0  0  0  0
    2.6285    3.9970    0.0000 C   0  0  0  0  0  0  0  0  0  0  0  0
    1.4027    5.0255    0.0000 H   0  0  0  0  0  0  0  0  0  0  0  0
    3.6568    5.2226    0.0000 C   0  0  0  0  0  0  0  0  0  0  0  0
    4.6853    6.4482    0.0000 H   0  0  0  0  0  0  0  0  0  0  0  0
    5.2326    4.9448    0.0000 H   0  0  0  0  0  0  0  0  0  0  0  0
    3.1096    6.7262    0.0000 H   0  0  0  0  0  0  0  0  0  0  0  0
    3.8541    2.9685    0.0000 C   0  0  0  0  0  0  0  0  0  0  0  0
    5.0798    1.9400    0.0000 H   0  0  0  0  0  0  0  0  0  0  0  0
    3.5762    1.3928    0.0000 H   0  0  0  0  0  0  0  0  0  0  0  0
    5.3576    3.5157    0.0000 H   0  0  0  0  0  0  0  0  0  0  0  0
   -1.6001    2.7713    0.0000 S   0  0  0  0  0  0  0  0  0  0  0  0
   -2.4001    4.1570    0.0000 C   0  0  0  0  0  0  0  0  0  0  0  0
   -2.1912    5.7433    0.0000 H   0  0  0  0  0  0  0  0  0  0  0  0
   -1.1307    5.1310    0.0000 H   0  0  0  0  0  0  0  0  0  0  0  0
   -4.0000    4.1570    0.0000 C   0  0  0  0  0  0  0  0  0  0  0  0
   -4.8000    5.5426    0.0000 C   0  0  0  0  0  0  0  0  0  0  0  0
   -4.0000    6.9282    0.0000 H   0  0  0  0  0  0  0  0  0  0  0  0
   -6.4001    5.5426    0.0000 C   0  0  0  0  0  0  0  0  0  0  0  0
   -7.2001    6.9282    0.0000 H   0  0  0  0  0  0  0  0  0  0  0  0
   -7.2001    4.1570    0.0000 C   0  0  0  0  0  0  0  0  0  0  0  0
   -8.8000    4.1570    0.0000 H   0  0  0  0  0  0  0  0  0  0  0  0
   -6.4001    2.7713    0.0000 C   0  0  0  0  0  0  0  0  0  0  0  0
   -7.2001    1.3856    0.0000 H   0  0  0  0  0  0  0  0  0  0  0  0
   -4.8000    2.7713    0.0000 C   0  0  0  0  0  0  0  0  0  0  0  0
   -4.0000    1.3856    0.0000 H   0  0  0  0  0  0  0  0  0  0  0  0
  1  2  1  0  0  0  0
  1  3  1  0  0  0  0
  1  4  1  0  0  0  0
  1  5  1  0  0  0  0
  5  6  1  0  0  0  0
  5  7  1  0  0  0  0
  7  8  1  0  0  0  0
  7  9  1  0  0  0  0
  7 10  1  0  0  0  0
  5 11  1  0  0  0  0
 11 12  1  0  0  0  0
 12 13  2  0  0  0  0
 12 14  1  0  0  0  0
 14 15  1  0  0  0  0
 15 16  1  0  0  0  0
 15 17  1  0  0  0  0
 17 18  1  0  0  0  0
 17 19  1  0  0  0  0
 17 20  1  0  0  0  0
 15 21  1  0  0  0  0
 21 22  1  0  0  0  0
 21 23  1  0  0  0  0
 21 24  1  0  0  0  0
 12 25  1  0  0  0  0
 25 26  1  0  0  0  0
 26 27  1  0  0  0  0
 26 28  1  0  0  0  0
 26 29  1  0  0  0  0
 29 30  1  0  0  0  0
 30 31  1  0  0  0  0
 30 32  2  0  0  0  0
 32 33  1  0  0  0  0
 32 34  1  0  0  0  0
 34 35  1  0  0  0  0
 34 36  2  0  0  0  0
 36 37  1  0  0  0  0
 36 38  1  0  0  0  0
 38 29  2  0  0  0  0
 38 39  1  0  0  0  0
M  END
> <ChemID>
100598

> <source_casrn>
26087-47-8

> <CAS>
26087-47-8

> <SMILES>
CC(C)OP(=O)(OC(C)C)SCc1ccccc1

> <NAME>
IBP (IPROBENFOS)

> <preferred_name>
Iprobenfos

> <iupac>
S-benzyl O,O-diisopropyl phosphorothioate

> <MPID>
99856

> <dsstox_substance_id>
DTXSID7058040

> <Canonical_QSARr>
CC(C)OP(=O)(OC(C)C)SCc1ccccc1

> <InChI_Code_QSARr>
InChI=1S/C13H21O3PS/c1-11(2)15-17(14,16-12(3)4)18-10-13-8-6-5-7-9-13/h5-9,11-12H,10H2,1-4H3

> <InChI Key_QSARr>
FCOAHACKGGIURQ-UHFFFAOYSA-N

> <LogKOC>
2.26

$$$$
100600
  -INDIGO-08031722282D

 35 35  0  0  0  0  0  0  0  0999 V2000
    0.8001    1.3857    0.0000 C   0  0  0  0  0  0  0  0  0  0  0  0
    1.6000    2.7713    0.0000 H   0  0  0  0  0  0  0  0  0  0  0  0
    2.4000    1.3857    0.0000 H   0  0  0  0  0  0  0  0  0  0  0  0
    0.0000    2.7713    0.0000 H   0  0  0  0  0  0  0  0  0  0  0  0
    0.0000   -0.0000    0.0000 C   0  0  0  0  0  0  0  0  0  0  0  0
   -0.8000   -1.3856    0.0000 H   0  0  0  0  0  0  0  0  0  0  0  0
    1.3857   -0.8000    0.0000 C   0  0  0  0  0  0  0  0  0  0  0  0
    1.9979   -2.2782    0.0000 H   0  0  0  0  0  0  0  0  0  0  0  0
    0.7734   -2.2782    0.0000 H   0  0  0  0  0  0  0  0  0  0  0  0
    2.7712   -0.0000    0.0000 C   0  0  0  0  0  0  0  0  0  0  0  0
    4.1569   -0.8000    0.0000 H   0  0  0  0  0  0  0  0  0  0  0  0
    4.1569    0.8000    0.0000 H   0  0  0  0  0  0  0  0  0  0  0  0
    2.7712   -1.6000    0.0000 H   0  0  0  0  0  0  0  0  0  0  0  0
   -1.3857    0.8000    0.0000 N   0  0  0  0  0  0  0  0  0  0  0  0
   -1.3857    2.4000    0.0000 H   0  0  0  0  0  0  0  0  0  0  0  0
   -2.7714   -0.0000    0.0000 C   0  0  0  0  0  0  0  0  0  0  0  0
   -4.1568    0.8000    0.0000 N   0  0  0  0  0  0  0  0  0  0  0  0
   -5.5425   -0.0000    0.0000 C   0  0  0  0  0  0  0  0  0  0  0  0
   -6.9282    0.8000    0.0000 N   0  0  0  0  0  0  0  0  0  0  0  0
   -6.9282    2.4000    0.0000 H   0  0  0  0  0  0  0  0  0  0  0  0
   -8.3139   -0.0000    0.0000 C   0  0  0  0  0  0  0  0  0  0  0  0
   -7.7016   -1.4781    0.0000 H   0  0  0  0  0  0  0  0  0  0  0  0
   -8.9261   -1.4781    0.0000 H   0  0  0  0  0  0  0  0  0  0  0  0
   -9.6994    0.8000    0.0000 C   0  0  0  0  0  0  0  0  0  0  0  0
  -11.0851    1.5999    0.0000 H   0  0  0  0  0  0  0  0  0  0  0  0
  -11.0851   -0.0000    0.0000 H   0  0  0  0  0  0  0  0  0  0  0  0
   -9.6994    2.4000    0.0000 H   0  0  0  0  0  0  0  0  0  0  0  0
   -5.5425   -1.6000    0.0000 N   0  0  0  0  0  0  0  0  0  0  0  0
   -4.1568   -2.4000    0.0000 C   0  0  0  0  0  0  0  0  0  0  0  0
   -4.1568   -3.9999    0.0000 O   0  0  0  0  0  0  0  0  0  0  0  0
   -5.5425   -4.8000    0.0000 C   0  0  0  0  0  0  0  0  0  0  0  0
   -5.5425   -6.4000    0.0000 H   0  0  0  0  0  0  0  0  0  0  0  0
   -6.9282   -5.5999    0.0000 H   0  0  0  0  0  0  0  0  0  0  0  0
   -6.9282   -3.9999    0.0000 H   0  0  0  0  0  0  0  0  0  0  0  0
   -2.7714   -1.6000    0.0000 N   0  0  0  0  0  0  0  0  0  0  0  0
  1  2  1  0  0  0  0
  1  3  1  0  0  0  0
  1  4  1  0  0  0  0
  1  5  1  0  0  0  0
  5  6  1  0  0  0  0
  5  7  1  0  0  0  0
  7  8  1  0  0  0  0
  7  9  1  0  0  0  0
  7 10  1  0  0  0  0
 10 11  1  0  0  0  0
 10 12  1  0  0  0  0
 10 13  1  0  0  0  0
  5 14  1  0  0  0  0
 14 15  1  0  0  0  0
 14 16  1  0  0  0  0
 16 17  1  0  0  0  0
 17 18  2  0  0  0  0
 18 19  1  0  0  0  0
 19 20  1  0  0  0  0
 19 21  1  0  0  0  0
 21 22  1  0  0  0  0
 21 23  1  0  0  0  0
 21 24  1  0  0  0  0
 24 25  1  0  0  0  0
 24 26  1  0  0  0  0
 24 27  1  0  0  0  0
 18 28  1  0  0  0  0
 28 29  2  0  0  0  0
 29 30  1  0  0  0  0
 30 31  1  0  0  0  0
 31 32  1  0  0  0  0
 31 33  1  0  0  0  0
 31 34  1  0  0  0  0
 29 35  1  0  0  0  0
 35 16  2  0  0  0  0
M  END
> <ChemID>
100600

> <source_casrn>
26259-45-0

> <CAS>
26259-45-0

> <SMILES>
COc1[n]c(NCC)[n]c(NC(C)CC)[n]1

> <NAME>
SECBUMETON

> <preferred_name>
Secbumeton

> <iupac>
N-(butan-2-yl)-N'-ethyl-6-methoxy-1,3,5-triazine-2,4-diamine

> <MPID>
99858

> <dsstox_substance_id>
DTXSID8037594

> <Canonical_QSARr>
COc1[n]c(NCC)[n]c(NC(C)CC)[n]1

> <InChI_Code_QSARr>
InChI=1S/C10H19N5O/c1-5-7(3)12-9-13-8(11-6-2)14-10(15-9)16-4/h7H,5-6H2,1-4H3,(H2,11,12,13,14,15)

> <InChI Key_QSARr>
ZJMZZNVGNSWOOM-UHFFFAOYSA-N

> <LogKOC>
2.78

$$$$
100601
  -INDIGO-08031722282D

 33 33  0  0  0  0  0  0  0  0999 V2000
    0.0000   -0.0001    0.0000 N   0  0  0  0  0  0  0  0  0  0  0  0
    1.6000   -0.0001    0.0000 C   0  0  0  0  0  0  0  0  0  0  0  0
    2.4000    1.3857    0.0000 C   0  0  0  0  0  0  0  0  0  0  0  0
    2.1222    2.9613    0.0000 N   0  0  0  0  0  0  0  0  0  0  0  0
    3.3478    3.9898    0.0000 O   0  0  0  0  0  0  0  0  0  0  0  0
    0.6187    3.5086    0.0000 O   0  0  0  0  0  0  0  0  0  0  0  0
    4.0000    1.3857    0.0000 C   0  0  0  0  0  0  0  0  0  0  0  0
    4.8000    2.7713    0.0000 H   0  0  0  0  0  0  0  0  0  0  0  0
    4.8000   -0.0001    0.0000 C   0  0  0  0  0  0  0  0  0  0  0  0
    6.4000   -0.0001    0.0000 C   0  0  0  0  0  0  0  0  0  0  0  0
    8.0000   -0.0001    0.0000 H   0  0  0  0  0  0  0  0  0  0  0  0
    7.2000   -1.3857    0.0000 H   0  0  0  0  0  0  0  0  0  0  0  0
    7.2000    1.3857    0.0000 H   0  0  0  0  0  0  0  0  0  0  0  0
    4.0000   -1.3857    0.0000 C   0  0  0  0  0  0  0  0  0  0  0  0
    4.8000   -2.7713    0.0000 H   0  0  0  0  0  0  0  0  0  0  0  0
    2.4000   -1.3857    0.0000 C   0  0  0  0  0  0  0  0  0  0  0  0
    2.1222   -2.9613    0.0000 N   0  0  0  0  0  0  0  0  0  0  0  0
    3.3478   -3.9898    0.0000 O   0  0  0  0  0  0  0  0  0  0  0  0
    0.6187   -3.5086    0.0000 O   0  0  0  0  0  0  0  0  0  0  0  0
   -0.8000    1.3857    0.0000 C   0  0  0  0  0  0  0  0  0  0  0  0
   -0.5911    2.9720    0.0000 H   0  0  0  0  0  0  0  0  0  0  0  0
    0.4693    2.3597    0.0000 H   0  0  0  0  0  0  0  0  0  0  0  0
   -2.4000    1.3857    0.0000 C   0  0  0  0  0  0  0  0  0  0  0  0
   -4.0000    1.3857    0.0000 H   0  0  0  0  0  0  0  0  0  0  0  0
   -3.2000    2.7713    0.0000 H   0  0  0  0  0  0  0  0  0  0  0  0
   -3.2000   -0.0001    0.0000 Cl  0  0  0  0  0  0  0  0  0  0  0  0
   -0.8000   -1.3857    0.0000 C   0  0  0  0  0  0  0  0  0  0  0  0
    0.4693   -2.3597    0.0000 H   0  0  0  0  0  0  0  0  0  0  0  0
   -0.5911   -2.9720    0.0000 H   0  0  0  0  0  0  0  0  0  0  0  0
   -2.4000   -1.3857    0.0000 C   0  0  0  0  0  0  0  0  0  0  0  0
   -3.2000   -2.7713    0.0000 H   0  0  0  0  0  0  0  0  0  0  0  0
   -4.0000   -1.3857    0.0000 H   0  0  0  0  0  0  0  0  0  0  0  0
   -1.6000   -2.7713    0.0000 Cl  0  0  0  0  0  0  0  0  0  0  0  0
  1  2  1  0  0  0  0
  2  3  1  0  0  0  0
  3  4  1  0  0  0  0
  4  5  1  0  0  0  0
  4  6  2  0  0  0  0
  3  7  2  0  0  0  0
  7  8  1  0  0  0  0
  7  9  1  0  0  0  0
  9 10  1  0  0  0  0
 10 11  1  0  0  0  0
 10 12  1  0  0  0  0
 10 13  1  0  0  0  0
  9 14  2  0  0  0  0
 14 15  1  0  0  0  0
 14 16  1  0  0  0  0
 16  2  2  0  0  0  0
 16 17  1  0  0  0  0
 17 18  1  0  0  0  0
 17 19  2  0  0  0  0
  1 20  1  0  0  0  0
 20 21  1  0  0  0  0
 20 22  1  0  0  0  0
 20 23  1  0  0  0  0
 23 24  1  0  0  0  0
 23 25  1  0  0  0  0
 23 26  1  0  0  0  0
  1 27  1  0  0  0  0
 27 28  1  0  0  0  0
 27 29  1  0  0  0  0
 27 30  1  0  0  0  0
 30 31  1  0  0  0  0
 30 32  1  0  0  0  0
 30 33  1  0  0  0  0
M  CHG  4   4   1   5  -1  17   1  18  -1
M  END
> <ChemID>
100601

> <source_casrn>
26389-78-6

> <CAS>
26389-78-6

> <SMILES>
O=N(=O)c1c(c(cc(c1)C)N(=O)=O)N(CCCl)CCCl

> <NAME>
CHLORNIDINE

> <preferred_name>
N,N-Bis(2-chloroethyl)-4-methyl-2,6-dinitroaniline

> <iupac>
N,N-bis(2-chloroethyl)-4-methyl-2,6-dinitroaniline

> <MPID>
99859

> <dsstox_substance_id>
DTXSID8042183

> <Canonical_QSARr>
Cc1cc(c(c(c1)[N+]([O-])=O)N(CCCl)CCCl)[N+]([O-])=O

> <InChI_Code_QSARr>
InChI=1S/C11H13Cl2N3O4/c1-8-6-9(15(17)18)11(10(7-8)16(19)20)14(4-2-12)5-3-13/h6-7H,2-5H2,1H3

> <InChI Key_QSARr>
XKUWFOYPQIVFMM-UHFFFAOYSA-N

> <LogKOC>
3.94

$$$$
100602
  -INDIGO-08031722282D

 40 41  0  0  0  0  0  0  0  0999 V2000
    4.7757    2.4935    0.0000 C   0  0  0  0  0  0  0  0  0  0  0  0
    4.4978    4.0691    0.0000 N   0  0  0  0  0  0  0  0  0  0  0  0
    5.7234    5.0976    0.0000 O   0  0  0  0  0  0  0  0  0  0  0  0
    2.9943    4.6164    0.0000 O   0  0  0  0  0  0  0  0  0  0  0  0
    3.9758    1.1078    0.0000 C   0  0  0  0  0  0  0  0  0  0  0  0
    2.3758    1.1078    0.0000 N   0  0  0  0  0  0  0  0  0  0  0  0
    1.5757   -0.2779    0.0000 C   0  0  0  0  0  0  0  0  0  0  0  0
    1.7845   -1.8641    0.0000 H   0  0  0  0  0  0  0  0  0  0  0  0
    2.8452   -1.2518    0.0000 H   0  0  0  0  0  0  0  0  0  0  0  0
   -0.0000   -0.0000    0.0000 C   0  0  0  0  0  0  0  0  0  0  0  0
    0.2779    1.5758    0.0000 H   0  0  0  0  0  0  0  0  0  0  0  0
   -0.7999   -1.3856    0.0000 C   0  0  0  0  0  0  0  0  0  0  0  0
    0.4257   -2.4140    0.0000 H   0  0  0  0  0  0  0  0  0  0  0  0
   -2.0257   -2.4140    0.0000 H   0  0  0  0  0  0  0  0  0  0  0  0
   -1.6000   -0.0000    0.0000 C   0  0  0  0  0  0  0  0  0  0  0  0
   -3.1035   -0.5473    0.0000 H   0  0  0  0  0  0  0  0  0  0  0  0
   -1.8779    1.5758    0.0000 H   0  0  0  0  0  0  0  0  0  0  0  0
    1.5757    2.4935    0.0000 C   0  0  0  0  0  0  0  0  0  0  0  0
    2.9949    3.2322    0.0000 H   0  0  0  0  0  0  0  0  0  0  0  0
    2.0568    4.0194    0.0000 H   0  0  0  0  0  0  0  0  0  0  0  0
    0.1900    3.2935    0.0000 C   0  0  0  0  0  0  0  0  0  0  0  0
   -1.3962    3.0846    0.0000 H   0  0  0  0  0  0  0  0  0  0  0  0
   -0.7841    2.0241    0.0000 H   0  0  0  0  0  0  0  0  0  0  0  0
    0.1900    4.8935    0.0000 C   0  0  0  0  0  0  0  0  0  0  0  0
    0.1900    6.4934    0.0000 H   0  0  0  0  0  0  0  0  0  0  0  0
   -1.1956    5.6935    0.0000 H   0  0  0  0  0  0  0  0  0  0  0  0
    1.5757    5.6935    0.0000 H   0  0  0  0  0  0  0  0  0  0  0  0
    4.7757   -0.2779    0.0000 C   0  0  0  0  0  0  0  0  0  0  0  0
    4.4978   -1.8535    0.0000 N   0  0  0  0  0  0  0  0  0  0  0  0
    2.9943   -2.4007    0.0000 O   0  0  0  0  0  0  0  0  0  0  0  0
    5.7234   -2.8820    0.0000 O   0  0  0  0  0  0  0  0  0  0  0  0
    6.3756   -0.2779    0.0000 C   0  0  0  0  0  0  0  0  0  0  0  0
    7.1757   -1.6635    0.0000 H   0  0  0  0  0  0  0  0  0  0  0  0
    7.1757    1.1078    0.0000 C   0  0  0  0  0  0  0  0  0  0  0  0
    8.7757    1.1078    0.0000 C   0  0  0  0  0  0  0  0  0  0  0  0
   10.3757    1.1078    0.0000 F   0  0  0  0  0  0  0  0  0  0  0  0
    9.5756   -0.2779    0.0000 F   0  0  0  0  0  0  0  0  0  0  0  0
    9.5756    2.4935    0.0000 F   0  0  0  0  0  0  0  0  0  0  0  0
    6.3756    2.4935    0.0000 C   0  0  0  0  0  0  0  0  0  0  0  0
    7.1757    3.8790    0.0000 H   0  0  0  0  0  0  0  0  0  0  0  0
  1  2  1  0  0  0  0
  2  3  1  0  0  0  0
  2  4  2  0  0  0  0
  1  5  1  0  0  0  0
  5  6  1  0  0  0  0
  6  7  1  0  0  0  0
  7  8  1  0  0  0  0
  7  9  1  0  0  0  0
  7 10  1  0  0  0  0
 10 11  1  0  0  0  0
 10 12  1  0  0  0  0
 12 13  1  0  0  0  0
 12 14  1  0  0  0  0
 12 15  1  0  0  0  0
 15 10  1  0  0  0  0
 15 16  1  0  0  0  0
 15 17  1  0  0  0  0
  6 18  1  0  0  0  0
 18 19  1  0  0  0  0
 18 20  1  0  0  0  0
 18 21  1  0  0  0  0
 21 22  1  0  0  0  0
 21 23  1  0  0  0  0
 21 24  1  0  0  0  0
 24 25  1  0  0  0  0
 24 26  1  0  0  0  0
 24 27  1  0  0  0  0
  5 28  2  0  0  0  0
 28 29  1  0  0  0  0
 29 30  1  0  0  0  0
 29 31  2  0  0  0  0
 28 32  1  0  0  0  0
 32 33  1  0  0  0  0
 32 34  2  0  0  0  0
 34 35  1  0  0  0  0
 35 36  1  0  0  0  0
 35 37  1  0  0  0  0
 35 38  1  0  0  0  0
 34 39  1  0  0  0  0
 39  1  2  0  0  0  0
 39 40  1  0  0  0  0
M  CHG  4   2   1   3  -1  29   1  30  -1
M  END
> <ChemID>
100602

> <source_casrn>
26399-36-0

> <CAS>
26399-36-0

> <SMILES>
CCCN(CC1CC1)c1c(cc(cc1[N+]([O-])=O)C(F)(F)F)[N+]([O-])=O

> <NAME>
PROFLURALIN

> <preferred_name>
Profluralin

> <iupac>
N-(cyclopropylmethyl)-2,6-dinitro-N-propyl-4-(trifluoromethyl)aniline

> <MPID>
99860

> <dsstox_substance_id>
DTXSID2044559

> <Canonical_QSARr>
CCCN(CC1CC1)c1c(cc(cc1[N+]([O-])=O)C(F)(F)F)[N+]([O-])=O

> <InChI_Code_QSARr>
InChI=1S/C14H16F3N3O4/c1-2-5-18(8-9-3-4-9)13-11(19(21)22)6-10(14(15,16)17)7-12(13)20(23)24/h6-7,9H,2-5,8H2,1H3

> <InChI Key_QSARr>
ITVQAKZNYJEWKS-UHFFFAOYSA-N

> <LogKOC>
4.01

$$$$
100605
  -INDIGO-08031722282D

 29 30  0  0  0  0  0  0  0  0999 V2000
   -2.4000    1.3856    0.0000 C   0  0  0  0  0  0  0  0  0  0  0  0
   -1.6000    0.0000    0.0000 N   0  0  0  0  0  0  0  0  0  0  0  0
    0.0000    0.0000    0.0000 C   0  0  0  0  0  0  0  0  0  0  0  0
    0.8000    1.3856    0.0000 C   0  0  0  0  0  0  0  0  0  0  0  0
    0.0000    2.7713    0.0000 H   0  0  0  0  0  0  0  0  0  0  0  0
    2.4000    1.3856    0.0000 C   0  0  0  0  0  0  0  0  0  0  0  0
    3.2000    2.7713    0.0000 C   0  0  0  0  0  0  0  0  0  0  0  0
    4.0000    4.1569    0.0000 F   0  0  0  0  0  0  0  0  0  0  0  0
    4.8000    2.7713    0.0000 F   0  0  0  0  0  0  0  0  0  0  0  0
    2.4000    4.1569    0.0000 F   0  0  0  0  0  0  0  0  0  0  0  0
    3.2000    0.0000    0.0000 C   0  0  0  0  0  0  0  0  0  0  0  0
    4.8000    0.0000    0.0000 H   0  0  0  0  0  0  0  0  0  0  0  0
    2.4000   -1.3856    0.0000 C   0  0  0  0  0  0  0  0  0  0  0  0
    3.2000   -2.7713    0.0000 H   0  0  0  0  0  0  0  0  0  0  0  0
    0.8000   -1.3856    0.0000 C   0  0  0  0  0  0  0  0  0  0  0  0
    0.0000   -2.7713    0.0000 H   0  0  0  0  0  0  0  0  0  0  0  0
   -2.4000   -1.3856    0.0000 N   0  0  0  0  0  0  0  0  0  0  0  0
   -4.0000   -1.3856    0.0000 C   0  0  0  0  0  0  0  0  0  0  0  0
   -4.8000   -2.7713    0.0000 H   0  0  0  0  0  0  0  0  0  0  0  0
   -4.8000    0.0000    0.0000 C   0  0  0  0  0  0  0  0  0  0  0  0
   -6.4000    0.0000    0.0000 N   0  0  0  0  0  0  0  0  0  0  0  0
   -7.2000    1.3856    0.0000 H   0  0  0  0  0  0  0  0  0  0  0  0
   -7.2000   -1.3856    0.0000 C   0  0  0  0  0  0  0  0  0  0  0  0
   -8.0000   -2.7713    0.0000 H   0  0  0  0  0  0  0  0  0  0  0  0
   -8.8000   -1.3856    0.0000 H   0  0  0  0  0  0  0  0  0  0  0  0
   -6.4000   -2.7713    0.0000 H   0  0  0  0  0  0  0  0  0  0  0  0
   -4.0000    1.3856    0.0000 C   0  0  0  0  0  0  0  0  0  0  0  0
   -4.8000    2.7713    0.0000 Cl  0  0  0  0  0  0  0  0  0  0  0  0
   -1.6000    2.7713    0.0000 O   0  0  0  0  0  0  0  0  0  0  0  0
  1  2  1  0  0  0  0
  2  3  1  0  0  0  0
  3  4  1  0  0  0  0
  4  5  1  0  0  0  0
  4  6  2  0  0  0  0
  6  7  1  0  0  0  0
  7  8  1  0  0  0  0
  7  9  1  0  0  0  0
  7 10  1  0  0  0  0
  6 11  1  0  0  0  0
 11 12  1  0  0  0  0
 11 13  2  0  0  0  0
 13 14  1  0  0  0  0
 13 15  1  0  0  0  0
 15  3  2  0  0  0  0
 15 16  1  0  0  0  0
  2 17  1  0  0  0  0
 17 18  2  0  0  0  0
 18 19  1  0  0  0  0
 18 20  1  0  0  0  0
 20 21  1  0  0  0  0
 21 22  1  0  0  0  0
 21 23  1  0  0  0  0
 23 24  1  0  0  0  0
 23 25  1  0  0  0  0
 23 26  1  0  0  0  0
 20 27  2  0  0  0  0
 27  1  1  0  0  0  0
 27 28  1  0  0  0  0
  1 29  2  0  0  0  0
M  END
> <ChemID>
100605

> <source_casrn>
27314-13-2

> <CAS>
27314-13-2

> <SMILES>
CNC1C=NN(C(=O)C=1Cl)c1cc(ccc1)C(F)(F)F

> <NAME>
NORFLURAZON

> <preferred_name>
Norflurazon

> <iupac>
4-chloro-5-(methylamino)-2-[3-(trifluoromethyl)phenyl]pyridazin-3(2H)-one

> <MPID>
99862

> <dsstox_substance_id>
DTXSID8024234

> <Canonical_QSARr>
CNC1C=NN(C(=O)C=1Cl)c1cc(ccc1)C(F)(F)F

> <InChI_Code_QSARr>
InChI=1S/C12H9ClF3N3O/c1-17-9-6-18-19(11(20)10(9)13)8-4-2-3-7(5-8)12(14,15)16/h2-6,17H,1H3

> <InChI Key_QSARr>
NVGOPFQZYCNLDU-UHFFFAOYSA-N

> <LogKOC>
3.28

$$$$
100606
  -INDIGO-08031722282D

 16 17  0  0  0  0  0  0  0  0999 V2000
   -1.5216   -0.4944    0.0000 C   0  0  0  0  0  0  0  0  0  0  0  0
   -0.8709   -1.9561    0.0000 H   0  0  0  0  0  0  0  0  0  0  0  0
   -2.9073   -1.2944    0.0000 H   0  0  0  0  0  0  0  0  0  0  0  0
   -0.0000    0.0000    0.0000 C   0  0  0  0  0  0  0  0  0  0  0  0
   -0.0000    1.6000    0.0000 C   0  0  0  0  0  0  0  0  0  0  0  0
    1.3857    2.4000    0.0000 C   0  0  0  0  0  0  0  0  0  0  0  0
    2.7712    1.6000    0.0000 C   0  0  0  0  0  0  0  0  0  0  0  0
    2.7712    0.0000    0.0000 C   0  0  0  0  0  0  0  0  0  0  0  0
    1.3857   -0.8000    0.0000 C   0  0  0  0  0  0  0  0  0  0  0  0
    1.3857   -2.4000    0.0000 Cl  0  0  0  0  0  0  0  0  0  0  0  0
    4.1569   -0.8000    0.0000 Cl  0  0  0  0  0  0  0  0  0  0  0  0
    4.1569    2.4000    0.0000 Cl  0  0  0  0  0  0  0  0  0  0  0  0
    1.3857    4.0000    0.0000 Cl  0  0  0  0  0  0  0  0  0  0  0  0
   -1.5216    2.0944    0.0000 C   0  0  0  0  0  0  0  0  0  0  0  0
   -2.0161    3.6161    0.0000 O   0  0  0  0  0  0  0  0  0  0  0  0
   -2.4621    0.8000    0.0000 O   0  0  0  0  0  0  0  0  0  0  0  0
  1  2  1  0  0  0  0
  1  3  1  0  0  0  0
  1  4  1  0  0  0  0
  4  5  1  0  0  0  0
  5  6  2  0  0  0  0
  6  7  1  0  0  0  0
  7  8  2  0  0  0  0
  8  9  1  0  0  0  0
  9  4  2  0  0  0  0
  9 10  1  0  0  0  0
  8 11  1  0  0  0  0
  7 12  1  0  0  0  0
  6 13  1  0  0  0  0
  5 14  1  0  0  0  0
 14 15  2  0  0  0  0
 14 16  1  0  0  0  0
 16  1  1  0  0  0  0
M  END
> <ChemID>
100606

> <source_casrn>
27355-22-2

> <CAS>
27355-22-2

> <SMILES>
Clc1c(Cl)c(Cl)c2COC(=O)c2c1Cl

> <NAME>
TETRACHLOROPHTHALIDE

> <preferred_name>
Fthalide

> <iupac>
4,5,6,7-tetrachloro-2-benzofuran-1(3H)-one

> <MPID>
99863

> <dsstox_substance_id>
DTXSID2058045

> <Canonical_QSARr>
O=C1OCc2c1c(Cl)c(Cl)c(Cl)c2Cl

> <InChI_Code_QSARr>
InChI=1S/C8H2Cl4O2/c9-4-2-1-14-8(13)3(2)5(10)7(12)6(4)11/h1H2

> <InChI Key_QSARr>
NMWKWBPNKPGATC-UHFFFAOYSA-N

> <LogKOC>
3.3

$$$$
100607
  -INDIGO-08031722282D

 66 66  0  0  0  0  0  0  0  0999 V2000
   -9.6000   -5.5425    0.0000 C   0  0  0  0  0  0  0  0  0  0  0  0
   -8.8001   -6.9281    0.0000 C   0  0  0  0  0  0  0  0  0  0  0  0
   -7.2001   -6.9281    0.0000 H   0  0  0  0  0  0  0  0  0  0  0  0
   -9.6000   -8.3139    0.0000 C   0  0  0  0  0  0  0  0  0  0  0  0
   -8.8001   -9.6995    0.0000 H   0  0  0  0  0  0  0  0  0  0  0  0
  -11.2000   -8.3139    0.0000 C   0  0  0  0  0  0  0  0  0  0  0  0
  -11.9999   -9.6995    0.0000 H   0  0  0  0  0  0  0  0  0  0  0  0
  -11.9999   -6.9281    0.0000 C   0  0  0  0  0  0  0  0  0  0  0  0
  -13.5999   -6.9281    0.0000 H   0  0  0  0  0  0  0  0  0  0  0  0
  -11.2000   -5.5425    0.0000 C   0  0  0  0  0  0  0  0  0  0  0  0
  -11.9999   -4.1570    0.0000 C   0  0  0  0  0  0  0  0  0  0  0  0
  -11.2000   -2.7714    0.0000 O   0  0  0  0  0  0  0  0  0  0  0  0
  -13.5999   -4.1570    0.0000 O   0  0  0  0  0  0  0  0  0  0  0  0
  -14.4002   -2.7714    0.0000 C   0  0  0  0  0  0  0  0  0  0  0  0
  -13.1305   -1.7972    0.0000 H   0  0  0  0  0  0  0  0  0  0  0  0
  -14.1913   -1.1850    0.0000 H   0  0  0  0  0  0  0  0  0  0  0  0
  -15.9998   -2.7714    0.0000 C   0  0  0  0  0  0  0  0  0  0  0  0
  -17.2695   -3.7454    0.0000 H   0  0  0  0  0  0  0  0  0  0  0  0
  -16.2087   -4.3576    0.0000 H   0  0  0  0  0  0  0  0  0  0  0  0
  -16.8001   -1.3856    0.0000 C   0  0  0  0  0  0  0  0  0  0  0  0
  -15.5304   -0.4116    0.0000 H   0  0  0  0  0  0  0  0  0  0  0  0
  -16.5912    0.2006    0.0000 H   0  0  0  0  0  0  0  0  0  0  0  0
  -18.4001   -1.3856    0.0000 C   0  0  0  0  0  0  0  0  0  0  0  0
  -19.6694   -2.3596    0.0000 H   0  0  0  0  0  0  0  0  0  0  0  0
  -18.6090   -2.9720    0.0000 H   0  0  0  0  0  0  0  0  0  0  0  0
  -19.2000    0.0000    0.0000 C   0  0  0  0  0  0  0  0  0  0  0  0
  -17.9308    0.9740    0.0000 H   0  0  0  0  0  0  0  0  0  0  0  0
  -18.9911    1.5864    0.0000 H   0  0  0  0  0  0  0  0  0  0  0  0
  -20.8000    0.0000    0.0000 C   0  0  0  0  0  0  0  0  0  0  0  0
  -20.5221   -1.5756    0.0000 H   0  0  0  0  0  0  0  0  0  0  0  0
  -22.3757   -0.2779    0.0000 C   0  0  0  0  0  0  0  0  0  0  0  0
  -23.9514   -0.5557    0.0000 H   0  0  0  0  0  0  0  0  0  0  0  0
  -23.4042    0.9479    0.0000 H   0  0  0  0  0  0  0  0  0  0  0  0
  -22.9229   -1.7813    0.0000 H   0  0  0  0  0  0  0  0  0  0  0  0
  -21.0780    1.5758    0.0000 C   0  0  0  0  0  0  0  0  0  0  0  0
  -21.3559    3.1514    0.0000 H   0  0  0  0  0  0  0  0  0  0  0  0
  -19.8522    2.6041    0.0000 H   0  0  0  0  0  0  0  0  0  0  0  0
  -22.5813    2.1229    0.0000 H   0  0  0  0  0  0  0  0  0  0  0  0
   -8.8001   -4.1570    0.0000 C   0  0  0  0  0  0  0  0  0  0  0  0
   -9.6000   -2.7714    0.0000 O   0  0  0  0  0  0  0  0  0  0  0  0
   -7.2001   -4.1570    0.0000 O   0  0  0  0  0  0  0  0  0  0  0  0
   -6.3998   -2.7714    0.0000 C   0  0  0  0  0  0  0  0  0  0  0  0
   -6.6087   -1.1850    0.0000 H   0  0  0  0  0  0  0  0  0  0  0  0
   -7.6695   -1.7972    0.0000 H   0  0  0  0  0  0  0  0  0  0  0  0
   -4.8002   -2.7714    0.0000 C   0  0  0  0  0  0  0  0  0  0  0  0
   -4.5913   -4.3576    0.0000 H   0  0  0  0  0  0  0  0  0  0  0  0
   -3.5305   -3.7454    0.0000 H   0  0  0  0  0  0  0  0  0  0  0  0
   -3.9999   -1.3856    0.0000 C   0  0  0  0  0  0  0  0  0  0  0  0
   -4.2088    0.2006    0.0000 H   0  0  0  0  0  0  0  0  0  0  0  0
   -5.2696   -0.4116    0.0000 H   0  0  0  0  0  0  0  0  0  0  0  0
   -2.3999   -1.3856    0.0000 C   0  0  0  0  0  0  0  0  0  0  0  0
   -2.1910   -2.9720    0.0000 H   0  0  0  0  0  0  0  0  0  0  0  0
   -1.1306   -2.3596    0.0000 H   0  0  0  0  0  0  0  0  0  0  0  0
   -1.6000    0.0000    0.0000 C   0  0  0  0  0  0  0  0  0  0  0  0
   -1.8089    1.5864    0.0000 H   0  0  0  0  0  0  0  0  0  0  0  0
   -2.8692    0.9740    0.0000 H   0  0  0  0  0  0  0  0  0  0  0  0
    0.0000    0.0000    0.0000 C   0  0  0  0  0  0  0  0  0  0  0  0
   -0.2779   -1.5756    0.0000 H   0  0  0  0  0  0  0  0  0  0  0  0
    1.5757   -0.2779    0.0000 C   0  0  0  0  0  0  0  0  0  0  0  0
    3.1514   -0.5557    0.0000 H   0  0  0  0  0  0  0  0  0  0  0  0
    2.6042    0.9479    0.0000 H   0  0  0  0  0  0  0  0  0  0  0  0
    2.1229   -1.7813    0.0000 H   0  0  0  0  0  0  0  0  0  0  0  0
    0.2780    1.5758    0.0000 C   0  0  0  0  0  0  0  0  0  0  0  0
    0.5559    3.1514    0.0000 H   0  0  0  0  0  0  0  0  0  0  0  0
   -0.9478    2.6041    0.0000 H   0  0  0  0  0  0  0  0  0  0  0  0
    1.7813    2.1229    0.0000 H   0  0  0  0  0  0  0  0  0  0  0  0
  1  2  1  0  0  0  0
  2  3  1  0  0  0  0
  2  4  2  0  0  0  0
  4  5  1  0  0  0  0
  4  6  1  0  0  0  0
  6  7  1  0  0  0  0
  6  8  2  0  0  0  0
  8  9  1  0  0  0  0
  8 10  1  0  0  0  0
 10  1  2  0  0  0  0
 10 11  1  0  0  0  0
 11 12  2  0  0  0  0
 11 13  1  0  0  0  0
 13 14  1  0  0  0  0
 14 15  1  0  0  0  0
 14 16  1  0  0  0  0
 14 17  1  0  0  0  0
 17 18  1  0  0  0  0
 17 19  1  0  0  0  0
 17 20  1  0  0  0  0
 20 21  1  0  0  0  0
 20 22  1  0  0  0  0
 20 23  1  0  0  0  0
 23 24  1  0  0  0  0
 23 25  1  0  0  0  0
 23 26  1  0  0  0  0
 26 27  1  0  0  0  0
 26 28  1  0  0  0  0
 26 29  1  0  0  0  0
 29 30  1  0  0  0  0
 29 31  1  0  0  0  0
 31 32  1  0  0  0  0
 31 33  1  0  0  0  0
 31 34  1  0  0  0  0
 29 35  1  0  0  0  0
 35 36  1  0  0  0  0
 35 37  1  0  0  0  0
 35 38  1  0  0  0  0
  1 39  1  0  0  0  0
 39 40  2  0  0  0  0
 39 41  1  0  0  0  0
 41 42  1  0  0  0  0
 42 43  1  0  0  0  0
 42 44  1  0  0  0  0
 42 45  1  0  0  0  0
 45 46  1  0  0  0  0
 45 47  1  0  0  0  0
 45 48  1  0  0  0  0
 48 49  1  0  0  0  0
 48 50  1  0  0  0  0
 48 51  1  0  0  0  0
 51 52  1  0  0  0  0
 51 53  1  0  0  0  0
 51 54  1  0  0  0  0
 54 55  1  0  0  0  0
 54 56  1  0  0  0  0
 54 57  1  0  0  0  0
 57 58  1  0  0  0  0
 57 59  1  0  0  0  0
 59 60  1  0  0  0  0
 59 61  1  0  0  0  0
 59 62  1  0  0  0  0
 57 63  1  0  0  0  0
 63 64  1  0  0  0  0
 63 65  1  0  0  0  0
 63 66  1  0  0  0  0
M  END
> <ChemID>
100607

> <source_casrn>
27554-26-3

> <CAS>
131-20-4

> <SMILES>
C(C)(C)CCCCCOC(=O)c1ccccc1C(=O)OCCCCCC(C)C

> <NAME>
DIISOOCTYL PHTHALATE

> <preferred_name>
Diisooctyl phthalate

> <iupac>
bis(6-methylheptyl) benzene-1,2-dicarboxylate

> <MPID>
99864

> <dsstox_substance_id>
DTXSID50873226

> <Canonical_QSARr>
CC(C)CCCCCOC(=O)c1ccccc1C(=O)OCCCCCC(C)C

> <InChI_Code_QSARr>
InChI=1S/C24H38O4/c1-19(2)13-7-5-11-17-27-23(25)21-15-9-10-16-22(21)24(26)28-18-12-6-8-14-20(3)4/h9-10,15-16,19-20H,5-8,11-14,17-18H2,1-4H3

> <InChI Key_QSARr>
IJFPVINAQGWBRJ-UHFFFAOYSA-N

> <LogKOC>
3.21

$$$$
100609
  -INDIGO-08031722282D

 32 32  0  0  0  0  0  0  0  0999 V2000
   -1.3856    0.8000    0.0000 C   0  0  0  0  0  0  0  0  0  0  0  0
   -1.3856    2.4000    0.0000 O   0  0  0  0  0  0  0  0  0  0  0  0
   -2.7712   -0.0000    0.0000 S   0  0  0  0  0  0  0  0  0  0  0  0
   -4.1569    0.8000    0.0000 C   0  0  0  0  0  0  0  0  0  0  0  0
   -4.7692    2.2782    0.0000 H   0  0  0  0  0  0  0  0  0  0  0  0
   -3.5446    2.2782    0.0000 H   0  0  0  0  0  0  0  0  0  0  0  0
   -5.5427   -0.0000    0.0000 C   0  0  0  0  0  0  0  0  0  0  0  0
   -6.9282    0.8000    0.0000 C   0  0  0  0  0  0  0  0  0  0  0  0
   -6.9282    2.4000    0.0000 H   0  0  0  0  0  0  0  0  0  0  0  0
   -8.3139   -0.0000    0.0000 C   0  0  0  0  0  0  0  0  0  0  0  0
   -9.6995    0.8000    0.0000 H   0  0  0  0  0  0  0  0  0  0  0  0
   -8.3139   -1.6000    0.0000 C   0  0  0  0  0  0  0  0  0  0  0  0
   -9.6995   -2.4000    0.0000 Cl  0  0  0  0  0  0  0  0  0  0  0  0
   -6.9282   -2.4000    0.0000 C   0  0  0  0  0  0  0  0  0  0  0  0
   -6.9282   -4.0000    0.0000 H   0  0  0  0  0  0  0  0  0  0  0  0
   -5.5427   -1.6000    0.0000 C   0  0  0  0  0  0  0  0  0  0  0  0
   -4.1569   -2.4000    0.0000 H   0  0  0  0  0  0  0  0  0  0  0  0
    0.0001   -0.0000    0.0000 N   0  0  0  0  0  0  0  0  0  0  0  0
    1.3856    0.8000    0.0000 C   0  0  0  0  0  0  0  0  0  0  0  0
    0.7733    2.2782    0.0000 H   0  0  0  0  0  0  0  0  0  0  0  0
    1.9980    2.2782    0.0000 H   0  0  0  0  0  0  0  0  0  0  0  0
    2.7714   -0.0000    0.0000 C   0  0  0  0  0  0  0  0  0  0  0  0
    4.1569    0.8000    0.0000 H   0  0  0  0  0  0  0  0  0  0  0  0
    4.1569   -0.8000    0.0000 H   0  0  0  0  0  0  0  0  0  0  0  0
    2.7714    1.6000    0.0000 H   0  0  0  0  0  0  0  0  0  0  0  0
    0.0001   -1.6000    0.0000 C   0  0  0  0  0  0  0  0  0  0  0  0
   -0.9740   -2.8693    0.0000 H   0  0  0  0  0  0  0  0  0  0  0  0
   -1.5863   -1.8089    0.0000 H   0  0  0  0  0  0  0  0  0  0  0  0
    1.3856   -2.4000    0.0000 C   0  0  0  0  0  0  0  0  0  0  0  0
    1.3856   -4.0000    0.0000 H   0  0  0  0  0  0  0  0  0  0  0  0
    2.7714   -3.2000    0.0000 H   0  0  0  0  0  0  0  0  0  0  0  0
    0.0001   -3.2000    0.0000 H   0  0  0  0  0  0  0  0  0  0  0  0
  1  2  2  0  0  0  0
  1  3  1  0  0  0  0
  3  4  1  0  0  0  0
  4  5  1  0  0  0  0
  4  6  1  0  0  0  0
  4  7  1  0  0  0  0
  7  8  1  0  0  0  0
  8  9  1  0  0  0  0
  8 10  2  0  0  0  0
 10 11  1  0  0  0  0
 10 12  1  0  0  0  0
 12 13  1  0  0  0  0
 12 14  2  0  0  0  0
 14 15  1  0  0  0  0
 14 16  1  0  0  0  0
 16  7  2  0  0  0  0
 16 17  1  0  0  0  0
  1 18  1  0  0  0  0
 18 19  1  0  0  0  0
 19 20  1  0  0  0  0
 19 21  1  0  0  0  0
 19 22  1  0  0  0  0
 22 23  1  0  0  0  0
 22 24  1  0  0  0  0
 22 25  1  0  0  0  0
 18 26  1  0  0  0  0
 26 27  1  0  0  0  0
 26 28  1  0  0  0  0
 26 29  1  0  0  0  0
 29 30  1  0  0  0  0
 29 31  1  0  0  0  0
 29 32  1  0  0  0  0
M  END
> <ChemID>
100609

> <source_casrn>
28249-77-6

> <CAS>
28249-77-6

> <SMILES>
CCN(CC)C(=O)SCc1ccc(Cl)cc1

> <NAME>
THIOBENCARB

> <preferred_name>
Thiobencarb

> <iupac>
S-(4-chlorobenzyl) diethylcarbamothioate

> <MPID>
99866

> <dsstox_substance_id>
DTXSID6024337

> <Canonical_QSARr>
CCN(CC)C(=O)SCc1ccc(Cl)cc1

> <InChI_Code_QSARr>
InChI=1S/C12H16ClNOS/c1-3-14(4-2)12(15)16-9-10-5-7-11(13)8-6-10/h5-8H,3-4,9H2,1-2H3

> <InChI Key_QSARr>
QHTQREMOGMZHJV-UHFFFAOYSA-N

> <LogKOC>
3.27

$$$$
100610
  -INDIGO-08031722282D

 35 35  0  0  0  0  0  0  0  0999 V2000
    4.0000    1.3857    0.0000 C   0  0  0  0  0  0  0  0  0  0  0  0
    4.8000   -0.0000    0.0000 C   0  0  0  0  0  0  0  0  0  0  0  0
    6.4000   -0.0000    0.0000 C   0  0  0  0  0  0  0  0  0  0  0  0
    8.0000   -0.0000    0.0000 F   0  0  0  0  0  0  0  0  0  0  0  0
    7.2000   -1.3856    0.0000 F   0  0  0  0  0  0  0  0  0  0  0  0
    7.2000    1.3857    0.0000 F   0  0  0  0  0  0  0  0  0  0  0  0
    4.0000   -1.3856    0.0000 C   0  0  0  0  0  0  0  0  0  0  0  0
    4.8000   -2.7713    0.0000 H   0  0  0  0  0  0  0  0  0  0  0  0
    2.4000   -1.3856    0.0000 C   0  0  0  0  0  0  0  0  0  0  0  0
    2.1222   -2.9614    0.0000 N   0  0  0  0  0  0  0  0  0  0  0  0
    3.3478   -3.9898    0.0000 O   0  0  0  0  0  0  0  0  0  0  0  0
    0.6187   -3.5086    0.0000 O   0  0  0  0  0  0  0  0  0  0  0  0
    1.6000   -0.0000    0.0000 C   0  0  0  0  0  0  0  0  0  0  0  0
    0.0000   -0.0000    0.0000 N   0  0  0  0  0  0  0  0  0  0  0  0
   -0.8000   -1.3856    0.0000 C   0  0  0  0  0  0  0  0  0  0  0  0
   -0.5911   -2.9719    0.0000 H   0  0  0  0  0  0  0  0  0  0  0  0
    0.4693   -2.3597    0.0000 H   0  0  0  0  0  0  0  0  0  0  0  0
   -2.4000   -1.3856    0.0000 C   0  0  0  0  0  0  0  0  0  0  0  0
   -4.0000   -1.3856    0.0000 H   0  0  0  0  0  0  0  0  0  0  0  0
   -3.2000   -2.7713    0.0000 H   0  0  0  0  0  0  0  0  0  0  0  0
   -3.2000   -0.0000    0.0000 H   0  0  0  0  0  0  0  0  0  0  0  0
   -0.8000    1.3857    0.0000 C   0  0  0  0  0  0  0  0  0  0  0  0
    0.4693    2.3596    0.0000 H   0  0  0  0  0  0  0  0  0  0  0  0
   -0.5911    2.9720    0.0000 H   0  0  0  0  0  0  0  0  0  0  0  0
   -2.4000    1.3857    0.0000 C   0  0  0  0  0  0  0  0  0  0  0  0
   -3.2000    2.7712    0.0000 H   0  0  0  0  0  0  0  0  0  0  0  0
   -4.0000    1.3857    0.0000 H   0  0  0  0  0  0  0  0  0  0  0  0
   -1.6000    2.7712    0.0000 H   0  0  0  0  0  0  0  0  0  0  0  0
    2.4000    1.3857    0.0000 C   0  0  0  0  0  0  0  0  0  0  0  0
    1.8527    2.8892    0.0000 N   0  0  0  0  0  0  0  0  0  0  0  0
    2.8812    4.1148    0.0000 O   0  0  0  0  0  0  0  0  0  0  0  0
    0.3492    3.4364    0.0000 O   0  0  0  0  0  0  0  0  0  0  0  0
    4.8000    2.7712    0.0000 N   0  0  0  0  0  0  0  0  0  0  0  0
    4.0000    4.1569    0.0000 H   0  0  0  0  0  0  0  0  0  0  0  0
    6.4000    2.7712    0.0000 H   0  0  0  0  0  0  0  0  0  0  0  0
  1  2  1  0  0  0  0
  2  3  1  0  0  0  0
  3  4  1  0  0  0  0
  3  5  1  0  0  0  0
  3  6  1  0  0  0  0
  2  7  2  0  0  0  0
  7  8  1  0  0  0  0
  7  9  1  0  0  0  0
  9 10  1  0  0  0  0
 10 11  1  0  0  0  0
 10 12  2  0  0  0  0
  9 13  2  0  0  0  0
 13 14  1  0  0  0  0
 14 15  1  0  0  0  0
 15 16  1  0  0  0  0
 15 17  1  0  0  0  0
 15 18  1  0  0  0  0
 18 19  1  0  0  0  0
 18 20  1  0  0  0  0
 18 21  1  0  0  0  0
 14 22  1  0  0  0  0
 22 23  1  0  0  0  0
 22 24  1  0  0  0  0
 22 25  1  0  0  0  0
 25 26  1  0  0  0  0
 25 27  1  0  0  0  0
 25 28  1  0  0  0  0
 13 29  1  0  0  0  0
 29  1  2  0  0  0  0
 29 30  1  0  0  0  0
 30 31  1  0  0  0  0
 30 32  2  0  0  0  0
  1 33  1  0  0  0  0
 33 34  1  0  0  0  0
 33 35  1  0  0  0  0
M  CHG  4  10   1  11  -1  30   1  31  -1
M  END
> <ChemID>
100610

> <source_casrn>
29091-05-2

> <CAS>
29091-05-2

> <SMILES>
CCN(CC)c1c(cc(c(N)c1[N+]([O-])=O)C(F)(F)F)[N+]([O-])=O

> <NAME>
DINITRAMINE

> <preferred_name>
Dinitramine

> <iupac>
N,N-diethyl-2,6-dinitro-4-(trifluoromethyl)benzene-1,3-diamine

> <MPID>
99867

> <dsstox_substance_id>
DTXSID9040265

> <Canonical_QSARr>
CCN(CC)c1c(cc(c(N)c1[N+]([O-])=O)C(F)(F)F)[N+]([O-])=O

> <InChI_Code_QSARr>
InChI=1S/C11H13F3N4O4/c1-3-16(4-2)9-7(17(19)20)5-6(11(12,13)14)8(15)10(9)18(21)22/h5H,3-4,15H2,1-2H3

> <InChI Key_QSARr>
OFDYMSKSGFSLLM-UHFFFAOYSA-N

> <LogKOC>
3.63

$$$$
100611
  -INDIGO-08031722282D

 41 41  0  0  0  0  0  0  0  0999 V2000
    2.3999    1.3857    0.0000 C   0  0  0  0  0  0  0  0  0  0  0  0
    3.9999    1.3857    0.0000 C   0  0  0  0  0  0  0  0  0  0  0  0
    4.8000    2.7713    0.0000 N   0  0  0  0  0  0  0  0  0  0  0  0
    3.9999    4.1569    0.0000 H   0  0  0  0  0  0  0  0  0  0  0  0
    6.4000    2.7713    0.0000 H   0  0  0  0  0  0  0  0  0  0  0  0
    4.8000    0.0000    0.0000 C   0  0  0  0  0  0  0  0  0  0  0  0
    6.4000    0.0000    0.0000 C   0  0  0  0  0  0  0  0  0  0  0  0
    8.0000    0.0000    0.0000 F   0  0  0  0  0  0  0  0  0  0  0  0
    7.2000   -1.3856    0.0000 F   0  0  0  0  0  0  0  0  0  0  0  0
    7.2000    1.3857    0.0000 F   0  0  0  0  0  0  0  0  0  0  0  0
    3.9999   -1.3856    0.0000 C   0  0  0  0  0  0  0  0  0  0  0  0
    4.8000   -2.7712    0.0000 H   0  0  0  0  0  0  0  0  0  0  0  0
    2.3999   -1.3856    0.0000 C   0  0  0  0  0  0  0  0  0  0  0  0
    2.1222   -2.9614    0.0000 N   0  0  0  0  0  0  0  0  0  0  0  0
    3.3478   -3.9898    0.0000 O   0  0  0  0  0  0  0  0  0  0  0  0
    0.6186   -3.5086    0.0000 O   0  0  0  0  0  0  0  0  0  0  0  0
    1.6001    0.0000    0.0000 C   0  0  0  0  0  0  0  0  0  0  0  0
    0.0001    0.0000    0.0000 N   0  0  0  0  0  0  0  0  0  0  0  0
   -0.7999   -1.3856    0.0000 C   0  0  0  0  0  0  0  0  0  0  0  0
   -0.5911   -2.9720    0.0000 H   0  0  0  0  0  0  0  0  0  0  0  0
    0.4694   -2.3597    0.0000 H   0  0  0  0  0  0  0  0  0  0  0  0
   -2.1857   -2.1857    0.0000 C   0  0  0  0  0  0  0  0  0  0  0  0
   -3.1597   -0.9163    0.0000 H   0  0  0  0  0  0  0  0  0  0  0  0
   -3.7719   -1.9768    0.0000 H   0  0  0  0  0  0  0  0  0  0  0  0
   -2.1857   -3.7857    0.0000 C   0  0  0  0  0  0  0  0  0  0  0  0
   -2.1857   -5.3856    0.0000 H   0  0  0  0  0  0  0  0  0  0  0  0
   -3.5713   -4.5857    0.0000 H   0  0  0  0  0  0  0  0  0  0  0  0
   -0.7999   -4.5857    0.0000 H   0  0  0  0  0  0  0  0  0  0  0  0
   -0.7999    1.3857    0.0000 C   0  0  0  0  0  0  0  0  0  0  0  0
    0.4694    2.3597    0.0000 H   0  0  0  0  0  0  0  0  0  0  0  0
   -0.5911    2.9719    0.0000 H   0  0  0  0  0  0  0  0  0  0  0  0
   -2.4000    1.3857    0.0000 C   0  0  0  0  0  0  0  0  0  0  0  0
   -3.6693    0.4117    0.0000 H   0  0  0  0  0  0  0  0  0  0  0  0
   -2.3302   -0.2128    0.0000 H   0  0  0  0  0  0  0  0  0  0  0  0
   -3.2000    2.7713    0.0000 C   0  0  0  0  0  0  0  0  0  0  0  0
   -4.0000    4.1569    0.0000 H   0  0  0  0  0  0  0  0  0  0  0  0
   -4.8000    2.7713    0.0000 H   0  0  0  0  0  0  0  0  0  0  0  0
   -2.4000    4.1569    0.0000 H   0  0  0  0  0  0  0  0  0  0  0  0
    1.8528    2.8891    0.0000 N   0  0  0  0  0  0  0  0  0  0  0  0
    2.8812    4.1148    0.0000 O   0  0  0  0  0  0  0  0  0  0  0  0
    0.3493    3.4364    0.0000 O   0  0  0  0  0  0  0  0  0  0  0  0
  1  2  1  0  0  0  0
  2  3  1  0  0  0  0
  3  4  1  0  0  0  0
  3  5  1  0  0  0  0
  2  6  2  0  0  0  0
  6  7  1  0  0  0  0
  7  8  1  0  0  0  0
  7  9  1  0  0  0  0
  7 10  1  0  0  0  0
  6 11  1  0  0  0  0
 11 12  1  0  0  0  0
 11 13  2  0  0  0  0
 13 14  1  0  0  0  0
 14 15  1  0  0  0  0
 14 16  2  0  0  0  0
 13 17  1  0  0  0  0
 17  1  2  0  0  0  0
 17 18  1  0  0  0  0
 18 19  1  0  0  0  0
 19 20  1  0  0  0  0
 19 21  1  0  0  0  0
 19 22  1  0  0  0  0
 22 23  1  0  0  0  0
 22 24  1  0  0  0  0
 22 25  1  0  0  0  0
 25 26  1  0  0  0  0
 25 27  1  0  0  0  0
 25 28  1  0  0  0  0
 18 29  1  0  0  0  0
 29 30  1  0  0  0  0
 29 31  1  0  0  0  0
 29 32  1  0  0  0  0
 32 33  1  0  0  0  0
 32 34  1  0  0  0  0
 32 35  1  0  0  0  0
 35 36  1  0  0  0  0
 35 37  1  0  0  0  0
 35 38  1  0  0  0  0
  1 39  1  0  0  0  0
 39 40  1  0  0  0  0
 39 41  2  0  0  0  0
M  CHG  4  14   1  15  -1  39   1  40  -1
M  END
> <ChemID>
100611

> <source_casrn>
29091-21-2

> <CAS>
29091-21-2

> <SMILES>
CCCN(CCC)c1c(cc(c(N)c1[N+]([O-])=O)C(F)(F)F)[N+]([O-])=O

> <NAME>
PRODIAMINE

> <preferred_name>
Prodiamine

> <iupac>
2,6-dinitro-N,N-dipropyl-4-(trifluoromethyl)benzene-1,3-diamine

> <MPID>
99868

> <dsstox_substance_id>
DTXSID1034210

> <Canonical_QSARr>
CCCN(CCC)c1c(cc(c(N)c1[N+]([O-])=O)C(F)(F)F)[N+]([O-])=O

> <InChI_Code_QSARr>
InChI=1S/C13H17F3N4O4/c1-3-5-18(6-4-2)11-9(19(21)22)7-8(13(14,15)16)10(17)12(11)20(23)24/h7H,3-6,17H2,1-2H3

> <InChI Key_QSARr>
RSVPPPHXAASNOL-UHFFFAOYSA-N

> <LogKOC>
4.11

$$$$
100613
  -INDIGO-08031722282D

 14 14  0  0  0  0  0  0  0  0999 V2000
   -4.8000   -0.0000    0.0000 Br  0  0  0  0  0  0  0  0  0  0  0  0
   -3.2000   -0.0000    0.0000 C   0  0  0  0  0  0  0  0  0  0  0  0
   -2.4000    1.3856    0.0000 C   0  0  0  0  0  0  0  0  0  0  0  0
   -3.2000    2.7713    0.0000 Cl  0  0  0  0  0  0  0  0  0  0  0  0
   -0.8000    1.3856    0.0000 C   0  0  0  0  0  0  0  0  0  0  0  0
    0.0000    2.7713    0.0000 H   0  0  0  0  0  0  0  0  0  0  0  0
    0.0000   -0.0000    0.0000 C   0  0  0  0  0  0  0  0  0  0  0  0
    1.6000   -0.0000    0.0000 N   0  0  0  0  0  0  0  0  0  0  0  0
    2.4000    1.3856    0.0000 O   0  0  0  0  0  0  0  0  0  0  0  0
    2.4000   -1.3856    0.0000 O   0  0  0  0  0  0  0  0  0  0  0  0
   -0.8000   -1.3856    0.0000 C   0  0  0  0  0  0  0  0  0  0  0  0
    0.0000   -2.7713    0.0000 H   0  0  0  0  0  0  0  0  0  0  0  0
   -2.4000   -1.3856    0.0000 C   0  0  0  0  0  0  0  0  0  0  0  0
   -3.2000   -2.7713    0.0000 H   0  0  0  0  0  0  0  0  0  0  0  0
  1  2  1  0  0  0  0
  2  3  1  0  0  0  0
  3  4  1  0  0  0  0
  3  5  2  0  0  0  0
  5  6  1  0  0  0  0
  5  7  1  0  0  0  0
  7  8  1  0  0  0  0
  8  9  1  0  0  0  0
  8 10  2  0  0  0  0
  7 11  2  0  0  0  0
 11 12  1  0  0  0  0
 11 13  1  0  0  0  0
 13  2  2  0  0  0  0
 13 14  1  0  0  0  0
M  CHG  2   8   1   9  -1
M  END
> <ChemID>
100613

> <source_casrn>
29682-39-1

> <CAS>
29682-39-1

> <SMILES>
[O-][N+](=O)c1ccc(Br)c(Cl)c1

> <NAME>
1-BROMO-2-CHLORO-4-NITROBENZENE

> <preferred_name>
1-Bromo-2-chloro-4-nitrobenzene

> <iupac>
1-BROMO-2-CHLORO-4-NITROBENZENE

> <MPID>
99870

> <dsstox_substance_id>
DTXSID70183839

> <Canonical_QSARr>
[O-][N+](=O)c1ccc(Br)c(Cl)c1

> <InChI_Code_QSARr>
InChI=1S/C6H3BrClNO2/c7-5-2-1-4(9(10)11)3-6(5)8/h1-3H

> <InChI Key_QSARr>
YKSXEJZFIQAUHJ-UHFFFAOYSA-N

> <LogKOC>
2.6

$$$$
100614
  -INDIGO-08031722282D

 20 19  0  0  0  0  0  0  0  0999 V2000
   -0.0000    0.0000    0.0000 P   0  0  0  0  0  0  0  0  0  0  0  0
    1.6000    0.0000    0.0000 N   0  0  0  0  0  0  0  0  0  0  0  0
    2.4000    1.3856    0.0000 H   0  0  0  0  0  0  0  0  0  0  0  0
    2.4000   -1.3856    0.0000 C   0  0  0  0  0  0  0  0  0  0  0  0
    1.6000   -2.7713    0.0000 O   0  0  0  0  0  0  0  0  0  0  0  0
    4.0001   -1.3856    0.0000 C   0  0  0  0  0  0  0  0  0  0  0  0
    5.6000   -1.3856    0.0000 H   0  0  0  0  0  0  0  0  0  0  0  0
    4.8000   -2.7713    0.0000 H   0  0  0  0  0  0  0  0  0  0  0  0
    4.8000    0.0000    0.0000 H   0  0  0  0  0  0  0  0  0  0  0  0
   -0.8000   -1.3856    0.0000 O   0  0  0  0  0  0  0  0  0  0  0  0
   -1.6000    0.0000    0.0000 S   0  0  0  0  0  0  0  0  0  0  0  0
   -2.3999   -1.3856    0.0000 C   0  0  0  0  0  0  0  0  0  0  0  0
   -4.0000   -1.3856    0.0000 H   0  0  0  0  0  0  0  0  0  0  0  0
   -3.2000   -2.7713    0.0000 H   0  0  0  0  0  0  0  0  0  0  0  0
   -1.6000   -2.7713    0.0000 H   0  0  0  0  0  0  0  0  0  0  0  0
   -0.8000    1.3856    0.0000 O   0  0  0  0  0  0  0  0  0  0  0  0
   -0.0000    2.7713    0.0000 C   0  0  0  0  0  0  0  0  0  0  0  0
   -0.8000    4.1569    0.0000 H   0  0  0  0  0  0  0  0  0  0  0  0
    0.7999    4.1569    0.0000 H   0  0  0  0  0  0  0  0  0  0  0  0
   -1.6000    2.7713    0.0000 H   0  0  0  0  0  0  0  0  0  0  0  0
  1  2  1  0  0  0  0
  2  3  1  0  0  0  0
  2  4  1  0  0  0  0
  4  5  2  0  0  0  0
  4  6  1  0  0  0  0
  6  7  1  0  0  0  0
  6  8  1  0  0  0  0
  6  9  1  0  0  0  0
  1 10  2  0  0  0  0
  1 11  1  0  0  0  0
 11 12  1  0  0  0  0
 12 13  1  0  0  0  0
 12 14  1  0  0  0  0
 12 15  1  0  0  0  0
  1 16  1  0  0  0  0
 16 17  1  0  0  0  0
 17 18  1  0  0  0  0
 17 19  1  0  0  0  0
 17 20  1  0  0  0  0
M  END
> <ChemID>
100614

> <source_casrn>
30560-19-1

> <CAS>
30560-19-1

> <SMILES>
COP(=O)(NC(C)=O)SC

> <NAME>
ACEPHATE

> <preferred_name>
Acephate

> <iupac>
O,S-dimethyl acetylphosphoramidothioate

> <MPID>
99871

> <dsstox_substance_id>
DTXSID8023846

> <Canonical_QSARr>
COP(=O)(NC(C)=O)SC

> <InChI_Code_QSARr>
InChI=1S/C4H10NO3PS/c1-4(6)5-9(7,8-2)10-3/h1-3H3,(H,5,6,7)

> <InChI Key_QSARr>
YASYVMFAVPKPKE-UHFFFAOYSA-N

> <LogKOC>
0.3

$$$$
100615
  -INDIGO-08031722282D

 15 15  0  0  0  0  0  0  0  0999 V2000
   -0.0000    2.7713    0.0000 Cl  0  0  0  0  0  0  0  0  0  0  0  0
   -0.8000    1.3856    0.0000 C   0  0  0  0  0  0  0  0  0  0  0  0
   -0.0000    0.0000    0.0000 C   0  0  0  0  0  0  0  0  0  0  0  0
    1.6000   -0.0000    0.0000 O   0  0  0  0  0  0  0  0  0  0  0  0
    2.4001   -1.3856    0.0000 C   0  0  0  0  0  0  0  0  0  0  0  0
    3.2000   -2.7713    0.0000 H   0  0  0  0  0  0  0  0  0  0  0  0
    4.0000   -1.3856    0.0000 H   0  0  0  0  0  0  0  0  0  0  0  0
    1.6000   -2.7713    0.0000 H   0  0  0  0  0  0  0  0  0  0  0  0
   -0.8000   -1.3856    0.0000 N   0  0  0  0  0  0  0  0  0  0  0  0
   -2.4000   -1.3856    0.0000 C   0  0  0  0  0  0  0  0  0  0  0  0
   -3.2001   -2.7713    0.0000 Cl  0  0  0  0  0  0  0  0  0  0  0  0
   -3.2001    0.0000    0.0000 C   0  0  0  0  0  0  0  0  0  0  0  0
   -4.8000    0.0000    0.0000 Cl  0  0  0  0  0  0  0  0  0  0  0  0
   -2.4000    1.3856    0.0000 C   0  0  0  0  0  0  0  0  0  0  0  0
   -3.2001    2.7713    0.0000 H   0  0  0  0  0  0  0  0  0  0  0  0
  1  2  1  0  0  0  0
  2  3  1  0  0  0  0
  3  4  1  0  0  0  0
  4  5  1  0  0  0  0
  5  6  1  0  0  0  0
  5  7  1  0  0  0  0
  5  8  1  0  0  0  0
  3  9  2  0  0  0  0
  9 10  1  0  0  0  0
 10 11  1  0  0  0  0
 10 12  2  0  0  0  0
 12 13  1  0  0  0  0
 12 14  1  0  0  0  0
 14  2  2  0  0  0  0
 14 15  1  0  0  0  0
M  END
> <ChemID>
100615

> <source_casrn>
31557-34-3

> <CAS>
31557-34-3

> <SMILES>
COc1[n]c(Cl)c(Cl)cc1Cl

> <NAME>
2,3,5-TRICHLORO-6-METHOXYPYRIDINE

> <preferred_name>
2-Methoxy-3,5,6-trichloropyridine

> <iupac>
2,3,5-Trichloro-6-methoxypyridine

> <MPID>
99872

> <dsstox_substance_id>
DTXSID90185456

> <Canonical_QSARr>
COc1[n]c(Cl)c(Cl)cc1Cl

> <InChI_Code_QSARr>
InChI=1S/C6H4Cl3NO/c1-11-6-4(8)2-3(7)5(9)10-6/h2H,1H3

> <InChI Key_QSARr>
RLIVUWLXZBDMBL-UHFFFAOYSA-N

> <LogKOC>
2.96

$$$$
100618
  -INDIGO-08031722282D

 43 43  0  0  0  0  0  0  0  0999 V2000
   -1.6635   -2.3756    0.0000 P   0  0  0  0  0  0  0  0  0  0  0  0
   -0.2779   -1.5757    0.0000 N   0  0  0  0  0  0  0  0  0  0  0  0
    0.9479   -2.6041    0.0000 H   0  0  0  0  0  0  0  0  0  0  0  0
    0.0000    0.0001    0.0000 C   0  0  0  0  0  0  0  0  0  0  0  0
   -1.5758    0.2779    0.0000 H   0  0  0  0  0  0  0  0  0  0  0  0
    0.2778    1.5757    0.0000 C   0  0  0  0  0  0  0  0  0  0  0  0
    0.5557    3.1514    0.0000 H   0  0  0  0  0  0  0  0  0  0  0  0
    1.7813    2.1229    0.0000 H   0  0  0  0  0  0  0  0  0  0  0  0
   -0.9479    2.6041    0.0000 H   0  0  0  0  0  0  0  0  0  0  0  0
    1.5756   -0.2779    0.0000 C   0  0  0  0  0  0  0  0  0  0  0  0
    3.1514   -0.5557    0.0000 H   0  0  0  0  0  0  0  0  0  0  0  0
    2.6041    0.9478    0.0000 H   0  0  0  0  0  0  0  0  0  0  0  0
    2.1229   -1.7814    0.0000 H   0  0  0  0  0  0  0  0  0  0  0  0
   -3.0490   -1.5757    0.0000 O   0  0  0  0  0  0  0  0  0  0  0  0
   -4.4348   -2.3756    0.0000 C   0  0  0  0  0  0  0  0  0  0  0  0
   -5.8203   -1.5757    0.0000 C   0  0  0  0  0  0  0  0  0  0  0  0
   -5.8203    0.0243    0.0000 H   0  0  0  0  0  0  0  0  0  0  0  0
   -7.2061   -2.3756    0.0000 C   0  0  0  0  0  0  0  0  0  0  0  0
   -8.5916   -1.5757    0.0000 C   0  0  0  0  0  0  0  0  0  0  0  0
   -9.9774   -0.7757    0.0000 H   0  0  0  0  0  0  0  0  0  0  0  0
   -8.5916    0.0243    0.0000 H   0  0  0  0  0  0  0  0  0  0  0  0
   -9.9774   -2.3756    0.0000 H   0  0  0  0  0  0  0  0  0  0  0  0
   -7.2061   -3.9757    0.0000 C   0  0  0  0  0  0  0  0  0  0  0  0
   -8.5916   -4.7757    0.0000 S   0  0  0  0  0  0  0  0  0  0  0  0
   -9.9774   -5.5756    0.0000 C   0  0  0  0  0  0  0  0  0  0  0  0
  -11.3630   -6.3757    0.0000 H   0  0  0  0  0  0  0  0  0  0  0  0
   -9.9774   -7.1757    0.0000 H   0  0  0  0  0  0  0  0  0  0  0  0
  -11.3630   -4.7757    0.0000 H   0  0  0  0  0  0  0  0  0  0  0  0
   -7.7917   -6.1613    0.0000 O   0  0  0  0  0  0  0  0  0  0  0  0
   -9.3916   -3.3901    0.0000 O   0  0  0  0  0  0  0  0  0  0  0  0
   -5.8203   -4.7757    0.0000 C   0  0  0  0  0  0  0  0  0  0  0  0
   -5.8203   -6.3757    0.0000 H   0  0  0  0  0  0  0  0  0  0  0  0
   -4.4348   -3.9757    0.0000 C   0  0  0  0  0  0  0  0  0  0  0  0
   -3.0490   -4.7757    0.0000 H   0  0  0  0  0  0  0  0  0  0  0  0
   -1.6635   -0.7757    0.0000 O   0  0  0  0  0  0  0  0  0  0  0  0
   -0.2779   -3.1757    0.0000 O   0  0  0  0  0  0  0  0  0  0  0  0
   -0.2779   -4.7757    0.0000 C   0  0  0  0  0  0  0  0  0  0  0  0
   -1.2518   -6.0450    0.0000 H   0  0  0  0  0  0  0  0  0  0  0  0
   -1.8641   -4.9845    0.0000 H   0  0  0  0  0  0  0  0  0  0  0  0
    1.1078   -5.5756    0.0000 C   0  0  0  0  0  0  0  0  0  0  0  0
    1.1078   -7.1757    0.0000 H   0  0  0  0  0  0  0  0  0  0  0  0
    2.4934   -6.3757    0.0000 H   0  0  0  0  0  0  0  0  0  0  0  0
   -0.2779   -6.3757    0.0000 H   0  0  0  0  0  0  0  0  0  0  0  0
  1  2  1  0  0  0  0
  2  3  1  0  0  0  0
  2  4  1  0  0  0  0
  4  5  1  0  0  0  0
  4  6  1  0  0  0  0
  6  7  1  0  0  0  0
  6  8  1  0  0  0  0
  6  9  1  0  0  0  0
  4 10  1  0  0  0  0
 10 11  1  0  0  0  0
 10 12  1  0  0  0  0
 10 13  1  0  0  0  0
  1 14  1  0  0  0  0
 14 15  1  0  0  0  0
 15 16  1  0  0  0  0
 16 17  1  0  0  0  0
 16 18  2  0  0  0  0
 18 19  1  0  0  0  0
 19 20  1  0  0  0  0
 19 21  1  0  0  0  0
 19 22  1  0  0  0  0
 18 23  1  0  0  0  0
 23 24  1  0  0  0  0
 24 25  1  0  0  0  0
 25 26  1  0  0  0  0
 25 27  1  0  0  0  0
 25 28  1  0  0  0  0
 24 29  2  0  0  0  0
 24 30  2  0  0  0  0
 23 31  2  0  0  0  0
 31 32  1  0  0  0  0
 31 33  1  0  0  0  0
 33 15  2  0  0  0  0
 33 34  1  0  0  0  0
  1 35  2  0  0  0  0
  1 36  1  0  0  0  0
 36 37  1  0  0  0  0
 37 38  1  0  0  0  0
 37 39  1  0  0  0  0
 37 40  1  0  0  0  0
 40 41  1  0  0  0  0
 40 42  1  0  0  0  0
 40 43  1  0  0  0  0
M  END
> <ChemID>
100618

> <source_casrn>
31972-44-8

> <CAS>
31972-44-8

> <SMILES>
O=S(=O)(c1ccc(cc1C)OP(=O)(NC(C)C)OCC)C

> <NAME>
BAY 68138 SULFONE

> <preferred_name>
Fenamiphos sulfone

> <iupac>
ethyl 3-methyl-4-(methylsulfonyl)phenyl propan-2-ylphosphoramidate

> <MPID>
99874

> <dsstox_substance_id>
DTXSID3037547

> <Canonical_QSARr>
Cc1cc(ccc1S(C)(=O)=O)OP(=O)(NC(C)C)OCC

> <InChI_Code_QSARr>
InChI=1S/C13H22NO5PS/c1-6-18-20(15,14-10(2)3)19-12-7-8-13(11(4)9-12)21(5,16)17/h7-10H,6H2,1-5H3,(H,14,15)

> <InChI Key_QSARr>
LVNYJXIBJFXIRZ-UHFFFAOYSA-N

> <LogKOC>
1.64

$$$$
100619
  -INDIGO-08031722282D

 44 44  0  0  0  0  0  0  0  0999 V2000
   16.6277   -0.0000    0.0000 C   0  0  0  0  0  0  0  0  0  0  0  0
   18.0133   -0.8000    0.0000 C   0  0  0  0  0  0  0  0  0  0  0  0
   19.3990   -0.0000    0.0000 H   0  0  0  0  0  0  0  0  0  0  0  0
   18.0133   -2.4000    0.0000 C   0  0  0  0  0  0  0  0  0  0  0  0
   19.3990   -3.2000    0.0000 Cl  0  0  0  0  0  0  0  0  0  0  0  0
   16.6277   -3.2000    0.0000 C   0  0  0  0  0  0  0  0  0  0  0  0
   16.6277   -4.8000    0.0000 H   0  0  0  0  0  0  0  0  0  0  0  0
   15.2420   -2.4000    0.0000 C   0  0  0  0  0  0  0  0  0  0  0  0
   13.8564   -3.2000    0.0000 H   0  0  0  0  0  0  0  0  0  0  0  0
   15.2420   -0.8000    0.0000 C   0  0  0  0  0  0  0  0  0  0  0  0
   13.8564   -0.0000    0.0000 O   0  0  0  0  0  0  0  0  0  0  0  0
   12.4708   -0.8000    0.0000 C   0  0  0  0  0  0  0  0  0  0  0  0
   11.8586   -2.2782    0.0000 H   0  0  0  0  0  0  0  0  0  0  0  0
   13.0829   -2.2782    0.0000 H   0  0  0  0  0  0  0  0  0  0  0  0
   11.0851   -0.0000    0.0000 C   0  0  0  0  0  0  0  0  0  0  0  0
   11.6973    1.4782    0.0000 H   0  0  0  0  0  0  0  0  0  0  0  0
   10.4730    1.4782    0.0000 H   0  0  0  0  0  0  0  0  0  0  0  0
    9.6995   -0.8000    0.0000 C   0  0  0  0  0  0  0  0  0  0  0  0
    9.0874   -2.2782    0.0000 H   0  0  0  0  0  0  0  0  0  0  0  0
   10.3116   -2.2782    0.0000 H   0  0  0  0  0  0  0  0  0  0  0  0
    8.3138   -0.0000    0.0000 C   0  0  0  0  0  0  0  0  0  0  0  0
    6.9282   -0.8000    0.0000 O   0  0  0  0  0  0  0  0  0  0  0  0
    5.5426   -0.0000    0.0000 C   0  0  0  0  0  0  0  0  0  0  0  0
    6.1547    1.4782    0.0000 H   0  0  0  0  0  0  0  0  0  0  0  0
    4.9304    1.4782    0.0000 H   0  0  0  0  0  0  0  0  0  0  0  0
    4.1569   -0.8000    0.0000 C   0  0  0  0  0  0  0  0  0  0  0  0
    3.5448   -2.2782    0.0000 H   0  0  0  0  0  0  0  0  0  0  0  0
    4.7690   -2.2782    0.0000 H   0  0  0  0  0  0  0  0  0  0  0  0
    2.7713   -0.0000    0.0000 O   0  0  0  0  0  0  0  0  0  0  0  0
    1.3856   -0.8000    0.0000 C   0  0  0  0  0  0  0  0  0  0  0  0
    0.7735   -2.2782    0.0000 H   0  0  0  0  0  0  0  0  0  0  0  0
    1.9978   -2.2782    0.0000 H   0  0  0  0  0  0  0  0  0  0  0  0
    0.0000   -0.0000    0.0000 C   0  0  0  0  0  0  0  0  0  0  0  0
    0.6121    1.4782    0.0000 H   0  0  0  0  0  0  0  0  0  0  0  0
   -0.6121    1.4782    0.0000 H   0  0  0  0  0  0  0  0  0  0  0  0
   -1.3856   -0.8000    0.0000 C   0  0  0  0  0  0  0  0  0  0  0  0
   -1.9978   -2.2782    0.0000 H   0  0  0  0  0  0  0  0  0  0  0  0
   -0.7735   -2.2782    0.0000 H   0  0  0  0  0  0  0  0  0  0  0  0
   -2.7713   -0.0000    0.0000 C   0  0  0  0  0  0  0  0  0  0  0  0
   -4.1569    0.8000    0.0000 H   0  0  0  0  0  0  0  0  0  0  0  0
   -4.1569   -0.8000    0.0000 H   0  0  0  0  0  0  0  0  0  0  0  0
   -2.7713    1.6000    0.0000 H   0  0  0  0  0  0  0  0  0  0  0  0
    8.3138    1.6000    0.0000 O   0  0  0  0  0  0  0  0  0  0  0  0
   16.6277    1.6000    0.0000 Cl  0  0  0  0  0  0  0  0  0  0  0  0
  1  2  1  0  0  0  0
  2  3  1  0  0  0  0
  2  4  2  0  0  0  0
  4  5  1  0  0  0  0
  4  6  1  0  0  0  0
  6  7  1  0  0  0  0
  6  8  2  0  0  0  0
  8  9  1  0  0  0  0
  8 10  1  0  0  0  0
 10  1  2  0  0  0  0
 10 11  1  0  0  0  0
 11 12  1  0  0  0  0
 12 13  1  0  0  0  0
 12 14  1  0  0  0  0
 12 15  1  0  0  0  0
 15 16  1  0  0  0  0
 15 17  1  0  0  0  0
 15 18  1  0  0  0  0
 18 19  1  0  0  0  0
 18 20  1  0  0  0  0
 18 21  1  0  0  0  0
 21 22  1  0  0  0  0
 22 23  1  0  0  0  0
 23 24  1  0  0  0  0
 23 25  1  0  0  0  0
 23 26  1  0  0  0  0
 26 27  1  0  0  0  0
 26 28  1  0  0  0  0
 26 29  1  0  0  0  0
 29 30  1  0  0  0  0
 30 31  1  0  0  0  0
 30 32  1  0  0  0  0
 30 33  1  0  0  0  0
 33 34  1  0  0  0  0
 33 35  1  0  0  0  0
 33 36  1  0  0  0  0
 36 37  1  0  0  0  0
 36 38  1  0  0  0  0
 36 39  1  0  0  0  0
 39 40  1  0  0  0  0
 39 41  1  0  0  0  0
 39 42  1  0  0  0  0
 21 43  2  0  0  0  0
  1 44  1  0  0  0  0
M  END
> <ChemID>
100619

> <source_casrn>
32357-46-3

> <CAS>
32357-46-3

> <SMILES>
O=C(OCCOCCCC)CCCOc(c(cc(c1)Cl)Cl)c1

> <NAME>
Butyric acid, 4-(2,4-dichlorophenoxy)-, 2-butoxy

> <preferred_name>
2,4-DB 2-butoxyethyl ester

> <iupac>
2-butoxyethyl 4-(2,4-dichlorophenoxy)butanoate

> <MPID>
99875

> <dsstox_substance_id>
DTXSID5041354

> <Canonical_QSARr>
CCCCOCCOC(=O)CCCOc1ccc(Cl)cc1Cl

> <InChI_Code_QSARr>
InChI=1S/C16H22Cl2O4/c1-2-3-8-20-10-11-22-16(19)5-4-9-21-15-7-6-13(17)12-14(15)18/h6-7,12H,2-5,8-11H2,1H3

> <InChI Key_QSARr>
IRLJKGHTPKJLFX-UHFFFAOYSA-N

> <LogKOC>
2.7

$$$$
100620
  -INDIGO-08031722282D

 22 23  0  0  0  0  0  0  0  0999 V2000
   -0.0001    0.0000    0.0000 C   0  0  0  0  0  0  0  0  0  0  0  0
    1.6001   -0.0000    0.0000 C   0  0  0  0  0  0  0  0  0  0  0  0
    2.4001   -1.3856    0.0000 C   0  0  0  0  0  0  0  0  0  0  0  0
    1.6001   -2.7713    0.0000 H   0  0  0  0  0  0  0  0  0  0  0  0
    4.0000   -1.3856    0.0000 C   0  0  0  0  0  0  0  0  0  0  0  0
    4.8000   -2.7713    0.0000 Cl  0  0  0  0  0  0  0  0  0  0  0  0
    4.8000    0.0000    0.0000 C   0  0  0  0  0  0  0  0  0  0  0  0
    6.4000    0.0000    0.0000 Cl  0  0  0  0  0  0  0  0  0  0  0  0
    4.0000    1.3856    0.0000 C   0  0  0  0  0  0  0  0  0  0  0  0
    4.8000    2.7713    0.0000 H   0  0  0  0  0  0  0  0  0  0  0  0
    2.4001    1.3856    0.0000 C   0  0  0  0  0  0  0  0  0  0  0  0
    1.6001    2.7713    0.0000 H   0  0  0  0  0  0  0  0  0  0  0  0
   -0.8001    1.3856    0.0000 C   0  0  0  0  0  0  0  0  0  0  0  0
   -0.0001    2.7713    0.0000 Cl  0  0  0  0  0  0  0  0  0  0  0  0
   -2.4000    1.3856    0.0000 C   0  0  0  0  0  0  0  0  0  0  0  0
   -3.2000    2.7713    0.0000 H   0  0  0  0  0  0  0  0  0  0  0  0
   -3.2000    0.0000    0.0000 C   0  0  0  0  0  0  0  0  0  0  0  0
   -4.8000   -0.0000    0.0000 H   0  0  0  0  0  0  0  0  0  0  0  0
   -2.4000   -1.3856    0.0000 C   0  0  0  0  0  0  0  0  0  0  0  0
   -3.2000   -2.7713    0.0000 Cl  0  0  0  0  0  0  0  0  0  0  0  0
   -0.8001   -1.3856    0.0000 C   0  0  0  0  0  0  0  0  0  0  0  0
   -0.0001   -2.7713    0.0000 H   0  0  0  0  0  0  0  0  0  0  0  0
  1  2  1  0  0  0  0
  2  3  1  0  0  0  0
  3  4  1  0  0  0  0
  3  5  2  0  0  0  0
  5  6  1  0  0  0  0
  5  7  1  0  0  0  0
  7  8  1  0  0  0  0
  7  9  2  0  0  0  0
  9 10  1  0  0  0  0
  9 11  1  0  0  0  0
 11  2  2  0  0  0  0
 11 12  1  0  0  0  0
  1 13  1  0  0  0  0
 13 14  1  0  0  0  0
 13 15  2  0  0  0  0
 15 16  1  0  0  0  0
 15 17  1  0  0  0  0
 17 18  1  0  0  0  0
 17 19  2  0  0  0  0
 19 20  1  0  0  0  0
 19 21  1  0  0  0  0
 21  1  2  0  0  0  0
 21 22  1  0  0  0  0
M  END
> <ChemID>
100620

> <source_casrn>
32598-11-1

> <CAS>
32598-11-1

> <SMILES>
Clc1cc(-c2cc(Cl)c(Cl)cc2)c(Cl)cc1

> <NAME>
2,3',4',5-TETRACHLOROBIPHENYL

> <preferred_name>
2,3',4',5-Tetrachlorobiphenyl

> <iupac>
2,3',4',5-tetrachlorobiphenyl

> <MPID>
99876

> <dsstox_substance_id>
DTXSID3038309

> <Canonical_QSARr>
Clc1cc(-c2cc(Cl)c(Cl)cc2)c(Cl)cc1

> <InChI_Code_QSARr>
InChI=1S/C12H6Cl4/c13-8-2-4-10(14)9(6-8)7-1-3-11(15)12(16)5-7/h1-6H

> <InChI Key_QSARr>
KENZYIHFBRWMOD-UHFFFAOYSA-N

> <LogKOC>
4.86

$$$$
100622
  -INDIGO-08031722282D

 45 46  0  0  0  0  0  0  0  0999 V2000
   -1.3857   -2.4000    0.0000 N   0  0  0  0  0  0  0  0  0  0  0  0
   -1.3857   -4.0000    0.0000 C   0  0  0  0  0  0  0  0  0  0  0  0
   -0.0001   -4.7999    0.0000 H   0  0  0  0  0  0  0  0  0  0  0  0
   -2.7713   -4.7999    0.0000 N   0  0  0  0  0  0  0  0  0  0  0  0
   -4.1569   -4.0000    0.0000 C   0  0  0  0  0  0  0  0  0  0  0  0
   -4.1569   -2.4000    0.0000 H   0  0  0  0  0  0  0  0  0  0  0  0
   -5.5425   -4.7999    0.0000 N   0  0  0  0  0  0  0  0  0  0  0  0
   -6.9281   -4.0000    0.0000 C   0  0  0  0  0  0  0  0  0  0  0  0
   -8.3140   -4.7999    0.0000 C   0  0  0  0  0  0  0  0  0  0  0  0
   -8.3140   -6.4001    0.0000 C   0  0  0  0  0  0  0  0  0  0  0  0
   -8.3140   -8.0000    0.0000 H   0  0  0  0  0  0  0  0  0  0  0  0
   -9.6996   -7.2000    0.0000 H   0  0  0  0  0  0  0  0  0  0  0  0
   -6.9281   -7.2000    0.0000 H   0  0  0  0  0  0  0  0  0  0  0  0
   -9.6996   -4.0000    0.0000 C   0  0  0  0  0  0  0  0  0  0  0  0
  -11.0852   -4.7999    0.0000 H   0  0  0  0  0  0  0  0  0  0  0  0
   -9.6996   -2.4000    0.0000 C   0  0  0  0  0  0  0  0  0  0  0  0
  -11.0852   -1.6000    0.0000 C   0  0  0  0  0  0  0  0  0  0  0  0
  -12.4708   -0.8001    0.0000 H   0  0  0  0  0  0  0  0  0  0  0  0
  -12.4708   -2.4000    0.0000 H   0  0  0  0  0  0  0  0  0  0  0  0
  -11.0852    0.0001    0.0000 H   0  0  0  0  0  0  0  0  0  0  0  0
   -8.3140   -1.6000    0.0000 C   0  0  0  0  0  0  0  0  0  0  0  0
   -8.3140    0.0001    0.0000 H   0  0  0  0  0  0  0  0  0  0  0  0
   -6.9281   -2.4000    0.0000 C   0  0  0  0  0  0  0  0  0  0  0  0
   -5.5425   -1.6000    0.0000 H   0  0  0  0  0  0  0  0  0  0  0  0
   -2.7713   -6.4001    0.0000 C   0  0  0  0  0  0  0  0  0  0  0  0
   -2.7713   -8.0000    0.0000 H   0  0  0  0  0  0  0  0  0  0  0  0
   -4.1569   -7.2000    0.0000 H   0  0  0  0  0  0  0  0  0  0  0  0
   -1.3857   -7.2000    0.0000 H   0  0  0  0  0  0  0  0  0  0  0  0
   -0.0001   -1.6000    0.0000 C   0  0  0  0  0  0  0  0  0  0  0  0
   -0.0001    0.0001    0.0000 C   0  0  0  0  0  0  0  0  0  0  0  0
   -1.3857    0.8000    0.0000 C   0  0  0  0  0  0  0  0  0  0  0  0
   -2.7713    1.6000    0.0000 H   0  0  0  0  0  0  0  0  0  0  0  0
   -1.3857    2.4000    0.0000 H   0  0  0  0  0  0  0  0  0  0  0  0
   -2.7713    0.0001    0.0000 H   0  0  0  0  0  0  0  0  0  0  0  0
    1.3858    0.8000    0.0000 C   0  0  0  0  0  0  0  0  0  0  0  0
    1.3858    2.4000    0.0000 H   0  0  0  0  0  0  0  0  0  0  0  0
    2.7714    0.0001    0.0000 C   0  0  0  0  0  0  0  0  0  0  0  0
    4.1570    0.8000    0.0000 C   0  0  0  0  0  0  0  0  0  0  0  0
    5.5426    1.6000    0.0000 H   0  0  0  0  0  0  0  0  0  0  0  0
    5.5426    0.0001    0.0000 H   0  0  0  0  0  0  0  0  0  0  0  0
    4.1570    2.4000    0.0000 H   0  0  0  0  0  0  0  0  0  0  0  0
    2.7714   -1.6000    0.0000 C   0  0  0  0  0  0  0  0  0  0  0  0
    4.1570   -2.4000    0.0000 H   0  0  0  0  0  0  0  0  0  0  0  0
    1.3858   -2.4000    0.0000 C   0  0  0  0  0  0  0  0  0  0  0  0
    1.3858   -4.0000    0.0000 H   0  0  0  0  0  0  0  0  0  0  0  0
  1  2  2  0  0  0  0
  2  3  1  0  0  0  0
  2  4  1  0  0  0  0
  4  5  1  0  0  0  0
  5  6  1  0  0  0  0
  5  7  2  0  0  0  0
  7  8  1  0  0  0  0
  8  9  1  0  0  0  0
  9 10  1  0  0  0  0
 10 11  1  0  0  0  0
 10 12  1  0  0  0  0
 10 13  1  0  0  0  0
  9 14  2  0  0  0  0
 14 15  1  0  0  0  0
 14 16  1  0  0  0  0
 16 17  1  0  0  0  0
 17 18  1  0  0  0  0
 17 19  1  0  0  0  0
 17 20  1  0  0  0  0
 16 21  2  0  0  0  0
 21 22  1  0  0  0  0
 21 23  1  0  0  0  0
 23  8  2  0  0  0  0
 23 24  1  0  0  0  0
  4 25  1  0  0  0  0
 25 26  1  0  0  0  0
 25 27  1  0  0  0  0
 25 28  1  0  0  0  0
  1 29  1  0  0  0  0
 29 30  1  0  0  0  0
 30 31  1  0  0  0  0
 31 32  1  0  0  0  0
 31 33  1  0  0  0  0
 31 34  1  0  0  0  0
 30 35  2  0  0  0  0
 35 36  1  0  0  0  0
 35 37  1  0  0  0  0
 37 38  1  0  0  0  0
 38 39  1  0  0  0  0
 38 40  1  0  0  0  0
 38 41  1  0  0  0  0
 37 42  2  0  0  0  0
 42 43  1  0  0  0  0
 42 44  1  0  0  0  0
 44 29  2  0  0  0  0
 44 45  1  0  0  0  0
M  END
> <ChemID>
100622

> <source_casrn>
33089-61-1

> <CAS>
33089-61-1

> <SMILES>
CN(/C=N/c1ccc(C)cc1C)/C=N/c1ccc(C)cc1C

> <NAME>
AMITRAZ

> <preferred_name>
Amitraz

> <iupac>
N'-(2,4-dimethylphenyl)-N-{(E)-[(2,4-dimethylphenyl)imino]methyl}-N-methylimidoformamide

> <MPID>
99878

> <dsstox_substance_id>
DTXSID5023871

> <Canonical_QSARr>
CN(C=Nc1ccc(C)cc1C)C=Nc1ccc(C)cc1C

> <InChI_Code_QSARr>
InChI=1S/C19H23N3/c1-14-6-8-18(16(3)10-14)20-12-22(5)13-21-19-9-7-15(2)11-17(19)4/h6-13H,1-5H3/b20-12+,21-13+

> <InChI Key_QSARr>
QXAITBQSYVNQDR-ZIOPAAQOSA-N

> <LogKOC>
3.0

$$$$
100623
  -INDIGO-08031722282D

 20 20  0  0  0  0  0  0  0  0999 V2000
   -4.1569    0.8000    0.0000 O   0  0  0  0  0  0  0  0  0  0  0  0
   -2.7712   -0.0000    0.0000 C   0  0  0  0  0  0  0  0  0  0  0  0
   -1.3857    0.8000    0.0000 C   0  0  0  0  0  0  0  0  0  0  0  0
   -1.3857    2.4000    0.0000 H   0  0  0  0  0  0  0  0  0  0  0  0
   -0.0000   -0.0000    0.0000 C   0  0  0  0  0  0  0  0  0  0  0  0
    1.3856    0.8000    0.0000 C   0  0  0  0  0  0  0  0  0  0  0  0
    2.7713    1.6000    0.0000 H   0  0  0  0  0  0  0  0  0  0  0  0
    2.7713   -0.0000    0.0000 H   0  0  0  0  0  0  0  0  0  0  0  0
    1.3856    2.4000    0.0000 H   0  0  0  0  0  0  0  0  0  0  0  0
   -0.0000   -1.6000    0.0000 C   0  0  0  0  0  0  0  0  0  0  0  0
    1.3856   -2.4000    0.0000 H   0  0  0  0  0  0  0  0  0  0  0  0
   -1.3857   -2.4000    0.0000 C   0  0  0  0  0  0  0  0  0  0  0  0
   -1.3857   -4.0000    0.0000 H   0  0  0  0  0  0  0  0  0  0  0  0
   -2.7712   -1.6000    0.0000 C   0  0  0  0  0  0  0  0  0  0  0  0
   -4.1569   -2.4000    0.0000 H   0  0  0  0  0  0  0  0  0  0  0  0
   -5.5425   -0.0000    0.0000 C   0  0  0  0  0  0  0  0  0  0  0  0
   -5.5425   -1.6000    0.0000 O   0  0  0  0  0  0  0  0  0  0  0  0
   -6.9282    0.8000    0.0000 N   0  0  0  0  0  0  0  0  0  0  0  0
   -8.3138   -0.0000    0.0000 H   0  0  0  0  0  0  0  0  0  0  0  0
   -6.9282    2.4000    0.0000 H   0  0  0  0  0  0  0  0  0  0  0  0
  1  2  1  0  0  0  0
  2  3  1  0  0  0  0
  3  4  1  0  0  0  0
  3  5  2  0  0  0  0
  5  6  1  0  0  0  0
  6  7  1  0  0  0  0
  6  8  1  0  0  0  0
  6  9  1  0  0  0  0
  5 10  1  0  0  0  0
 10 11  1  0  0  0  0
 10 12  2  0  0  0  0
 12 13  1  0  0  0  0
 12 14  1  0  0  0  0
 14  2  2  0  0  0  0
 14 15  1  0  0  0  0
  1 16  1  0  0  0  0
 16 17  2  0  0  0  0
 16 18  1  0  0  0  0
 18 19  1  0  0  0  0
 18 20  1  0  0  0  0
M  END
> <ChemID>
100623

> <source_casrn>
33222-69-4

> <CAS>
33222-69-4

> <SMILES>
c1c(C)cccc1OC(=O)N

> <NAME>
3-METHYLPHENYLCARBAMATE

> <preferred_name>
Carbamic acid, m-tolyl ester

> <iupac>
(3-methylphenyl) carbamate

> <MPID>
99879

> <dsstox_substance_id>
DTXSID10186869

> <Canonical_QSARr>
Cc1cc(ccc1)OC(N)=O

> <InChI_Code_QSARr>
InChI=1S/C8H9NO2/c1-6-3-2-4-7(5-6)11-8(9)10/h2-5H,1H3,(H2,9,10)

> <InChI Key_QSARr>
VTONZKDPQTYHLV-UHFFFAOYSA-N

> <LogKOC>
1.48

$$$$
100624
  -INDIGO-08031722282D

 27 27  0  0  0  0  0  0  0  0999 V2000
    1.6000    2.7713    0.0000 O   0  0  0  0  0  0  0  0  0  0  0  0
    2.4000    1.3856    0.0000 C   0  0  0  0  0  0  0  0  0  0  0  0
    1.6000    0.0000    0.0000 N   0  0  0  0  0  0  0  0  0  0  0  0
    2.4000   -1.3856    0.0000 H   0  0  0  0  0  0  0  0  0  0  0  0
    0.0000    0.0000    0.0000 C   0  0  0  0  0  0  0  0  0  0  0  0
   -1.6000    0.0000    0.0000 C   0  0  0  0  0  0  0  0  0  0  0  0
   -3.2000    0.0000    0.0000 H   0  0  0  0  0  0  0  0  0  0  0  0
   -2.4000   -1.3856    0.0000 H   0  0  0  0  0  0  0  0  0  0  0  0
   -2.4000    1.3856    0.0000 H   0  0  0  0  0  0  0  0  0  0  0  0
    0.0000   -1.6000    0.0000 C   0  0  0  0  0  0  0  0  0  0  0  0
    0.0000   -3.2000    0.0000 H   0  0  0  0  0  0  0  0  0  0  0  0
   -1.3856   -2.4001    0.0000 H   0  0  0  0  0  0  0  0  0  0  0  0
    1.3856   -2.4001    0.0000 H   0  0  0  0  0  0  0  0  0  0  0  0
    0.0000    1.6000    0.0000 C   0  0  0  0  0  0  0  0  0  0  0  0
    0.0000    3.2000    0.0000 C   0  0  0  0  0  0  0  0  0  0  0  0
    0.0000    4.8000    0.0000 H   0  0  0  0  0  0  0  0  0  0  0  0
    4.0000    1.3856    0.0000 C   0  0  0  0  0  0  0  0  0  0  0  0
    4.8000    2.7713    0.0000 C   0  0  0  0  0  0  0  0  0  0  0  0
    4.0000    4.1569    0.0000 H   0  0  0  0  0  0  0  0  0  0  0  0
    6.4000    2.7713    0.0000 C   0  0  0  0  0  0  0  0  0  0  0  0
    7.2000    4.1569    0.0000 H   0  0  0  0  0  0  0  0  0  0  0  0
    7.2000    1.3856    0.0000 C   0  0  0  0  0  0  0  0  0  0  0  0
    8.8000    1.3856    0.0000 H   0  0  0  0  0  0  0  0  0  0  0  0
    6.4000    0.0000    0.0000 C   0  0  0  0  0  0  0  0  0  0  0  0
    7.2000   -1.3856    0.0000 H   0  0  0  0  0  0  0  0  0  0  0  0
    4.8000    0.0000    0.0000 C   0  0  0  0  0  0  0  0  0  0  0  0
    4.0000   -1.3856    0.0000 H   0  0  0  0  0  0  0  0  0  0  0  0
  1  2  2  0  0  0  0
  2  3  1  0  0  0  0
  3  4  1  0  0  0  0
  3  5  1  0  0  0  0
  5  6  1  0  0  0  0
  6  7  1  0  0  0  0
  6  8  1  0  0  0  0
  6  9  1  0  0  0  0
  5 10  1  0  0  0  0
 10 11  1  0  0  0  0
 10 12  1  0  0  0  0
 10 13  1  0  0  0  0
  5 14  1  0  0  0  0
 14 15  3  0  0  0  0
 15 16  1  0  0  0  0
  2 17  1  0  0  0  0
 17 18  1  0  0  0  0
 18 19  1  0  0  0  0
 18 20  2  0  0  0  0
 20 21  1  0  0  0  0
 20 22  1  0  0  0  0
 22 23  1  0  0  0  0
 22 24  2  0  0  0  0
 24 25  1  0  0  0  0
 24 26  1  0  0  0  0
 26 17  2  0  0  0  0
 26 27  1  0  0  0  0
M  END
> <ChemID>
100624

> <source_casrn>
33244-86-9

> <CAS>
33244-86-9

> <SMILES>
CC(C)(C#C)NC(=O)c1ccccc1

> <NAME>
N-(1,1-DIMETHYL-2-PROPYNYL)BENZAMIDE

> <preferred_name>
N-(1,1-dimethyl-2-propynyl)benzamide

> <iupac>
N-(2-methylbut-3-yn-2-yl)benzamide

> <MPID>
99880

> <dsstox_substance_id>
DTXSID20186895

> <Canonical_QSARr>
CC(C)(C#C)NC(=O)c1ccccc1

> <InChI_Code_QSARr>
InChI=1S/C12H13NO/c1-4-12(2,3)13-11(14)10-8-6-5-7-9-10/h1,5-9H,2-3H3,(H,13,14)

> <InChI Key_QSARr>
IZBRKPDCFBAIKG-UHFFFAOYSA-N

> <LogKOC>
1.54

$$$$
100626
  -INDIGO-08031722282D

 42 42  0  0  0  0  0  0  0  0999 V2000
    4.1570   -0.8000    0.0000 C   0  0  0  0  0  0  0  0  0  0  0  0
    5.3825    0.2285    0.0000 N   0  0  0  0  0  0  0  0  0  0  0  0
    5.1049    1.8042    0.0000 O   0  0  0  0  0  0  0  0  0  0  0  0
    6.8861   -0.3188    0.0000 O   0  0  0  0  0  0  0  0  0  0  0  0
    4.1570   -2.3999    0.0000 C   0  0  0  0  0  0  0  0  0  0  0  0
    5.5425   -3.2000    0.0000 N   0  0  0  0  0  0  0  0  0  0  0  0
    5.5425   -4.8000    0.0000 H   0  0  0  0  0  0  0  0  0  0  0  0
    6.9282   -2.3999    0.0000 C   0  0  0  0  0  0  0  0  0  0  0  0
    5.8998   -1.1743    0.0000 H   0  0  0  0  0  0  0  0  0  0  0  0
    7.9566   -3.6256    0.0000 C   0  0  0  0  0  0  0  0  0  0  0  0
    6.8757   -4.8053    0.0000 H   0  0  0  0  0  0  0  0  0  0  0  0
    8.0265   -5.2241    0.0000 H   0  0  0  0  0  0  0  0  0  0  0  0
    9.5324   -3.3479    0.0000 C   0  0  0  0  0  0  0  0  0  0  0  0
   10.5608   -4.5736    0.0000 H   0  0  0  0  0  0  0  0  0  0  0  0
   11.1080   -3.0700    0.0000 H   0  0  0  0  0  0  0  0  0  0  0  0
    8.9850   -4.8513    0.0000 H   0  0  0  0  0  0  0  0  0  0  0  0
    8.1540   -1.3716    0.0000 C   0  0  0  0  0  0  0  0  0  0  0  0
    9.3795   -0.3430    0.0000 H   0  0  0  0  0  0  0  0  0  0  0  0
    9.6574   -1.9187    0.0000 H   0  0  0  0  0  0  0  0  0  0  0  0
    7.8761    0.2041    0.0000 H   0  0  0  0  0  0  0  0  0  0  0  0
    2.7712   -3.2000    0.0000 C   0  0  0  0  0  0  0  0  0  0  0  0
    2.7712   -4.8000    0.0000 N   0  0  0  0  0  0  0  0  0  0  0  0
    1.3857   -5.6000    0.0000 O   0  0  0  0  0  0  0  0  0  0  0  0
    4.1570   -5.6000    0.0000 O   0  0  0  0  0  0  0  0  0  0  0  0
    1.3857   -2.3999    0.0000 C   0  0  0  0  0  0  0  0  0  0  0  0
    0.0000   -3.2000    0.0000 H   0  0  0  0  0  0  0  0  0  0  0  0
    1.3857   -0.8000    0.0000 C   0  0  0  0  0  0  0  0  0  0  0  0
    0.0000   -0.0000    0.0000 C   0  0  0  0  0  0  0  0  0  0  0  0
   -1.3857    0.8000    0.0000 C   0  0  0  0  0  0  0  0  0  0  0  0
   -2.7713    1.6000    0.0000 H   0  0  0  0  0  0  0  0  0  0  0  0
   -1.6634    2.3757    0.0000 H   0  0  0  0  0  0  0  0  0  0  0  0
   -2.8891    0.2528    0.0000 H   0  0  0  0  0  0  0  0  0  0  0  0
    0.8001    1.3856    0.0000 C   0  0  0  0  0  0  0  0  0  0  0  0
    1.8285    2.6113    0.0000 H   0  0  0  0  0  0  0  0  0  0  0  0
    0.2527    2.8891    0.0000 H   0  0  0  0  0  0  0  0  0  0  0  0
   -0.7757    1.6635    0.0000 H   0  0  0  0  0  0  0  0  0  0  0  0
   -0.8001   -1.3857    0.0000 C   0  0  0  0  0  0  0  0  0  0  0  0
   -1.3473   -2.8892    0.0000 H   0  0  0  0  0  0  0  0  0  0  0  0
   -2.3757   -1.6635    0.0000 H   0  0  0  0  0  0  0  0  0  0  0  0
   -1.8285   -0.1600    0.0000 H   0  0  0  0  0  0  0  0  0  0  0  0
    2.7712   -0.0000    0.0000 C   0  0  0  0  0  0  0  0  0  0  0  0
    2.7712    1.6000    0.0000 H   0  0  0  0  0  0  0  0  0  0  0  0
  1  2  1  0  0  0  0
  2  3  1  0  0  0  0
  2  4  2  0  0  0  0
  1  5  1  0  0  0  0
  5  6  1  0  0  0  0
  6  7  1  0  0  0  0
  6  8  1  0  0  0  0
  8  9  1  0  0  0  0
  8 10  1  0  0  0  0
 10 11  1  0  0  0  0
 10 12  1  0  0  0  0
 10 13  1  0  0  0  0
 13 14  1  0  0  0  0
 13 15  1  0  0  0  0
 13 16  1  0  0  0  0
  8 17  1  0  0  0  0
 17 18  1  0  0  0  0
 17 19  1  0  0  0  0
 17 20  1  0  0  0  0
  5 21  2  0  0  0  0
 21 22  1  0  0  0  0
 22 23  1  0  0  0  0
 22 24  2  0  0  0  0
 21 25  1  0  0  0  0
 25 26  1  0  0  0  0
 25 27  2  0  0  0  0
 27 28  1  0  0  0  0
 28 29  1  0  0  0  0
 29 30  1  0  0  0  0
 29 31  1  0  0  0  0
 29 32  1  0  0  0  0
 28 33  1  0  0  0  0
 33 34  1  0  0  0  0
 33 35  1  0  0  0  0
 33 36  1  0  0  0  0
 28 37  1  0  0  0  0
 37 38  1  0  0  0  0
 37 39  1  0  0  0  0
 37 40  1  0  0  0  0
 27 41  1  0  0  0  0
 41  1  2  0  0  0  0
 41 42  1  0  0  0  0
M  CHG  4   2   1   3  -1  22   1  23  -1
M  END
> <ChemID>
100626

> <source_casrn>
33629-47-9

> <CAS>
33629-47-9

> <SMILES>
CCC(C)Nc1c(cc(cc1[N+]([O-])=O)C(C)(C)C)[N+]([O-])=O

> <NAME>
BUTRALIN

> <preferred_name>
Butralin

> <iupac>
N-(butan-2-yl)-4-tert-butyl-2,6-dinitroaniline

> <MPID>
99882

> <dsstox_substance_id>
DTXSID3032337

> <Canonical_QSARr>
CCC(C)Nc1c(cc(cc1[N+]([O-])=O)C(C)(C)C)[N+]([O-])=O

> <InChI_Code_QSARr>
InChI=1S/C14H21N3O4/c1-6-9(2)15-13-11(16(18)19)7-10(14(3,4)5)8-12(13)17(20)21/h7-9,15H,6H2,1-5H3

> <InChI Key_QSARr>
SPNQRCTZKIBOAX-UHFFFAOYSA-N

> <LogKOC>
3.98

$$$$
100627
  -INDIGO-08031722282D

 45 45  0  0  0  0  0  0  0  0999 V2000
    2.4001    1.3857    0.0000 C   0  0  0  0  0  0  0  0  0  0  0  0
    2.1222    2.9613    0.0000 N   0  0  0  0  0  0  0  0  0  0  0  0
    3.3479    3.9898    0.0000 O   0  0  0  0  0  0  0  0  0  0  0  0
    0.6186    3.5085    0.0000 O   0  0  0  0  0  0  0  0  0  0  0  0
    1.5999    0.0000    0.0000 C   0  0  0  0  0  0  0  0  0  0  0  0
    0.0000    0.0000    0.0000 N   0  0  0  0  0  0  0  0  0  0  0  0
   -0.8000    1.3857    0.0000 C   0  0  0  0  0  0  0  0  0  0  0  0
   -0.5910    2.9719    0.0000 H   0  0  0  0  0  0  0  0  0  0  0  0
    0.4693    2.3597    0.0000 H   0  0  0  0  0  0  0  0  0  0  0  0
   -2.4001    1.3857    0.0000 C   0  0  0  0  0  0  0  0  0  0  0  0
   -2.3303   -0.2128    0.0000 H   0  0  0  0  0  0  0  0  0  0  0  0
   -3.6694    0.4117    0.0000 H   0  0  0  0  0  0  0  0  0  0  0  0
   -3.2001    2.7713    0.0000 C   0  0  0  0  0  0  0  0  0  0  0  0
   -4.0000    4.1569    0.0000 H   0  0  0  0  0  0  0  0  0  0  0  0
   -4.8000    2.7713    0.0000 H   0  0  0  0  0  0  0  0  0  0  0  0
   -2.4001    4.1569    0.0000 H   0  0  0  0  0  0  0  0  0  0  0  0
   -0.8000   -1.3856    0.0000 C   0  0  0  0  0  0  0  0  0  0  0  0
    0.4693   -2.3597    0.0000 H   0  0  0  0  0  0  0  0  0  0  0  0
   -0.5910   -2.9720    0.0000 H   0  0  0  0  0  0  0  0  0  0  0  0
   -2.1857   -2.1857    0.0000 C   0  0  0  0  0  0  0  0  0  0  0  0
   -3.7719   -1.9768    0.0000 H   0  0  0  0  0  0  0  0  0  0  0  0
   -3.1596   -0.9163    0.0000 H   0  0  0  0  0  0  0  0  0  0  0  0
   -2.1857   -3.7857    0.0000 C   0  0  0  0  0  0  0  0  0  0  0  0
   -2.1857   -5.3856    0.0000 H   0  0  0  0  0  0  0  0  0  0  0  0
   -3.5713   -4.5857    0.0000 H   0  0  0  0  0  0  0  0  0  0  0  0
   -0.8000   -4.5857    0.0000 H   0  0  0  0  0  0  0  0  0  0  0  0
    2.4001   -1.3856    0.0000 C   0  0  0  0  0  0  0  0  0  0  0  0
    2.1222   -2.9614    0.0000 N   0  0  0  0  0  0  0  0  0  0  0  0
    0.6186   -3.5086    0.0000 O   0  0  0  0  0  0  0  0  0  0  0  0
    3.3479   -3.9898    0.0000 O   0  0  0  0  0  0  0  0  0  0  0  0
    4.0000   -1.3856    0.0000 C   0  0  0  0  0  0  0  0  0  0  0  0
    4.8000   -2.7712    0.0000 H   0  0  0  0  0  0  0  0  0  0  0  0
    4.8000    0.0000    0.0000 C   0  0  0  0  0  0  0  0  0  0  0  0
    6.3999    0.0000    0.0000 C   0  0  0  0  0  0  0  0  0  0  0  0
    6.3999   -1.6001    0.0000 H   0  0  0  0  0  0  0  0  0  0  0  0
    7.9758   -0.2778    0.0000 C   0  0  0  0  0  0  0  0  0  0  0  0
    9.5514   -0.5556    0.0000 H   0  0  0  0  0  0  0  0  0  0  0  0
    8.5230   -1.7814    0.0000 H   0  0  0  0  0  0  0  0  0  0  0  0
    9.0041    0.9478    0.0000 H   0  0  0  0  0  0  0  0  0  0  0  0
    6.3999    1.6000    0.0000 C   0  0  0  0  0  0  0  0  0  0  0  0
    6.3999    3.2000    0.0000 H   0  0  0  0  0  0  0  0  0  0  0  0
    7.7857    2.4000    0.0000 H   0  0  0  0  0  0  0  0  0  0  0  0
    7.7857    0.8000    0.0000 H   0  0  0  0  0  0  0  0  0  0  0  0
    4.0000    1.3857    0.0000 C   0  0  0  0  0  0  0  0  0  0  0  0
    4.8000    2.7713    0.0000 H   0  0  0  0  0  0  0  0  0  0  0  0
  1  2  1  0  0  0  0
  2  3  1  0  0  0  0
  2  4  2  0  0  0  0
  1  5  1  0  0  0  0
  5  6  1  0  0  0  0
  6  7  1  0  0  0  0
  7  8  1  0  0  0  0
  7  9  1  0  0  0  0
  7 10  1  0  0  0  0
 10 11  1  0  0  0  0
 10 12  1  0  0  0  0
 10 13  1  0  0  0  0
 13 14  1  0  0  0  0
 13 15  1  0  0  0  0
 13 16  1  0  0  0  0
  6 17  1  0  0  0  0
 17 18  1  0  0  0  0
 17 19  1  0  0  0  0
 17 20  1  0  0  0  0
 20 21  1  0  0  0  0
 20 22  1  0  0  0  0
 20 23  1  0  0  0  0
 23 24  1  0  0  0  0
 23 25  1  0  0  0  0
 23 26  1  0  0  0  0
  5 27  2  0  0  0  0
 27 28  1  0  0  0  0
 28 29  1  0  0  0  0
 28 30  2  0  0  0  0
 27 31  1  0  0  0  0
 31 32  1  0  0  0  0
 31 33  2  0  0  0  0
 33 34  1  0  0  0  0
 34 35  1  0  0  0  0
 34 36  1  0  0  0  0
 36 37  1  0  0  0  0
 36 38  1  0  0  0  0
 36 39  1  0  0  0  0
 34 40  1  0  0  0  0
 40 41  1  0  0  0  0
 40 42  1  0  0  0  0
 40 43  1  0  0  0  0
 33 44  1  0  0  0  0
 44  1  2  0  0  0  0
 44 45  1  0  0  0  0
M  CHG  4   2   1   3  -1  28   1  29  -1
M  END
> <ChemID>
100627

> <source_casrn>
33820-53-0

> <CAS>
33820-53-0

> <SMILES>
CC(C)c1cc(c(c(c1)[N+]([O-])=O)N(CCC)CCC)[N+]([O-])=O

> <NAME>
ISOPROPALIN

> <preferred_name>
Isopropalin

> <iupac>
2,6-dinitro-4-(propan-2-yl)-N,N-dipropylaniline

> <MPID>
99883

> <dsstox_substance_id>
DTXSID8024157

> <Canonical_QSARr>
CC(C)c1cc(c(c(c1)[N+]([O-])=O)N(CCC)CCC)[N+]([O-])=O

> <InChI_Code_QSARr>
InChI=1S/C15H23N3O4/c1-5-7-16(8-6-2)15-13(17(19)20)9-12(11(3)4)10-14(15)18(21)22/h9-11H,5-8H2,1-4H3

> <InChI Key_QSARr>
NEKOXWSIMFDGMA-UHFFFAOYSA-N

> <LogKOC>
4.0

$$$$
100628
  -INDIGO-08031722282D

 22 23  0  0  0  0  0  0  0  0999 V2000
   -0.0001    0.0000    0.0000 C   0  0  0  0  0  0  0  0  0  0  0  0
    1.6001   -0.0000    0.0000 C   0  0  0  0  0  0  0  0  0  0  0  0
    2.4001   -1.3856    0.0000 C   0  0  0  0  0  0  0  0  0  0  0  0
    1.6001   -2.7713    0.0000 Cl  0  0  0  0  0  0  0  0  0  0  0  0
    4.0000   -1.3856    0.0000 C   0  0  0  0  0  0  0  0  0  0  0  0
    4.8000   -2.7713    0.0000 H   0  0  0  0  0  0  0  0  0  0  0  0
    4.8000    0.0000    0.0000 C   0  0  0  0  0  0  0  0  0  0  0  0
    6.4000    0.0000    0.0000 Cl  0  0  0  0  0  0  0  0  0  0  0  0
    4.0000    1.3856    0.0000 C   0  0  0  0  0  0  0  0  0  0  0  0
    4.8000    2.7713    0.0000 H   0  0  0  0  0  0  0  0  0  0  0  0
    2.4001    1.3856    0.0000 C   0  0  0  0  0  0  0  0  0  0  0  0
    1.6001    2.7713    0.0000 Cl  0  0  0  0  0  0  0  0  0  0  0  0
   -0.8001    1.3856    0.0000 C   0  0  0  0  0  0  0  0  0  0  0  0
   -0.0001    2.7713    0.0000 Cl  0  0  0  0  0  0  0  0  0  0  0  0
   -2.4000    1.3856    0.0000 C   0  0  0  0  0  0  0  0  0  0  0  0
   -3.2000    2.7713    0.0000 H   0  0  0  0  0  0  0  0  0  0  0  0
   -3.2000    0.0000    0.0000 C   0  0  0  0  0  0  0  0  0  0  0  0
   -4.8000   -0.0000    0.0000 Cl  0  0  0  0  0  0  0  0  0  0  0  0
   -2.4000   -1.3856    0.0000 C   0  0  0  0  0  0  0  0  0  0  0  0
   -3.2000   -2.7713    0.0000 H   0  0  0  0  0  0  0  0  0  0  0  0
   -0.8001   -1.3856    0.0000 C   0  0  0  0  0  0  0  0  0  0  0  0
   -0.0001   -2.7713    0.0000 Cl  0  0  0  0  0  0  0  0  0  0  0  0
  1  2  1  0  0  0  0
  2  3  1  0  0  0  0
  3  4  1  0  0  0  0
  3  5  2  0  0  0  0
  5  6  1  0  0  0  0
  5  7  1  0  0  0  0
  7  8  1  0  0  0  0
  7  9  2  0  0  0  0
  9 10  1  0  0  0  0
  9 11  1  0  0  0  0
 11  2  2  0  0  0  0
 11 12  1  0  0  0  0
  1 13  1  0  0  0  0
 13 14  1  0  0  0  0
 13 15  2  0  0  0  0
 15 16  1  0  0  0  0
 15 17  1  0  0  0  0
 17 18  1  0  0  0  0
 17 19  2  0  0  0  0
 19 20  1  0  0  0  0
 19 21  1  0  0  0  0
 21  1  2  0  0  0  0
 21 22  1  0  0  0  0
M  END
> <ChemID>
100628

> <source_casrn>
33979-03-2

> <CAS>
33979-03-2

> <SMILES>
Clc1cc(Cl)c(-c2c(Cl)cc(Cl)cc2Cl)c(Cl)c1

> <NAME>
2,2',4,4',6,6'-PCB

> <preferred_name>
2,2',4,4',6,6'-Hexachlorobiphenyl

> <iupac>
2,2',4,4',6,6'-hexachlorobiphenyl

> <MPID>
99884

> <dsstox_substance_id>
DTXSID3040302

> <Canonical_QSARr>
Clc1cc(Cl)c(-c2c(Cl)cc(Cl)cc2Cl)c(Cl)c1

> <InChI_Code_QSARr>
InChI=1S/C12H4Cl6/c13-5-1-7(15)11(8(16)2-5)12-9(17)3-6(14)4-10(12)18/h1-4H

> <InChI Key_QSARr>
ICOAEPDGFWLUTI-UHFFFAOYSA-N

> <LogKOC>
6.08

$$$$
100630
  -INDIGO-08031722282D

 38 38  0  0  0  0  0  0  0  0999 V2000
   -1.6635    2.3757    0.0000 C   0  0  0  0  0  0  0  0  0  0  0  0
   -0.6350    3.6013    0.0000 O   0  0  0  0  0  0  0  0  0  0  0  0
   -1.3857    0.7999    0.0000 N   0  0  0  0  0  0  0  0  0  0  0  0
   -2.7712    0.0001    0.0000 C   0  0  0  0  0  0  0  0  0  0  0  0
   -3.3836   -1.4782    0.0000 H   0  0  0  0  0  0  0  0  0  0  0  0
   -2.1590   -1.4782    0.0000 H   0  0  0  0  0  0  0  0  0  0  0  0
   -4.1569    0.7999    0.0000 O   0  0  0  0  0  0  0  0  0  0  0  0
   -5.5426    0.0001    0.0000 C   0  0  0  0  0  0  0  0  0  0  0  0
   -6.1548   -1.4782    0.0000 H   0  0  0  0  0  0  0  0  0  0  0  0
   -4.9303   -1.4782    0.0000 H   0  0  0  0  0  0  0  0  0  0  0  0
   -6.9281    0.7999    0.0000 C   0  0  0  0  0  0  0  0  0  0  0  0
   -8.3138    1.5999    0.0000 H   0  0  0  0  0  0  0  0  0  0  0  0
   -8.3138    0.0001    0.0000 H   0  0  0  0  0  0  0  0  0  0  0  0
   -6.9281    2.4000    0.0000 H   0  0  0  0  0  0  0  0  0  0  0  0
    0.0000    0.0001    0.0000 C   0  0  0  0  0  0  0  0  0  0  0  0
    1.3857    0.7999    0.0000 C   0  0  0  0  0  0  0  0  0  0  0  0
    1.3857    2.4000    0.0000 C   0  0  0  0  0  0  0  0  0  0  0  0
    0.4116    3.6694    0.0000 H   0  0  0  0  0  0  0  0  0  0  0  0
   -0.2008    2.6088    0.0000 H   0  0  0  0  0  0  0  0  0  0  0  0
    2.7712    3.2000    0.0000 C   0  0  0  0  0  0  0  0  0  0  0  0
    4.1569    4.0000    0.0000 H   0  0  0  0  0  0  0  0  0  0  0  0
    2.7712    4.8000    0.0000 H   0  0  0  0  0  0  0  0  0  0  0  0
    4.1569    2.4000    0.0000 H   0  0  0  0  0  0  0  0  0  0  0  0
    2.7712    0.0001    0.0000 C   0  0  0  0  0  0  0  0  0  0  0  0
    4.1569    0.7999    0.0000 H   0  0  0  0  0  0  0  0  0  0  0  0
    2.7712   -1.6000    0.0000 C   0  0  0  0  0  0  0  0  0  0  0  0
    4.1569   -2.4000    0.0000 H   0  0  0  0  0  0  0  0  0  0  0  0
    1.3857   -2.4000    0.0000 C   0  0  0  0  0  0  0  0  0  0  0  0
    1.3857   -4.0000    0.0000 H   0  0  0  0  0  0  0  0  0  0  0  0
    0.0000   -1.6000    0.0000 C   0  0  0  0  0  0  0  0  0  0  0  0
   -1.0285   -2.8257    0.0000 C   0  0  0  0  0  0  0  0  0  0  0  0
   -2.0569   -4.0514    0.0000 H   0  0  0  0  0  0  0  0  0  0  0  0
   -0.4812   -4.3292    0.0000 H   0  0  0  0  0  0  0  0  0  0  0  0
   -2.6041   -2.5478    0.0000 H   0  0  0  0  0  0  0  0  0  0  0  0
   -3.1670    2.9229    0.0000 C   0  0  0  0  0  0  0  0  0  0  0  0
   -4.6705    3.4702    0.0000 H   0  0  0  0  0  0  0  0  0  0  0  0
   -3.4449    4.4986    0.0000 H   0  0  0  0  0  0  0  0  0  0  0  0
   -4.3927    1.8944    0.0000 Cl  0  0  0  0  0  0  0  0  0  0  0  0
  1  2  2  0  0  0  0
  1  3  1  0  0  0  0
  3  4  1  0  0  0  0
  4  5  1  0  0  0  0
  4  6  1  0  0  0  0
  4  7  1  0  0  0  0
  7  8  1  0  0  0  0
  8  9  1  0  0  0  0
  8 10  1  0  0  0  0
  8 11  1  0  0  0  0
 11 12  1  0  0  0  0
 11 13  1  0  0  0  0
 11 14  1  0  0  0  0
  3 15  1  0  0  0  0
 15 16  1  0  0  0  0
 16 17  1  0  0  0  0
 17 18  1  0  0  0  0
 17 19  1  0  0  0  0
 17 20  1  0  0  0  0
 20 21  1  0  0  0  0
 20 22  1  0  0  0  0
 20 23  1  0  0  0  0
 16 24  2  0  0  0  0
 24 25  1  0  0  0  0
 24 26  1  0  0  0  0
 26 27  1  0  0  0  0
 26 28  2  0  0  0  0
 28 29  1  0  0  0  0
 28 30  1  0  0  0  0
 30 15  2  0  0  0  0
 30 31  1  0  0  0  0
 31 32  1  0  0  0  0
 31 33  1  0  0  0  0
 31 34  1  0  0  0  0
  1 35  1  0  0  0  0
 35 36  1  0  0  0  0
 35 37  1  0  0  0  0
 35 38  1  0  0  0  0
M  END
> <ChemID>
100630

> <source_casrn>
34256-82-1

> <CAS>
34256-82-1

> <SMILES>
Cc1cccc(CC)c1N(COCC)C(=O)CCl

> <NAME>
ACETOCHLOR

> <preferred_name>
Acetochlor

> <iupac>
2-chloro-N-(ethoxymethyl)-N-(2-ethyl-6-methylphenyl)acetamide

> <MPID>
99886

> <dsstox_substance_id>
DTXSID8023848

> <Canonical_QSARr>
Cc1cccc(CC)c1N(COCC)C(=O)CCl

> <InChI_Code_QSARr>
InChI=1S/C14H20ClNO2/c1-4-12-8-6-7-11(3)14(12)16(10-18-5-2)13(17)9-15/h6-8H,4-5,9-10H2,1-3H3

> <InChI Key_QSARr>
VTNQPKFIQCLBDU-UHFFFAOYSA-N

> <LogKOC>
2.32

$$$$
100632
  -INDIGO-08031722282D

 22 23  0  0  0  0  0  0  0  0999 V2000
   -0.0001    0.0000    0.0000 C   0  0  0  0  0  0  0  0  0  0  0  0
    1.6001   -0.0000    0.0000 C   0  0  0  0  0  0  0  0  0  0  0  0
    2.4001   -1.3856    0.0000 C   0  0  0  0  0  0  0  0  0  0  0  0
    1.6001   -2.7713    0.0000 H   0  0  0  0  0  0  0  0  0  0  0  0
    4.0000   -1.3856    0.0000 C   0  0  0  0  0  0  0  0  0  0  0  0
    4.8000   -2.7713    0.0000 H   0  0  0  0  0  0  0  0  0  0  0  0
    4.8000    0.0000    0.0000 C   0  0  0  0  0  0  0  0  0  0  0  0
    6.4000    0.0000    0.0000 Cl  0  0  0  0  0  0  0  0  0  0  0  0
    4.0000    1.3856    0.0000 C   0  0  0  0  0  0  0  0  0  0  0  0
    4.8000    2.7713    0.0000 H   0  0  0  0  0  0  0  0  0  0  0  0
    2.4001    1.3856    0.0000 C   0  0  0  0  0  0  0  0  0  0  0  0
    1.6001    2.7713    0.0000 H   0  0  0  0  0  0  0  0  0  0  0  0
   -0.8001    1.3856    0.0000 C   0  0  0  0  0  0  0  0  0  0  0  0
   -0.0001    2.7713    0.0000 Cl  0  0  0  0  0  0  0  0  0  0  0  0
   -2.4000    1.3856    0.0000 C   0  0  0  0  0  0  0  0  0  0  0  0
   -3.2000    2.7713    0.0000 H   0  0  0  0  0  0  0  0  0  0  0  0
   -3.2000    0.0000    0.0000 C   0  0  0  0  0  0  0  0  0  0  0  0
   -4.8000   -0.0000    0.0000 H   0  0  0  0  0  0  0  0  0  0  0  0
   -2.4000   -1.3856    0.0000 C   0  0  0  0  0  0  0  0  0  0  0  0
   -3.2000   -2.7713    0.0000 H   0  0  0  0  0  0  0  0  0  0  0  0
   -0.8001   -1.3856    0.0000 C   0  0  0  0  0  0  0  0  0  0  0  0
   -0.0001   -2.7713    0.0000 H   0  0  0  0  0  0  0  0  0  0  0  0
  1  2  1  0  0  0  0
  2  3  1  0  0  0  0
  3  4  1  0  0  0  0
  3  5  2  0  0  0  0
  5  6  1  0  0  0  0
  5  7  1  0  0  0  0
  7  8  1  0  0  0  0
  7  9  2  0  0  0  0
  9 10  1  0  0  0  0
  9 11  1  0  0  0  0
 11  2  2  0  0  0  0
 11 12  1  0  0  0  0
  1 13  1  0  0  0  0
 13 14  1  0  0  0  0
 13 15  2  0  0  0  0
 15 16  1  0  0  0  0
 15 17  1  0  0  0  0
 17 18  1  0  0  0  0
 17 19  2  0  0  0  0
 19 20  1  0  0  0  0
 19 21  1  0  0  0  0
 21  1  2  0  0  0  0
 21 22  1  0  0  0  0
M  END
> <ChemID>
100632

> <source_casrn>
34883-43-7

> <CAS>
34883-43-7

> <SMILES>
Clc1ccc(cc1)-c1ccccc1Cl

> <NAME>
2,4'-DICHLOROBIPHENYL

> <preferred_name>
2,4'-Dichlorobiphenyl

> <iupac>
2,4'-dichlorobiphenyl

> <MPID>
99887

> <dsstox_substance_id>
DTXSID0022511

> <Canonical_QSARr>
Clc1ccc(cc1)-c1ccccc1Cl

> <InChI_Code_QSARr>
InChI=1S/C12H8Cl2/c13-10-7-5-9(6-8-10)11-3-1-2-4-12(11)14/h1-8H

> <InChI Key_QSARr>
UFNIBRDIUNVOMX-UHFFFAOYSA-N

> <LogKOC>
4.34

$$$$
100633
  -INDIGO-08031722282D

 22 23  0  0  0  0  0  0  0  0999 V2000
   -0.0001    0.0000    0.0000 C   0  0  0  0  0  0  0  0  0  0  0  0
    1.6001   -0.0000    0.0000 C   0  0  0  0  0  0  0  0  0  0  0  0
    2.4001   -1.3856    0.0000 C   0  0  0  0  0  0  0  0  0  0  0  0
    1.6001   -2.7713    0.0000 Cl  0  0  0  0  0  0  0  0  0  0  0  0
    4.0000   -1.3856    0.0000 C   0  0  0  0  0  0  0  0  0  0  0  0
    4.8000   -2.7713    0.0000 H   0  0  0  0  0  0  0  0  0  0  0  0
    4.8000    0.0000    0.0000 C   0  0  0  0  0  0  0  0  0  0  0  0
    6.4000    0.0000    0.0000 Cl  0  0  0  0  0  0  0  0  0  0  0  0
    4.0000    1.3856    0.0000 C   0  0  0  0  0  0  0  0  0  0  0  0
    4.8000    2.7713    0.0000 Cl  0  0  0  0  0  0  0  0  0  0  0  0
    2.4001    1.3856    0.0000 C   0  0  0  0  0  0  0  0  0  0  0  0
    1.6001    2.7713    0.0000 H   0  0  0  0  0  0  0  0  0  0  0  0
   -0.8001    1.3856    0.0000 C   0  0  0  0  0  0  0  0  0  0  0  0
   -0.0001    2.7713    0.0000 H   0  0  0  0  0  0  0  0  0  0  0  0
   -2.4000    1.3856    0.0000 C   0  0  0  0  0  0  0  0  0  0  0  0
   -3.2000    2.7713    0.0000 Cl  0  0  0  0  0  0  0  0  0  0  0  0
   -3.2000    0.0000    0.0000 C   0  0  0  0  0  0  0  0  0  0  0  0
   -4.8000   -0.0000    0.0000 Cl  0  0  0  0  0  0  0  0  0  0  0  0
   -2.4000   -1.3856    0.0000 C   0  0  0  0  0  0  0  0  0  0  0  0
   -3.2000   -2.7713    0.0000 H   0  0  0  0  0  0  0  0  0  0  0  0
   -0.8001   -1.3856    0.0000 C   0  0  0  0  0  0  0  0  0  0  0  0
   -0.0001   -2.7713    0.0000 Cl  0  0  0  0  0  0  0  0  0  0  0  0
  1  2  1  0  0  0  0
  2  3  1  0  0  0  0
  3  4  1  0  0  0  0
  3  5  2  0  0  0  0
  5  6  1  0  0  0  0
  5  7  1  0  0  0  0
  7  8  1  0  0  0  0
  7  9  2  0  0  0  0
  9 10  1  0  0  0  0
  9 11  1  0  0  0  0
 11  2  2  0  0  0  0
 11 12  1  0  0  0  0
  1 13  1  0  0  0  0
 13 14  1  0  0  0  0
 13 15  2  0  0  0  0
 15 16  1  0  0  0  0
 15 17  1  0  0  0  0
 17 18  1  0  0  0  0
 17 19  2  0  0  0  0
 19 20  1  0  0  0  0
 19 21  1  0  0  0  0
 21  1  2  0  0  0  0
 21 22  1  0  0  0  0
M  END
> <ChemID>
100633

> <source_casrn>
35065-27-1

> <CAS>
35065-27-1

> <SMILES>
Clc1cc(Cl)c(Cl)cc1-c1cc(Cl)c(Cl)cc1Cl

> <NAME>
2,4,5,2',4',5'-HEXACHLOROBIPHENYL

> <preferred_name>
2,2',4,4',5,5'-Hexachlorobiphenyl

> <iupac>
2,2',4,4',5,5'-hexachlorobiphenyl

> <MPID>
99888

> <dsstox_substance_id>
DTXSID2032180

> <Canonical_QSARr>
Clc1cc(Cl)c(Cl)cc1-c1cc(Cl)c(Cl)cc1Cl

> <InChI_Code_QSARr>
InChI=1S/C12H4Cl6/c13-7-3-11(17)9(15)1-5(7)6-2-10(16)12(18)4-8(6)14/h1-4H

> <InChI Key_QSARr>
MVWHGTYKUMDIHL-UHFFFAOYSA-N

> <LogKOC>
5.58

$$$$
100635
  -INDIGO-08031722282D

 30 31  0  0  0  0  0  0  0  0999 V2000
    1.6000    0.0000    0.0000 C   0  0  0  0  0  0  0  0  0  0  0  0
    2.4001   -1.3857    0.0000 N   0  0  0  0  0  0  0  0  0  0  0  0
    1.6000   -2.7713    0.0000 H   0  0  0  0  0  0  0  0  0  0  0  0
    3.9999   -1.3857    0.0000 C   0  0  0  0  0  0  0  0  0  0  0  0
    4.8000   -2.7713    0.0000 N   0  0  0  0  0  0  0  0  0  0  0  0
    3.9999   -4.1569    0.0000 H   0  0  0  0  0  0  0  0  0  0  0  0
    6.4001   -2.7713    0.0000 C   0  0  0  0  0  0  0  0  0  0  0  0
    7.1999   -4.1569    0.0000 C   0  0  0  0  0  0  0  0  0  0  0  0
    6.4001   -5.5426    0.0000 H   0  0  0  0  0  0  0  0  0  0  0  0
    8.8001   -4.1569    0.0000 C   0  0  0  0  0  0  0  0  0  0  0  0
    9.6001   -5.5426    0.0000 H   0  0  0  0  0  0  0  0  0  0  0  0
    9.6001   -2.7713    0.0000 C   0  0  0  0  0  0  0  0  0  0  0  0
   11.2000   -2.7713    0.0000 Cl  0  0  0  0  0  0  0  0  0  0  0  0
    8.8001   -1.3856    0.0000 C   0  0  0  0  0  0  0  0  0  0  0  0
    9.6001    0.0000    0.0000 H   0  0  0  0  0  0  0  0  0  0  0  0
    7.1999   -1.3856    0.0000 C   0  0  0  0  0  0  0  0  0  0  0  0
    6.3999    0.0000    0.0000 H   0  0  0  0  0  0  0  0  0  0  0  0
    4.8000    0.0000    0.0000 O   0  0  0  0  0  0  0  0  0  0  0  0
   -0.0001    0.0000    0.0000 C   0  0  0  0  0  0  0  0  0  0  0  0
   -0.7999    1.3857    0.0000 C   0  0  0  0  0  0  0  0  0  0  0  0
   -0.0001    2.7713    0.0000 F   0  0  0  0  0  0  0  0  0  0  0  0
   -2.4001    1.3857    0.0000 C   0  0  0  0  0  0  0  0  0  0  0  0
   -3.2001    2.7713    0.0000 H   0  0  0  0  0  0  0  0  0  0  0  0
   -3.2001    0.0000    0.0000 C   0  0  0  0  0  0  0  0  0  0  0  0
   -4.8000    0.0000    0.0000 H   0  0  0  0  0  0  0  0  0  0  0  0
   -2.4001   -1.3856    0.0000 C   0  0  0  0  0  0  0  0  0  0  0  0
   -3.2001   -2.7713    0.0000 H   0  0  0  0  0  0  0  0  0  0  0  0
   -0.7999   -1.3856    0.0000 C   0  0  0  0  0  0  0  0  0  0  0  0
    0.0001   -2.7713    0.0000 F   0  0  0  0  0  0  0  0  0  0  0  0
    2.4001    1.3856    0.0000 O   0  0  0  0  0  0  0  0  0  0  0  0
  1  2  1  0  0  0  0
  2  3  1  0  0  0  0
  2  4  1  0  0  0  0
  4  5  1  0  0  0  0
  5  6  1  0  0  0  0
  5  7  1  0  0  0  0
  7  8  1  0  0  0  0
  8  9  1  0  0  0  0
  8 10  2  0  0  0  0
 10 11  1  0  0  0  0
 10 12  1  0  0  0  0
 12 13  1  0  0  0  0
 12 14  2  0  0  0  0
 14 15  1  0  0  0  0
 14 16  1  0  0  0  0
 16  7  2  0  0  0  0
 16 17  1  0  0  0  0
  4 18  2  0  0  0  0
  1 19  1  0  0  0  0
 19 20  1  0  0  0  0
 20 21  1  0  0  0  0
 20 22  2  0  0  0  0
 22 23  1  0  0  0  0
 22 24  1  0  0  0  0
 24 25  1  0  0  0  0
 24 26  2  0  0  0  0
 26 27  1  0  0  0  0
 26 28  1  0  0  0  0
 28 19  2  0  0  0  0
 28 29  1  0  0  0  0
  1 30  2  0  0  0  0
M  END
> <ChemID>
100635

> <source_casrn>
35367-38-5

> <CAS>
35367-38-5

> <SMILES>
O=C(Nc1ccc(Cl)cc1)NC(=O)c1c(F)cccc1F

> <NAME>
DIFLUBENZURON

> <preferred_name>
Diflubenzuron

> <iupac>
N-[(4-chlorophenyl)carbamoyl]-2,6-difluorobenzamide

> <MPID>
99890

> <dsstox_substance_id>
DTXSID1024049

> <Canonical_QSARr>
O=C(Nc1ccc(Cl)cc1)NC(=O)c1c(F)cccc1F

> <InChI_Code_QSARr>
InChI=1S/C14H9ClF2N2O2/c15-8-4-6-9(7-5-8)18-14(21)19-13(20)12-10(16)2-1-3-11(12)17/h1-7H,(H2,18,19,20,21)

> <InChI Key_QSARr>
QQQYTWIFVNKMRW-UHFFFAOYSA-N

> <LogKOC>
3.83

$$$$
100636
  -INDIGO-08031722282D

 37 37  0  0  0  0  0  0  0  0999 V2000
    4.1569   -0.8000    0.0000 P   0  0  0  0  0  0  0  0  0  0  0  0
    4.1569    0.8000    0.0000 S   0  0  0  0  0  0  0  0  0  0  0  0
    5.5427    0.0000    0.0000 O   0  0  0  0  0  0  0  0  0  0  0  0
    6.9283   -0.8000    0.0000 C   0  0  0  0  0  0  0  0  0  0  0  0
    6.9283   -2.4000    0.0000 C   0  0  0  0  0  0  0  0  0  0  0  0
    5.5427   -3.2000    0.0000 H   0  0  0  0  0  0  0  0  0  0  0  0
    8.3138   -3.2000    0.0000 C   0  0  0  0  0  0  0  0  0  0  0  0
    8.3138   -4.8000    0.0000 H   0  0  0  0  0  0  0  0  0  0  0  0
    9.6994   -2.4000    0.0000 C   0  0  0  0  0  0  0  0  0  0  0  0
   11.0853   -3.2000    0.0000 S   0  0  0  0  0  0  0  0  0  0  0  0
   12.4708   -2.4000    0.0000 C   0  0  0  0  0  0  0  0  0  0  0  0
   13.8564   -3.2000    0.0000 H   0  0  0  0  0  0  0  0  0  0  0  0
   13.8564   -1.6000    0.0000 H   0  0  0  0  0  0  0  0  0  0  0  0
   12.4708   -4.0000    0.0000 H   0  0  0  0  0  0  0  0  0  0  0  0
    9.6994   -0.8000    0.0000 C   0  0  0  0  0  0  0  0  0  0  0  0
   11.0853    0.0000    0.0000 H   0  0  0  0  0  0  0  0  0  0  0  0
    8.3138    0.0000    0.0000 C   0  0  0  0  0  0  0  0  0  0  0  0
    8.3138    1.6000    0.0000 H   0  0  0  0  0  0  0  0  0  0  0  0
    2.7713    0.0000    0.0000 S   0  0  0  0  0  0  0  0  0  0  0  0
    1.3857   -0.8000    0.0000 C   0  0  0  0  0  0  0  0  0  0  0  0
    1.9979   -2.2782    0.0000 H   0  0  0  0  0  0  0  0  0  0  0  0
    0.7735   -2.2782    0.0000 H   0  0  0  0  0  0  0  0  0  0  0  0
    0.0001    0.0000    0.0000 C   0  0  0  0  0  0  0  0  0  0  0  0
   -0.6124    1.4782    0.0000 H   0  0  0  0  0  0  0  0  0  0  0  0
    0.6124    1.4782    0.0000 H   0  0  0  0  0  0  0  0  0  0  0  0
   -1.3857   -0.8000    0.0000 C   0  0  0  0  0  0  0  0  0  0  0  0
   -2.7713    0.0000    0.0000 H   0  0  0  0  0  0  0  0  0  0  0  0
   -2.7713   -1.6000    0.0000 H   0  0  0  0  0  0  0  0  0  0  0  0
   -1.3857    0.8000    0.0000 H   0  0  0  0  0  0  0  0  0  0  0  0
    2.7713   -1.6000    0.0000 O   0  0  0  0  0  0  0  0  0  0  0  0
    2.7713   -3.2000    0.0000 C   0  0  0  0  0  0  0  0  0  0  0  0
    4.3576   -3.4089    0.0000 H   0  0  0  0  0  0  0  0  0  0  0  0
    3.7453   -4.4694    0.0000 H   0  0  0  0  0  0  0  0  0  0  0  0
    1.3857   -4.0000    0.0000 C   0  0  0  0  0  0  0  0  0  0  0  0
    0.0001   -4.8000    0.0000 H   0  0  0  0  0  0  0  0  0  0  0  0
    1.3857   -5.6000    0.0000 H   0  0  0  0  0  0  0  0  0  0  0  0
    0.0001   -3.2000    0.0000 H   0  0  0  0  0  0  0  0  0  0  0  0
  1  2  2  0  0  0  0
  1  3  1  0  0  0  0
  3  4  1  0  0  0  0
  4  5  1  0  0  0  0
  5  6  1  0  0  0  0
  5  7  2  0  0  0  0
  7  8  1  0  0  0  0
  7  9  1  0  0  0  0
  9 10  1  0  0  0  0
 10 11  1  0  0  0  0
 11 12  1  0  0  0  0
 11 13  1  0  0  0  0
 11 14  1  0  0  0  0
  9 15  2  0  0  0  0
 15 16  1  0  0  0  0
 15 17  1  0  0  0  0
 17  4  2  0  0  0  0
 17 18  1  0  0  0  0
  1 19  1  0  0  0  0
 19 20  1  0  0  0  0
 20 21  1  0  0  0  0
 20 22  1  0  0  0  0
 20 23  1  0  0  0  0
 23 24  1  0  0  0  0
 23 25  1  0  0  0  0
 23 26  1  0  0  0  0
 26 27  1  0  0  0  0
 26 28  1  0  0  0  0
 26 29  1  0  0  0  0
  1 30  1  0  0  0  0
 30 31  1  0  0  0  0
 31 32  1  0  0  0  0
 31 33  1  0  0  0  0
 31 34  1  0  0  0  0
 34 35  1  0  0  0  0
 34 36  1  0  0  0  0
 34 37  1  0  0  0  0
M  END
> <ChemID>
100636

> <source_casrn>
35400-43-2

> <CAS>
35400-43-2

> <SMILES>
CSc1ccc(cc1)OP(=S)(OCC)SCCC

> <NAME>
SULPROFOS

> <preferred_name>
Sulprofos

> <iupac>
O-ethyl O-[4-(methylsulfanyl)phenyl] S-propyl phosphorodithioate

> <MPID>
99891

> <dsstox_substance_id>
DTXSID8032675

> <Canonical_QSARr>
CSc1ccc(cc1)OP(=S)(OCC)SCCC

> <InChI_Code_QSARr>
InChI=1S/C12H19O2PS3/c1-4-10-18-15(16,13-5-2)14-11-6-8-12(17-3)9-7-11/h6-9H,4-5,10H2,1-3H3

> <InChI Key_QSARr>
JXHJNEJVUNHLKO-UHFFFAOYSA-N

> <LogKOC>
4.08

$$$$
100637
  -INDIGO-08031722282D

 33 34  0  0  0  0  0  0  0  0999 V2000
   -0.8001   -1.3857    0.0000 C   0  0  0  0  0  0  0  0  0  0  0  0
    0.0000   -0.0000    0.0000 C   0  0  0  0  0  0  0  0  0  0  0  0
    1.3856   -0.8000    0.0000 H   0  0  0  0  0  0  0  0  0  0  0  0
    1.0284    1.2257    0.0000 C   0  0  0  0  0  0  0  0  0  0  0  0
   -0.0525    2.4054    0.0000 H   0  0  0  0  0  0  0  0  0  0  0  0
    1.0983    2.8242    0.0000 H   0  0  0  0  0  0  0  0  0  0  0  0
    2.6042    0.9478    0.0000 N   0  0  0  0  0  0  0  0  0  0  0  0
    3.3055   -0.4903    0.0000 C   0  0  0  0  0  0  0  0  0  0  0  0
    2.5544   -1.9030    0.0000 H   0  0  0  0  0  0  0  0  0  0  0  0
    4.8900   -0.2676    0.0000 N   0  0  0  0  0  0  0  0  0  0  0  0
    5.1678    1.3081    0.0000 C   0  0  0  0  0  0  0  0  0  0  0  0
    6.6059    2.0095    0.0000 H   0  0  0  0  0  0  0  0  0  0  0  0
    3.7552    2.0593    0.0000 C   0  0  0  0  0  0  0  0  0  0  0  0
    3.5325    3.6437    0.0000 H   0  0  0  0  0  0  0  0  0  0  0  0
   -1.3856    0.8001    0.0000 O   0  0  0  0  0  0  0  0  0  0  0  0
   -2.1857    2.1856    0.0000 C   0  0  0  0  0  0  0  0  0  0  0  0
   -1.9768    3.7720    0.0000 H   0  0  0  0  0  0  0  0  0  0  0  0
   -0.9162    3.1597    0.0000 H   0  0  0  0  0  0  0  0  0  0  0  0
   -3.7856    2.1856    0.0000 C   0  0  0  0  0  0  0  0  0  0  0  0
   -4.5857    0.8001    0.0000 H   0  0  0  0  0  0  0  0  0  0  0  0
   -4.5857    3.5712    0.0000 C   0  0  0  0  0  0  0  0  0  0  0  0
   -6.1856    3.5712    0.0000 H   0  0  0  0  0  0  0  0  0  0  0  0
   -3.7856    4.9569    0.0000 H   0  0  0  0  0  0  0  0  0  0  0  0
   -2.4000   -1.3857    0.0000 C   0  0  0  0  0  0  0  0  0  0  0  0
   -3.2001   -0.0000    0.0000 Cl  0  0  0  0  0  0  0  0  0  0  0  0
   -3.2001   -2.7712    0.0000 C   0  0  0  0  0  0  0  0  0  0  0  0
   -4.8000   -2.7712    0.0000 H   0  0  0  0  0  0  0  0  0  0  0  0
   -2.4000   -4.1569    0.0000 C   0  0  0  0  0  0  0  0  0  0  0  0
   -3.2001   -5.5426    0.0000 Cl  0  0  0  0  0  0  0  0  0  0  0  0
   -0.8001   -4.1569    0.0000 C   0  0  0  0  0  0  0  0  0  0  0  0
    0.0000   -5.5426    0.0000 H   0  0  0  0  0  0  0  0  0  0  0  0
    0.0000   -2.7712    0.0000 C   0  0  0  0  0  0  0  0  0  0  0  0
    1.5999   -2.7712    0.0000 H   0  0  0  0  0  0  0  0  0  0  0  0
  1  2  1  0  0  0  0
  2  3  1  0  0  0  0
  2  4  1  0  0  0  0
  4  5  1  0  0  0  0
  4  6  1  0  0  0  0
  4  7  1  0  0  0  0
  7  8  1  0  0  0  0
  8  9  1  0  0  0  0
  8 10  2  0  0  0  0
 10 11  1  0  0  0  0
 11 12  1  0  0  0  0
 11 13  2  0  0  0  0
 13  7  1  0  0  0  0
 13 14  1  0  0  0  0
  2 15  1  0  0  0  0
 15 16  1  0  0  0  0
 16 17  1  0  0  0  0
 16 18  1  0  0  0  0
 16 19  1  0  0  0  0
 19 20  1  0  0  0  0
 19 21  2  0  0  0  0
 21 22  1  0  0  0  0
 21 23  1  0  0  0  0
  1 24  1  0  0  0  0
 24 25  1  0  0  0  0
 24 26  2  0  0  0  0
 26 27  1  0  0  0  0
 26 28  1  0  0  0  0
 28 29  1  0  0  0  0
 28 30  2  0  0  0  0
 30 31  1  0  0  0  0
 30 32  1  0  0  0  0
 32  1  2  0  0  0  0
 32 33  1  0  0  0  0
M  END
> <ChemID>
100637

> <source_casrn>
35554-44-0

> <CAS>
35554-44-0

> <SMILES>
C=CCOC(C[n]1c[n]cc1)c1ccc(Cl)cc1Cl

> <NAME>
IMAZALIL BASE

> <preferred_name>
Imazalil

> <iupac>
1-[2-(2,4-dichlorophenyl)-2-(prop-2-en-1-yloxy)ethyl]-1H-imidazole

> <MPID>
99892

> <dsstox_substance_id>
DTXSID8024151

> <Canonical_QSARr>
C=CCOC(C[n]1c[n]cc1)c1ccc(Cl)cc1Cl

> <InChI_Code_QSARr>
InChI=1S/C14H14Cl2N2O/c1-2-7-19-14(9-18-6-5-17-10-18)12-4-3-11(15)8-13(12)16/h2-6,8,10,14H,1,7,9H2

> <InChI Key_QSARr>
PZBPKYOVPCNPJY-UHFFFAOYSA-N

> <LogKOC>
3.73

$$$$
100639
  -INDIGO-08031722282D

 22 23  0  0  0  0  0  0  0  0999 V2000
   -0.0001    0.0000    0.0000 C   0  0  0  0  0  0  0  0  0  0  0  0
    1.6001   -0.0000    0.0000 C   0  0  0  0  0  0  0  0  0  0  0  0
    2.4001   -1.3856    0.0000 C   0  0  0  0  0  0  0  0  0  0  0  0
    1.6001   -2.7713    0.0000 Cl  0  0  0  0  0  0  0  0  0  0  0  0
    4.0000   -1.3856    0.0000 C   0  0  0  0  0  0  0  0  0  0  0  0
    4.8000   -2.7713    0.0000 Cl  0  0  0  0  0  0  0  0  0  0  0  0
    4.8000    0.0000    0.0000 C   0  0  0  0  0  0  0  0  0  0  0  0
    6.4000    0.0000    0.0000 H   0  0  0  0  0  0  0  0  0  0  0  0
    4.0000    1.3856    0.0000 C   0  0  0  0  0  0  0  0  0  0  0  0
    4.8000    2.7713    0.0000 Cl  0  0  0  0  0  0  0  0  0  0  0  0
    2.4001    1.3856    0.0000 C   0  0  0  0  0  0  0  0  0  0  0  0
    1.6001    2.7713    0.0000 H   0  0  0  0  0  0  0  0  0  0  0  0
   -0.8001    1.3856    0.0000 C   0  0  0  0  0  0  0  0  0  0  0  0
   -0.0001    2.7713    0.0000 Cl  0  0  0  0  0  0  0  0  0  0  0  0
   -2.4000    1.3856    0.0000 C   0  0  0  0  0  0  0  0  0  0  0  0
   -3.2000    2.7713    0.0000 Cl  0  0  0  0  0  0  0  0  0  0  0  0
   -3.2000    0.0000    0.0000 C   0  0  0  0  0  0  0  0  0  0  0  0
   -4.8000   -0.0000    0.0000 H   0  0  0  0  0  0  0  0  0  0  0  0
   -2.4000   -1.3856    0.0000 C   0  0  0  0  0  0  0  0  0  0  0  0
   -3.2000   -2.7713    0.0000 Cl  0  0  0  0  0  0  0  0  0  0  0  0
   -0.8001   -1.3856    0.0000 C   0  0  0  0  0  0  0  0  0  0  0  0
   -0.0001   -2.7713    0.0000 H   0  0  0  0  0  0  0  0  0  0  0  0
  1  2  1  0  0  0  0
  2  3  1  0  0  0  0
  3  4  1  0  0  0  0
  3  5  2  0  0  0  0
  5  6  1  0  0  0  0
  5  7  1  0  0  0  0
  7  8  1  0  0  0  0
  7  9  2  0  0  0  0
  9 10  1  0  0  0  0
  9 11  1  0  0  0  0
 11  2  2  0  0  0  0
 11 12  1  0  0  0  0
  1 13  1  0  0  0  0
 13 14  1  0  0  0  0
 13 15  2  0  0  0  0
 15 16  1  0  0  0  0
 15 17  1  0  0  0  0
 17 18  1  0  0  0  0
 17 19  2  0  0  0  0
 19 20  1  0  0  0  0
 19 21  1  0  0  0  0
 21  1  2  0  0  0  0
 21 22  1  0  0  0  0
M  END
> <ChemID>
100639

> <source_casrn>
35694-04-3

> <CAS>
35694-04-3

> <SMILES>
Clc1cc(Cl)c(Cl)c(c1)-c1cc(Cl)cc(Cl)c1Cl

> <NAME>
2,2',3,3',5,5'-HEXACHLOROBIPHENYL

> <preferred_name>
2,2',3,3',5,5'-Hexachlorobiphenyl

> <iupac>
2,2',3,3',5,5'-hexachlorobiphenyl

> <MPID>
99894

> <dsstox_substance_id>
DTXSID4030045

> <Canonical_QSARr>
Clc1cc(Cl)c(Cl)c(c1)-c1cc(Cl)cc(Cl)c1Cl

> <InChI_Code_QSARr>
InChI=1S/C12H4Cl6/c13-5-1-7(11(17)9(15)3-5)8-2-6(14)4-10(16)12(8)18/h1-4H

> <InChI Key_QSARr>
AJKLKINFZLWHQE-UHFFFAOYSA-N

> <LogKOC>
6.48

$$$$
100640
  -INDIGO-08031722282D

 22 23  0  0  0  0  0  0  0  0999 V2000
   -0.0001    0.0000    0.0000 C   0  0  0  0  0  0  0  0  0  0  0  0
    1.6001   -0.0000    0.0000 C   0  0  0  0  0  0  0  0  0  0  0  0
    2.4001   -1.3856    0.0000 C   0  0  0  0  0  0  0  0  0  0  0  0
    1.6001   -2.7713    0.0000 Cl  0  0  0  0  0  0  0  0  0  0  0  0
    4.0000   -1.3856    0.0000 C   0  0  0  0  0  0  0  0  0  0  0  0
    4.8000   -2.7713    0.0000 Cl  0  0  0  0  0  0  0  0  0  0  0  0
    4.8000    0.0000    0.0000 C   0  0  0  0  0  0  0  0  0  0  0  0
    6.4000    0.0000    0.0000 Cl  0  0  0  0  0  0  0  0  0  0  0  0
    4.0000    1.3856    0.0000 C   0  0  0  0  0  0  0  0  0  0  0  0
    4.8000    2.7713    0.0000 Cl  0  0  0  0  0  0  0  0  0  0  0  0
    2.4001    1.3856    0.0000 C   0  0  0  0  0  0  0  0  0  0  0  0
    1.6001    2.7713    0.0000 H   0  0  0  0  0  0  0  0  0  0  0  0
   -0.8001    1.3856    0.0000 C   0  0  0  0  0  0  0  0  0  0  0  0
   -0.0001    2.7713    0.0000 Cl  0  0  0  0  0  0  0  0  0  0  0  0
   -2.4000    1.3856    0.0000 C   0  0  0  0  0  0  0  0  0  0  0  0
   -3.2000    2.7713    0.0000 Cl  0  0  0  0  0  0  0  0  0  0  0  0
   -3.2000    0.0000    0.0000 C   0  0  0  0  0  0  0  0  0  0  0  0
   -4.8000   -0.0000    0.0000 Cl  0  0  0  0  0  0  0  0  0  0  0  0
   -2.4000   -1.3856    0.0000 C   0  0  0  0  0  0  0  0  0  0  0  0
   -3.2000   -2.7713    0.0000 Cl  0  0  0  0  0  0  0  0  0  0  0  0
   -0.8001   -1.3856    0.0000 C   0  0  0  0  0  0  0  0  0  0  0  0
   -0.0001   -2.7713    0.0000 H   0  0  0  0  0  0  0  0  0  0  0  0
  1  2  1  0  0  0  0
  2  3  1  0  0  0  0
  3  4  1  0  0  0  0
  3  5  2  0  0  0  0
  5  6  1  0  0  0  0
  5  7  1  0  0  0  0
  7  8  1  0  0  0  0
  7  9  2  0  0  0  0
  9 10  1  0  0  0  0
  9 11  1  0  0  0  0
 11  2  2  0  0  0  0
 11 12  1  0  0  0  0
  1 13  1  0  0  0  0
 13 14  1  0  0  0  0
 13 15  2  0  0  0  0
 15 16  1  0  0  0  0
 15 17  1  0  0  0  0
 17 18  1  0  0  0  0
 17 19  2  0  0  0  0
 19 20  1  0  0  0  0
 19 21  1  0  0  0  0
 21  1  2  0  0  0  0
 21 22  1  0  0  0  0
M  END
> <ChemID>
100640

> <source_casrn>
35694-08-7

> <CAS>
35694-08-7

> <SMILES>
Clc1cc(-c2cc(Cl)c(Cl)c(Cl)c2Cl)c(Cl)c(Cl)c1Cl

> <NAME>
2,2',3,3',4,4',5,5'-OCTACHLOROBIPHENYL

> <preferred_name>
2,2',3,3',4,4',5,5'-Octachlorobiphenyl

> <iupac>
1,2,3,4-tetrachloro-5-(2,3,4,5-tetrachlorophenyl)benzene

> <MPID>
99895

> <dsstox_substance_id>
DTXSID5074139

> <Canonical_QSARr>
Clc1cc(-c2cc(Cl)c(Cl)c(Cl)c2Cl)c(Cl)c(Cl)c1Cl

> <InChI_Code_QSARr>
InChI=1S/C12H2Cl8/c13-5-1-3(7(15)11(19)9(5)17)4-2-6(14)10(18)12(20)8(4)16/h1-2H

> <InChI Key_QSARr>
DTMRKGRREZAYAP-UHFFFAOYSA-N

> <LogKOC>
6.41

$$$$
100641
  -INDIGO-08031722282D

 30 30  0  0  0  0  0  0  0  0999 V2000
   -5.5426   -1.6000    0.0000 O   0  0  0  0  0  0  0  0  0  0  0  0
   -5.5426    0.0000    0.0000 C   0  0  0  0  0  0  0  0  0  0  0  0
   -4.1569    0.8000    0.0000 N   0  0  0  0  0  0  0  0  0  0  0  0
   -4.1569    2.4001    0.0000 H   0  0  0  0  0  0  0  0  0  0  0  0
   -2.7713    0.0000    0.0000 C   0  0  0  0  0  0  0  0  0  0  0  0
   -2.7713   -1.6000    0.0000 C   0  0  0  0  0  0  0  0  0  0  0  0
   -4.1569   -2.4000    0.0000 H   0  0  0  0  0  0  0  0  0  0  0  0
   -1.3856   -2.4000    0.0000 C   0  0  0  0  0  0  0  0  0  0  0  0
   -1.3856   -4.0001    0.0000 C   0  0  0  0  0  0  0  0  0  0  0  0
   -1.3856   -5.6000    0.0000 H   0  0  0  0  0  0  0  0  0  0  0  0
    0.0001   -4.8000    0.0000 H   0  0  0  0  0  0  0  0  0  0  0  0
   -2.7713   -4.8000    0.0000 H   0  0  0  0  0  0  0  0  0  0  0  0
    0.0001   -1.6000    0.0000 C   0  0  0  0  0  0  0  0  0  0  0  0
    1.3856   -2.4000    0.0000 H   0  0  0  0  0  0  0  0  0  0  0  0
    0.0001    0.0000    0.0000 C   0  0  0  0  0  0  0  0  0  0  0  0
    1.3856    0.8000    0.0000 C   0  0  0  0  0  0  0  0  0  0  0  0
    2.7713    1.6000    0.0000 H   0  0  0  0  0  0  0  0  0  0  0  0
    1.3856    2.4001    0.0000 H   0  0  0  0  0  0  0  0  0  0  0  0
    2.7713    0.0000    0.0000 H   0  0  0  0  0  0  0  0  0  0  0  0
   -1.3856    0.8000    0.0000 C   0  0  0  0  0  0  0  0  0  0  0  0
   -1.3856    2.4001    0.0000 H   0  0  0  0  0  0  0  0  0  0  0  0
   -6.9283    0.8000    0.0000 N   0  0  0  0  0  0  0  0  0  0  0  0
   -8.3138    0.0000    0.0000 C   0  0  0  0  0  0  0  0  0  0  0  0
   -9.6995   -0.8001    0.0000 H   0  0  0  0  0  0  0  0  0  0  0  0
   -9.6995    0.8000    0.0000 H   0  0  0  0  0  0  0  0  0  0  0  0
   -8.3138   -1.6000    0.0000 H   0  0  0  0  0  0  0  0  0  0  0  0
   -6.9283    2.4001    0.0000 C   0  0  0  0  0  0  0  0  0  0  0  0
   -6.9283    4.0000    0.0000 H   0  0  0  0  0  0  0  0  0  0  0  0
   -8.3138    3.2000    0.0000 H   0  0  0  0  0  0  0  0  0  0  0  0
   -5.5426    3.2000    0.0000 H   0  0  0  0  0  0  0  0  0  0  0  0
  1  2  2  0  0  0  0
  2  3  1  0  0  0  0
  3  4  1  0  0  0  0
  3  5  1  0  0  0  0
  5  6  1  0  0  0  0
  6  7  1  0  0  0  0
  6  8  2  0  0  0  0
  8  9  1  0  0  0  0
  9 10  1  0  0  0  0
  9 11  1  0  0  0  0
  9 12  1  0  0  0  0
  8 13  1  0  0  0  0
 13 14  1  0  0  0  0
 13 15  2  0  0  0  0
 15 16  1  0  0  0  0
 16 17  1  0  0  0  0
 16 18  1  0  0  0  0
 16 19  1  0  0  0  0
 15 20  1  0  0  0  0
 20  5  2  0  0  0  0
 20 21  1  0  0  0  0
  2 22  1  0  0  0  0
 22 23  1  0  0  0  0
 23 24  1  0  0  0  0
 23 25  1  0  0  0  0
 23 26  1  0  0  0  0
 22 27  1  0  0  0  0
 27 28  1  0  0  0  0
 27 29  1  0  0  0  0
 27 30  1  0  0  0  0
M  END
> <ChemID>
100641

> <source_casrn>
36627-56-2

> <CAS>
36627-56-2

> <SMILES>
CN(C)C(=O)Nc1cc(C)cc(C)c1

> <NAME>
1,1-DIME-3-(3,5-DIME PH) UREA

> <preferred_name>
N'-(3,5-Dimethylphenyl)-N,N-dimethylurea

> <iupac>
3-(3,5-dimethylphenyl)-1,1-dimethylurea

> <MPID>
99896

> <dsstox_substance_id>
DTXSID60190097

> <Canonical_QSARr>
CN(C)C(=O)Nc1cc(C)cc(C)c1

> <InChI_Code_QSARr>
InChI=1S/C11H16N2O/c1-8-5-9(2)7-10(6-8)12-11(14)13(3)4/h5-7H,1-4H3,(H,12,14)

> <InChI Key_QSARr>
GXENDNINAWQOAL-UHFFFAOYSA-N

> <LogKOC>
1.73

$$$$
100643
  -INDIGO-08031722282D

 22 23  0  0  0  0  0  0  0  0999 V2000
   -0.0001    0.0000    0.0000 C   0  0  0  0  0  0  0  0  0  0  0  0
    1.6001   -0.0000    0.0000 C   0  0  0  0  0  0  0  0  0  0  0  0
    2.4001   -1.3856    0.0000 C   0  0  0  0  0  0  0  0  0  0  0  0
    1.6001   -2.7713    0.0000 Cl  0  0  0  0  0  0  0  0  0  0  0  0
    4.0000   -1.3856    0.0000 C   0  0  0  0  0  0  0  0  0  0  0  0
    4.8000   -2.7713    0.0000 H   0  0  0  0  0  0  0  0  0  0  0  0
    4.8000    0.0000    0.0000 C   0  0  0  0  0  0  0  0  0  0  0  0
    6.4000    0.0000    0.0000 H   0  0  0  0  0  0  0  0  0  0  0  0
    4.0000    1.3856    0.0000 C   0  0  0  0  0  0  0  0  0  0  0  0
    4.8000    2.7713    0.0000 H   0  0  0  0  0  0  0  0  0  0  0  0
    2.4001    1.3856    0.0000 C   0  0  0  0  0  0  0  0  0  0  0  0
    1.6001    2.7713    0.0000 H   0  0  0  0  0  0  0  0  0  0  0  0
   -0.8001    1.3856    0.0000 C   0  0  0  0  0  0  0  0  0  0  0  0
   -0.0001    2.7713    0.0000 Cl  0  0  0  0  0  0  0  0  0  0  0  0
   -2.4000    1.3856    0.0000 C   0  0  0  0  0  0  0  0  0  0  0  0
   -3.2000    2.7713    0.0000 H   0  0  0  0  0  0  0  0  0  0  0  0
   -3.2000    0.0000    0.0000 C   0  0  0  0  0  0  0  0  0  0  0  0
   -4.8000   -0.0000    0.0000 H   0  0  0  0  0  0  0  0  0  0  0  0
   -2.4000   -1.3856    0.0000 C   0  0  0  0  0  0  0  0  0  0  0  0
   -3.2000   -2.7713    0.0000 Cl  0  0  0  0  0  0  0  0  0  0  0  0
   -0.8001   -1.3856    0.0000 C   0  0  0  0  0  0  0  0  0  0  0  0
   -0.0001   -2.7713    0.0000 H   0  0  0  0  0  0  0  0  0  0  0  0
  1  2  1  0  0  0  0
  2  3  1  0  0  0  0
  3  4  1  0  0  0  0
  3  5  2  0  0  0  0
  5  6  1  0  0  0  0
  5  7  1  0  0  0  0
  7  8  1  0  0  0  0
  7  9  2  0  0  0  0
  9 10  1  0  0  0  0
  9 11  1  0  0  0  0
 11  2  2  0  0  0  0
 11 12  1  0  0  0  0
  1 13  1  0  0  0  0
 13 14  1  0  0  0  0
 13 15  2  0  0  0  0
 15 16  1  0  0  0  0
 15 17  1  0  0  0  0
 17 18  1  0  0  0  0
 17 19  2  0  0  0  0
 19 20  1  0  0  0  0
 19 21  1  0  0  0  0
 21  1  2  0  0  0  0
 21 22  1  0  0  0  0
M  END
> <ChemID>
100643

> <source_casrn>
37680-65-2

> <CAS>
37680-65-2

> <SMILES>
Clc1cc(-c2ccccc2Cl)c(Cl)cc1

> <NAME>
2,2',5-TRICHLOROBIPHENYL

> <preferred_name>
2,2',5-Trichlorobiphenyl

> <iupac>
1,4-dichloro-2-(2-chlorophenyl)benzene

> <MPID>
99898

> <dsstox_substance_id>
DTXSID6073491

> <Canonical_QSARr>
Clc1cc(-c2ccccc2Cl)c(Cl)cc1

> <InChI_Code_QSARr>
InChI=1S/C12H7Cl3/c13-8-5-6-12(15)10(7-8)9-3-1-2-4-11(9)14/h1-7H

> <InChI Key_QSARr>
DCMURXAZTZQAFB-UHFFFAOYSA-N

> <LogKOC>
4.4

$$$$
100644
  -INDIGO-08031722282D

 22 23  0  0  0  0  0  0  0  0999 V2000
   -0.0001    0.0000    0.0000 C   0  0  0  0  0  0  0  0  0  0  0  0
    1.6001   -0.0000    0.0000 C   0  0  0  0  0  0  0  0  0  0  0  0
    2.4001   -1.3856    0.0000 C   0  0  0  0  0  0  0  0  0  0  0  0
    1.6001   -2.7713    0.0000 Cl  0  0  0  0  0  0  0  0  0  0  0  0
    4.0000   -1.3856    0.0000 C   0  0  0  0  0  0  0  0  0  0  0  0
    4.8000   -2.7713    0.0000 H   0  0  0  0  0  0  0  0  0  0  0  0
    4.8000    0.0000    0.0000 C   0  0  0  0  0  0  0  0  0  0  0  0
    6.4000    0.0000    0.0000 H   0  0  0  0  0  0  0  0  0  0  0  0
    4.0000    1.3856    0.0000 C   0  0  0  0  0  0  0  0  0  0  0  0
    4.8000    2.7713    0.0000 H   0  0  0  0  0  0  0  0  0  0  0  0
    2.4001    1.3856    0.0000 C   0  0  0  0  0  0  0  0  0  0  0  0
    1.6001    2.7713    0.0000 H   0  0  0  0  0  0  0  0  0  0  0  0
   -0.8001    1.3856    0.0000 C   0  0  0  0  0  0  0  0  0  0  0  0
   -0.0001    2.7713    0.0000 Cl  0  0  0  0  0  0  0  0  0  0  0  0
   -2.4000    1.3856    0.0000 C   0  0  0  0  0  0  0  0  0  0  0  0
   -3.2000    2.7713    0.0000 H   0  0  0  0  0  0  0  0  0  0  0  0
   -3.2000    0.0000    0.0000 C   0  0  0  0  0  0  0  0  0  0  0  0
   -4.8000   -0.0000    0.0000 Cl  0  0  0  0  0  0  0  0  0  0  0  0
   -2.4000   -1.3856    0.0000 C   0  0  0  0  0  0  0  0  0  0  0  0
   -3.2000   -2.7713    0.0000 H   0  0  0  0  0  0  0  0  0  0  0  0
   -0.8001   -1.3856    0.0000 C   0  0  0  0  0  0  0  0  0  0  0  0
   -0.0001   -2.7713    0.0000 H   0  0  0  0  0  0  0  0  0  0  0  0
  1  2  1  0  0  0  0
  2  3  1  0  0  0  0
  3  4  1  0  0  0  0
  3  5  2  0  0  0  0
  5  6  1  0  0  0  0
  5  7  1  0  0  0  0
  7  8  1  0  0  0  0
  7  9  2  0  0  0  0
  9 10  1  0  0  0  0
  9 11  1  0  0  0  0
 11  2  2  0  0  0  0
 11 12  1  0  0  0  0
  1 13  1  0  0  0  0
 13 14  1  0  0  0  0
 13 15  2  0  0  0  0
 15 16  1  0  0  0  0
 15 17  1  0  0  0  0
 17 18  1  0  0  0  0
 17 19  2  0  0  0  0
 19 20  1  0  0  0  0
 19 21  1  0  0  0  0
 21  1  2  0  0  0  0
 21 22  1  0  0  0  0
M  END
> <ChemID>
100644

> <source_casrn>
37680-66-3

> <CAS>
37680-66-3

> <SMILES>
Clc1cc(Cl)c(cc1)-c1ccccc1Cl

> <NAME>
2,2',4-TRICHLOROBIPHENYL

> <preferred_name>
2,2',4-Trichlorobiphenyl

> <iupac>
2,4-dichloro-1-(2-chlorophenyl)benzene

> <MPID>
99899

> <dsstox_substance_id>
DTXSID1073492

> <Canonical_QSARr>
Clc1cc(Cl)c(cc1)-c1ccccc1Cl

> <InChI_Code_QSARr>
InChI=1S/C12H7Cl3/c13-8-5-6-10(12(15)7-8)9-3-1-2-4-11(9)14/h1-7H

> <InChI Key_QSARr>
YKKYCYQDUUXNLN-UHFFFAOYSA-N

> <LogKOC>
4.84

$$$$
100645
  -INDIGO-08031722282D

 22 23  0  0  0  0  0  0  0  0999 V2000
   -0.0001    0.0000    0.0000 C   0  0  0  0  0  0  0  0  0  0  0  0
    1.6001   -0.0000    0.0000 C   0  0  0  0  0  0  0  0  0  0  0  0
    2.4001   -1.3856    0.0000 C   0  0  0  0  0  0  0  0  0  0  0  0
    1.6001   -2.7713    0.0000 Cl  0  0  0  0  0  0  0  0  0  0  0  0
    4.0000   -1.3856    0.0000 C   0  0  0  0  0  0  0  0  0  0  0  0
    4.8000   -2.7713    0.0000 H   0  0  0  0  0  0  0  0  0  0  0  0
    4.8000    0.0000    0.0000 C   0  0  0  0  0  0  0  0  0  0  0  0
    6.4000    0.0000    0.0000 H   0  0  0  0  0  0  0  0  0  0  0  0
    4.0000    1.3856    0.0000 C   0  0  0  0  0  0  0  0  0  0  0  0
    4.8000    2.7713    0.0000 Cl  0  0  0  0  0  0  0  0  0  0  0  0
    2.4001    1.3856    0.0000 C   0  0  0  0  0  0  0  0  0  0  0  0
    1.6001    2.7713    0.0000 H   0  0  0  0  0  0  0  0  0  0  0  0
   -0.8001    1.3856    0.0000 C   0  0  0  0  0  0  0  0  0  0  0  0
   -0.0001    2.7713    0.0000 Cl  0  0  0  0  0  0  0  0  0  0  0  0
   -2.4000    1.3856    0.0000 C   0  0  0  0  0  0  0  0  0  0  0  0
   -3.2000    2.7713    0.0000 H   0  0  0  0  0  0  0  0  0  0  0  0
   -3.2000    0.0000    0.0000 C   0  0  0  0  0  0  0  0  0  0  0  0
   -4.8000   -0.0000    0.0000 Cl  0  0  0  0  0  0  0  0  0  0  0  0
   -2.4000   -1.3856    0.0000 C   0  0  0  0  0  0  0  0  0  0  0  0
   -3.2000   -2.7713    0.0000 Cl  0  0  0  0  0  0  0  0  0  0  0  0
   -0.8001   -1.3856    0.0000 C   0  0  0  0  0  0  0  0  0  0  0  0
   -0.0001   -2.7713    0.0000 H   0  0  0  0  0  0  0  0  0  0  0  0
  1  2  1  0  0  0  0
  2  3  1  0  0  0  0
  3  4  1  0  0  0  0
  3  5  2  0  0  0  0
  5  6  1  0  0  0  0
  5  7  1  0  0  0  0
  7  8  1  0  0  0  0
  7  9  2  0  0  0  0
  9 10  1  0  0  0  0
  9 11  1  0  0  0  0
 11  2  2  0  0  0  0
 11 12  1  0  0  0  0
  1 13  1  0  0  0  0
 13 14  1  0  0  0  0
 13 15  2  0  0  0  0
 15 16  1  0  0  0  0
 15 17  1  0  0  0  0
 17 18  1  0  0  0  0
 17 19  2  0  0  0  0
 19 20  1  0  0  0  0
 19 21  1  0  0  0  0
 21  1  2  0  0  0  0
 21 22  1  0  0  0  0
M  END
> <ChemID>
100645

> <source_casrn>
37680-73-2

> <CAS>
37680-73-2

> <SMILES>
Clc1cc(-c2cc(Cl)c(Cl)cc2Cl)c(Cl)cc1

> <NAME>
2,4,5,2',5'-PENTACHLOROBIPHENYL

> <preferred_name>
2,2,4,5,5'-Pentochlorobiphenyl

> <iupac>
2,2',4,5,5'-pentachlorobiphenyl

> <MPID>
99900

> <dsstox_substance_id>
DTXSID8038304

> <Canonical_QSARr>
Clc1cc(-c2cc(Cl)c(Cl)cc2Cl)c(Cl)cc1

> <InChI_Code_QSARr>
InChI=1S/C12H5Cl5/c13-6-1-2-9(14)7(3-6)8-4-11(16)12(17)5-10(8)15/h1-5H

> <InChI Key_QSARr>
LAHWLEDBADHJGA-UHFFFAOYSA-N

> <LogKOC>
5.22

$$$$
100647
  -INDIGO-08031722282D

 36 37  0  0  0  0  0  0  0  0999 V2000
    7.2001   -1.3856    0.0000 S   0  0  0  0  0  0  0  0  0  0  0  0
    8.0001   -2.7713    0.0000 C   0  0  0  0  0  0  0  0  0  0  0  0
    8.7999   -4.1569    0.0000 F   0  0  0  0  0  0  0  0  0  0  0  0
    9.6000   -2.7712    0.0000 F   0  0  0  0  0  0  0  0  0  0  0  0
    7.2001   -4.1569    0.0000 F   0  0  0  0  0  0  0  0  0  0  0  0
    6.4000   -0.0001    0.0000 N   0  0  0  0  0  0  0  0  0  0  0  0
    7.2001    1.3856    0.0000 H   0  0  0  0  0  0  0  0  0  0  0  0
    4.8001    0.0001    0.0000 C   0  0  0  0  0  0  0  0  0  0  0  0
    4.0001    1.3856    0.0000 C   0  0  0  0  0  0  0  0  0  0  0  0
    4.8001    2.7712    0.0000 C   0  0  0  0  0  0  0  0  0  0  0  0
    5.5999    4.1569    0.0000 H   0  0  0  0  0  0  0  0  0  0  0  0
    4.0001    4.1569    0.0000 H   0  0  0  0  0  0  0  0  0  0  0  0
    6.4000    2.7713    0.0000 H   0  0  0  0  0  0  0  0  0  0  0  0
    2.3999    1.3856    0.0000 C   0  0  0  0  0  0  0  0  0  0  0  0
    1.6001    2.7712    0.0000 H   0  0  0  0  0  0  0  0  0  0  0  0
    1.6001    0.0001    0.0000 C   0  0  0  0  0  0  0  0  0  0  0  0
    0.0000   -0.0001    0.0000 S   0  0  0  0  0  0  0  0  0  0  0  0
    0.0000   -1.6000    0.0000 O   0  0  0  0  0  0  0  0  0  0  0  0
    0.0000    1.6000    0.0000 O   0  0  0  0  0  0  0  0  0  0  0  0
   -1.5999   -0.0001    0.0000 C   0  0  0  0  0  0  0  0  0  0  0  0
   -2.3999    1.3856    0.0000 C   0  0  0  0  0  0  0  0  0  0  0  0
   -1.6001    2.7712    0.0000 H   0  0  0  0  0  0  0  0  0  0  0  0
   -4.0001    1.3856    0.0000 C   0  0  0  0  0  0  0  0  0  0  0  0
   -4.8001    2.7712    0.0000 H   0  0  0  0  0  0  0  0  0  0  0  0
   -4.8001   -0.0001    0.0000 C   0  0  0  0  0  0  0  0  0  0  0  0
   -6.4000   -0.0001    0.0000 H   0  0  0  0  0  0  0  0  0  0  0  0
   -4.0001   -1.3856    0.0000 C   0  0  0  0  0  0  0  0  0  0  0  0
   -4.7999   -2.7713    0.0000 H   0  0  0  0  0  0  0  0  0  0  0  0
   -2.3999   -1.3856    0.0000 C   0  0  0  0  0  0  0  0  0  0  0  0
   -1.5999   -2.7713    0.0000 H   0  0  0  0  0  0  0  0  0  0  0  0
    2.3999   -1.3856    0.0000 C   0  0  0  0  0  0  0  0  0  0  0  0
    1.6001   -2.7712    0.0000 H   0  0  0  0  0  0  0  0  0  0  0  0
    4.0001   -1.3856    0.0000 C   0  0  0  0  0  0  0  0  0  0  0  0
    4.8001   -2.7712    0.0000 H   0  0  0  0  0  0  0  0  0  0  0  0
    8.5856   -0.5857    0.0000 O   0  0  0  0  0  0  0  0  0  0  0  0
    5.8143   -2.1856    0.0000 O   0  0  0  0  0  0  0  0  0  0  0  0
  1  2  1  0  0  0  0
  2  3  1  0  0  0  0
  2  4  1  0  0  0  0
  2  5  1  0  0  0  0
  1  6  1  0  0  0  0
  6  7  1  0  0  0  0
  6  8  1  0  0  0  0
  8  9  1  0  0  0  0
  9 10  1  0  0  0  0
 10 11  1  0  0  0  0
 10 12  1  0  0  0  0
 10 13  1  0  0  0  0
  9 14  2  0  0  0  0
 14 15  1  0  0  0  0
 14 16  1  0  0  0  0
 16 17  1  0  0  0  0
 17 18  2  0  0  0  0
 17 19  2  0  0  0  0
 17 20  1  0  0  0  0
 20 21  1  0  0  0  0
 21 22  1  0  0  0  0
 21 23  2  0  0  0  0
 23 24  1  0  0  0  0
 23 25  1  0  0  0  0
 25 26  1  0  0  0  0
 25 27  2  0  0  0  0
 27 28  1  0  0  0  0
 27 29  1  0  0  0  0
 29 20  2  0  0  0  0
 29 30  1  0  0  0  0
 16 31  2  0  0  0  0
 31 32  1  0  0  0  0
 31 33  1  0  0  0  0
 33  8  2  0  0  0  0
 33 34  1  0  0  0  0
  1 35  2  0  0  0  0
  1 36  2  0  0  0  0
M  END
> <ChemID>
100647

> <source_casrn>
37924-13-3

> <CAS>
37924-13-3

> <SMILES>
Cc1cc(ccc1NS(=O)(=O)C(F)(F)F)S(=O)(=O)c1ccccc1

> <NAME>
PERFLUIDONE

> <preferred_name>
Perfluidone

> <iupac>
1,1,1-trifluoro-N-[2-methyl-4-(phenylsulfonyl)phenyl]methanesulfonamide

> <MPID>
99902

> <dsstox_substance_id>
DTXSID3042267

> <Canonical_QSARr>
Cc1cc(ccc1NS(=O)(=O)C(F)(F)F)S(=O)(=O)c1ccccc1

> <InChI_Code_QSARr>
InChI=1S/C14H12F3NO4S2/c1-10-9-12(23(19,20)11-5-3-2-4-6-11)7-8-13(10)18-24(21,22)14(15,16)17/h2-9,18H,1H3

> <InChI Key_QSARr>
WHTBVLXUSXVMEV-UHFFFAOYSA-N

> <LogKOC>
3.08

$$$$
100648
  -INDIGO-08031722282D

 22 23  0  0  0  0  0  0  0  0999 V2000
   -0.0001    0.0000    0.0000 C   0  0  0  0  0  0  0  0  0  0  0  0
    1.6001   -0.0000    0.0000 C   0  0  0  0  0  0  0  0  0  0  0  0
    2.4001   -1.3856    0.0000 C   0  0  0  0  0  0  0  0  0  0  0  0
    1.6001   -2.7713    0.0000 Cl  0  0  0  0  0  0  0  0  0  0  0  0
    4.0000   -1.3856    0.0000 C   0  0  0  0  0  0  0  0  0  0  0  0
    4.8000   -2.7713    0.0000 H   0  0  0  0  0  0  0  0  0  0  0  0
    4.8000    0.0000    0.0000 C   0  0  0  0  0  0  0  0  0  0  0  0
    6.4000    0.0000    0.0000 H   0  0  0  0  0  0  0  0  0  0  0  0
    4.0000    1.3856    0.0000 C   0  0  0  0  0  0  0  0  0  0  0  0
    4.8000    2.7713    0.0000 Cl  0  0  0  0  0  0  0  0  0  0  0  0
    2.4001    1.3856    0.0000 C   0  0  0  0  0  0  0  0  0  0  0  0
    1.6001    2.7713    0.0000 H   0  0  0  0  0  0  0  0  0  0  0  0
   -0.8001    1.3856    0.0000 C   0  0  0  0  0  0  0  0  0  0  0  0
   -0.0001    2.7713    0.0000 Cl  0  0  0  0  0  0  0  0  0  0  0  0
   -2.4000    1.3856    0.0000 C   0  0  0  0  0  0  0  0  0  0  0  0
   -3.2000    2.7713    0.0000 Cl  0  0  0  0  0  0  0  0  0  0  0  0
   -3.2000    0.0000    0.0000 C   0  0  0  0  0  0  0  0  0  0  0  0
   -4.8000   -0.0000    0.0000 H   0  0  0  0  0  0  0  0  0  0  0  0
   -2.4000   -1.3856    0.0000 C   0  0  0  0  0  0  0  0  0  0  0  0
   -3.2000   -2.7713    0.0000 H   0  0  0  0  0  0  0  0  0  0  0  0
   -0.8001   -1.3856    0.0000 C   0  0  0  0  0  0  0  0  0  0  0  0
   -0.0001   -2.7713    0.0000 Cl  0  0  0  0  0  0  0  0  0  0  0  0
  1  2  1  0  0  0  0
  2  3  1  0  0  0  0
  3  4  1  0  0  0  0
  3  5  2  0  0  0  0
  5  6  1  0  0  0  0
  5  7  1  0  0  0  0
  7  8  1  0  0  0  0
  7  9  2  0  0  0  0
  9 10  1  0  0  0  0
  9 11  1  0  0  0  0
 11  2  2  0  0  0  0
 11 12  1  0  0  0  0
  1 13  1  0  0  0  0
 13 14  1  0  0  0  0
 13 15  2  0  0  0  0
 15 16  1  0  0  0  0
 15 17  1  0  0  0  0
 17 18  1  0  0  0  0
 17 19  2  0  0  0  0
 19 20  1  0  0  0  0
 19 21  1  0  0  0  0
 21  1  2  0  0  0  0
 21 22  1  0  0  0  0
M  END
> <ChemID>
100648

> <source_casrn>
38379-99-6

> <CAS>
38379-99-6

> <SMILES>
Clc1cc(-c2c(Cl)c(Cl)ccc2Cl)c(Cl)cc1

> <NAME>
2,2',3,5',6-PENTACHLOROBIPHENYL

> <preferred_name>
2,2',3,5',6-Pentachlorobiphenyl

> <iupac>
2,2',3,5',6-pentachlorobiphenyl

> <MPID>
99903

> <dsstox_substance_id>
DTXSID3038301

> <Canonical_QSARr>
Clc1cc(-c2c(Cl)c(Cl)ccc2Cl)c(Cl)cc1

> <InChI_Code_QSARr>
InChI=1S/C12H5Cl5/c13-6-1-2-8(14)7(5-6)11-9(15)3-4-10(16)12(11)17/h1-5H

> <InChI Key_QSARr>
GXNNLIMMEXHBKV-UHFFFAOYSA-N

> <LogKOC>
5.55

$$$$
100649
  -INDIGO-08031722282D

 22 23  0  0  0  0  0  0  0  0999 V2000
   -0.0001    0.0000    0.0000 C   0  0  0  0  0  0  0  0  0  0  0  0
    1.6001   -0.0000    0.0000 C   0  0  0  0  0  0  0  0  0  0  0  0
    2.4001   -1.3856    0.0000 C   0  0  0  0  0  0  0  0  0  0  0  0
    1.6001   -2.7713    0.0000 Cl  0  0  0  0  0  0  0  0  0  0  0  0
    4.0000   -1.3856    0.0000 C   0  0  0  0  0  0  0  0  0  0  0  0
    4.8000   -2.7713    0.0000 H   0  0  0  0  0  0  0  0  0  0  0  0
    4.8000    0.0000    0.0000 C   0  0  0  0  0  0  0  0  0  0  0  0
    6.4000    0.0000    0.0000 H   0  0  0  0  0  0  0  0  0  0  0  0
    4.0000    1.3856    0.0000 C   0  0  0  0  0  0  0  0  0  0  0  0
    4.8000    2.7713    0.0000 Cl  0  0  0  0  0  0  0  0  0  0  0  0
    2.4001    1.3856    0.0000 C   0  0  0  0  0  0  0  0  0  0  0  0
    1.6001    2.7713    0.0000 H   0  0  0  0  0  0  0  0  0  0  0  0
   -0.8001    1.3856    0.0000 C   0  0  0  0  0  0  0  0  0  0  0  0
   -0.0001    2.7713    0.0000 Cl  0  0  0  0  0  0  0  0  0  0  0  0
   -2.4000    1.3856    0.0000 C   0  0  0  0  0  0  0  0  0  0  0  0
   -3.2000    2.7713    0.0000 Cl  0  0  0  0  0  0  0  0  0  0  0  0
   -3.2000    0.0000    0.0000 C   0  0  0  0  0  0  0  0  0  0  0  0
   -4.8000   -0.0000    0.0000 Cl  0  0  0  0  0  0  0  0  0  0  0  0
   -2.4000   -1.3856    0.0000 C   0  0  0  0  0  0  0  0  0  0  0  0
   -3.2000   -2.7713    0.0000 H   0  0  0  0  0  0  0  0  0  0  0  0
   -0.8001   -1.3856    0.0000 C   0  0  0  0  0  0  0  0  0  0  0  0
   -0.0001   -2.7713    0.0000 H   0  0  0  0  0  0  0  0  0  0  0  0
  1  2  1  0  0  0  0
  2  3  1  0  0  0  0
  3  4  1  0  0  0  0
  3  5  2  0  0  0  0
  5  6  1  0  0  0  0
  5  7  1  0  0  0  0
  7  8  1  0  0  0  0
  7  9  2  0  0  0  0
  9 10  1  0  0  0  0
  9 11  1  0  0  0  0
 11  2  2  0  0  0  0
 11 12  1  0  0  0  0
  1 13  1  0  0  0  0
 13 14  1  0  0  0  0
 13 15  2  0  0  0  0
 15 16  1  0  0  0  0
 15 17  1  0  0  0  0
 17 18  1  0  0  0  0
 17 19  2  0  0  0  0
 19 20  1  0  0  0  0
 19 21  1  0  0  0  0
 21  1  2  0  0  0  0
 21 22  1  0  0  0  0
M  END
> <ChemID>
100649

> <source_casrn>
38380-02-8

> <CAS>
38380-02-8

> <SMILES>
Clc1cc(-c2ccc(Cl)c(Cl)c2Cl)c(Cl)cc1

> <NAME>
2,2',3,4,5'-PENTACHLOROBIPHENYL

> <preferred_name>
2,2',3,4,5'-Pentachlorobiphenyl

> <iupac>
1,2,3-trichloro-4-(2,5-dichlorophenyl)benzene

> <MPID>
99904

> <dsstox_substance_id>
DTXSID6073497

> <Canonical_QSARr>
Clc1cc(-c2ccc(Cl)c(Cl)c2Cl)c(Cl)cc1

> <InChI_Code_QSARr>
InChI=1S/C12H5Cl5/c13-6-1-3-9(14)8(5-6)7-2-4-10(15)12(17)11(7)16/h1-5H

> <InChI Key_QSARr>
OPKYDBFRKPQCBS-UHFFFAOYSA-N

> <LogKOC>
4.62

$$$$
100651
  -INDIGO-08031722282D

 22 23  0  0  0  0  0  0  0  0999 V2000
   -0.0001    0.0000    0.0000 C   0  0  0  0  0  0  0  0  0  0  0  0
    1.6001   -0.0000    0.0000 C   0  0  0  0  0  0  0  0  0  0  0  0
    2.4001   -1.3856    0.0000 C   0  0  0  0  0  0  0  0  0  0  0  0
    1.6001   -2.7713    0.0000 Cl  0  0  0  0  0  0  0  0  0  0  0  0
    4.0000   -1.3856    0.0000 C   0  0  0  0  0  0  0  0  0  0  0  0
    4.8000   -2.7713    0.0000 Cl  0  0  0  0  0  0  0  0  0  0  0  0
    4.8000    0.0000    0.0000 C   0  0  0  0  0  0  0  0  0  0  0  0
    6.4000    0.0000    0.0000 Cl  0  0  0  0  0  0  0  0  0  0  0  0
    4.0000    1.3856    0.0000 C   0  0  0  0  0  0  0  0  0  0  0  0
    4.8000    2.7713    0.0000 H   0  0  0  0  0  0  0  0  0  0  0  0
    2.4001    1.3856    0.0000 C   0  0  0  0  0  0  0  0  0  0  0  0
    1.6001    2.7713    0.0000 H   0  0  0  0  0  0  0  0  0  0  0  0
   -0.8001    1.3856    0.0000 C   0  0  0  0  0  0  0  0  0  0  0  0
   -0.0001    2.7713    0.0000 Cl  0  0  0  0  0  0  0  0  0  0  0  0
   -2.4000    1.3856    0.0000 C   0  0  0  0  0  0  0  0  0  0  0  0
   -3.2000    2.7713    0.0000 Cl  0  0  0  0  0  0  0  0  0  0  0  0
   -3.2000    0.0000    0.0000 C   0  0  0  0  0  0  0  0  0  0  0  0
   -4.8000   -0.0000    0.0000 Cl  0  0  0  0  0  0  0  0  0  0  0  0
   -2.4000   -1.3856    0.0000 C   0  0  0  0  0  0  0  0  0  0  0  0
   -3.2000   -2.7713    0.0000 H   0  0  0  0  0  0  0  0  0  0  0  0
   -0.8001   -1.3856    0.0000 C   0  0  0  0  0  0  0  0  0  0  0  0
   -0.0001   -2.7713    0.0000 H   0  0  0  0  0  0  0  0  0  0  0  0
  1  2  1  0  0  0  0
  2  3  1  0  0  0  0
  3  4  1  0  0  0  0
  3  5  2  0  0  0  0
  5  6  1  0  0  0  0
  5  7  1  0  0  0  0
  7  8  1  0  0  0  0
  7  9  2  0  0  0  0
  9 10  1  0  0  0  0
  9 11  1  0  0  0  0
 11  2  2  0  0  0  0
 11 12  1  0  0  0  0
  1 13  1  0  0  0  0
 13 14  1  0  0  0  0
 13 15  2  0  0  0  0
 15 16  1  0  0  0  0
 15 17  1  0  0  0  0
 17 18  1  0  0  0  0
 17 19  2  0  0  0  0
 19 20  1  0  0  0  0
 19 21  1  0  0  0  0
 21  1  2  0  0  0  0
 21 22  1  0  0  0  0
M  END
> <ChemID>
100651

> <source_casrn>
38380-07-3

> <CAS>
38380-07-3

> <SMILES>
Clc1ccc(-c2ccc(Cl)c(Cl)c2Cl)c(Cl)c1Cl

> <NAME>
2,2',3,3',4,4'-HEXACHLOROBIPHENYL

> <preferred_name>
2,2',3,3',4,4'-Hexachlorobiphenyl

> <iupac>
C12H4Cl6

> <MPID>
99906

> <dsstox_substance_id>
DTXSID50858932

> <Canonical_QSARr>
Clc1ccc(-c2ccc(Cl)c(Cl)c2Cl)c(Cl)c1Cl

> <InChI_Code_QSARr>
InChI=1S/C12H4Cl6/c13-7-3-1-5(9(15)11(7)17)6-2-4-8(14)12(18)10(6)16/h1-4H

> <InChI Key_QSARr>
BTAGRXWGMYTPBY-UHFFFAOYSA-N

> <LogKOC>
5.66

$$$$
100652
  -INDIGO-08031722282D

 22 23  0  0  0  0  0  0  0  0999 V2000
   -0.0001    0.0000    0.0000 C   0  0  0  0  0  0  0  0  0  0  0  0
    1.6001   -0.0000    0.0000 C   0  0  0  0  0  0  0  0  0  0  0  0
    2.4001   -1.3856    0.0000 C   0  0  0  0  0  0  0  0  0  0  0  0
    1.6001   -2.7713    0.0000 Cl  0  0  0  0  0  0  0  0  0  0  0  0
    4.0000   -1.3856    0.0000 C   0  0  0  0  0  0  0  0  0  0  0  0
    4.8000   -2.7713    0.0000 Cl  0  0  0  0  0  0  0  0  0  0  0  0
    4.8000    0.0000    0.0000 C   0  0  0  0  0  0  0  0  0  0  0  0
    6.4000    0.0000    0.0000 H   0  0  0  0  0  0  0  0  0  0  0  0
    4.0000    1.3856    0.0000 C   0  0  0  0  0  0  0  0  0  0  0  0
    4.8000    2.7713    0.0000 H   0  0  0  0  0  0  0  0  0  0  0  0
    2.4001    1.3856    0.0000 C   0  0  0  0  0  0  0  0  0  0  0  0
    1.6001    2.7713    0.0000 Cl  0  0  0  0  0  0  0  0  0  0  0  0
   -0.8001    1.3856    0.0000 C   0  0  0  0  0  0  0  0  0  0  0  0
   -0.0001    2.7713    0.0000 Cl  0  0  0  0  0  0  0  0  0  0  0  0
   -2.4000    1.3856    0.0000 C   0  0  0  0  0  0  0  0  0  0  0  0
   -3.2000    2.7713    0.0000 Cl  0  0  0  0  0  0  0  0  0  0  0  0
   -3.2000    0.0000    0.0000 C   0  0  0  0  0  0  0  0  0  0  0  0
   -4.8000   -0.0000    0.0000 H   0  0  0  0  0  0  0  0  0  0  0  0
   -2.4000   -1.3856    0.0000 C   0  0  0  0  0  0  0  0  0  0  0  0
   -3.2000   -2.7713    0.0000 H   0  0  0  0  0  0  0  0  0  0  0  0
   -0.8001   -1.3856    0.0000 C   0  0  0  0  0  0  0  0  0  0  0  0
   -0.0001   -2.7713    0.0000 Cl  0  0  0  0  0  0  0  0  0  0  0  0
  1  2  1  0  0  0  0
  2  3  1  0  0  0  0
  3  4  1  0  0  0  0
  3  5  2  0  0  0  0
  5  6  1  0  0  0  0
  5  7  1  0  0  0  0
  7  8  1  0  0  0  0
  7  9  2  0  0  0  0
  9 10  1  0  0  0  0
  9 11  1  0  0  0  0
 11  2  2  0  0  0  0
 11 12  1  0  0  0  0
  1 13  1  0  0  0  0
 13 14  1  0  0  0  0
 13 15  2  0  0  0  0
 15 16  1  0  0  0  0
 15 17  1  0  0  0  0
 17 18  1  0  0  0  0
 17 19  2  0  0  0  0
 19 20  1  0  0  0  0
 19 21  1  0  0  0  0
 21  1  2  0  0  0  0
 21 22  1  0  0  0  0
M  END
> <ChemID>
100652

> <source_casrn>
38411-22-2

> <CAS>
38411-22-2

> <SMILES>
Clc1ccc(Cl)c(Cl)c1-c1c(Cl)c(Cl)ccc1Cl

> <NAME>
2,2',3,3',6,6'-HEXACHLOROBIPHENYL

> <preferred_name>
2,2',3,3',6,6'-Hexachlorobiphenyl

> <iupac>
1,2,4-trichloro-3-(2,3,6-trichlorophenyl)benzene

> <MPID>
99907

> <dsstox_substance_id>
DTXSID6073499

> <Canonical_QSARr>
Clc1ccc(Cl)c(Cl)c1-c1c(Cl)c(Cl)ccc1Cl

> <InChI_Code_QSARr>
InChI=1S/C12H4Cl6/c13-5-1-3-7(15)11(17)9(5)10-6(14)2-4-8(16)12(10)18/h1-4H

> <InChI Key_QSARr>
FZFUUSROAHKTTF-UHFFFAOYSA-N

> <LogKOC>
6.01

$$$$
100653
  -INDIGO-08031722282D

 43 43  0  0  0  0  0  0  0  0999 V2000
   -3.4042    2.3335    0.0000 C   0  0  0  0  0  0  0  0  0  0  0  0
   -2.8570    3.8370    0.0000 O   0  0  0  0  0  0  0  0  0  0  0  0
   -4.9799    2.0556    0.0000 O   0  0  0  0  0  0  0  0  0  0  0  0
   -6.0082    3.2813    0.0000 C   0  0  0  0  0  0  0  0  0  0  0  0
   -6.0780    4.8798    0.0000 H   0  0  0  0  0  0  0  0  0  0  0  0
   -4.9274    4.4609    0.0000 H   0  0  0  0  0  0  0  0  0  0  0  0
   -7.5841    3.0035    0.0000 C   0  0  0  0  0  0  0  0  0  0  0  0
   -9.1597    2.7257    0.0000 H   0  0  0  0  0  0  0  0  0  0  0  0
   -8.6124    4.2292    0.0000 H   0  0  0  0  0  0  0  0  0  0  0  0
   -8.1311    1.5000    0.0000 H   0  0  0  0  0  0  0  0  0  0  0  0
   -2.3757    1.1078    0.0000 C   0  0  0  0  0  0  0  0  0  0  0  0
   -1.7633   -0.3703    0.0000 H   0  0  0  0  0  0  0  0  0  0  0  0
   -3.7950    0.3690    0.0000 H   0  0  0  0  0  0  0  0  0  0  0  0
   -0.8000    1.3857    0.0000 N   0  0  0  0  0  0  0  0  0  0  0  0
   -0.2528    2.8891    0.0000 C   0  0  0  0  0  0  0  0  0  0  0  0
    1.2508    3.4364    0.0000 O   0  0  0  0  0  0  0  0  0  0  0  0
   -1.2813    4.1148    0.0000 C   0  0  0  0  0  0  0  0  0  0  0  0
   -0.7340    5.6183    0.0000 H   0  0  0  0  0  0  0  0  0  0  0  0
   -2.3097    5.3404    0.0000 H   0  0  0  0  0  0  0  0  0  0  0  0
    0.2945    4.3927    0.0000 Cl  0  0  0  0  0  0  0  0  0  0  0  0
   -0.0001    0.0000    0.0000 C   0  0  0  0  0  0  0  0  0  0  0  0
    1.5999    0.0000    0.0000 C   0  0  0  0  0  0  0  0  0  0  0  0
    2.4001    1.3857    0.0000 C   0  0  0  0  0  0  0  0  0  0  0  0
    2.1911    2.9720    0.0000 H   0  0  0  0  0  0  0  0  0  0  0  0
    1.1305    2.3597    0.0000 H   0  0  0  0  0  0  0  0  0  0  0  0
    4.0000    1.3857    0.0000 C   0  0  0  0  0  0  0  0  0  0  0  0
    5.6000    1.3857    0.0000 H   0  0  0  0  0  0  0  0  0  0  0  0
    4.8000    2.7713    0.0000 H   0  0  0  0  0  0  0  0  0  0  0  0
    4.8000    0.0000    0.0000 H   0  0  0  0  0  0  0  0  0  0  0  0
    2.4001   -1.3856    0.0000 C   0  0  0  0  0  0  0  0  0  0  0  0
    4.0000   -1.3856    0.0000 H   0  0  0  0  0  0  0  0  0  0  0  0
    1.5999   -2.7713    0.0000 C   0  0  0  0  0  0  0  0  0  0  0  0
    2.4001   -4.1570    0.0000 H   0  0  0  0  0  0  0  0  0  0  0  0
   -0.0001   -2.7713    0.0000 C   0  0  0  0  0  0  0  0  0  0  0  0
   -0.8000   -4.1570    0.0000 H   0  0  0  0  0  0  0  0  0  0  0  0
   -0.8000   -1.3856    0.0000 C   0  0  0  0  0  0  0  0  0  0  0  0
   -2.3757   -1.6635    0.0000 C   0  0  0  0  0  0  0  0  0  0  0  0
   -2.8567   -0.1375    0.0000 H   0  0  0  0  0  0  0  0  0  0  0  0
   -3.7950   -0.9247    0.0000 H   0  0  0  0  0  0  0  0  0  0  0  0
   -2.9229   -3.1669    0.0000 C   0  0  0  0  0  0  0  0  0  0  0  0
   -3.4702   -4.6705    0.0000 H   0  0  0  0  0  0  0  0  0  0  0  0
   -4.4986   -3.4448    0.0000 H   0  0  0  0  0  0  0  0  0  0  0  0
   -1.8944   -4.3926    0.0000 H   0  0  0  0  0  0  0  0  0  0  0  0
  1  2  2  0  0  0  0
  1  3  1  0  0  0  0
  3  4  1  0  0  0  0
  4  5  1  0  0  0  0
  4  6  1  0  0  0  0
  4  7  1  0  0  0  0
  7  8  1  0  0  0  0
  7  9  1  0  0  0  0
  7 10  1  0  0  0  0
  1 11  1  0  0  0  0
 11 12  1  0  0  0  0
 11 13  1  0  0  0  0
 11 14  1  0  0  0  0
 14 15  1  0  0  0  0
 15 16  2  0  0  0  0
 15 17  1  0  0  0  0
 17 18  1  0  0  0  0
 17 19  1  0  0  0  0
 17 20  1  0  0  0  0
 14 21  1  0  0  0  0
 21 22  1  0  0  0  0
 22 23  1  0  0  0  0
 23 24  1  0  0  0  0
 23 25  1  0  0  0  0
 23 26  1  0  0  0  0
 26 27  1  0  0  0  0
 26 28  1  0  0  0  0
 26 29  1  0  0  0  0
 22 30  2  0  0  0  0
 30 31  1  0  0  0  0
 30 32  1  0  0  0  0
 32 33  1  0  0  0  0
 32 34  2  0  0  0  0
 34 35  1  0  0  0  0
 34 36  1  0  0  0  0
 36 21  2  0  0  0  0
 36 37  1  0  0  0  0
 37 38  1  0  0  0  0
 37 39  1  0  0  0  0
 37 40  1  0  0  0  0
 40 41  1  0  0  0  0
 40 42  1  0  0  0  0
 40 43  1  0  0  0  0
M  END
> <ChemID>
100653

> <source_casrn>
38727-55-8

> <CAS>
38727-55-8

> <SMILES>
CCOC(=O)CN(c1c(CC)cccc1CC)C(=O)CCl

> <NAME>
ANTOR

> <preferred_name>
Diethatyl-ethyl

> <iupac>
ethyl N-(chloroacetyl)-N-(2,6-diethylphenyl)glycinate

> <MPID>
99908

> <dsstox_substance_id>
DTXSID9032539

> <Canonical_QSARr>
CCOC(=O)CN(c1c(CC)cccc1CC)C(=O)CCl

> <InChI_Code_QSARr>
InChI=1S/C16H22ClNO3/c1-4-12-8-7-9-13(5-2)16(12)18(14(19)10-17)11-15(20)21-6-3/h7-9H,4-6,10-11H2,1-3H3

> <InChI Key_QSARr>
WFKSADNZWSKCRZ-UHFFFAOYSA-N

> <LogKOC>
2.0

$$$$
100655
  -INDIGO-08031722282D

 30 30  0  0  0  0  0  0  0  0999 V2000
    1.6000    2.7713    0.0000 O   0  0  0  0  0  0  0  0  0  0  0  0
    2.4000    1.3856    0.0000 C   0  0  0  0  0  0  0  0  0  0  0  0
    1.6000    0.0000    0.0000 N   0  0  0  0  0  0  0  0  0  0  0  0
    2.4000   -1.3856    0.0000 H   0  0  0  0  0  0  0  0  0  0  0  0
    0.0000    0.0000    0.0000 C   0  0  0  0  0  0  0  0  0  0  0  0
   -1.6000    0.0000    0.0000 C   0  0  0  0  0  0  0  0  0  0  0  0
   -3.2000    0.0000    0.0000 H   0  0  0  0  0  0  0  0  0  0  0  0
   -2.4000   -1.3856    0.0000 H   0  0  0  0  0  0  0  0  0  0  0  0
   -2.4000    1.3856    0.0000 H   0  0  0  0  0  0  0  0  0  0  0  0
    0.0000   -1.6000    0.0000 C   0  0  0  0  0  0  0  0  0  0  0  0
    0.0000   -3.2000    0.0000 H   0  0  0  0  0  0  0  0  0  0  0  0
   -1.3856   -2.4001    0.0000 H   0  0  0  0  0  0  0  0  0  0  0  0
    1.3856   -2.4001    0.0000 H   0  0  0  0  0  0  0  0  0  0  0  0
    0.0000    1.6000    0.0000 C   0  0  0  0  0  0  0  0  0  0  0  0
    0.0000    3.2000    0.0000 C   0  0  0  0  0  0  0  0  0  0  0  0
    0.0000    4.8000    0.0000 H   0  0  0  0  0  0  0  0  0  0  0  0
    4.0000    1.3856    0.0000 C   0  0  0  0  0  0  0  0  0  0  0  0
    4.8000    2.7713    0.0000 C   0  0  0  0  0  0  0  0  0  0  0  0
    4.0000    4.1569    0.0000 H   0  0  0  0  0  0  0  0  0  0  0  0
    6.4000    2.7713    0.0000 C   0  0  0  0  0  0  0  0  0  0  0  0
    7.2000    4.1569    0.0000 H   0  0  0  0  0  0  0  0  0  0  0  0
    7.2000    1.3856    0.0000 C   0  0  0  0  0  0  0  0  0  0  0  0
    8.8000    1.3856    0.0000 C   0  0  0  0  0  0  0  0  0  0  0  0
   10.4000    1.3856    0.0000 H   0  0  0  0  0  0  0  0  0  0  0  0
    9.6000    2.7713    0.0000 H   0  0  0  0  0  0  0  0  0  0  0  0
    9.6000    0.0000    0.0000 H   0  0  0  0  0  0  0  0  0  0  0  0
    6.4000    0.0000    0.0000 C   0  0  0  0  0  0  0  0  0  0  0  0
    7.2000   -1.3856    0.0000 H   0  0  0  0  0  0  0  0  0  0  0  0
    4.8000    0.0000    0.0000 C   0  0  0  0  0  0  0  0  0  0  0  0
    4.0000   -1.3856    0.0000 H   0  0  0  0  0  0  0  0  0  0  0  0
  1  2  2  0  0  0  0
  2  3  1  0  0  0  0
  3  4  1  0  0  0  0
  3  5  1  0  0  0  0
  5  6  1  0  0  0  0
  6  7  1  0  0  0  0
  6  8  1  0  0  0  0
  6  9  1  0  0  0  0
  5 10  1  0  0  0  0
 10 11  1  0  0  0  0
 10 12  1  0  0  0  0
 10 13  1  0  0  0  0
  5 14  1  0  0  0  0
 14 15  3  0  0  0  0
 15 16  1  0  0  0  0
  2 17  1  0  0  0  0
 17 18  1  0  0  0  0
 18 19  1  0  0  0  0
 18 20  2  0  0  0  0
 20 21  1  0  0  0  0
 20 22  1  0  0  0  0
 22 23  1  0  0  0  0
 23 24  1  0  0  0  0
 23 25  1  0  0  0  0
 23 26  1  0  0  0  0
 22 27  2  0  0  0  0
 27 28  1  0  0  0  0
 27 29  1  0  0  0  0
 29 17  2  0  0  0  0
 29 30  1  0  0  0  0
M  END
> <ChemID>
100655

> <source_casrn>
39108-91-3

> <CAS>
39108-91-3

> <SMILES>
C#CC(NC(=O)c1ccc(cc1)C)(C)C

> <NAME>
METHYLPROPYZAMIDE

> <preferred_name>
Methylpropyzamide

> <iupac>
4-methyl-N-(2-methylbut-3-yn-2-yl)benzamide

> <MPID>
99910

> <dsstox_substance_id>
DTXSID20192355

> <Canonical_QSARr>
Cc1ccc(cc1)C(=O)NC(C)(C)C#C

> <InChI_Code_QSARr>
InChI=1S/C13H15NO/c1-5-13(3,4)14-12(15)11-8-6-10(2)7-9-11/h1,6-9H,2-4H3,(H,14,15)

> <InChI Key_QSARr>
JSGFBSKLIXESOC-UHFFFAOYSA-N

> <LogKOC>
1.76

$$$$
100658
  -INDIGO-08031722282D

 39 39  0  0  0  0  0  0  0  0999 V2000
   -2.7712    1.6000    0.0000 C   0  0  0  0  0  0  0  0  0  0  0  0
   -1.5456    2.6284    0.0000 N   0  0  0  0  0  0  0  0  0  0  0  0
   -1.8235    4.2042    0.0000 O   0  0  0  0  0  0  0  0  0  0  0  0
   -0.0421    2.0813    0.0000 O   0  0  0  0  0  0  0  0  0  0  0  0
   -2.7712    0.0000    0.0000 C   0  0  0  0  0  0  0  0  0  0  0  0
   -1.3856   -0.8000    0.0000 N   0  0  0  0  0  0  0  0  0  0  0  0
   -1.3856   -2.4000    0.0000 H   0  0  0  0  0  0  0  0  0  0  0  0
    0.0000    0.0000    0.0000 C   0  0  0  0  0  0  0  0  0  0  0  0
   -1.0285    1.2257    0.0000 H   0  0  0  0  0  0  0  0  0  0  0  0
    1.0285   -1.2257    0.0000 C   0  0  0  0  0  0  0  0  0  0  0  0
   -0.2409   -2.1997    0.0000 H   0  0  0  0  0  0  0  0  0  0  0  0
    0.8195   -2.8120    0.0000 H   0  0  0  0  0  0  0  0  0  0  0  0
    2.6285   -1.2257    0.0000 C   0  0  0  0  0  0  0  0  0  0  0  0
    3.4285   -2.6113    0.0000 H   0  0  0  0  0  0  0  0  0  0  0  0
    4.2285   -1.2257    0.0000 H   0  0  0  0  0  0  0  0  0  0  0  0
    1.8285   -2.6113    0.0000 H   0  0  0  0  0  0  0  0  0  0  0  0
    1.2257    1.0285    0.0000 C   0  0  0  0  0  0  0  0  0  0  0  0
    2.8241    1.0982    0.0000 H   0  0  0  0  0  0  0  0  0  0  0  0
    2.4053   -0.0525    0.0000 H   0  0  0  0  0  0  0  0  0  0  0  0
    0.9478    2.6041    0.0000 C   0  0  0  0  0  0  0  0  0  0  0  0
    2.1736    3.6326    0.0000 H   0  0  0  0  0  0  0  0  0  0  0  0
    2.4513    2.0570    0.0000 H   0  0  0  0  0  0  0  0  0  0  0  0
    0.6701    4.1799    0.0000 H   0  0  0  0  0  0  0  0  0  0  0  0
   -4.1570   -0.8000    0.0000 C   0  0  0  0  0  0  0  0  0  0  0  0
   -4.1570   -2.4000    0.0000 N   0  0  0  0  0  0  0  0  0  0  0  0
   -2.7712   -3.2000    0.0000 O   0  0  0  0  0  0  0  0  0  0  0  0
   -5.5426   -3.2000    0.0000 O   0  0  0  0  0  0  0  0  0  0  0  0
   -5.5426    0.0000    0.0000 C   0  0  0  0  0  0  0  0  0  0  0  0
   -6.9282   -0.8000    0.0000 C   0  0  0  0  0  0  0  0  0  0  0  0
   -8.3138   -1.6000    0.0000 H   0  0  0  0  0  0  0  0  0  0  0  0
   -8.3138    0.0000    0.0000 H   0  0  0  0  0  0  0  0  0  0  0  0
   -6.9282   -2.4000    0.0000 H   0  0  0  0  0  0  0  0  0  0  0  0
   -5.5426    1.6000    0.0000 C   0  0  0  0  0  0  0  0  0  0  0  0
   -6.9282    2.4000    0.0000 C   0  0  0  0  0  0  0  0  0  0  0  0
   -8.3138    3.2000    0.0000 H   0  0  0  0  0  0  0  0  0  0  0  0
   -6.9282    4.0000    0.0000 H   0  0  0  0  0  0  0  0  0  0  0  0
   -8.3138    1.6000    0.0000 H   0  0  0  0  0  0  0  0  0  0  0  0
   -4.1570    2.4000    0.0000 C   0  0  0  0  0  0  0  0  0  0  0  0
   -4.1570    4.0000    0.0000 H   0  0  0  0  0  0  0  0  0  0  0  0
  1  2  1  0  0  0  0
  2  3  1  0  0  0  0
  2  4  2  0  0  0  0
  1  5  1  0  0  0  0
  5  6  1  0  0  0  0
  6  7  1  0  0  0  0
  6  8  1  0  0  0  0
  8  9  1  0  0  0  0
  8 10  1  0  0  0  0
 10 11  1  0  0  0  0
 10 12  1  0  0  0  0
 10 13  1  0  0  0  0
 13 14  1  0  0  0  0
 13 15  1  0  0  0  0
 13 16  1  0  0  0  0
  8 17  1  0  0  0  0
 17 18  1  0  0  0  0
 17 19  1  0  0  0  0
 17 20  1  0  0  0  0
 20 21  1  0  0  0  0
 20 22  1  0  0  0  0
 20 23  1  0  0  0  0
  5 24  2  0  0  0  0
 24 25  1  0  0  0  0
 25 26  1  0  0  0  0
 25 27  2  0  0  0  0
 24 28  1  0  0  0  0
 28 29  1  0  0  0  0
 29 30  1  0  0  0  0
 29 31  1  0  0  0  0
 29 32  1  0  0  0  0
 28 33  2  0  0  0  0
 33 34  1  0  0  0  0
 34 35  1  0  0  0  0
 34 36  1  0  0  0  0
 34 37  1  0  0  0  0
 33 38  1  0  0  0  0
 38  1  2  0  0  0  0
 38 39  1  0  0  0  0
M  CHG  4   2   1   3  -1  25   1  26  -1
M  END
> <ChemID>
100658

> <source_casrn>
40487-42-1

> <CAS>
40487-42-1

> <SMILES>
Cc1c(c(NC(CC)CC)c(cc1C)[N+]([O-])=O)[N+]([O-])=O

> <NAME>
PENDIMETHALIN

> <preferred_name>
Pendimethalin

> <iupac>
3,4-dimethyl-2,6-dinitro-N-(pentan-3-yl)aniline

> <MPID>
99911

> <dsstox_substance_id>
DTXSID7024245

> <Canonical_QSARr>
Cc1c(c(NC(CC)CC)c(cc1C)[N+]([O-])=O)[N+]([O-])=O

> <InChI_Code_QSARr>
InChI=1S/C13H19N3O4/c1-5-10(6-2)14-12-11(15(17)18)7-8(3)9(4)13(12)16(19)20/h7,10,14H,5-6H2,1-4H3

> <InChI Key_QSARr>
CHIFOSRWCNZCFN-UHFFFAOYSA-N

> <LogKOC>
3.7

$$$$
100659
  -INDIGO-08031722282D

 33 33  0  0  0  0  0  0  0  0999 V2000
    9.6996    2.4000    0.0000 C   0  0  0  0  0  0  0  0  0  0  0  0
   11.0851    3.2000    0.0000 Br  0  0  0  0  0  0  0  0  0  0  0  0
    8.3138    3.2000    0.0000 C   0  0  0  0  0  0  0  0  0  0  0  0
    8.3138    4.8000    0.0000 H   0  0  0  0  0  0  0  0  0  0  0  0
    6.9283    2.4000    0.0000 C   0  0  0  0  0  0  0  0  0  0  0  0
    5.5426    3.2000    0.0000 H   0  0  0  0  0  0  0  0  0  0  0  0
    6.9283    0.8000    0.0000 C   0  0  0  0  0  0  0  0  0  0  0  0
    5.5426   -0.0000    0.0000 O   0  0  0  0  0  0  0  0  0  0  0  0
    4.1570    0.8000    0.0000 P   0  0  0  0  0  0  0  0  0  0  0  0
    2.7713   -0.0000    0.0000 S   0  0  0  0  0  0  0  0  0  0  0  0
    1.3857    0.8000    0.0000 C   0  0  0  0  0  0  0  0  0  0  0  0
    0.7734    2.2782    0.0000 H   0  0  0  0  0  0  0  0  0  0  0  0
    1.9979    2.2782    0.0000 H   0  0  0  0  0  0  0  0  0  0  0  0
    0.0000   -0.0000    0.0000 C   0  0  0  0  0  0  0  0  0  0  0  0
    0.6123   -1.4782    0.0000 H   0  0  0  0  0  0  0  0  0  0  0  0
   -0.6123   -1.4782    0.0000 H   0  0  0  0  0  0  0  0  0  0  0  0
   -1.3855    0.8000    0.0000 C   0  0  0  0  0  0  0  0  0  0  0  0
   -2.7713   -0.0000    0.0000 H   0  0  0  0  0  0  0  0  0  0  0  0
   -2.7713    1.6000    0.0000 H   0  0  0  0  0  0  0  0  0  0  0  0
   -1.3855   -0.8000    0.0000 H   0  0  0  0  0  0  0  0  0  0  0  0
    4.1570   -0.8000    0.0000 O   0  0  0  0  0  0  0  0  0  0  0  0
    2.7713    1.6000    0.0000 O   0  0  0  0  0  0  0  0  0  0  0  0
    2.7713    3.2000    0.0000 C   0  0  0  0  0  0  0  0  0  0  0  0
    3.7454    4.4694    0.0000 H   0  0  0  0  0  0  0  0  0  0  0  0
    4.3577    3.4089    0.0000 H   0  0  0  0  0  0  0  0  0  0  0  0
    1.3857    4.0000    0.0000 C   0  0  0  0  0  0  0  0  0  0  0  0
    0.0000    4.8000    0.0000 H   0  0  0  0  0  0  0  0  0  0  0  0
    1.3857    5.6000    0.0000 H   0  0  0  0  0  0  0  0  0  0  0  0
    0.0000    3.2000    0.0000 H   0  0  0  0  0  0  0  0  0  0  0  0
    8.3138   -0.0000    0.0000 C   0  0  0  0  0  0  0  0  0  0  0  0
    8.3138   -1.6000    0.0000 Cl  0  0  0  0  0  0  0  0  0  0  0  0
    9.6996    0.8000    0.0000 C   0  0  0  0  0  0  0  0  0  0  0  0
   11.0851   -0.0000    0.0000 H   0  0  0  0  0  0  0  0  0  0  0  0
  1  2  1  0  0  0  0
  1  3  1  0  0  0  0
  3  4  1  0  0  0  0
  3  5  2  0  0  0  0
  5  6  1  0  0  0  0
  5  7  1  0  0  0  0
  7  8  1  0  0  0  0
  8  9  1  0  0  0  0
  9 10  1  0  0  0  0
 10 11  1  0  0  0  0
 11 12  1  0  0  0  0
 11 13  1  0  0  0  0
 11 14  1  0  0  0  0
 14 15  1  0  0  0  0
 14 16  1  0  0  0  0
 14 17  1  0  0  0  0
 17 18  1  0  0  0  0
 17 19  1  0  0  0  0
 17 20  1  0  0  0  0
  9 21  2  0  0  0  0
  9 22  1  0  0  0  0
 22 23  1  0  0  0  0
 23 24  1  0  0  0  0
 23 25  1  0  0  0  0
 23 26  1  0  0  0  0
 26 27  1  0  0  0  0
 26 28  1  0  0  0  0
 26 29  1  0  0  0  0
  7 30  2  0  0  0  0
 30 31  1  0  0  0  0
 30 32  1  0  0  0  0
 32  1  2  0  0  0  0
 32 33  1  0  0  0  0
M  END
> <ChemID>
100659

> <source_casrn>
41198-08-7

> <CAS>
41198-08-7

> <SMILES>
CCCSP(=O)(Oc1ccc(Br)cc1Cl)OCC

> <NAME>
PROFENOFOS

> <preferred_name>
Profenofos

> <iupac>
O-(4-bromo-2-chlorophenyl) O-ethyl S-propyl phosphorothioate

> <MPID>
99912

> <dsstox_substance_id>
DTXSID3032464

> <Canonical_QSARr>
CCCSP(=O)(Oc1ccc(Br)cc1Cl)OCC

> <InChI_Code_QSARr>
InChI=1S/C11H15BrClO3PS/c1-3-7-18-17(14,15-4-2)16-11-6-5-9(12)8-10(11)13/h5-6,8H,3-4,7H2,1-2H3

> <InChI Key_QSARr>
QYMMJNLHFKGANY-UHFFFAOYSA-N

> <LogKOC>
3.03

$$$$
100661
  -INDIGO-08031722282D

 22 23  0  0  0  0  0  0  0  0999 V2000
   -0.0001    0.0000    0.0000 C   0  0  0  0  0  0  0  0  0  0  0  0
    1.6001   -0.0000    0.0000 C   0  0  0  0  0  0  0  0  0  0  0  0
    2.4001   -1.3856    0.0000 C   0  0  0  0  0  0  0  0  0  0  0  0
    1.6001   -2.7713    0.0000 Cl  0  0  0  0  0  0  0  0  0  0  0  0
    4.0000   -1.3856    0.0000 C   0  0  0  0  0  0  0  0  0  0  0  0
    4.8000   -2.7713    0.0000 H   0  0  0  0  0  0  0  0  0  0  0  0
    4.8000    0.0000    0.0000 C   0  0  0  0  0  0  0  0  0  0  0  0
    6.4000    0.0000    0.0000 Cl  0  0  0  0  0  0  0  0  0  0  0  0
    4.0000    1.3856    0.0000 C   0  0  0  0  0  0  0  0  0  0  0  0
    4.8000    2.7713    0.0000 Cl  0  0  0  0  0  0  0  0  0  0  0  0
    2.4001    1.3856    0.0000 C   0  0  0  0  0  0  0  0  0  0  0  0
    1.6001    2.7713    0.0000 H   0  0  0  0  0  0  0  0  0  0  0  0
   -0.8001    1.3856    0.0000 C   0  0  0  0  0  0  0  0  0  0  0  0
   -0.0001    2.7713    0.0000 Cl  0  0  0  0  0  0  0  0  0  0  0  0
   -2.4000    1.3856    0.0000 C   0  0  0  0  0  0  0  0  0  0  0  0
   -3.2000    2.7713    0.0000 Cl  0  0  0  0  0  0  0  0  0  0  0  0
   -3.2000    0.0000    0.0000 C   0  0  0  0  0  0  0  0  0  0  0  0
   -4.8000   -0.0000    0.0000 H   0  0  0  0  0  0  0  0  0  0  0  0
   -2.4000   -1.3856    0.0000 C   0  0  0  0  0  0  0  0  0  0  0  0
   -3.2000   -2.7713    0.0000 H   0  0  0  0  0  0  0  0  0  0  0  0
   -0.8001   -1.3856    0.0000 C   0  0  0  0  0  0  0  0  0  0  0  0
   -0.0001   -2.7713    0.0000 H   0  0  0  0  0  0  0  0  0  0  0  0
  1  2  1  0  0  0  0
  2  3  1  0  0  0  0
  3  4  1  0  0  0  0
  3  5  2  0  0  0  0
  5  6  1  0  0  0  0
  5  7  1  0  0  0  0
  7  8  1  0  0  0  0
  7  9  2  0  0  0  0
  9 10  1  0  0  0  0
  9 11  1  0  0  0  0
 11  2  2  0  0  0  0
 11 12  1  0  0  0  0
  1 13  1  0  0  0  0
 13 14  1  0  0  0  0
 13 15  2  0  0  0  0
 15 16  1  0  0  0  0
 15 17  1  0  0  0  0
 17 18  1  0  0  0  0
 17 19  2  0  0  0  0
 19 20  1  0  0  0  0
 19 21  1  0  0  0  0
 21  1  2  0  0  0  0
 21 22  1  0  0  0  0
M  END
> <ChemID>
100661

> <source_casrn>
41464-51-1

> <CAS>
41464-51-1

> <SMILES>
Clc1cc(Cl)c(Cl)cc1-c1cccc(Cl)c1Cl

> <NAME>
2,2',3',4,5-PENTACHLOROBIPHENYL

> <preferred_name>
2,2',3,4',5'-Pentachlorobiphenyl

> <iupac>
1,2,4-trichloro-5-(2,3-dichlorophenyl)benzene

> <MPID>
99914

> <dsstox_substance_id>
DTXSID2073510

> <Canonical_QSARr>
Clc1cc(Cl)c(Cl)cc1-c1cccc(Cl)c1Cl

> <InChI_Code_QSARr>
InChI=1S/C12H5Cl5/c13-8-3-1-2-6(12(8)17)7-4-10(15)11(16)5-9(7)14/h1-5H

> <InChI Key_QSARr>
JTUSORDQZVOEAZ-UHFFFAOYSA-N

> <LogKOC>
5.69

$$$$
100662
  -INDIGO-08031722282D

 20 22  0  0  0  0  0  0  0  0999 V2000
   -1.5650    0.3327    0.0000 N   0  0  0  0  0  0  0  0  0  0  0  0
    0.0001    0.0000    0.0000 C   0  0  0  0  0  0  0  0  0  0  0  0
    0.8000    1.3856    0.0000 C   0  0  0  0  0  0  0  0  0  0  0  0
    2.4000    1.3856    0.0000 C   0  0  0  0  0  0  0  0  0  0  0  0
    3.2000    2.7713    0.0000 H   0  0  0  0  0  0  0  0  0  0  0  0
    3.2000    0.0000    0.0000 C   0  0  0  0  0  0  0  0  0  0  0  0
    4.8000    0.0000    0.0000 H   0  0  0  0  0  0  0  0  0  0  0  0
    2.4000   -1.3856    0.0000 C   0  0  0  0  0  0  0  0  0  0  0  0
    3.2000   -2.7713    0.0000 H   0  0  0  0  0  0  0  0  0  0  0  0
    0.8000   -1.3856    0.0000 C   0  0  0  0  0  0  0  0  0  0  0  0
    0.0001   -2.7713    0.0000 C   0  0  0  0  0  0  0  0  0  0  0  0
   -0.8000   -4.1569    0.0000 H   0  0  0  0  0  0  0  0  0  0  0  0
    0.8000   -4.1569    0.0000 H   0  0  0  0  0  0  0  0  0  0  0  0
   -1.5999   -2.7713    0.0000 H   0  0  0  0  0  0  0  0  0  0  0  0
   -0.2707    2.5746    0.0000 S   0  0  0  0  0  0  0  0  0  0  0  0
   -1.7323    1.9239    0.0000 C   0  0  0  0  0  0  0  0  0  0  0  0
   -3.2973    2.2565    0.0000 N   0  0  0  0  0  0  0  0  0  0  0  0
   -4.0973    0.8709    0.0000 N   0  0  0  0  0  0  0  0  0  0  0  0
   -3.0267   -0.3181    0.0000 C   0  0  0  0  0  0  0  0  0  0  0  0
   -3.3594   -1.8831    0.0000 H   0  0  0  0  0  0  0  0  0  0  0  0
  1  2  1  0  0  0  0
  2  3  1  0  0  0  0
  3  4  2  0  0  0  0
  4  5  1  0  0  0  0
  4  6  1  0  0  0  0
  6  7  1  0  0  0  0
  6  8  2  0  0  0  0
  8  9  1  0  0  0  0
  8 10  1  0  0  0  0
 10  2  2  0  0  0  0
 10 11  1  0  0  0  0
 11 12  1  0  0  0  0
 11 13  1  0  0  0  0
 11 14  1  0  0  0  0
  3 15  1  0  0  0  0
 15 16  1  0  0  0  0
 16  1  1  0  0  0  0
 16 17  2  0  0  0  0
 17 18  1  0  0  0  0
 18 19  2  0  0  0  0
 19  1  1  0  0  0  0
 19 20  1  0  0  0  0
M  END
> <ChemID>
100662

> <source_casrn>
41814-78-2

> <CAS>
41814-78-2

> <SMILES>
Cc1cccc2[s]c3[n][n]c[n]3c21

> <NAME>
TRICYCLAZOLE

> <preferred_name>
2,7,8,9-Tricyclazole

> <iupac>
5-methyl[1,2,4]triazolo[3,4-b][1,3]benzothiazole

> <MPID>
99915

> <dsstox_substance_id>
DTXSID7037478

> <Canonical_QSARr>
Cc1cccc2[s]c3[n][n]c[n]3c21

> <InChI_Code_QSARr>
InChI=1S/C9H7N3S/c1-6-3-2-4-7-8(6)12-5-10-11-9(12)13-7/h2-5H,1H3

> <InChI Key_QSARr>
DQJCHOQLCLEDLL-UHFFFAOYSA-N

> <LogKOC>
3.09

$$$$
100663
  -INDIGO-08031722282D

 35 35  0  0  0  0  0  0  0  0999 V2000
   -4.1398   -0.0620    0.0000 C   0  0  0  0  0  0  0  0  0  0  0  0
   -3.8071   -1.6271    0.0000 N   0  0  0  0  0  0  0  0  0  0  0  0
   -2.2157   -1.7943    0.0000 C   0  0  0  0  0  0  0  0  0  0  0  0
   -1.4158   -3.1800    0.0000 Cl  0  0  0  0  0  0  0  0  0  0  0  0
   -1.5651   -0.3326    0.0000 N   0  0  0  0  0  0  0  0  0  0  0  0
   -0.0001    0.0000    0.0000 C   0  0  0  0  0  0  0  0  0  0  0  0
    0.3326   -1.5650    0.0000 H   0  0  0  0  0  0  0  0  0  0  0  0
    1.5650    0.3326    0.0000 C   0  0  0  0  0  0  0  0  0  0  0  0
    3.1301    0.6653    0.0000 H   0  0  0  0  0  0  0  0  0  0  0  0
    2.6357   -0.8564    0.0000 H   0  0  0  0  0  0  0  0  0  0  0  0
    2.0593    1.8543    0.0000 H   0  0  0  0  0  0  0  0  0  0  0  0
   -0.3327    1.5650    0.0000 C   0  0  0  0  0  0  0  0  0  0  0  0
   -0.6654    3.1301    0.0000 H   0  0  0  0  0  0  0  0  0  0  0  0
    0.8563    2.6356    0.0000 H   0  0  0  0  0  0  0  0  0  0  0  0
   -1.8544    2.0595    0.0000 H   0  0  0  0  0  0  0  0  0  0  0  0
   -2.7542    0.7380    0.0000 N   0  0  0  0  0  0  0  0  0  0  0  0
   -5.6015    0.5887    0.0000 O   0  0  0  0  0  0  0  0  0  0  0  0
   -6.8958   -0.3517    0.0000 P   0  0  0  0  0  0  0  0  0  0  0  0
   -6.7286   -1.9430    0.0000 S   0  0  0  0  0  0  0  0  0  0  0  0
   -8.1903   -1.2922    0.0000 O   0  0  0  0  0  0  0  0  0  0  0  0
   -9.6520   -0.6415    0.0000 C   0  0  0  0  0  0  0  0  0  0  0  0
  -10.4155    0.7646    0.0000 H   0  0  0  0  0  0  0  0  0  0  0  0
   -9.1975    0.8927    0.0000 H   0  0  0  0  0  0  0  0  0  0  0  0
  -10.9463   -1.5818    0.0000 C   0  0  0  0  0  0  0  0  0  0  0  0
  -12.2409   -2.5223    0.0000 H   0  0  0  0  0  0  0  0  0  0  0  0
  -12.4080   -0.9311    0.0000 H   0  0  0  0  0  0  0  0  0  0  0  0
  -10.7792   -3.1731    0.0000 H   0  0  0  0  0  0  0  0  0  0  0  0
   -8.3575    0.2990    0.0000 O   0  0  0  0  0  0  0  0  0  0  0  0
   -8.5246    1.8902    0.0000 C   0  0  0  0  0  0  0  0  0  0  0  0
   -7.6886    3.2545    0.0000 H   0  0  0  0  0  0  0  0  0  0  0  0
   -6.9690    2.2638    0.0000 H   0  0  0  0  0  0  0  0  0  0  0  0
   -9.9863    2.5411    0.0000 C   0  0  0  0  0  0  0  0  0  0  0  0
  -11.4480    3.1918    0.0000 H   0  0  0  0  0  0  0  0  0  0  0  0
  -10.1537    4.1323    0.0000 H   0  0  0  0  0  0  0  0  0  0  0  0
  -11.2809    1.6006    0.0000 H   0  0  0  0  0  0  0  0  0  0  0  0
  1  2  1  0  0  0  0
  2  3  2  0  0  0  0
  3  4  1  0  0  0  0
  3  5  1  0  0  0  0
  5  6  1  0  0  0  0
  6  7  1  0  0  0  0
  6  8  1  0  0  0  0
  8  9  1  0  0  0  0
  8 10  1  0  0  0  0
  8 11  1  0  0  0  0
  6 12  1  0  0  0  0
 12 13  1  0  0  0  0
 12 14  1  0  0  0  0
 12 15  1  0  0  0  0
  5 16  1  0  0  0  0
 16  1  2  0  0  0  0
  1 17  1  0  0  0  0
 17 18  1  0  0  0  0
 18 19  2  0  0  0  0
 18 20  1  0  0  0  0
 20 21  1  0  0  0  0
 21 22  1  0  0  0  0
 21 23  1  0  0  0  0
 21 24  1  0  0  0  0
 24 25  1  0  0  0  0
 24 26  1  0  0  0  0
 24 27  1  0  0  0  0
 18 28  1  0  0  0  0
 28 29  1  0  0  0  0
 29 30  1  0  0  0  0
 29 31  1  0  0  0  0
 29 32  1  0  0  0  0
 32 33  1  0  0  0  0
 32 34  1  0  0  0  0
 32 35  1  0  0  0  0
M  END
> <ChemID>
100663

> <source_casrn>
42509-80-8

> <CAS>
42509-80-8

> <SMILES>
CC(C)[n]1[n]c([n]c1Cl)OP(=S)(OCC)OCC

> <NAME>
ISAZOFOS

> <preferred_name>
Isazofos

> <iupac>
O-[5-chloro-1-(propan-2-yl)-1H-1,2,4-triazol-3-yl] O,O-diethyl phosphorothioate

> <MPID>
99916

> <dsstox_substance_id>
DTXSID7034676

> <Canonical_QSARr>
CC(C)[n]1[n]c([n]c1Cl)OP(=S)(OCC)OCC

> <InChI_Code_QSARr>
InChI=1S/C9H17ClN3O3PS/c1-5-14-17(18,15-6-2)16-9-11-8(10)13(12-9)7(3)4/h7H,5-6H2,1-4H3

> <InChI Key_QSARr>
XRHGWAGWAHHFLF-UHFFFAOYSA-N

> <LogKOC>
2.01

$$$$
100665
  -INDIGO-08031722282D

 35 36  0  0  0  0  0  0  0  0999 V2000
   -1.3857    2.4001    0.0000 N   0  0  0  0  0  0  0  0  0  0  0  0
   -0.0001    1.6000    0.0000 C   0  0  0  0  0  0  0  0  0  0  0  0
   -0.0001   -0.0000    0.0000 C   0  0  0  0  0  0  0  0  0  0  0  0
   -1.3857   -0.8000    0.0000 O   0  0  0  0  0  0  0  0  0  0  0  0
   -1.3857   -2.4000    0.0000 C   0  0  0  0  0  0  0  0  0  0  0  0
    0.2006   -2.6088    0.0000 H   0  0  0  0  0  0  0  0  0  0  0  0
   -0.4117   -3.6694    0.0000 H   0  0  0  0  0  0  0  0  0  0  0  0
   -2.7713   -3.2001    0.0000 C   0  0  0  0  0  0  0  0  0  0  0  0
   -4.1569   -4.0000    0.0000 H   0  0  0  0  0  0  0  0  0  0  0  0
   -2.7713   -4.8000    0.0000 H   0  0  0  0  0  0  0  0  0  0  0  0
   -4.1569   -2.4000    0.0000 H   0  0  0  0  0  0  0  0  0  0  0  0
    1.3855   -0.8000    0.0000 C   0  0  0  0  0  0  0  0  0  0  0  0
    1.3855   -2.4000    0.0000 H   0  0  0  0  0  0  0  0  0  0  0  0
    2.7712   -0.0000    0.0000 C   0  0  0  0  0  0  0  0  0  0  0  0
    4.1570   -0.8000    0.0000 O   0  0  0  0  0  0  0  0  0  0  0  0
    5.7327   -0.5221    0.0000 C   0  0  0  0  0  0  0  0  0  0  0  0
    6.7610   -1.7478    0.0000 C   0  0  0  0  0  0  0  0  0  0  0  0
    6.2140   -3.2514    0.0000 Cl  0  0  0  0  0  0  0  0  0  0  0  0
    8.3369   -1.4700    0.0000 C   0  0  0  0  0  0  0  0  0  0  0  0
    9.3652   -2.6957    0.0000 H   0  0  0  0  0  0  0  0  0  0  0  0
    8.8839    0.0335    0.0000 C   0  0  0  0  0  0  0  0  0  0  0  0
   10.4598    0.3113    0.0000 C   0  0  0  0  0  0  0  0  0  0  0  0
   12.0354    0.5892    0.0000 F   0  0  0  0  0  0  0  0  0  0  0  0
   11.4881   -0.9144    0.0000 F   0  0  0  0  0  0  0  0  0  0  0  0
   11.0070    1.8149    0.0000 F   0  0  0  0  0  0  0  0  0  0  0  0
    7.8556    1.2592    0.0000 C   0  0  0  0  0  0  0  0  0  0  0  0
    8.4028    2.7628    0.0000 H   0  0  0  0  0  0  0  0  0  0  0  0
    6.2799    0.9814    0.0000 C   0  0  0  0  0  0  0  0  0  0  0  0
    5.2513    2.2070    0.0000 H   0  0  0  0  0  0  0  0  0  0  0  0
    2.7712    1.6000    0.0000 C   0  0  0  0  0  0  0  0  0  0  0  0
    4.1570    2.4001    0.0000 H   0  0  0  0  0  0  0  0  0  0  0  0
    1.3855    2.4001    0.0000 C   0  0  0  0  0  0  0  0  0  0  0  0
    1.3855    4.0000    0.0000 H   0  0  0  0  0  0  0  0  0  0  0  0
   -1.3857    4.0000    0.0000 O   0  0  0  0  0  0  0  0  0  0  0  0
   -2.7713    1.6000    0.0000 O   0  0  0  0  0  0  0  0  0  0  0  0
  1  2  1  0  0  0  0
  2  3  1  0  0  0  0
  3  4  1  0  0  0  0
  4  5  1  0  0  0  0
  5  6  1  0  0  0  0
  5  7  1  0  0  0  0
  5  8  1  0  0  0  0
  8  9  1  0  0  0  0
  8 10  1  0  0  0  0
  8 11  1  0  0  0  0
  3 12  2  0  0  0  0
 12 13  1  0  0  0  0
 12 14  1  0  0  0  0
 14 15  1  0  0  0  0
 15 16  1  0  0  0  0
 16 17  1  0  0  0  0
 17 18  1  0  0  0  0
 17 19  2  0  0  0  0
 19 20  1  0  0  0  0
 19 21  1  0  0  0  0
 21 22  1  0  0  0  0
 22 23  1  0  0  0  0
 22 24  1  0  0  0  0
 22 25  1  0  0  0  0
 21 26  2  0  0  0  0
 26 27  1  0  0  0  0
 26 28  1  0  0  0  0
 28 16  2  0  0  0  0
 28 29  1  0  0  0  0
 14 30  2  0  0  0  0
 30 31  1  0  0  0  0
 30 32  1  0  0  0  0
 32  2  2  0  0  0  0
 32 33  1  0  0  0  0
  1 34  1  0  0  0  0
  1 35  2  0  0  0  0
M  CHG  2   1   1  34  -1
M  END
> <ChemID>
100665

> <source_casrn>
42874-03-3

> <CAS>
42874-03-3

> <SMILES>
CCOc1cc(ccc1[N+]([O-])=O)Oc1ccc(cc1Cl)C(F)(F)F

> <NAME>
OXYFLUORFEN

> <preferred_name>
Oxyfluorfen

> <iupac>
2-chloro-1-(3-ethoxy-4-nitrophenoxy)-4-(trifluoromethyl)benzene

> <MPID>
99918

> <dsstox_substance_id>
DTXSID7024241

> <Canonical_QSARr>
CCOc1cc(ccc1[N+]([O-])=O)Oc1ccc(cc1Cl)C(F)(F)F

> <InChI_Code_QSARr>
InChI=1S/C15H11ClF3NO4/c1-2-23-14-8-10(4-5-12(14)20(21)22)24-13-6-3-9(7-11(13)16)15(17,18)19/h3-8H,2H2,1H3

> <InChI Key_QSARr>
OQMBBFQZGJFLBU-UHFFFAOYSA-N

> <LogKOC>
5.0

$$$$
100666
  -INDIGO-08031722282D

 36 37  0  0  0  0  0  0  0  0999 V2000
    1.3857   -2.4000    0.0000 C   0  0  0  0  0  0  0  0  0  0  0  0
    2.7713   -3.2001    0.0000 H   0  0  0  0  0  0  0  0  0  0  0  0
    0.5856   -3.7857    0.0000 N   0  0  0  0  0  0  0  0  0  0  0  0
   -1.0056   -3.9529    0.0000 N   0  0  0  0  0  0  0  0  0  0  0  0
   -1.3383   -5.5179    0.0000 C   0  0  0  0  0  0  0  0  0  0  0  0
   -2.7999   -6.1687    0.0000 H   0  0  0  0  0  0  0  0  0  0  0  0
    0.0473   -6.3179    0.0000 N   0  0  0  0  0  0  0  0  0  0  0  0
    1.2364   -5.2474    0.0000 C   0  0  0  0  0  0  0  0  0  0  0  0
    2.8015   -5.5800    0.0000 H   0  0  0  0  0  0  0  0  0  0  0  0
    0.0000   -1.6000    0.0000 C   0  0  0  0  0  0  0  0  0  0  0  0
    0.0000    0.0000    0.0000 C   0  0  0  0  0  0  0  0  0  0  0  0
   -0.2778    1.5757    0.0000 C   0  0  0  0  0  0  0  0  0  0  0  0
   -0.5557    3.1514    0.0000 H   0  0  0  0  0  0  0  0  0  0  0  0
   -1.7813    2.1229    0.0000 H   0  0  0  0  0  0  0  0  0  0  0  0
    0.9478    2.6042    0.0000 H   0  0  0  0  0  0  0  0  0  0  0  0
   -1.6000    0.0000    0.0000 C   0  0  0  0  0  0  0  0  0  0  0  0
   -3.2000    0.0000    0.0000 H   0  0  0  0  0  0  0  0  0  0  0  0
   -2.4001    1.3857    0.0000 H   0  0  0  0  0  0  0  0  0  0  0  0
   -2.4001   -1.3857    0.0000 H   0  0  0  0  0  0  0  0  0  0  0  0
    1.6000    0.0000    0.0000 C   0  0  0  0  0  0  0  0  0  0  0  0
    2.4000    1.3857    0.0000 H   0  0  0  0  0  0  0  0  0  0  0  0
    3.2001    0.0000    0.0000 H   0  0  0  0  0  0  0  0  0  0  0  0
    0.7999    1.3857    0.0000 H   0  0  0  0  0  0  0  0  0  0  0  0
   -1.3856   -2.4000    0.0000 O   0  0  0  0  0  0  0  0  0  0  0  0
    2.1856   -1.0143    0.0000 O   0  0  0  0  0  0  0  0  0  0  0  0
    3.7856   -1.0143    0.0000 C   0  0  0  0  0  0  0  0  0  0  0  0
    4.5857    0.3714    0.0000 C   0  0  0  0  0  0  0  0  0  0  0  0
    3.7856    1.7569    0.0000 H   0  0  0  0  0  0  0  0  0  0  0  0
    6.1857    0.3714    0.0000 C   0  0  0  0  0  0  0  0  0  0  0  0
    6.9856    1.7569    0.0000 H   0  0  0  0  0  0  0  0  0  0  0  0
    6.9856   -1.0143    0.0000 C   0  0  0  0  0  0  0  0  0  0  0  0
    8.5856   -1.0143    0.0000 Cl  0  0  0  0  0  0  0  0  0  0  0  0
    6.1857   -2.4000    0.0000 C   0  0  0  0  0  0  0  0  0  0  0  0
    6.9856   -3.7857    0.0000 H   0  0  0  0  0  0  0  0  0  0  0  0
    4.5857   -2.4000    0.0000 C   0  0  0  0  0  0  0  0  0  0  0  0
    3.7856   -3.7857    0.0000 H   0  0  0  0  0  0  0  0  0  0  0  0
  1  2  1  0  0  0  0
  1  3  1  0  0  0  0
  3  4  1  0  0  0  0
  4  5  2  0  0  0  0
  5  6  1  0  0  0  0
  5  7  1  0  0  0  0
  7  8  2  0  0  0  0
  8  3  1  0  0  0  0
  8  9  1  0  0  0  0
  1 10  1  0  0  0  0
 10 11  1  0  0  0  0
 11 12  1  0  0  0  0
 12 13  1  0  0  0  0
 12 14  1  0  0  0  0
 12 15  1  0  0  0  0
 11 16  1  0  0  0  0
 16 17  1  0  0  0  0
 16 18  1  0  0  0  0
 16 19  1  0  0  0  0
 11 20  1  0  0  0  0
 20 21  1  0  0  0  0
 20 22  1  0  0  0  0
 20 23  1  0  0  0  0
 10 24  2  0  0  0  0
  1 25  1  0  0  0  0
 25 26  1  0  0  0  0
 26 27  1  0  0  0  0
 27 28  1  0  0  0  0
 27 29  2  0  0  0  0
 29 30  1  0  0  0  0
 29 31  1  0  0  0  0
 31 32  1  0  0  0  0
 31 33  2  0  0  0  0
 33 34  1  0  0  0  0
 33 35  1  0  0  0  0
 35 26  2  0  0  0  0
 35 36  1  0  0  0  0
M  END
> <ChemID>
100666

> <source_casrn>
43121-43-3

> <CAS>
43121-43-3

> <SMILES>
CC(C)(C)C(=O)C(Oc1ccc(Cl)cc1)[n]1c[n]c[n]1

> <NAME>
TRIADIMEFON

> <preferred_name>
Triadimefon

> <iupac>
1-(4-chlorophenoxy)-3,3-dimethyl-1-(1H-1,2,4-triazol-1-yl)butan-2-one

> <MPID>
99919

> <dsstox_substance_id>
DTXSID3023897

> <Canonical_QSARr>
CC(C)(C)C(=O)C(Oc1ccc(Cl)cc1)[n]1c[n]c[n]1

> <InChI_Code_QSARr>
InChI=1S/C14H16ClN3O2/c1-14(2,3)12(19)13(18-9-16-8-17-18)20-11-6-4-10(15)5-7-11/h4-9,13H,1-3H3

> <InChI Key_QSARr>
WURBVZBTWMNKQT-UHFFFAOYSA-N

> <LogKOC>
2.71

$$$$
100668
  -INDIGO-08031722282D

 27 28  0  0  0  0  0  0  0  0999 V2000
    2.5747    0.2706    0.0000 N   0  0  0  0  0  0  0  0  0  0  0  0
    2.2420   -1.2944    0.0000 C   0  0  0  0  0  0  0  0  0  0  0  0
    3.3127   -2.4835    0.0000 O   0  0  0  0  0  0  0  0  0  0  0  0
    0.6508   -1.4617    0.0000 O   0  0  0  0  0  0  0  0  0  0  0  0
   -0.0001    0.0000    0.0000 C   0  0  0  0  0  0  0  0  0  0  0  0
   -0.9405    1.2945    0.0000 C   0  0  0  0  0  0  0  0  0  0  0  0
   -0.2896    2.7561    0.0000 H   0  0  0  0  0  0  0  0  0  0  0  0
   -2.4929    1.6815    0.0000 C   0  0  0  0  0  0  0  0  0  0  0  0
   -3.6044    0.5305    0.0000 H   0  0  0  0  0  0  0  0  0  0  0  0
   -2.9339    3.2195    0.0000 H   0  0  0  0  0  0  0  0  0  0  0  0
   -1.3857   -0.8000    0.0000 C   0  0  0  0  0  0  0  0  0  0  0  0
   -2.7713   -1.6000    0.0000 H   0  0  0  0  0  0  0  0  0  0  0  0
   -2.7713    0.0000    0.0000 H   0  0  0  0  0  0  0  0  0  0  0  0
   -1.3857   -2.4000    0.0000 H   0  0  0  0  0  0  0  0  0  0  0  0
    1.1890    1.0706    0.0000 C   0  0  0  0  0  0  0  0  0  0  0  0
    1.0219    2.6618    0.0000 O   0  0  0  0  0  0  0  0  0  0  0  0
    4.0364    0.9214    0.0000 C   0  0  0  0  0  0  0  0  0  0  0  0
    4.2036    2.5126    0.0000 C   0  0  0  0  0  0  0  0  0  0  0  0
    2.9092    3.4530    0.0000 H   0  0  0  0  0  0  0  0  0  0  0  0
    5.6652    3.1634    0.0000 C   0  0  0  0  0  0  0  0  0  0  0  0
    5.8325    4.7546    0.0000 Cl  0  0  0  0  0  0  0  0  0  0  0  0
    6.9598    2.2230    0.0000 C   0  0  0  0  0  0  0  0  0  0  0  0
    8.4214    2.8737    0.0000 H   0  0  0  0  0  0  0  0  0  0  0  0
    6.7924    0.6317    0.0000 C   0  0  0  0  0  0  0  0  0  0  0  0
    8.0868   -0.3088    0.0000 Cl  0  0  0  0  0  0  0  0  0  0  0  0
    5.3308   -0.0191    0.0000 C   0  0  0  0  0  0  0  0  0  0  0  0
    5.1635   -1.6103    0.0000 H   0  0  0  0  0  0  0  0  0  0  0  0
  1  2  1  0  0  0  0
  2  3  2  0  0  0  0
  2  4  1  0  0  0  0
  4  5  1  0  0  0  0
  5  6  1  0  0  0  0
  6  7  1  0  0  0  0
  6  8  2  0  0  0  0
  8  9  1  0  0  0  0
  8 10  1  0  0  0  0
  5 11  1  0  0  0  0
 11 12  1  0  0  0  0
 11 13  1  0  0  0  0
 11 14  1  0  0  0  0
  5 15  1  0  0  0  0
 15  1  1  0  0  0  0
 15 16  2  0  0  0  0
  1 17  1  0  0  0  0
 17 18  1  0  0  0  0
 18 19  1  0  0  0  0
 18 20  2  0  0  0  0
 20 21  1  0  0  0  0
 20 22  1  0  0  0  0
 22 23  1  0  0  0  0
 22 24  2  0  0  0  0
 24 25  1  0  0  0  0
 24 26  1  0  0  0  0
 26 17  2  0  0  0  0
 26 27  1  0  0  0  0
M  END
> <ChemID>
100668

> <source_casrn>
50471-44-8

> <CAS>
50471-44-8

> <SMILES>
CC1(C=C)OC(=O)N(c2cc(Cl)cc(Cl)c2)C1=O

> <NAME>
VINCLOZOLIN

> <preferred_name>
Vinclozolin

> <iupac>
3-(3,5-dichlorophenyl)-5-ethenyl-5-methyl-1,3-oxazolidine-2,4-dione

> <MPID>
99920

> <dsstox_substance_id>
DTXSID4022361

> <Canonical_QSARr>
CC1(C=C)OC(=O)N(c2cc(Cl)cc(Cl)c2)C1=O

> <InChI_Code_QSARr>
InChI=1S/C12H9Cl2NO3/c1-3-12(2)10(16)15(11(17)18-12)9-5-7(13)4-8(14)6-9/h3-6H,1H2,2H3

> <InChI Key_QSARr>
FSCWZHGZWWDELK-UHFFFAOYSA-N

> <LogKOC>
2.7

$$$$
100669
  -INDIGO-08031722282D

 28 29  0  0  0  0  0  0  0  0999 V2000
    3.9999    1.3856    0.0000 N   0  0  0  0  0  0  0  0  0  0  0  0
    4.8000    2.7713    0.0000 H   0  0  0  0  0  0  0  0  0  0  0  0
    2.4000    1.3856    0.0000 S   0  0  0  0  0  0  0  0  0  0  0  0
    2.6778    2.9613    0.0000 O   0  0  0  0  0  0  0  0  0  0  0  0
    1.0144    2.1857    0.0000 O   0  0  0  0  0  0  0  0  0  0  0  0
    1.6000   -0.0000    0.0000 N   0  0  0  0  0  0  0  0  0  0  0  0
    0.0001   -0.0000    0.0000 C   0  0  0  0  0  0  0  0  0  0  0  0
    0.0001    1.6000    0.0000 H   0  0  0  0  0  0  0  0  0  0  0  0
   -1.5757    0.2778    0.0000 C   0  0  0  0  0  0  0  0  0  0  0  0
   -3.1514    0.5557    0.0000 H   0  0  0  0  0  0  0  0  0  0  0  0
   -2.6041   -0.9478    0.0000 H   0  0  0  0  0  0  0  0  0  0  0  0
   -2.1228    1.7813    0.0000 H   0  0  0  0  0  0  0  0  0  0  0  0
    0.0001   -1.6000    0.0000 C   0  0  0  0  0  0  0  0  0  0  0  0
    0.0001   -3.2000    0.0000 H   0  0  0  0  0  0  0  0  0  0  0  0
   -1.3857   -2.4000    0.0000 H   0  0  0  0  0  0  0  0  0  0  0  0
   -1.3857   -0.8000    0.0000 H   0  0  0  0  0  0  0  0  0  0  0  0
    2.4000   -1.3857    0.0000 C   0  0  0  0  0  0  0  0  0  0  0  0
    1.6000   -2.7713    0.0000 O   0  0  0  0  0  0  0  0  0  0  0  0
    3.9999   -1.3857    0.0000 C   0  0  0  0  0  0  0  0  0  0  0  0
    4.8000   -0.0000    0.0000 C   0  0  0  0  0  0  0  0  0  0  0  0
    6.4001   -0.0000    0.0000 C   0  0  0  0  0  0  0  0  0  0  0  0
    7.1999    1.3856    0.0000 H   0  0  0  0  0  0  0  0  0  0  0  0
    7.1999   -1.3857    0.0000 C   0  0  0  0  0  0  0  0  0  0  0  0
    8.8000   -1.3857    0.0000 H   0  0  0  0  0  0  0  0  0  0  0  0
    6.4001   -2.7713    0.0000 C   0  0  0  0  0  0  0  0  0  0  0  0
    7.1999   -4.1569    0.0000 H   0  0  0  0  0  0  0  0  0  0  0  0
    4.8000   -2.7713    0.0000 C   0  0  0  0  0  0  0  0  0  0  0  0
    3.9999   -4.1569    0.0000 H   0  0  0  0  0  0  0  0  0  0  0  0
  1  2  1  0  0  0  0
  1  3  1  0  0  0  0
  3  4  2  0  0  0  0
  3  5  2  0  0  0  0
  3  6  1  0  0  0  0
  6  7  1  0  0  0  0
  7  8  1  0  0  0  0
  7  9  1  0  0  0  0
  9 10  1  0  0  0  0
  9 11  1  0  0  0  0
  9 12  1  0  0  0  0
  7 13  1  0  0  0  0
 13 14  1  0  0  0  0
 13 15  1  0  0  0  0
 13 16  1  0  0  0  0
  6 17  1  0  0  0  0
 17 18  2  0  0  0  0
 17 19  1  0  0  0  0
 19 20  1  0  0  0  0
 20  1  1  0  0  0  0
 20 21  2  0  0  0  0
 21 22  1  0  0  0  0
 21 23  1  0  0  0  0
 23 24  1  0  0  0  0
 23 25  2  0  0  0  0
 25 26  1  0  0  0  0
 25 27  1  0  0  0  0
 27 19  2  0  0  0  0
 27 28  1  0  0  0  0
M  END
> <ChemID>
100669

> <source_casrn>
50723-80-3

> <CAS>
50723-80-3

> <SMILES>
O=C(N(S(=O)(=O)N([Na])c1cccc2)C(C)C)c12

> <NAME>
BENTAZON SODIUM SALT

> <preferred_name>
Bentazone-sodium

> <iupac>
sodium 4-oxo-3-(propan-2-yl)-3,4-dihydro-2,1,3-benzothiadiazin-1-ide 2,2-dioxide

> <MPID>
99921

> <dsstox_substance_id>
DTXSID0032522

> <Canonical_QSARr>
CC(C)N1C(=O)c2ccccc2NS1(=O)=O

> <InChI_Code_QSARr>
InChI=1S/C10H12N2O3S/c1-7(2)12-10(13)8-5-3-4-6-9(8)11-16(12,14)15/h3-7,11H,1-2H3

> <InChI Key_QSARr>
ZOMSMJKLGFBRBS-UHFFFAOYSA-N

> <LogKOC>
1.54

$$$$
100671
  -INDIGO-08031722282D

 38 39  0  0  0  0  0  0  0  0999 V2000
    3.2848    2.6701    0.0000 N   0  0  0  0  0  0  0  0  0  0  0  0
    4.5105    1.6417    0.0000 C   0  0  0  0  0  0  0  0  0  0  0  0
    6.0140    2.1889    0.0000 N   0  0  0  0  0  0  0  0  0  0  0  0
    6.2919    3.7646    0.0000 C   0  0  0  0  0  0  0  0  0  0  0  0
    6.5698    5.3403    0.0000 H   0  0  0  0  0  0  0  0  0  0  0  0
    7.7954    4.3118    0.0000 H   0  0  0  0  0  0  0  0  0  0  0  0
    5.0661    4.7931    0.0000 H   0  0  0  0  0  0  0  0  0  0  0  0
    7.2397    1.1604    0.0000 C   0  0  0  0  0  0  0  0  0  0  0  0
    8.7432    1.7077    0.0000 H   0  0  0  0  0  0  0  0  0  0  0  0
    8.4653    0.1319    0.0000 H   0  0  0  0  0  0  0  0  0  0  0  0
    7.5175    2.7361    0.0000 H   0  0  0  0  0  0  0  0  0  0  0  0
    4.2326    0.0659    0.0000 N   0  0  0  0  0  0  0  0  0  0  0  0
    5.4584   -0.9624    0.0000 C   0  0  0  0  0  0  0  0  0  0  0  0
    6.6839   -1.9909    0.0000 H   0  0  0  0  0  0  0  0  0  0  0  0
    5.1805   -2.5381    0.0000 H   0  0  0  0  0  0  0  0  0  0  0  0
    6.9618   -0.4152    0.0000 H   0  0  0  0  0  0  0  0  0  0  0  0
    2.7292   -0.4813    0.0000 C   0  0  0  0  0  0  0  0  0  0  0  0
    2.4512   -2.0569    0.0000 O   0  0  0  0  0  0  0  0  0  0  0  0
    1.5036    0.5472    0.0000 N   0  0  0  0  0  0  0  0  0  0  0  0
   -0.0001   -0.0001    0.0000 C   0  0  0  0  0  0  0  0  0  0  0  0
    1.2257   -1.0284    0.0000 H   0  0  0  0  0  0  0  0  0  0  0  0
   -0.8000    1.3856    0.0000 C   0  0  0  0  0  0  0  0  0  0  0  0
    0.7034    1.9329    0.0000 H   0  0  0  0  0  0  0  0  0  0  0  0
   -1.0777    2.9614    0.0000 H   0  0  0  0  0  0  0  0  0  0  0  0
   -2.4000    1.3856    0.0000 C   0  0  0  0  0  0  0  0  0  0  0  0
   -2.1222    2.9614    0.0000 H   0  0  0  0  0  0  0  0  0  0  0  0
   -3.9034    1.9329    0.0000 H   0  0  0  0  0  0  0  0  0  0  0  0
   -3.1999   -0.0001    0.0000 C   0  0  0  0  0  0  0  0  0  0  0  0
   -4.4257    1.0284    0.0000 H   0  0  0  0  0  0  0  0  0  0  0  0
   -4.4257   -1.0284    0.0000 H   0  0  0  0  0  0  0  0  0  0  0  0
   -2.4000   -1.3856    0.0000 C   0  0  0  0  0  0  0  0  0  0  0  0
   -3.9034   -1.9329    0.0000 H   0  0  0  0  0  0  0  0  0  0  0  0
   -2.1222   -2.9613    0.0000 H   0  0  0  0  0  0  0  0  0  0  0  0
   -0.8000   -1.3856    0.0000 C   0  0  0  0  0  0  0  0  0  0  0  0
   -1.0777   -2.9613    0.0000 H   0  0  0  0  0  0  0  0  0  0  0  0
    0.7034   -1.9329    0.0000 H   0  0  0  0  0  0  0  0  0  0  0  0
    1.7813    2.1229    0.0000 C   0  0  0  0  0  0  0  0  0  0  0  0
    0.5557    3.1514    0.0000 O   0  0  0  0  0  0  0  0  0  0  0  0
  1  2  2  0  0  0  0
  2  3  1  0  0  0  0
  3  4  1  0  0  0  0
  4  5  1  0  0  0  0
  4  6  1  0  0  0  0
  4  7  1  0  0  0  0
  3  8  1  0  0  0  0
  8  9  1  0  0  0  0
  8 10  1  0  0  0  0
  8 11  1  0  0  0  0
  2 12  1  0  0  0  0
 12 13  1  0  0  0  0
 13 14  1  0  0  0  0
 13 15  1  0  0  0  0
 13 16  1  0  0  0  0
 12 17  1  0  0  0  0
 17 18  2  0  0  0  0
 17 19  1  0  0  0  0
 19 20  1  0  0  0  0
 20 21  1  0  0  0  0
 20 22  1  0  0  0  0
 22 23  1  0  0  0  0
 22 24  1  0  0  0  0
 22 25  1  0  0  0  0
 25 26  1  0  0  0  0
 25 27  1  0  0  0  0
 25 28  1  0  0  0  0
 28 29  1  0  0  0  0
 28 30  1  0  0  0  0
 28 31  1  0  0  0  0
 31 32  1  0  0  0  0
 31 33  1  0  0  0  0
 31 34  1  0  0  0  0
 34 20  1  0  0  0  0
 34 35  1  0  0  0  0
 34 36  1  0  0  0  0
 19 37  1  0  0  0  0
 37  1  1  0  0  0  0
 37 38  2  0  0  0  0
M  END
> <ChemID>
100671

> <source_casrn>
51235-04-2

> <CAS>
51235-04-2

> <SMILES>
CN(C)C1=NC(=O)N(C2CCCCC2)C(=O)N1C

> <NAME>
HEXAZINONE

> <preferred_name>
Hexazinone

> <iupac>
3-cyclohexyl-6-(dimethylamino)-1-methyl-1,3,5-triazine-2,4(1H,3H)-dione

> <MPID>
99923

> <dsstox_substance_id>
DTXSID4024145

> <Canonical_QSARr>
CN(C)C1=NC(=O)N(C2CCCCC2)C(=O)N1C

> <InChI_Code_QSARr>
InChI=1S/C12H20N4O2/c1-14(2)10-13-11(17)16(12(18)15(10)3)9-7-5-4-6-8-9/h9H,4-8H2,1-3H3

> <InChI Key_QSARr>
CAWXEEYDBZRFPE-UHFFFAOYSA-N

> <LogKOC>
1.73

$$$$
100672
  -INDIGO-08031722282D

 36 37  0  0  0  0  0  0  0  0999 V2000
  -10.2069   -0.2912    0.0000 Cl  0  0  0  0  0  0  0  0  0  0  0  0
   -9.9291   -1.8668    0.0000 C   0  0  0  0  0  0  0  0  0  0  0  0
   -8.4257   -2.4141    0.0000 C   0  0  0  0  0  0  0  0  0  0  0  0
   -7.2000   -1.3857    0.0000 O   0  0  0  0  0  0  0  0  0  0  0  0
   -5.6000   -1.3857    0.0000 C   0  0  0  0  0  0  0  0  0  0  0  0
   -4.7999   -0.0001    0.0000 C   0  0  0  0  0  0  0  0  0  0  0  0
   -5.6000    1.3857    0.0000 H   0  0  0  0  0  0  0  0  0  0  0  0
   -3.1999   -0.0001    0.0000 C   0  0  0  0  0  0  0  0  0  0  0  0
   -2.4001    1.3857    0.0000 H   0  0  0  0  0  0  0  0  0  0  0  0
   -2.4001   -1.3857    0.0000 C   0  0  0  0  0  0  0  0  0  0  0  0
   -0.8000   -1.3857    0.0000 O   0  0  0  0  0  0  0  0  0  0  0  0
    0.0000   -0.0001    0.0000 C   0  0  0  0  0  0  0  0  0  0  0  0
   -1.3856    0.8001    0.0000 H   0  0  0  0  0  0  0  0  0  0  0  0
    1.3855   -0.8000    0.0000 C   0  0  0  0  0  0  0  0  0  0  0  0
    2.7714   -0.0001    0.0000 O   0  0  0  0  0  0  0  0  0  0  0  0
    1.3855   -2.4000    0.0000 O   0  0  0  0  0  0  0  0  0  0  0  0
    2.7714   -3.2000    0.0000 C   0  0  0  0  0  0  0  0  0  0  0  0
    4.1569   -3.9999    0.0000 H   0  0  0  0  0  0  0  0  0  0  0  0
    2.7714   -4.8001    0.0000 H   0  0  0  0  0  0  0  0  0  0  0  0
    4.1569   -2.4000    0.0000 H   0  0  0  0  0  0  0  0  0  0  0  0
    0.8000    1.3857    0.0000 C   0  0  0  0  0  0  0  0  0  0  0  0
    1.6001    2.7713    0.0000 H   0  0  0  0  0  0  0  0  0  0  0  0
    2.4001    1.3857    0.0000 H   0  0  0  0  0  0  0  0  0  0  0  0
    0.0000    2.7713    0.0000 H   0  0  0  0  0  0  0  0  0  0  0  0
   -3.1999   -2.7713    0.0000 C   0  0  0  0  0  0  0  0  0  0  0  0
   -2.4001   -4.1569    0.0000 H   0  0  0  0  0  0  0  0  0  0  0  0
   -4.7999   -2.7713    0.0000 C   0  0  0  0  0  0  0  0  0  0  0  0
   -5.6000   -4.1569    0.0000 H   0  0  0  0  0  0  0  0  0  0  0  0
   -8.1479   -3.9898    0.0000 C   0  0  0  0  0  0  0  0  0  0  0  0
   -6.6443   -4.5370    0.0000 H   0  0  0  0  0  0  0  0  0  0  0  0
   -9.3736   -5.0183    0.0000 C   0  0  0  0  0  0  0  0  0  0  0  0
   -9.0957   -6.5939    0.0000 H   0  0  0  0  0  0  0  0  0  0  0  0
  -10.8769   -4.4710    0.0000 C   0  0  0  0  0  0  0  0  0  0  0  0
  -12.1026   -5.4994    0.0000 Cl  0  0  0  0  0  0  0  0  0  0  0  0
  -11.1548   -2.8953    0.0000 C   0  0  0  0  0  0  0  0  0  0  0  0
  -12.6584   -2.3481    0.0000 H   0  0  0  0  0  0  0  0  0  0  0  0
  1  2  1  0  0  0  0
  2  3  1  0  0  0  0
  3  4  1  0  0  0  0
  4  5  1  0  0  0  0
  5  6  1  0  0  0  0
  6  7  1  0  0  0  0
  6  8  2  0  0  0  0
  8  9  1  0  0  0  0
  8 10  1  0  0  0  0
 10 11  1  0  0  0  0
 11 12  1  0  0  0  0
 12 13  1  0  0  0  0
 12 14  1  0  0  0  0
 14 15  2  0  0  0  0
 14 16  1  0  0  0  0
 16 17  1  0  0  0  0
 17 18  1  0  0  0  0
 17 19  1  0  0  0  0
 17 20  1  0  0  0  0
 12 21  1  0  0  0  0
 21 22  1  0  0  0  0
 21 23  1  0  0  0  0
 21 24  1  0  0  0  0
 10 25  2  0  0  0  0
 25 26  1  0  0  0  0
 25 27  1  0  0  0  0
 27  5  2  0  0  0  0
 27 28  1  0  0  0  0
  3 29  2  0  0  0  0
 29 30  1  0  0  0  0
 29 31  1  0  0  0  0
 31 32  1  0  0  0  0
 31 33  2  0  0  0  0
 33 34  1  0  0  0  0
 33 35  1  0  0  0  0
 35  2  2  0  0  0  0
 35 36  1  0  0  0  0
M  END
> <ChemID>
100672

> <source_casrn>
51338-27-3

> <CAS>
51338-27-3

> <SMILES>
COC(=O)C(C)Oc1ccc(cc1)Oc1ccc(Cl)cc1Cl

> <NAME>
DICLOFOP-METHYL

> <preferred_name>
Diclofop-methyl

> <iupac>
methyl 2-[4-(2,4-dichlorophenoxy)phenoxy]propanoate

> <MPID>
99924

> <dsstox_substance_id>
DTXSID0032605

> <Canonical_QSARr>
COC(=O)C(C)Oc1ccc(cc1)Oc1ccc(Cl)cc1Cl

> <InChI_Code_QSARr>
InChI=1S/C16H14Cl2O4/c1-10(16(19)20-2)21-12-4-6-13(7-5-12)22-15-8-3-11(17)9-14(15)18/h3-10H,1-2H3

> <InChI Key_QSARr>
BACHBFVBHLGWSL-UHFFFAOYSA-N

> <LogKOC>
4.2

$$$$
100674
  -INDIGO-08031722282D

 52 54  0  0  0  0  0  0  0  0999 V2000
   -2.8893    0.2528    0.0000 O   0  0  0  0  0  0  0  0  0  0  0  0
   -1.5035   -0.5473    0.0000 C   0  0  0  0  0  0  0  0  0  0  0  0
    0.0001    0.0001    0.0000 C   0  0  0  0  0  0  0  0  0  0  0  0
    0.0001   -1.6001    0.0000 H   0  0  0  0  0  0  0  0  0  0  0  0
    1.5756   -0.2778    0.0000 C   0  0  0  0  0  0  0  0  0  0  0  0
    2.6041    0.9479    0.0000 C   0  0  0  0  0  0  0  0  0  0  0  0
    2.0568    2.4513    0.0000 H   0  0  0  0  0  0  0  0  0  0  0  0
    4.1799    0.6700    0.0000 C   0  0  0  0  0  0  0  0  0  0  0  0
    5.2085    1.8956    0.0000 H   0  0  0  0  0  0  0  0  0  0  0  0
    4.7269   -0.8336    0.0000 C   0  0  0  0  0  0  0  0  0  0  0  0
    6.3028   -1.1114    0.0000 Cl  0  0  0  0  0  0  0  0  0  0  0  0
    3.6988   -2.0591    0.0000 C   0  0  0  0  0  0  0  0  0  0  0  0
    4.2458   -3.5627    0.0000 H   0  0  0  0  0  0  0  0  0  0  0  0
    2.1229   -1.7814    0.0000 C   0  0  0  0  0  0  0  0  0  0  0  0
    1.0944   -3.0070    0.0000 H   0  0  0  0  0  0  0  0  0  0  0  0
    0.0001    1.6000    0.0000 C   0  0  0  0  0  0  0  0  0  0  0  0
    1.6000    1.6000    0.0000 H   0  0  0  0  0  0  0  0  0  0  0  0
    0.2778    3.1757    0.0000 C   0  0  0  0  0  0  0  0  0  0  0  0
    0.5558    4.7514    0.0000 H   0  0  0  0  0  0  0  0  0  0  0  0
   -0.9478    4.2042    0.0000 H   0  0  0  0  0  0  0  0  0  0  0  0
    1.7814    3.7229    0.0000 H   0  0  0  0  0  0  0  0  0  0  0  0
   -1.6001    1.6000    0.0000 C   0  0  0  0  0  0  0  0  0  0  0  0
   -2.4001    2.9857    0.0000 H   0  0  0  0  0  0  0  0  0  0  0  0
   -3.2000    1.6000    0.0000 H   0  0  0  0  0  0  0  0  0  0  0  0
   -0.7999    2.9857    0.0000 H   0  0  0  0  0  0  0  0  0  0  0  0
   -1.5035   -2.1472    0.0000 O   0  0  0  0  0  0  0  0  0  0  0  0
   -2.8893   -2.9473    0.0000 C   0  0  0  0  0  0  0  0  0  0  0  0
   -2.8893   -1.3472    0.0000 H   0  0  0  0  0  0  0  0  0  0  0  0
   -4.2748   -3.7471    0.0000 C   0  0  0  0  0  0  0  0  0  0  0  0
   -4.2748   -5.3473    0.0000 C   0  0  0  0  0  0  0  0  0  0  0  0
   -2.8893   -6.1473    0.0000 H   0  0  0  0  0  0  0  0  0  0  0  0
   -5.6606   -6.1473    0.0000 C   0  0  0  0  0  0  0  0  0  0  0  0
   -5.6606   -7.7472    0.0000 H   0  0  0  0  0  0  0  0  0  0  0  0
   -7.0460   -5.3473    0.0000 C   0  0  0  0  0  0  0  0  0  0  0  0
   -8.4318   -6.1473    0.0000 H   0  0  0  0  0  0  0  0  0  0  0  0
   -7.0460   -3.7471    0.0000 C   0  0  0  0  0  0  0  0  0  0  0  0
   -8.4318   -2.9473    0.0000 O   0  0  0  0  0  0  0  0  0  0  0  0
  -10.0073   -3.2251    0.0000 C   0  0  0  0  0  0  0  0  0  0  0  0
  -10.5546   -4.7286    0.0000 C   0  0  0  0  0  0  0  0  0  0  0  0
   -9.5261   -5.9543    0.0000 H   0  0  0  0  0  0  0  0  0  0  0  0
  -12.1305   -5.0064    0.0000 C   0  0  0  0  0  0  0  0  0  0  0  0
  -12.6775   -6.5099    0.0000 H   0  0  0  0  0  0  0  0  0  0  0  0
  -13.1587   -3.7807    0.0000 C   0  0  0  0  0  0  0  0  0  0  0  0
  -14.7345   -4.0586    0.0000 H   0  0  0  0  0  0  0  0  0  0  0  0
  -12.6117   -2.2773    0.0000 C   0  0  0  0  0  0  0  0  0  0  0  0
  -13.6402   -1.0516    0.0000 H   0  0  0  0  0  0  0  0  0  0  0  0
  -11.0358   -1.9994    0.0000 C   0  0  0  0  0  0  0  0  0  0  0  0
  -10.4885   -0.4958    0.0000 H   0  0  0  0  0  0  0  0  0  0  0  0
   -5.6606   -2.9473    0.0000 C   0  0  0  0  0  0  0  0  0  0  0  0
   -5.6606   -1.3472    0.0000 H   0  0  0  0  0  0  0  0  0  0  0  0
   -1.5035   -3.7471    0.0000 C   0  0  0  0  0  0  0  0  0  0  0  0
   -0.1177   -4.5472    0.0000 N   0  0  0  0  0  0  0  0  0  0  0  0
  1  2  2  0  0  0  0
  2  3  1  0  0  0  0
  3  4  1  0  0  0  0
  3  5  1  0  0  0  0
  5  6  1  0  0  0  0
  6  7  1  0  0  0  0
  6  8  2  0  0  0  0
  8  9  1  0  0  0  0
  8 10  1  0  0  0  0
 10 11  1  0  0  0  0
 10 12  2  0  0  0  0
 12 13  1  0  0  0  0
 12 14  1  0  0  0  0
 14  5  2  0  0  0  0
 14 15  1  0  0  0  0
  3 16  1  0  0  0  0
 16 17  1  0  0  0  0
 16 18  1  0  0  0  0
 18 19  1  0  0  0  0
 18 20  1  0  0  0  0
 18 21  1  0  0  0  0
 16 22  1  0  0  0  0
 22 23  1  0  0  0  0
 22 24  1  0  0  0  0
 22 25  1  0  0  0  0
  2 26  1  0  0  0  0
 26 27  1  0  0  0  0
 27 28  1  0  0  0  0
 27 29  1  0  0  0  0
 29 30  1  0  0  0  0
 30 31  1  0  0  0  0
 30 32  2  0  0  0  0
 32 33  1  0  0  0  0
 32 34  1  0  0  0  0
 34 35  1  0  0  0  0
 34 36  2  0  0  0  0
 36 37  1  0  0  0  0
 37 38  1  0  0  0  0
 38 39  1  0  0  0  0
 39 40  1  0  0  0  0
 39 41  2  0  0  0  0
 41 42  1  0  0  0  0
 41 43  1  0  0  0  0
 43 44  1  0  0  0  0
 43 45  2  0  0  0  0
 45 46  1  0  0  0  0
 45 47  1  0  0  0  0
 47 38  2  0  0  0  0
 47 48  1  0  0  0  0
 36 49  1  0  0  0  0
 49 29  2  0  0  0  0
 49 50  1  0  0  0  0
 27 51  1  0  0  0  0
 51 52  3  0  0  0  0
M  END
> <ChemID>
100674

> <source_casrn>
51630-58-1|66230-04-4

> <CAS>
51630-58-1|66230-04-4

> <SMILES>
CC(C)C(C(=O)OC(C#N)c1cc(ccc1)Oc1ccccc1)c1ccc(Cl)cc1

> <NAME>
FENVALERATE, ESFENVALERATE

> <preferred_name>
Fenvalerate

> <iupac>
cyano(3-phenoxyphenyl)methyl 2-(4-chlorophenyl)-3-methylbutanoate

> <MPID>
99925|99955

> <dsstox_substance_id>
DTXSID3020621|DTXSID4032667

> <Canonical_QSARr>
CC(C)C(C(=O)OC(C#N)c1cc(ccc1)Oc1ccccc1)c1ccc(Cl)cc1

> <InChI_Code_QSARr>
InChI=1S/C25H22ClNO3/c1-17(2)24(18-11-13-20(26)14-12-18)25(28)30-23(16-27)19-7-6-10-22(15-19)29-21-8-4-3-5-9-21/h3-15,17,23-24H,1-2H3

> <InChI Key_QSARr>
NYPJDWWKZLNGGM-UHFFFAOYSA-N

> <LogKOC>
3.73

$$$$
100676
  -INDIGO-08031722282D

 47 49  0  0  0  0  0  0  0  0999 V2000
   -0.0000    0.0000    0.0000 C   0  0  0  0  0  0  0  0  0  0  0  0
   -0.8000   -1.3857    0.0000 C   0  0  0  0  0  0  0  0  0  0  0  0
    0.4257   -2.4141    0.0000 H   0  0  0  0  0  0  0  0  0  0  0  0
   -2.1856   -2.1856    0.0000 C   0  0  0  0  0  0  0  0  0  0  0  0
   -3.1445   -2.1354    0.0000 H   0  0  0  0  0  0  0  0  0  0  0  0
   -2.1856   -3.7857    0.0000 C   0  0  0  0  0  0  0  0  0  0  0  0
   -3.5711   -4.5856    0.0000 Cl  0  0  0  0  0  0  0  0  0  0  0  0
   -0.8000   -4.5856    0.0000 Cl  0  0  0  0  0  0  0  0  0  0  0  0
   -1.6000    0.0000    0.0000 C   0  0  0  0  0  0  0  0  0  0  0  0
   -1.8780    1.5756    0.0000 H   0  0  0  0  0  0  0  0  0  0  0  0
   -3.1034   -0.5472    0.0000 C   0  0  0  0  0  0  0  0  0  0  0  0
   -4.3291    0.4812    0.0000 O   0  0  0  0  0  0  0  0  0  0  0  0
   -5.8328   -0.0660    0.0000 C   0  0  0  0  0  0  0  0  0  0  0  0
   -6.1104   -1.6417    0.0000 H   0  0  0  0  0  0  0  0  0  0  0  0
   -6.6328    1.3196    0.0000 C   0  0  0  0  0  0  0  0  0  0  0  0
   -7.4328    2.7053    0.0000 N   0  0  0  0  0  0  0  0  0  0  0  0
   -7.3362   -0.6133    0.0000 C   0  0  0  0  0  0  0  0  0  0  0  0
   -8.5619    0.4153    0.0000 C   0  0  0  0  0  0  0  0  0  0  0  0
   -8.2840    1.9909    0.0000 H   0  0  0  0  0  0  0  0  0  0  0  0
  -10.0653   -0.1320    0.0000 C   0  0  0  0  0  0  0  0  0  0  0  0
  -11.2910    0.8965    0.0000 O   0  0  0  0  0  0  0  0  0  0  0  0
  -12.8910    0.8965    0.0000 C   0  0  0  0  0  0  0  0  0  0  0  0
  -13.6910   -0.4892    0.0000 C   0  0  0  0  0  0  0  0  0  0  0  0
  -12.8910   -1.8748    0.0000 H   0  0  0  0  0  0  0  0  0  0  0  0
  -15.2910   -0.4892    0.0000 C   0  0  0  0  0  0  0  0  0  0  0  0
  -16.0910   -1.8748    0.0000 H   0  0  0  0  0  0  0  0  0  0  0  0
  -16.0910    0.8965    0.0000 C   0  0  0  0  0  0  0  0  0  0  0  0
  -17.6911    0.8965    0.0000 H   0  0  0  0  0  0  0  0  0  0  0  0
  -15.2910    2.2820    0.0000 C   0  0  0  0  0  0  0  0  0  0  0  0
  -16.0910    3.6677    0.0000 H   0  0  0  0  0  0  0  0  0  0  0  0
  -13.6910    2.2820    0.0000 C   0  0  0  0  0  0  0  0  0  0  0  0
  -12.8910    3.6677    0.0000 H   0  0  0  0  0  0  0  0  0  0  0  0
  -10.3432   -1.7077    0.0000 C   0  0  0  0  0  0  0  0  0  0  0  0
  -11.8466   -2.2549    0.0000 H   0  0  0  0  0  0  0  0  0  0  0  0
   -9.1175   -2.7361    0.0000 C   0  0  0  0  0  0  0  0  0  0  0  0
   -9.3954   -4.3119    0.0000 H   0  0  0  0  0  0  0  0  0  0  0  0
   -7.6141   -2.1889    0.0000 C   0  0  0  0  0  0  0  0  0  0  0  0
   -6.3884   -3.2174    0.0000 H   0  0  0  0  0  0  0  0  0  0  0  0
   -3.5711   -1.3857    0.0000 O   0  0  0  0  0  0  0  0  0  0  0  0
    0.2779    1.5756    0.0000 C   0  0  0  0  0  0  0  0  0  0  0  0
    0.5555    3.1514    0.0000 H   0  0  0  0  0  0  0  0  0  0  0  0
    1.7813    2.1230    0.0000 H   0  0  0  0  0  0  0  0  0  0  0  0
   -0.9478    2.6042    0.0000 H   0  0  0  0  0  0  0  0  0  0  0  0
    1.5037   -0.5472    0.0000 C   0  0  0  0  0  0  0  0  0  0  0  0
    3.0070   -1.0945    0.0000 H   0  0  0  0  0  0  0  0  0  0  0  0
    2.7291    0.4812    0.0000 H   0  0  0  0  0  0  0  0  0  0  0  0
    1.7813   -2.1229    0.0000 H   0  0  0  0  0  0  0  0  0  0  0  0
  1  2  1  0  0  0  0
  2  3  1  0  0  0  0
  2  4  1  0  0  0  0
  4  5  1  0  0  0  0
  4  6  2  0  0  0  0
  6  7  1  0  0  0  0
  6  8  1  0  0  0  0
  2  9  1  0  0  0  0
  9  1  1  0  0  0  0
  9 10  1  0  0  0  0
  9 11  1  0  0  0  0
 11 12  1  0  0  0  0
 12 13  1  0  0  0  0
 13 14  1  0  0  0  0
 13 15  1  0  0  0  0
 15 16  3  0  0  0  0
 13 17  1  0  0  0  0
 17 18  1  0  0  0  0
 18 19  1  0  0  0  0
 18 20  2  0  0  0  0
 20 21  1  0  0  0  0
 21 22  1  0  0  0  0
 22 23  1  0  0  0  0
 23 24  1  0  0  0  0
 23 25  2  0  0  0  0
 25 26  1  0  0  0  0
 25 27  1  0  0  0  0
 27 28  1  0  0  0  0
 27 29  2  0  0  0  0
 29 30  1  0  0  0  0
 29 31  1  0  0  0  0
 31 22  2  0  0  0  0
 31 32  1  0  0  0  0
 20 33  1  0  0  0  0
 33 34  1  0  0  0  0
 33 35  2  0  0  0  0
 35 36  1  0  0  0  0
 35 37  1  0  0  0  0
 37 17  2  0  0  0  0
 37 38  1  0  0  0  0
 11 39  2  0  0  0  0
  1 40  1  0  0  0  0
 40 41  1  0  0  0  0
 40 42  1  0  0  0  0
 40 43  1  0  0  0  0
  1 44  1  0  0  0  0
 44 45  1  0  0  0  0
 44 46  1  0  0  0  0
 44 47  1  0  0  0  0
M  END
> <ChemID>
100676

> <source_casrn>
52315-07-8

> <CAS>
52315-07-8

> <SMILES>
CC1(C)C(C1C=C(Cl)Cl)C(=O)OC(C#N)c1cccc(c1)Oc1ccccc1

> <NAME>
CYPERMETHRIN

> <preferred_name>
Cypermethrin

> <iupac>
cyano(3-phenoxyphenyl)methyl 3-(2,2-dichloroethenyl)-2,2-dimethylcyclopropanecarboxylate

> <MPID>
99927

> <dsstox_substance_id>
DTXSID1023998

> <Canonical_QSARr>
CC1(C)C(C1C=C(Cl)Cl)C(=O)OC(C#N)c1cccc(c1)Oc1ccccc1

> <InChI_Code_QSARr>
InChI=1S/C22H19Cl2NO3/c1-22(2)17(12-19(23)24)20(22)21(26)28-18(13-25)14-7-6-10-16(11-14)27-15-8-4-3-5-9-15/h3-12,17-18,20H,1-2H3

> <InChI Key_QSARr>
KAATUXNTWXVJKI-UHFFFAOYSA-N

> <LogKOC>
5.0

$$$$
100677
  -INDIGO-08031722282D

 46 48  0  0  0  0  0  0  0  0999 V2000
   -7.6223    3.9213    0.0000 C   0  0  0  0  0  0  0  0  0  0  0  0
   -7.0751    5.4249    0.0000 H   0  0  0  0  0  0  0  0  0  0  0  0
   -9.1980    3.6435    0.0000 C   0  0  0  0  0  0  0  0  0  0  0  0
  -10.2267    4.8691    0.0000 H   0  0  0  0  0  0  0  0  0  0  0  0
   -9.7452    2.1400    0.0000 C   0  0  0  0  0  0  0  0  0  0  0  0
  -11.3211    1.8621    0.0000 H   0  0  0  0  0  0  0  0  0  0  0  0
   -8.7168    0.9143    0.0000 C   0  0  0  0  0  0  0  0  0  0  0  0
   -9.2640   -0.5892    0.0000 O   0  0  0  0  0  0  0  0  0  0  0  0
  -10.6497   -1.3891    0.0000 C   0  0  0  0  0  0  0  0  0  0  0  0
  -12.0355   -0.5892    0.0000 C   0  0  0  0  0  0  0  0  0  0  0  0
  -12.0355    1.0109    0.0000 H   0  0  0  0  0  0  0  0  0  0  0  0
  -13.4209   -1.3891    0.0000 C   0  0  0  0  0  0  0  0  0  0  0  0
  -14.8067   -0.5892    0.0000 H   0  0  0  0  0  0  0  0  0  0  0  0
  -13.4209   -2.9892    0.0000 C   0  0  0  0  0  0  0  0  0  0  0  0
  -14.8067   -3.7893    0.0000 H   0  0  0  0  0  0  0  0  0  0  0  0
  -12.0355   -3.7893    0.0000 C   0  0  0  0  0  0  0  0  0  0  0  0
  -12.0355   -5.3892    0.0000 H   0  0  0  0  0  0  0  0  0  0  0  0
  -10.6497   -2.9892    0.0000 C   0  0  0  0  0  0  0  0  0  0  0  0
   -9.2640   -3.7893    0.0000 H   0  0  0  0  0  0  0  0  0  0  0  0
   -7.1412    1.1922    0.0000 C   0  0  0  0  0  0  0  0  0  0  0  0
   -6.1128   -0.0336    0.0000 H   0  0  0  0  0  0  0  0  0  0  0  0
   -6.5939    2.6957    0.0000 C   0  0  0  0  0  0  0  0  0  0  0  0
   -5.0183    2.9736    0.0000 C   0  0  0  0  0  0  0  0  0  0  0  0
   -5.0879    4.5720    0.0000 H   0  0  0  0  0  0  0  0  0  0  0  0
   -3.9373    4.1531    0.0000 H   0  0  0  0  0  0  0  0  0  0  0  0
   -3.9899    1.7478    0.0000 O   0  0  0  0  0  0  0  0  0  0  0  0
   -2.4140    2.0257    0.0000 C   0  0  0  0  0  0  0  0  0  0  0  0
   -2.4000    2.9857    0.0000 O   0  0  0  0  0  0  0  0  0  0  0  0
   -1.3856    0.8000    0.0000 C   0  0  0  0  0  0  0  0  0  0  0  0
   -2.4140   -0.4256    0.0000 H   0  0  0  0  0  0  0  0  0  0  0  0
    0.0001   -0.0001    0.0000 C   0  0  0  0  0  0  0  0  0  0  0  0
   -0.5471   -1.5036    0.0000 C   0  0  0  0  0  0  0  0  0  0  0  0
   -1.0946   -3.0071    0.0000 H   0  0  0  0  0  0  0  0  0  0  0  0
    0.4813   -2.7292    0.0000 H   0  0  0  0  0  0  0  0  0  0  0  0
   -2.1230   -1.7813    0.0000 H   0  0  0  0  0  0  0  0  0  0  0  0
    1.5758   -0.2778    0.0000 C   0  0  0  0  0  0  0  0  0  0  0  0
    3.1514   -0.5557    0.0000 H   0  0  0  0  0  0  0  0  0  0  0  0
    2.1230   -1.7813    0.0000 H   0  0  0  0  0  0  0  0  0  0  0  0
    2.6042    0.9478    0.0000 H   0  0  0  0  0  0  0  0  0  0  0  0
    0.0001    1.6000    0.0000 C   0  0  0  0  0  0  0  0  0  0  0  0
    1.5758    1.8778    0.0000 H   0  0  0  0  0  0  0  0  0  0  0  0
   -0.8000    2.9857    0.0000 C   0  0  0  0  0  0  0  0  0  0  0  0
   -1.6555    3.4214    0.0000 H   0  0  0  0  0  0  0  0  0  0  0  0
    0.0001    4.3713    0.0000 C   0  0  0  0  0  0  0  0  0  0  0  0
   -0.8000    5.7569    0.0000 Cl  0  0  0  0  0  0  0  0  0  0  0  0
    1.5999    4.3713    0.0000 Cl  0  0  0  0  0  0  0  0  0  0  0  0
  1  2  1  0  0  0  0
  1  3  1  0  0  0  0
  3  4  1  0  0  0  0
  3  5  2  0  0  0  0
  5  6  1  0  0  0  0
  5  7  1  0  0  0  0
  7  8  1  0  0  0  0
  8  9  1  0  0  0  0
  9 10  1  0  0  0  0
 10 11  1  0  0  0  0
 10 12  2  0  0  0  0
 12 13  1  0  0  0  0
 12 14  1  0  0  0  0
 14 15  1  0  0  0  0
 14 16  2  0  0  0  0
 16 17  1  0  0  0  0
 16 18  1  0  0  0  0
 18  9  2  0  0  0  0
 18 19  1  0  0  0  0
  7 20  2  0  0  0  0
 20 21  1  0  0  0  0
 20 22  1  0  0  0  0
 22  1  2  0  0  0  0
 22 23  1  0  0  0  0
 23 24  1  0  0  0  0
 23 25  1  0  0  0  0
 23 26  1  0  0  0  0
 26 27  1  0  0  0  0
 27 28  2  0  0  0  0
 27 29  1  0  0  0  0
 29 30  1  0  0  0  0
 29 31  1  0  0  0  0
 31 32  1  0  0  0  0
 32 33  1  0  0  0  0
 32 34  1  0  0  0  0
 32 35  1  0  0  0  0
 31 36  1  0  0  0  0
 36 37  1  0  0  0  0
 36 38  1  0  0  0  0
 36 39  1  0  0  0  0
 31 40  1  0  0  0  0
 40 29  1  0  0  0  0
 40 41  1  0  0  0  0
 40 42  1  0  0  0  0
 42 43  1  0  0  0  0
 42 44  2  0  0  0  0
 44 45  1  0  0  0  0
 44 46  1  0  0  0  0
M  END
> <ChemID>
100677

> <source_casrn>
52645-53-1

> <CAS>
52645-53-1

> <SMILES>
CC1(C)C(C1C=C(Cl)Cl)C(=O)OCc1cccc(c1)Oc1ccccc1

> <NAME>
PERMETHRIN

> <preferred_name>
Permethrin

> <iupac>
3-phenoxybenzyl 3-(2,2-dichloroethenyl)-2,2-dimethylcyclopropanecarboxylate

> <MPID>
99928

> <dsstox_substance_id>
DTXSID8022292

> <Canonical_QSARr>
CC1(C)C(C1C=C(Cl)Cl)C(=O)OCc1cccc(c1)Oc1ccccc1

> <InChI_Code_QSARr>
InChI=1S/C21H20Cl2O3/c1-21(2)17(12-18(22)23)19(21)20(24)25-13-14-7-6-10-16(11-14)26-15-8-4-3-5-9-15/h3-12,17,19H,13H2,1-2H3

> <InChI Key_QSARr>
RLLPVAHGXHCWKJ-UHFFFAOYSA-N

> <LogKOC>
4.8

$$$$
100678
  -INDIGO-08031722282D

 22 23  0  0  0  0  0  0  0  0999 V2000
   -0.0001    0.0000    0.0000 C   0  0  0  0  0  0  0  0  0  0  0  0
    1.6001   -0.0000    0.0000 C   0  0  0  0  0  0  0  0  0  0  0  0
    2.4001   -1.3856    0.0000 C   0  0  0  0  0  0  0  0  0  0  0  0
    1.6001   -2.7713    0.0000 Cl  0  0  0  0  0  0  0  0  0  0  0  0
    4.0000   -1.3856    0.0000 C   0  0  0  0  0  0  0  0  0  0  0  0
    4.8000   -2.7713    0.0000 H   0  0  0  0  0  0  0  0  0  0  0  0
    4.8000    0.0000    0.0000 C   0  0  0  0  0  0  0  0  0  0  0  0
    6.4000    0.0000    0.0000 H   0  0  0  0  0  0  0  0  0  0  0  0
    4.0000    1.3856    0.0000 C   0  0  0  0  0  0  0  0  0  0  0  0
    4.8000    2.7713    0.0000 Cl  0  0  0  0  0  0  0  0  0  0  0  0
    2.4001    1.3856    0.0000 C   0  0  0  0  0  0  0  0  0  0  0  0
    1.6001    2.7713    0.0000 H   0  0  0  0  0  0  0  0  0  0  0  0
   -0.8001    1.3856    0.0000 C   0  0  0  0  0  0  0  0  0  0  0  0
   -0.0001    2.7713    0.0000 Cl  0  0  0  0  0  0  0  0  0  0  0  0
   -2.4000    1.3856    0.0000 C   0  0  0  0  0  0  0  0  0  0  0  0
   -3.2000    2.7713    0.0000 Cl  0  0  0  0  0  0  0  0  0  0  0  0
   -3.2000    0.0000    0.0000 C   0  0  0  0  0  0  0  0  0  0  0  0
   -4.8000   -0.0000    0.0000 Cl  0  0  0  0  0  0  0  0  0  0  0  0
   -2.4000   -1.3856    0.0000 C   0  0  0  0  0  0  0  0  0  0  0  0
   -3.2000   -2.7713    0.0000 Cl  0  0  0  0  0  0  0  0  0  0  0  0
   -0.8001   -1.3856    0.0000 C   0  0  0  0  0  0  0  0  0  0  0  0
   -0.0001   -2.7713    0.0000 Cl  0  0  0  0  0  0  0  0  0  0  0  0
  1  2  1  0  0  0  0
  2  3  1  0  0  0  0
  3  4  1  0  0  0  0
  3  5  2  0  0  0  0
  5  6  1  0  0  0  0
  5  7  1  0  0  0  0
  7  8  1  0  0  0  0
  7  9  2  0  0  0  0
  9 10  1  0  0  0  0
  9 11  1  0  0  0  0
 11  2  2  0  0  0  0
 11 12  1  0  0  0  0
  1 13  1  0  0  0  0
 13 14  1  0  0  0  0
 13 15  2  0  0  0  0
 15 16  1  0  0  0  0
 15 17  1  0  0  0  0
 17 18  1  0  0  0  0
 17 19  2  0  0  0  0
 19 20  1  0  0  0  0
 19 21  1  0  0  0  0
 21  1  2  0  0  0  0
 21 22  1  0  0  0  0
M  END
> <ChemID>
100678

> <source_casrn>
52712-05-7

> <CAS>
52712-05-7

> <SMILES>
Clc1cc(-c2c(Cl)c(Cl)c(Cl)c(Cl)c2Cl)c(Cl)cc1

> <NAME>
2,2',3,4,5,5',6-HEPTACHLOROBIPHENYL

> <preferred_name>
2,2',3,4,5,5',6-Heptachlorobiphenyl

> <iupac>
1,2,3,4,5-pentachloro-6-(2,5-dichlorophenyl)benzene

> <MPID>
99929

> <dsstox_substance_id>
DTXSID1074175

> <Canonical_QSARr>
Clc1cc(-c2c(Cl)c(Cl)c(Cl)c(Cl)c2Cl)c(Cl)cc1

> <InChI_Code_QSARr>
InChI=1S/C12H3Cl7/c13-4-1-2-6(14)5(3-4)7-8(15)10(17)12(19)11(18)9(7)16/h1-3H

> <InChI Key_QSARr>
PYZHTHZEHQHHEN-UHFFFAOYSA-N

> <LogKOC>
5.95

$$$$
100680
  -INDIGO-08031722282D

 33 33  0  0  0  0  0  0  0  0999 V2000
    1.3856    2.4000    0.0000 S   0  0  0  0  0  0  0  0  0  0  0  0
    1.3856    4.0001    0.0000 C   0  0  0  0  0  0  0  0  0  0  0  0
    1.3856    5.6000    0.0000 F   0  0  0  0  0  0  0  0  0  0  0  0
    2.7713    4.8000    0.0000 F   0  0  0  0  0  0  0  0  0  0  0  0
    0.0001    4.8000    0.0000 F   0  0  0  0  0  0  0  0  0  0  0  0
    1.3856    0.8001    0.0000 N   0  0  0  0  0  0  0  0  0  0  0  0
    2.7713   -0.0000    0.0000 H   0  0  0  0  0  0  0  0  0  0  0  0
    0.0001   -0.0000    0.0000 C   0  0  0  0  0  0  0  0  0  0  0  0
   -1.3856    0.8001    0.0000 C   0  0  0  0  0  0  0  0  0  0  0  0
   -1.3856    2.4000    0.0000 H   0  0  0  0  0  0  0  0  0  0  0  0
   -2.7713   -0.0000    0.0000 C   0  0  0  0  0  0  0  0  0  0  0  0
   -4.1570    0.8001    0.0000 N   0  0  0  0  0  0  0  0  0  0  0  0
   -5.5425   -0.0000    0.0000 H   0  0  0  0  0  0  0  0  0  0  0  0
   -4.1570    2.4000    0.0000 C   0  0  0  0  0  0  0  0  0  0  0  0
   -2.7713    3.2000    0.0000 O   0  0  0  0  0  0  0  0  0  0  0  0
   -5.5425    3.2000    0.0000 C   0  0  0  0  0  0  0  0  0  0  0  0
   -6.9282    4.0001    0.0000 H   0  0  0  0  0  0  0  0  0  0  0  0
   -5.5425    4.8000    0.0000 H   0  0  0  0  0  0  0  0  0  0  0  0
   -6.9282    2.4000    0.0000 H   0  0  0  0  0  0  0  0  0  0  0  0
   -2.7713   -1.6000    0.0000 C   0  0  0  0  0  0  0  0  0  0  0  0
   -4.1570   -2.3999    0.0000 C   0  0  0  0  0  0  0  0  0  0  0  0
   -5.5425   -3.2000    0.0000 H   0  0  0  0  0  0  0  0  0  0  0  0
   -4.1570   -4.0000    0.0000 H   0  0  0  0  0  0  0  0  0  0  0  0
   -5.5425   -1.6000    0.0000 H   0  0  0  0  0  0  0  0  0  0  0  0
   -1.3856   -2.3999    0.0000 C   0  0  0  0  0  0  0  0  0  0  0  0
   -1.3856   -4.0000    0.0000 H   0  0  0  0  0  0  0  0  0  0  0  0
    0.0001   -1.6000    0.0000 C   0  0  0  0  0  0  0  0  0  0  0  0
    1.3856   -2.3999    0.0000 C   0  0  0  0  0  0  0  0  0  0  0  0
    2.7713   -3.2000    0.0000 H   0  0  0  0  0  0  0  0  0  0  0  0
    1.3856   -4.0000    0.0000 H   0  0  0  0  0  0  0  0  0  0  0  0
    2.7713   -1.6000    0.0000 H   0  0  0  0  0  0  0  0  0  0  0  0
    2.9856    2.4000    0.0000 O   0  0  0  0  0  0  0  0  0  0  0  0
   -0.2143    2.4000    0.0000 O   0  0  0  0  0  0  0  0  0  0  0  0
  1  2  1  0  0  0  0
  2  3  1  0  0  0  0
  2  4  1  0  0  0  0
  2  5  1  0  0  0  0
  1  6  1  0  0  0  0
  6  7  1  0  0  0  0
  6  8  1  0  0  0  0
  8  9  1  0  0  0  0
  9 10  1  0  0  0  0
  9 11  2  0  0  0  0
 11 12  1  0  0  0  0
 12 13  1  0  0  0  0
 12 14  1  0  0  0  0
 14 15  2  0  0  0  0
 14 16  1  0  0  0  0
 16 17  1  0  0  0  0
 16 18  1  0  0  0  0
 16 19  1  0  0  0  0
 11 20  1  0  0  0  0
 20 21  1  0  0  0  0
 21 22  1  0  0  0  0
 21 23  1  0  0  0  0
 21 24  1  0  0  0  0
 20 25  2  0  0  0  0
 25 26  1  0  0  0  0
 25 27  1  0  0  0  0
 27  8  2  0  0  0  0
 27 28  1  0  0  0  0
 28 29  1  0  0  0  0
 28 30  1  0  0  0  0
 28 31  1  0  0  0  0
  1 32  2  0  0  0  0
  1 33  2  0  0  0  0
M  END
> <ChemID>
100680

> <source_casrn>
53780-34-0

> <CAS>
53780-34-0

> <SMILES>
CC(=O)Nc1cc(NS(=O)(=O)C(F)(F)F)c(C)cc1C

> <NAME>
MEFLUIDIDE

> <preferred_name>
Mefluidide

> <iupac>
N-(2,4-dimethyl-5-{[(trifluoromethyl)sulfonyl]amino}phenyl)acetamide

> <MPID>
99931

> <dsstox_substance_id>
DTXSID7034709

> <Canonical_QSARr>
CC(=O)Nc1cc(NS(=O)(=O)C(F)(F)F)c(C)cc1C

> <InChI_Code_QSARr>
InChI=1S/C11H13F3N2O3S/c1-6-4-7(2)10(5-9(6)15-8(3)17)16-20(18,19)11(12,13)14/h4-5,16H,1-3H3,(H,15,17)

> <InChI Key_QSARr>
OKIBNKKYNPBDRS-UHFFFAOYSA-N

> <LogKOC>
2.3

$$$$
100681
  -INDIGO-08031722282D

 26 25  0  0  0  0  0  0  0  0999 V2000
    0.8001   -1.3856    0.0000 S   0  0  0  0  0  0  0  0  0  0  0  0
    0.0001    0.0000    0.0000 P   0  0  0  0  0  0  0  0  0  0  0  0
    1.6001    0.0000    0.0000 O   0  0  0  0  0  0  0  0  0  0  0  0
    2.4000   -1.3856    0.0000 C   0  0  0  0  0  0  0  0  0  0  0  0
    1.1306   -2.3596    0.0000 H   0  0  0  0  0  0  0  0  0  0  0  0
    2.1912   -2.9720    0.0000 H   0  0  0  0  0  0  0  0  0  0  0  0
    4.0000   -1.3856    0.0000 C   0  0  0  0  0  0  0  0  0  0  0  0
    5.6000   -1.3856    0.0000 H   0  0  0  0  0  0  0  0  0  0  0  0
    4.8000   -2.7712    0.0000 H   0  0  0  0  0  0  0  0  0  0  0  0
    4.8000    0.0000    0.0000 H   0  0  0  0  0  0  0  0  0  0  0  0
    0.8001    1.3857    0.0000 O   0  0  0  0  0  0  0  0  0  0  0  0
    0.0001    2.7713    0.0000 C   0  0  0  0  0  0  0  0  0  0  0  0
   -1.4782    3.3836    0.0000 H   0  0  0  0  0  0  0  0  0  0  0  0
   -1.4782    2.1590    0.0000 H   0  0  0  0  0  0  0  0  0  0  0  0
    0.8001    4.1569    0.0000 C   0  0  0  0  0  0  0  0  0  0  0  0
    1.6001    5.5426    0.0000 H   0  0  0  0  0  0  0  0  0  0  0  0
    0.0001    5.5426    0.0000 H   0  0  0  0  0  0  0  0  0  0  0  0
    2.4000    4.1569    0.0000 H   0  0  0  0  0  0  0  0  0  0  0  0
   -1.6001    0.0000    0.0000 O   0  0  0  0  0  0  0  0  0  0  0  0
   -2.4000   -1.3856    0.0000 C   0  0  0  0  0  0  0  0  0  0  0  0
   -2.1912   -2.9720    0.0000 H   0  0  0  0  0  0  0  0  0  0  0  0
   -4.0000   -1.3856    0.0000 C   0  0  0  0  0  0  0  0  0  0  0  0
   -5.6000   -1.3856    0.0000 Cl  0  0  0  0  0  0  0  0  0  0  0  0
   -4.8000   -2.7712    0.0000 Cl  0  0  0  0  0  0  0  0  0  0  0  0
   -4.8000    0.0000    0.0000 Cl  0  0  0  0  0  0  0  0  0  0  0  0
   -1.1306   -2.3596    0.0000 Cl  0  0  0  0  0  0  0  0  0  0  0  0
  1  2  2  0  0  0  0
  2  3  1  0  0  0  0
  3  4  1  0  0  0  0
  4  5  1  0  0  0  0
  4  6  1  0  0  0  0
  4  7  1  0  0  0  0
  7  8  1  0  0  0  0
  7  9  1  0  0  0  0
  7 10  1  0  0  0  0
  2 11  1  0  0  0  0
 11 12  1  0  0  0  0
 12 13  1  0  0  0  0
 12 14  1  0  0  0  0
 12 15  1  0  0  0  0
 15 16  1  0  0  0  0
 15 17  1  0  0  0  0
 15 18  1  0  0  0  0
  2 19  1  0  0  0  0
 19 20  1  0  0  0  0
 20 21  1  0  0  0  0
 20 22  1  0  0  0  0
 22 23  1  0  0  0  0
 22 24  1  0  0  0  0
 22 25  1  0  0  0  0
 20 26  1  0  0  0  0
M  END
> <ChemID>
100681

> <source_casrn>
54593-83-8

> <CAS>
54593-83-8

> <SMILES>
CCOP(=S)(OC(Cl)C(Cl)(Cl)Cl)OCC

> <NAME>
CHLORETHOXYFOS

> <preferred_name>
Chlorethoxyfos

> <iupac>
C6H11Cl4O3PS

> <MPID>
99932

> <dsstox_substance_id>
DTXSID2032344

> <Canonical_QSARr>
CCOP(=S)(OC(Cl)C(Cl)(Cl)Cl)OCC

> <InChI_Code_QSARr>
InChI=1S/C6H11Cl4O3PS/c1-3-11-14(15,12-4-2)13-5(7)6(8,9)10/h5H,3-4H2,1-2H3

> <InChI Key_QSARr>
XFDJMIHUAHSGKG-UHFFFAOYSA-N

> <LogKOC>
3.6

$$$$
100682
  -INDIGO-08031722282D

 38 39  0  0  0  0  0  0  0  0999 V2000
    3.0071   -1.0945    0.0000 C   0  0  0  0  0  0  0  0  0  0  0  0
    4.5105   -1.6416    0.0000 H   0  0  0  0  0  0  0  0  0  0  0  0
    1.5035   -0.5473    0.0000 C   0  0  0  0  0  0  0  0  0  0  0  0
    0.9563   -2.0507    0.0000 H   0  0  0  0  0  0  0  0  0  0  0  0
   -0.0001    0.0000    0.0000 C   0  0  0  0  0  0  0  0  0  0  0  0
   -1.5034    0.5472    0.0000 C   0  0  0  0  0  0  0  0  0  0  0  0
   -3.0070    1.0945    0.0000 H   0  0  0  0  0  0  0  0  0  0  0  0
   -1.7813    2.1229    0.0000 H   0  0  0  0  0  0  0  0  0  0  0  0
   -2.8891   -0.2527    0.0000 H   0  0  0  0  0  0  0  0  0  0  0  0
    0.5472    1.5036    0.0000 C   0  0  0  0  0  0  0  0  0  0  0  0
    2.0508    2.0507    0.0000 H   0  0  0  0  0  0  0  0  0  0  0  0
    1.0944    3.0070    0.0000 H   0  0  0  0  0  0  0  0  0  0  0  0
   -0.4812    2.7292    0.0000 H   0  0  0  0  0  0  0  0  0  0  0  0
   -0.5473   -1.5035    0.0000 C   0  0  0  0  0  0  0  0  0  0  0  0
   -2.0507   -2.0507    0.0000 H   0  0  0  0  0  0  0  0  0  0  0  0
   -0.8251   -3.0792    0.0000 H   0  0  0  0  0  0  0  0  0  0  0  0
   -1.7728   -0.4750    0.0000 H   0  0  0  0  0  0  0  0  0  0  0  0
    2.0508    0.9563    0.0000 O   0  0  0  0  0  0  0  0  0  0  0  0
    3.6265    1.2342    0.0000 H   0  0  0  0  0  0  0  0  0  0  0  0
    3.8070    0.2912    0.0000 O   0  0  0  0  0  0  0  0  0  0  0  0
    5.4069    0.2912    0.0000 C   0  0  0  0  0  0  0  0  0  0  0  0
    6.2070    1.6768    0.0000 C   0  0  0  0  0  0  0  0  0  0  0  0
    5.4069    3.0625    0.0000 H   0  0  0  0  0  0  0  0  0  0  0  0
    7.8070    1.6768    0.0000 C   0  0  0  0  0  0  0  0  0  0  0  0
    8.6071    3.0625    0.0000 H   0  0  0  0  0  0  0  0  0  0  0  0
    8.6071    0.2912    0.0000 C   0  0  0  0  0  0  0  0  0  0  0  0
   10.2070    0.2912    0.0000 Cl  0  0  0  0  0  0  0  0  0  0  0  0
    7.8070   -1.0945    0.0000 C   0  0  0  0  0  0  0  0  0  0  0  0
    8.6071   -2.4801    0.0000 H   0  0  0  0  0  0  0  0  0  0  0  0
    6.2070   -1.0945    0.0000 C   0  0  0  0  0  0  0  0  0  0  0  0
    5.4069   -2.4801    0.0000 H   0  0  0  0  0  0  0  0  0  0  0  0
    2.4599   -2.5980    0.0000 N   0  0  0  0  0  0  0  0  0  0  0  0
    0.9218   -3.0390    0.0000 N   0  0  0  0  0  0  0  0  0  0  0  0
    0.8660   -4.6380    0.0000 C   0  0  0  0  0  0  0  0  0  0  0  0
   -0.4606   -5.5327    0.0000 H   0  0  0  0  0  0  0  0  0  0  0  0
    2.3695   -5.1853    0.0000 N   0  0  0  0  0  0  0  0  0  0  0  0
    3.3545   -3.9244    0.0000 C   0  0  0  0  0  0  0  0  0  0  0  0
    4.9535   -3.9803    0.0000 H   0  0  0  0  0  0  0  0  0  0  0  0
  1  2  1  0  0  0  0
  1  3  1  0  0  0  0
  3  4  1  0  0  0  0
  3  5  1  0  0  0  0
  5  6  1  0  0  0  0
  6  7  1  0  0  0  0
  6  8  1  0  0  0  0
  6  9  1  0  0  0  0
  5 10  1  0  0  0  0
 10 11  1  0  0  0  0
 10 12  1  0  0  0  0
 10 13  1  0  0  0  0
  5 14  1  0  0  0  0
 14 15  1  0  0  0  0
 14 16  1  0  0  0  0
 14 17  1  0  0  0  0
  3 18  1  0  0  0  0
 18 19  1  0  0  0  0
  1 20  1  0  0  0  0
 20 21  1  0  0  0  0
 21 22  1  0  0  0  0
 22 23  1  0  0  0  0
 22 24  2  0  0  0  0
 24 25  1  0  0  0  0
 24 26  1  0  0  0  0
 26 27  1  0  0  0  0
 26 28  2  0  0  0  0
 28 29  1  0  0  0  0
 28 30  1  0  0  0  0
 30 21  2  0  0  0  0
 30 31  1  0  0  0  0
  1 32  1  0  0  0  0
 32 33  1  0  0  0  0
 33 34  2  0  0  0  0
 34 35  1  0  0  0  0
 34 36  1  0  0  0  0
 36 37  2  0  0  0  0
 37 32  1  0  0  0  0
 37 38  1  0  0  0  0
M  END
> <ChemID>
100682

> <source_casrn>
55219-65-3

> <CAS>
55219-65-3

> <SMILES>
CC(C)(C)C(O)C(Oc1ccc(Cl)cc1)[n]1c[n]c[n]1

> <NAME>
TRIADIMENOL

> <preferred_name>
Triadimenol

> <iupac>
1-(4-chlorophenoxy)-3,3-dimethyl-1-(1H-1,2,4-triazol-1-yl)butan-2-ol

> <MPID>
99933

> <dsstox_substance_id>
DTXSID0032493

> <Canonical_QSARr>
CC(C)(C)C(O)C(Oc1ccc(Cl)cc1)[n]1c[n]c[n]1

> <InChI_Code_QSARr>
InChI=1S/C14H18ClN3O2/c1-14(2,3)12(19)13(18-9-16-8-17-18)20-11-6-4-10(15)5-7-11/h4-9,12-13,19H,1-3H3

> <InChI Key_QSARr>
BAZVSMNPJJMILC-UHFFFAOYSA-N

> <LogKOC>
2.7

$$$$
100684
  -INDIGO-08031722282D

 22 22  0  0  0  0  0  0  0  0999 V2000
    1.3857    0.8000    0.0000 S   0  0  0  0  0  0  0  0  0  0  0  0
    2.7713   -0.0000    0.0000 C   0  0  0  0  0  0  0  0  0  0  0  0
    4.1569    0.8000    0.0000 C   0  0  0  0  0  0  0  0  0  0  0  0
    5.5426    1.6000    0.0000 H   0  0  0  0  0  0  0  0  0  0  0  0
    5.5426   -0.0000    0.0000 H   0  0  0  0  0  0  0  0  0  0  0  0
    4.1569    2.4000    0.0000 H   0  0  0  0  0  0  0  0  0  0  0  0
    2.7713   -1.6000    0.0000 C   0  0  0  0  0  0  0  0  0  0  0  0
    4.1569   -2.4000    0.0000 C   0  0  0  0  0  0  0  0  0  0  0  0
    5.5426   -3.2000    0.0000 H   0  0  0  0  0  0  0  0  0  0  0  0
    4.1569   -4.0000    0.0000 H   0  0  0  0  0  0  0  0  0  0  0  0
    5.5426   -1.6000    0.0000 H   0  0  0  0  0  0  0  0  0  0  0  0
    1.3857   -2.4000    0.0000 S   0  0  0  0  0  0  0  0  0  0  0  0
    2.4141   -3.6257    0.0000 O   0  0  0  0  0  0  0  0  0  0  0  0
    0.3572   -3.6257    0.0000 O   0  0  0  0  0  0  0  0  0  0  0  0
    0.0000   -1.6000    0.0000 C   0  0  0  0  0  0  0  0  0  0  0  0
   -0.5472   -3.1035    0.0000 H   0  0  0  0  0  0  0  0  0  0  0  0
   -1.5757   -1.3221    0.0000 H   0  0  0  0  0  0  0  0  0  0  0  0
    0.0000   -0.0000    0.0000 C   0  0  0  0  0  0  0  0  0  0  0  0
   -1.5757   -0.2779    0.0000 H   0  0  0  0  0  0  0  0  0  0  0  0
   -0.5472    1.5035    0.0000 H   0  0  0  0  0  0  0  0  0  0  0  0
    0.3572    2.0257    0.0000 O   0  0  0  0  0  0  0  0  0  0  0  0
    2.4141    2.0257    0.0000 O   0  0  0  0  0  0  0  0  0  0  0  0
  1  2  1  0  0  0  0
  2  3  1  0  0  0  0
  3  4  1  0  0  0  0
  3  5  1  0  0  0  0
  3  6  1  0  0  0  0
  2  7  2  0  0  0  0
  7  8  1  0  0  0  0
  8  9  1  0  0  0  0
  8 10  1  0  0  0  0
  8 11  1  0  0  0  0
  7 12  1  0  0  0  0
 12 13  2  0  0  0  0
 12 14  2  0  0  0  0
 12 15  1  0  0  0  0
 15 16  1  0  0  0  0
 15 17  1  0  0  0  0
 15 18  1  0  0  0  0
 18  1  1  0  0  0  0
 18 19  1  0  0  0  0
 18 20  1  0  0  0  0
  1 21  2  0  0  0  0
  1 22  2  0  0  0  0
M  END
> <ChemID>
100684

> <source_casrn>
55290-64-7

> <CAS>
55290-64-7

> <SMILES>
CC1=C(C)S(=O)(=O)CCS1(=O)=O

> <NAME>
DIMETHIPIN

> <preferred_name>
Dimethipin

> <iupac>
5,6-dimethyl-2,3-dihydro-1,4-dithiine 1,1,4,4-tetraoxide

> <MPID>
99935

> <dsstox_substance_id>
DTXSID0024052

> <Canonical_QSARr>
CC1=C(C)S(=O)(=O)CCS1(=O)=O

> <InChI_Code_QSARr>
InChI=1S/C6H10O4S2/c1-5-6(2)12(9,10)4-3-11(5,7)8/h3-4H2,1-2H3

> <InChI Key_QSARr>
PHVNLLCAQHGNKU-UHFFFAOYSA-N

> <LogKOC>
0.48

$$$$
100685
  -INDIGO-08031722282D

 18 18  0  0  0  0  0  0  0  0999 V2000
   -3.2001    0.0000    0.0000 N   0  0  0  0  0  0  0  0  0  0  0  0
   -2.4001   -1.3856    0.0000 C   0  0  0  0  0  0  0  0  0  0  0  0
   -0.7999   -1.3856    0.0000 O   0  0  0  0  0  0  0  0  0  0  0  0
    0.0001    0.0000    0.0000 C   0  0  0  0  0  0  0  0  0  0  0  0
   -0.2088    1.5863    0.0000 H   0  0  0  0  0  0  0  0  0  0  0  0
   -1.2694    0.9740    0.0000 H   0  0  0  0  0  0  0  0  0  0  0  0
    1.6000    0.0000    0.0000 C   0  0  0  0  0  0  0  0  0  0  0  0
    2.4000   -1.3856    0.0000 O   0  0  0  0  0  0  0  0  0  0  0  0
    2.4000    1.3856    0.0000 O   0  0  0  0  0  0  0  0  0  0  0  0
    4.0000    1.3856    0.0000 H   0  0  0  0  0  0  0  0  0  0  0  0
   -3.2001   -2.7713    0.0000 C   0  0  0  0  0  0  0  0  0  0  0  0
   -2.4001   -4.1569    0.0000 Cl  0  0  0  0  0  0  0  0  0  0  0  0
   -4.8000   -2.7713    0.0000 C   0  0  0  0  0  0  0  0  0  0  0  0
   -5.6000   -4.1569    0.0000 H   0  0  0  0  0  0  0  0  0  0  0  0
   -5.6000   -1.3856    0.0000 C   0  0  0  0  0  0  0  0  0  0  0  0
   -7.2000   -1.3856    0.0000 Cl  0  0  0  0  0  0  0  0  0  0  0  0
   -4.8000    0.0000    0.0000 C   0  0  0  0  0  0  0  0  0  0  0  0
   -5.6000    1.3856    0.0000 Cl  0  0  0  0  0  0  0  0  0  0  0  0
  1  2  1  0  0  0  0
  2  3  1  0  0  0  0
  3  4  1  0  0  0  0
  4  5  1  0  0  0  0
  4  6  1  0  0  0  0
  4  7  1  0  0  0  0
  7  8  2  0  0  0  0
  7  9  1  0  0  0  0
  9 10  1  0  0  0  0
  2 11  2  0  0  0  0
 11 12  1  0  0  0  0
 11 13  1  0  0  0  0
 13 14  1  0  0  0  0
 13 15  2  0  0  0  0
 15 16  1  0  0  0  0
 15 17  1  0  0  0  0
 17  1  2  0  0  0  0
 17 18  1  0  0  0  0
M  END
> <ChemID>
100685

> <source_casrn>
55335-06-3

> <CAS>
55335-06-3

> <SMILES>
OC(=O)COc1[n]c(Cl)c(Cl)cc1Cl

> <NAME>
TRICLOPYR

> <preferred_name>
Triclopyr

> <iupac>
C7H4Cl3NO3

> <MPID>
99936

> <dsstox_substance_id>
DTXSID0032497

> <Canonical_QSARr>
OC(=O)COc1[n]c(Cl)c(Cl)cc1Cl

> <InChI_Code_QSARr>
InChI=1S/C7H4Cl3NO3/c8-3-1-4(9)7(11-6(3)10)14-2-5(12)13/h1H,2H2,(H,12,13)

> <InChI Key_QSARr>
REEQLXCGVXDJSQ-UHFFFAOYSA-N

> <LogKOC>
1.67

$$$$
100686
  -INDIGO-08031722282D

 32 32  0  0  0  0  0  0  0  0999 V2000
   -6.9298   -0.0749    0.0000 C   0  0  0  0  0  0  0  0  0  0  0  0
   -6.7626   -1.6661    0.0000 O   0  0  0  0  0  0  0  0  0  0  0  0
   -8.3914    0.5758    0.0000 N   0  0  0  0  0  0  0  0  0  0  0  0
   -9.6860   -0.3645    0.0000 C   0  0  0  0  0  0  0  0  0  0  0  0
  -10.9803   -1.3050    0.0000 H   0  0  0  0  0  0  0  0  0  0  0  0
  -11.1476    0.2861    0.0000 H   0  0  0  0  0  0  0  0  0  0  0  0
   -9.5187   -1.9558    0.0000 H   0  0  0  0  0  0  0  0  0  0  0  0
   -8.5586    2.1671    0.0000 C   0  0  0  0  0  0  0  0  0  0  0  0
   -8.7259    3.7583    0.0000 H   0  0  0  0  0  0  0  0  0  0  0  0
  -10.0205    2.8179    0.0000 H   0  0  0  0  0  0  0  0  0  0  0  0
   -7.2643    3.1075    0.0000 H   0  0  0  0  0  0  0  0  0  0  0  0
   -5.6354    0.8655    0.0000 N   0  0  0  0  0  0  0  0  0  0  0  0
   -5.8027    2.4568    0.0000 H   0  0  0  0  0  0  0  0  0  0  0  0
   -4.1736    0.2148    0.0000 C   0  0  0  0  0  0  0  0  0  0  0  0
   -3.8411   -1.3502    0.0000 N   0  0  0  0  0  0  0  0  0  0  0  0
   -2.2497   -1.5175    0.0000 O   0  0  0  0  0  0  0  0  0  0  0  0
   -1.5989   -0.0559    0.0000 C   0  0  0  0  0  0  0  0  0  0  0  0
   -0.0001   -0.0000    0.0000 C   0  0  0  0  0  0  0  0  0  0  0  0
    1.5990    0.0558    0.0000 C   0  0  0  0  0  0  0  0  0  0  0  0
    3.1980    0.1116    0.0000 H   0  0  0  0  0  0  0  0  0  0  0  0
    2.4470   -1.3011    0.0000 H   0  0  0  0  0  0  0  0  0  0  0  0
    2.3502    1.4685    0.0000 H   0  0  0  0  0  0  0  0  0  0  0  0
    0.0557   -1.5990    0.0000 C   0  0  0  0  0  0  0  0  0  0  0  0
    0.1118   -3.1981    0.0000 H   0  0  0  0  0  0  0  0  0  0  0  0
    1.4685   -2.3501    0.0000 H   0  0  0  0  0  0  0  0  0  0  0  0
   -1.3010   -2.4468    0.0000 H   0  0  0  0  0  0  0  0  0  0  0  0
   -0.0559    1.5990    0.0000 C   0  0  0  0  0  0  0  0  0  0  0  0
   -0.1117    3.1981    0.0000 H   0  0  0  0  0  0  0  0  0  0  0  0
    1.3011    2.4469    0.0000 H   0  0  0  0  0  0  0  0  0  0  0  0
   -1.4685    2.3502    0.0000 H   0  0  0  0  0  0  0  0  0  0  0  0
   -2.7880    1.0147    0.0000 C   0  0  0  0  0  0  0  0  0  0  0  0
   -2.6208    2.6060    0.0000 H   0  0  0  0  0  0  0  0  0  0  0  0
  1  2  2  0  0  0  0
  1  3  1  0  0  0  0
  3  4  1  0  0  0  0
  4  5  1  0  0  0  0
  4  6  1  0  0  0  0
  4  7  1  0  0  0  0
  3  8  1  0  0  0  0
  8  9  1  0  0  0  0
  8 10  1  0  0  0  0
  8 11  1  0  0  0  0
  1 12  1  0  0  0  0
 12 13  1  0  0  0  0
 12 14  1  0  0  0  0
 14 15  2  0  0  0  0
 15 16  1  0  0  0  0
 16 17  1  0  0  0  0
 17 18  1  0  0  0  0
 18 19  1  0  0  0  0
 19 20  1  0  0  0  0
 19 21  1  0  0  0  0
 19 22  1  0  0  0  0
 18 23  1  0  0  0  0
 23 24  1  0  0  0  0
 23 25  1  0  0  0  0
 23 26  1  0  0  0  0
 18 27  1  0  0  0  0
 27 28  1  0  0  0  0
 27 29  1  0  0  0  0
 27 30  1  0  0  0  0
 17 31  2  0  0  0  0
 31 14  1  0  0  0  0
 31 32  1  0  0  0  0
M  END
> <ChemID>
100686

> <source_casrn>
55861-78-4

> <CAS>
55861-78-4

> <SMILES>
CN(C)C(=O)Nc1cc(o[n]1)C(C)(C)C

> <NAME>
ISOURON

> <preferred_name>
Isouron

> <iupac>
3-(5-tert-butyl-1,2-oxazol-3-yl)-1,1-dimethylurea

> <MPID>
99937

> <dsstox_substance_id>
DTXSID1042079

> <Canonical_QSARr>
CN(C)C(=O)Nc1cc(o[n]1)C(C)(C)C

> <InChI_Code_QSARr>
InChI=1S/C10H17N3O2/c1-10(2,3)7-6-8(12-15-7)11-9(14)13(4)5/h6H,1-5H3,(H,11,12,14)

> <InChI Key_QSARr>
JLLJHQLUZAKJFH-UHFFFAOYSA-N

> <LogKOC>
2.47

$$$$
100688
  -INDIGO-08031722282D

 27 27  0  0  0  0  0  0  0  0999 V2000
    0.0000   -0.0000    0.0000 P   0  0  0  0  0  0  0  0  0  0  0  0
    0.0000    1.6000    0.0000 S   0  0  0  0  0  0  0  0  0  0  0  0
    1.3857    0.8000    0.0000 O   0  0  0  0  0  0  0  0  0  0  0  0
    2.7712   -0.0000    0.0000 C   0  0  0  0  0  0  0  0  0  0  0  0
    2.7712   -1.6000    0.0000 C   0  0  0  0  0  0  0  0  0  0  0  0
    1.3857   -2.4000    0.0000 Cl  0  0  0  0  0  0  0  0  0  0  0  0
    4.1569   -2.4000    0.0000 C   0  0  0  0  0  0  0  0  0  0  0  0
    4.1569   -4.0000    0.0000 H   0  0  0  0  0  0  0  0  0  0  0  0
    5.5426   -1.6000    0.0000 C   0  0  0  0  0  0  0  0  0  0  0  0
    6.9281   -2.4000    0.0000 C   0  0  0  0  0  0  0  0  0  0  0  0
    8.3138   -3.2000    0.0000 H   0  0  0  0  0  0  0  0  0  0  0  0
    8.3138   -1.6000    0.0000 H   0  0  0  0  0  0  0  0  0  0  0  0
    6.9281   -4.0000    0.0000 H   0  0  0  0  0  0  0  0  0  0  0  0
    5.5426   -0.0000    0.0000 C   0  0  0  0  0  0  0  0  0  0  0  0
    6.9281    0.8000    0.0000 H   0  0  0  0  0  0  0  0  0  0  0  0
    4.1569    0.8000    0.0000 C   0  0  0  0  0  0  0  0  0  0  0  0
    4.1569    2.4000    0.0000 Cl  0  0  0  0  0  0  0  0  0  0  0  0
   -1.3857    0.8000    0.0000 O   0  0  0  0  0  0  0  0  0  0  0  0
   -2.7712   -0.0000    0.0000 C   0  0  0  0  0  0  0  0  0  0  0  0
   -4.1569    0.8000    0.0000 H   0  0  0  0  0  0  0  0  0  0  0  0
   -4.1569   -0.8000    0.0000 H   0  0  0  0  0  0  0  0  0  0  0  0
   -2.7712    1.6000    0.0000 H   0  0  0  0  0  0  0  0  0  0  0  0
   -1.3857   -0.8000    0.0000 O   0  0  0  0  0  0  0  0  0  0  0  0
   -1.3857   -2.4000    0.0000 C   0  0  0  0  0  0  0  0  0  0  0  0
   -1.3857   -4.0000    0.0000 H   0  0  0  0  0  0  0  0  0  0  0  0
   -2.7712   -3.2000    0.0000 H   0  0  0  0  0  0  0  0  0  0  0  0
    0.0000   -3.2000    0.0000 H   0  0  0  0  0  0  0  0  0  0  0  0
  1  2  2  0  0  0  0
  1  3  1  0  0  0  0
  3  4  1  0  0  0  0
  4  5  1  0  0  0  0
  5  6  1  0  0  0  0
  5  7  2  0  0  0  0
  7  8  1  0  0  0  0
  7  9  1  0  0  0  0
  9 10  1  0  0  0  0
 10 11  1  0  0  0  0
 10 12  1  0  0  0  0
 10 13  1  0  0  0  0
  9 14  2  0  0  0  0
 14 15  1  0  0  0  0
 14 16  1  0  0  0  0
 16  4  2  0  0  0  0
 16 17  1  0  0  0  0
  1 18  1  0  0  0  0
 18 19  1  0  0  0  0
 19 20  1  0  0  0  0
 19 21  1  0  0  0  0
 19 22  1  0  0  0  0
  1 23  1  0  0  0  0
 23 24  1  0  0  0  0
 24 25  1  0  0  0  0
 24 26  1  0  0  0  0
 24 27  1  0  0  0  0
M  END
> <ChemID>
100688

> <source_casrn>
57018-04-9

> <CAS>
57018-04-9

> <SMILES>
Cc1cc(Cl)c(OP(=S)(OC)OC)c(Cl)c1

> <NAME>
TOLCLOFOS-METHYL

> <preferred_name>
Tolclofos-methyl

> <iupac>
O-(2,6-dichloro-4-methylphenyl) O,O-dimethyl phosphorothioate

> <MPID>
99939

> <dsstox_substance_id>
DTXSID0034776

> <Canonical_QSARr>
Cc1cc(Cl)c(OP(=S)(OC)OC)c(Cl)c1

> <InChI_Code_QSARr>
InChI=1S/C9H11Cl2O3PS/c1-6-4-7(10)9(8(11)5-6)14-15(16,12-2)13-3/h4-5H,1-3H3

> <InChI Key_QSARr>
OBZIQQJJIKNWNO-UHFFFAOYSA-N

> <LogKOC>
3.7

$$$$
100689
  -INDIGO-08031722282D

 17 17  0  0  0  0  0  0  0  0999 V2000
    0.8000    1.3856    0.0000 C   0  0  0  0  0  0  0  0  0  0  0  0
    0.0000    2.7713    0.0000 O   0  0  0  0  0  0  0  0  0  0  0  0
    0.8000    4.1569    0.0000 H   0  0  0  0  0  0  0  0  0  0  0  0
    0.0000    0.0000    0.0000 C   0  0  0  0  0  0  0  0  0  0  0  0
   -1.6000    0.0000    0.0000 O   0  0  0  0  0  0  0  0  0  0  0  0
   -2.4001   -1.3856    0.0000 C   0  0  0  0  0  0  0  0  0  0  0  0
   -4.0000   -1.3856    0.0000 H   0  0  0  0  0  0  0  0  0  0  0  0
   -3.2000   -2.7713    0.0000 H   0  0  0  0  0  0  0  0  0  0  0  0
   -3.2000    0.0000    0.0000 H   0  0  0  0  0  0  0  0  0  0  0  0
    0.8000   -1.3856    0.0000 C   0  0  0  0  0  0  0  0  0  0  0  0
    0.0000   -2.7713    0.0000 Cl  0  0  0  0  0  0  0  0  0  0  0  0
    2.4000   -1.3856    0.0000 C   0  0  0  0  0  0  0  0  0  0  0  0
    3.2001   -2.7713    0.0000 Cl  0  0  0  0  0  0  0  0  0  0  0  0
    3.2001    0.0000    0.0000 C   0  0  0  0  0  0  0  0  0  0  0  0
    4.8000    0.0000    0.0000 Cl  0  0  0  0  0  0  0  0  0  0  0  0
    2.4000    1.3856    0.0000 C   0  0  0  0  0  0  0  0  0  0  0  0
    3.2001    2.7713    0.0000 H   0  0  0  0  0  0  0  0  0  0  0  0
  1  2  1  0  0  0  0
  2  3  1  0  0  0  0
  1  4  1  0  0  0  0
  4  5  1  0  0  0  0
  5  6  1  0  0  0  0
  6  7  1  0  0  0  0
  6  8  1  0  0  0  0
  6  9  1  0  0  0  0
  4 10  2  0  0  0  0
 10 11  1  0  0  0  0
 10 12  1  0  0  0  0
 12 13  1  0  0  0  0
 12 14  2  0  0  0  0
 14 15  1  0  0  0  0
 14 16  1  0  0  0  0
 16  1  2  0  0  0  0
 16 17  1  0  0  0  0
M  END
> <ChemID>
100689

> <source_casrn>
57057-83-7

> <CAS>
57057-83-7

> <SMILES>
COc1c(O)cc(Cl)c(Cl)c1Cl

> <NAME>
3,4,5-TRICHLORO-2-METHOXYPHENOL

> <preferred_name>
3,4,5-Trichloro-2-methoxyphenol

> <iupac>
C7H5Cl3O2

> <MPID>
99940

> <dsstox_substance_id>
DTXSID7052232

> <Canonical_QSARr>
COc1c(O)cc(Cl)c(Cl)c1Cl

> <InChI_Code_QSARr>
InChI=1S/C7H5Cl3O2/c1-12-7-4(11)2-3(8)5(9)6(7)10/h2,11H,1H3

> <InChI Key_QSARr>
RKEHLKXRUVUBJN-UHFFFAOYSA-N

> <LogKOC>
2.8

$$$$
100690
  -INDIGO-08031722282D

 41 41  0  0  0  0  0  0  0  0999 V2000
   -1.3857   -0.8001    0.0000 N   0  0  0  0  0  0  0  0  0  0  0  0
   -1.3857   -2.4001    0.0000 C   0  0  0  0  0  0  0  0  0  0  0  0
   -0.0001   -3.2000    0.0000 C   0  0  0  0  0  0  0  0  0  0  0  0
    1.5036   -2.6528    0.0000 C   0  0  0  0  0  0  0  0  0  0  0  0
    3.0071   -2.1055    0.0000 H   0  0  0  0  0  0  0  0  0  0  0  0
    2.7291   -3.6812    0.0000 H   0  0  0  0  0  0  0  0  0  0  0  0
    1.7814   -1.0771    0.0000 H   0  0  0  0  0  0  0  0  0  0  0  0
   -0.0001   -4.7999    0.0000 C   0  0  0  0  0  0  0  0  0  0  0  0
    1.3857   -5.6000    0.0000 H   0  0  0  0  0  0  0  0  0  0  0  0
   -1.3857   -5.6000    0.0000 C   0  0  0  0  0  0  0  0  0  0  0  0
   -1.3857   -7.2000    0.0000 H   0  0  0  0  0  0  0  0  0  0  0  0
   -2.7713   -4.7999    0.0000 C   0  0  0  0  0  0  0  0  0  0  0  0
   -4.1569   -5.6000    0.0000 H   0  0  0  0  0  0  0  0  0  0  0  0
   -2.7713   -3.2000    0.0000 C   0  0  0  0  0  0  0  0  0  0  0  0
   -4.2748   -2.6528    0.0000 C   0  0  0  0  0  0  0  0  0  0  0  0
   -5.7783   -2.1055    0.0000 H   0  0  0  0  0  0  0  0  0  0  0  0
   -5.5005   -3.6812    0.0000 H   0  0  0  0  0  0  0  0  0  0  0  0
   -4.5526   -1.0771    0.0000 H   0  0  0  0  0  0  0  0  0  0  0  0
   -2.8892   -0.2528    0.0000 C   0  0  0  0  0  0  0  0  0  0  0  0
   -3.6892   -1.6384    0.0000 O   0  0  0  0  0  0  0  0  0  0  0  0
   -3.6892    1.1328    0.0000 C   0  0  0  0  0  0  0  0  0  0  0  0
   -2.4198    2.1069    0.0000 H   0  0  0  0  0  0  0  0  0  0  0  0
   -3.4803    2.7192    0.0000 H   0  0  0  0  0  0  0  0  0  0  0  0
   -5.2891    1.1328    0.0000 O   0  0  0  0  0  0  0  0  0  0  0  0
   -6.0891    2.5186    0.0000 C   0  0  0  0  0  0  0  0  0  0  0  0
   -6.8891    3.9042    0.0000 H   0  0  0  0  0  0  0  0  0  0  0  0
   -7.6891    2.5186    0.0000 H   0  0  0  0  0  0  0  0  0  0  0  0
   -5.2891    3.9042    0.0000 H   0  0  0  0  0  0  0  0  0  0  0  0
   -0.0001    0.0000    0.0000 C   0  0  0  0  0  0  0  0  0  0  0  0
    0.7999   -1.3856    0.0000 H   0  0  0  0  0  0  0  0  0  0  0  0
    1.3857    0.8001    0.0000 C   0  0  0  0  0  0  0  0  0  0  0  0
    2.7713    0.0000    0.0000 O   0  0  0  0  0  0  0  0  0  0  0  0
    1.6635    2.3756    0.0000 O   0  0  0  0  0  0  0  0  0  0  0  0
    3.1670    2.9229    0.0000 C   0  0  0  0  0  0  0  0  0  0  0  0
    4.6705    3.4702    0.0000 H   0  0  0  0  0  0  0  0  0  0  0  0
    3.4448    4.4986    0.0000 H   0  0  0  0  0  0  0  0  0  0  0  0
    4.3927    1.8945    0.0000 H   0  0  0  0  0  0  0  0  0  0  0  0
   -0.7999    1.3856    0.0000 C   0  0  0  0  0  0  0  0  0  0  0  0
   -0.0001    2.7714    0.0000 H   0  0  0  0  0  0  0  0  0  0  0  0
   -1.5999    2.7714    0.0000 H   0  0  0  0  0  0  0  0  0  0  0  0
    0.7756    1.6635    0.0000 H   0  0  0  0  0  0  0  0  0  0  0  0
  1  2  1  0  0  0  0
  2  3  1  0  0  0  0
  3  4  1  0  0  0  0
  4  5  1  0  0  0  0
  4  6  1  0  0  0  0
  4  7  1  0  0  0  0
  3  8  2  0  0  0  0
  8  9  1  0  0  0  0
  8 10  1  0  0  0  0
 10 11  1  0  0  0  0
 10 12  2  0  0  0  0
 12 13  1  0  0  0  0
 12 14  1  0  0  0  0
 14  2  2  0  0  0  0
 14 15  1  0  0  0  0
 15 16  1  0  0  0  0
 15 17  1  0  0  0  0
 15 18  1  0  0  0  0
  1 19  1  0  0  0  0
 19 20  2  0  0  0  0
 19 21  1  0  0  0  0
 21 22  1  0  0  0  0
 21 23  1  0  0  0  0
 21 24  1  0  0  0  0
 24 25  1  0  0  0  0
 25 26  1  0  0  0  0
 25 27  1  0  0  0  0
 25 28  1  0  0  0  0
  1 29  1  0  0  0  0
 29 30  1  0  0  0  0
 29 31  1  0  0  0  0
 31 32  2  0  0  0  0
 31 33  1  0  0  0  0
 33 34  1  0  0  0  0
 34 35  1  0  0  0  0
 34 36  1  0  0  0  0
 34 37  1  0  0  0  0
 29 38  1  0  0  0  0
 38 39  1  0  0  0  0
 38 40  1  0  0  0  0
 38 41  1  0  0  0  0
M  END
> <ChemID>
100690

> <source_casrn>
57837-19-1

> <CAS>
57837-19-1

> <SMILES>
COCC(=O)N(C(C)C(=O)OC)c1c(C)cccc1C

> <NAME>
METALAXYL

> <preferred_name>
Metalaxyl

> <iupac>
methyl N-(2,6-dimethylphenyl)-N-(methoxyacetyl)alaninate

> <MPID>
99941

> <dsstox_substance_id>
DTXSID6024175

> <Canonical_QSARr>
COCC(=O)N(C(C)C(=O)OC)c1c(C)cccc1C

> <InChI_Code_QSARr>
InChI=1S/C15H21NO4/c1-10-7-6-8-11(2)14(10)16(13(17)9-19-4)12(3)15(18)20-5/h6-8,12H,9H2,1-5H3

> <InChI Key_QSARr>
ZQEIXNIJLIKNTD-UHFFFAOYSA-N

> <LogKOC>
1.57

$$$$
100692
  -INDIGO-08031722282D

 23 24  0  0  0  0  0  0  0  0999 V2000
   -0.0000    0.0000    0.0000 C   0  0  0  0  0  0  0  0  0  0  0  0
   -0.5473    1.5035    0.0000 C   0  0  0  0  0  0  0  0  0  0  0  0
    0.8721    2.2423    0.0000 H   0  0  0  0  0  0  0  0  0  0  0  0
   -0.0661    3.0294    0.0000 H   0  0  0  0  0  0  0  0  0  0  0  0
   -2.1229    1.7814    0.0000 C   0  0  0  0  0  0  0  0  0  0  0  0
   -2.6702    3.2849    0.0000 Cl  0  0  0  0  0  0  0  0  0  0  0  0
   -3.6986    2.0592    0.0000 Cl  0  0  0  0  0  0  0  0  0  0  0  0
   -1.0945    3.0070    0.0000 Cl  0  0  0  0  0  0  0  0  0  0  0  0
   -0.0000   -1.6000    0.0000 O   0  0  0  0  0  0  0  0  0  0  0  0
   -1.3857   -0.8000    0.0000 C   0  0  0  0  0  0  0  0  0  0  0  0
   -2.4141   -2.0257    0.0000 H   0  0  0  0  0  0  0  0  0  0  0  0
   -2.4141    0.4256    0.0000 H   0  0  0  0  0  0  0  0  0  0  0  0
    1.5757    0.2779    0.0000 C   0  0  0  0  0  0  0  0  0  0  0  0
    2.3756    1.6635    0.0000 C   0  0  0  0  0  0  0  0  0  0  0  0
    1.5757    3.0491    0.0000 H   0  0  0  0  0  0  0  0  0  0  0  0
    3.9758    1.6635    0.0000 C   0  0  0  0  0  0  0  0  0  0  0  0
    4.7757    3.0491    0.0000 Cl  0  0  0  0  0  0  0  0  0  0  0  0
    4.7757    0.2779    0.0000 C   0  0  0  0  0  0  0  0  0  0  0  0
    6.3757    0.2779    0.0000 H   0  0  0  0  0  0  0  0  0  0  0  0
    3.9758   -1.1078    0.0000 C   0  0  0  0  0  0  0  0  0  0  0  0
    4.7757   -2.4934    0.0000 Cl  0  0  0  0  0  0  0  0  0  0  0  0
    2.3756   -1.1078    0.0000 C   0  0  0  0  0  0  0  0  0  0  0  0
    1.5757   -2.4934    0.0000 H   0  0  0  0  0  0  0  0  0  0  0  0
  1  2  1  0  0  0  0
  2  3  1  0  0  0  0
  2  4  1  0  0  0  0
  2  5  1  0  0  0  0
  5  6  1  0  0  0  0
  5  7  1  0  0  0  0
  5  8  1  0  0  0  0
  1  9  1  0  0  0  0
  9 10  1  0  0  0  0
 10  1  1  0  0  0  0
 10 11  1  0  0  0  0
 10 12  1  0  0  0  0
  1 13  1  0  0  0  0
 13 14  1  0  0  0  0
 14 15  1  0  0  0  0
 14 16  2  0  0  0  0
 16 17  1  0  0  0  0
 16 18  1  0  0  0  0
 18 19  1  0  0  0  0
 18 20  2  0  0  0  0
 20 21  1  0  0  0  0
 20 22  1  0  0  0  0
 22 13  2  0  0  0  0
 22 23  1  0  0  0  0
M  END
> <ChemID>
100692

> <source_casrn>
58138-08-2

> <CAS>
58138-08-2

> <SMILES>
ClC(Cl)(Cl)CC1(OC1)c2cc(Cl)cc(Cl)c2

> <NAME>
Oxirane, 2-(3,5-dichlorophenyl)-2-(2,2,2-trichlo

> <preferred_name>
Tridiphane

> <iupac>
2-(3,5-dichlorophenyl)-2-(2,2,2-trichloroethyl)oxirane

> <MPID>
99943

> <dsstox_substance_id>
DTXSID8024365

> <Canonical_QSARr>
ClC(Cl)(Cl)CC1(CO1)c1cc(Cl)cc(Cl)c1

> <InChI_Code_QSARr>
InChI=1S/C10H7Cl5O/c11-7-1-6(2-8(12)3-7)9(5-16-9)4-10(13,14)15/h1-3H,4-5H2

> <InChI Key_QSARr>
IBZHOAONZVJLOB-UHFFFAOYSA-N

> <LogKOC>
3.75

$$$$
100693
  -INDIGO-08031722282D

 22 23  0  0  0  0  0  0  0  0999 V2000
   -0.0001    0.0000    0.0000 C   0  0  0  0  0  0  0  0  0  0  0  0
    1.6001   -0.0000    0.0000 C   0  0  0  0  0  0  0  0  0  0  0  0
    2.4001   -1.3856    0.0000 C   0  0  0  0  0  0  0  0  0  0  0  0
    1.6001   -2.7713    0.0000 Br  0  0  0  0  0  0  0  0  0  0  0  0
    4.0000   -1.3856    0.0000 C   0  0  0  0  0  0  0  0  0  0  0  0
    4.8000   -2.7713    0.0000 H   0  0  0  0  0  0  0  0  0  0  0  0
    4.8000    0.0000    0.0000 C   0  0  0  0  0  0  0  0  0  0  0  0
    6.4000    0.0000    0.0000 Br  0  0  0  0  0  0  0  0  0  0  0  0
    4.0000    1.3856    0.0000 C   0  0  0  0  0  0  0  0  0  0  0  0
    4.8000    2.7713    0.0000 H   0  0  0  0  0  0  0  0  0  0  0  0
    2.4001    1.3856    0.0000 C   0  0  0  0  0  0  0  0  0  0  0  0
    1.6001    2.7713    0.0000 Br  0  0  0  0  0  0  0  0  0  0  0  0
   -0.8001    1.3856    0.0000 C   0  0  0  0  0  0  0  0  0  0  0  0
   -0.0001    2.7713    0.0000 Br  0  0  0  0  0  0  0  0  0  0  0  0
   -2.4000    1.3856    0.0000 C   0  0  0  0  0  0  0  0  0  0  0  0
   -3.2000    2.7713    0.0000 H   0  0  0  0  0  0  0  0  0  0  0  0
   -3.2000    0.0000    0.0000 C   0  0  0  0  0  0  0  0  0  0  0  0
   -4.8000   -0.0000    0.0000 Br  0  0  0  0  0  0  0  0  0  0  0  0
   -2.4000   -1.3856    0.0000 C   0  0  0  0  0  0  0  0  0  0  0  0
   -3.2000   -2.7713    0.0000 H   0  0  0  0  0  0  0  0  0  0  0  0
   -0.8001   -1.3856    0.0000 C   0  0  0  0  0  0  0  0  0  0  0  0
   -0.0001   -2.7713    0.0000 Br  0  0  0  0  0  0  0  0  0  0  0  0
  1  2  1  0  0  0  0
  2  3  1  0  0  0  0
  3  4  1  0  0  0  0
  3  5  2  0  0  0  0
  5  6  1  0  0  0  0
  5  7  1  0  0  0  0
  7  8  1  0  0  0  0
  7  9  2  0  0  0  0
  9 10  1  0  0  0  0
  9 11  1  0  0  0  0
 11  2  2  0  0  0  0
 11 12  1  0  0  0  0
  1 13  1  0  0  0  0
 13 14  1  0  0  0  0
 13 15  2  0  0  0  0
 15 16  1  0  0  0  0
 15 17  1  0  0  0  0
 17 18  1  0  0  0  0
 17 19  2  0  0  0  0
 19 20  1  0  0  0  0
 19 21  1  0  0  0  0
 21  1  2  0  0  0  0
 21 22  1  0  0  0  0
M  END
> <ChemID>
100693

> <source_casrn>
59261-08-4

> <CAS>
59261-08-4

> <SMILES>
Brc1cc(Br)c(-c2c(Br)cc(Br)cc2Br)c(Br)c1

> <NAME>
2,2',4,4',6,6'-HEXABROMOBIPHENYL

> <preferred_name>
PBB 155

> <iupac>
1,3,5-tribromo-2-(2,4,6-tribromophenyl)benzene

> <MPID>
99944

> <dsstox_substance_id>
DTXSID4074772

> <Canonical_QSARr>
Brc1cc(Br)c(-c2c(Br)cc(Br)cc2Br)c(Br)c1

> <InChI_Code_QSARr>
InChI=1S/C12H4Br6/c13-5-1-7(15)11(8(16)2-5)12-9(17)3-6(14)4-10(12)18/h1-4H

> <InChI Key_QSARr>
LNFYSRMCCKKDEH-UHFFFAOYSA-N

> <LogKOC>
4.87

$$$$
100694
  -INDIGO-08031722282D

 39 38  0  0  0  0  0  0  0  0999 V2000
    0.0001   -1.6000    0.0000 C   0  0  0  0  0  0  0  0  0  0  0  0
    0.0001   -3.2000    0.0000 H   0  0  0  0  0  0  0  0  0  0  0  0
   -1.3857   -2.4001    0.0000 H   0  0  0  0  0  0  0  0  0  0  0  0
    1.3856   -2.4001    0.0000 H   0  0  0  0  0  0  0  0  0  0  0  0
    0.0001    0.0001    0.0000 N   0  0  0  0  0  0  0  0  0  0  0  0
    1.3856    0.8000    0.0000 S   0  0  0  0  0  0  0  0  0  0  0  0
    2.9615    0.5222    0.0000 N   0  0  0  0  0  0  0  0  0  0  0  0
    3.9897    1.7478    0.0000 C   0  0  0  0  0  0  0  0  0  0  0  0
    3.4425    3.2513    0.0000 O   0  0  0  0  0  0  0  0  0  0  0  0
    5.5656    1.4701    0.0000 O   0  0  0  0  0  0  0  0  0  0  0  0
    6.5938    2.6957    0.0000 N   0  0  0  0  0  0  0  0  0  0  0  0
    8.1697    2.4178    0.0000 C   0  0  0  0  0  0  0  0  0  0  0  0
    8.7169    0.9143    0.0000 S   0  0  0  0  0  0  0  0  0  0  0  0
   10.2924    0.6365    0.0000 C   0  0  0  0  0  0  0  0  0  0  0  0
   11.8683    0.3586    0.0000 H   0  0  0  0  0  0  0  0  0  0  0  0
   10.8397   -0.8670    0.0000 H   0  0  0  0  0  0  0  0  0  0  0  0
    9.2642   -0.5892    0.0000 H   0  0  0  0  0  0  0  0  0  0  0  0
    9.1982    3.6435    0.0000 C   0  0  0  0  0  0  0  0  0  0  0  0
   10.2265    4.8691    0.0000 H   0  0  0  0  0  0  0  0  0  0  0  0
   10.7738    3.3656    0.0000 H   0  0  0  0  0  0  0  0  0  0  0  0
    8.6510    5.1470    0.0000 H   0  0  0  0  0  0  0  0  0  0  0  0
    3.5087   -0.9813    0.0000 C   0  0  0  0  0  0  0  0  0  0  0  0
    4.0559   -2.4849    0.0000 H   0  0  0  0  0  0  0  0  0  0  0  0
    2.4801   -2.2070    0.0000 H   0  0  0  0  0  0  0  0  0  0  0  0
    5.0842   -1.2592    0.0000 H   0  0  0  0  0  0  0  0  0  0  0  0
   -1.3857    0.8000    0.0000 C   0  0  0  0  0  0  0  0  0  0  0  0
   -1.3857    2.4000    0.0000 O   0  0  0  0  0  0  0  0  0  0  0  0
   -2.7712    0.0001    0.0000 O   0  0  0  0  0  0  0  0  0  0  0  0
   -4.1570    0.8000    0.0000 N   0  0  0  0  0  0  0  0  0  0  0  0
   -5.5425    0.0001    0.0000 C   0  0  0  0  0  0  0  0  0  0  0  0
   -5.5425   -1.6000    0.0000 S   0  0  0  0  0  0  0  0  0  0  0  0
   -6.9283   -2.4001    0.0000 C   0  0  0  0  0  0  0  0  0  0  0  0
   -8.3138   -3.2000    0.0000 H   0  0  0  0  0  0  0  0  0  0  0  0
   -6.9283   -4.0000    0.0000 H   0  0  0  0  0  0  0  0  0  0  0  0
   -5.5425   -3.2000    0.0000 H   0  0  0  0  0  0  0  0  0  0  0  0
   -6.9283    0.8000    0.0000 C   0  0  0  0  0  0  0  0  0  0  0  0
   -8.3138    1.6000    0.0000 H   0  0  0  0  0  0  0  0  0  0  0  0
   -8.3138    0.0001    0.0000 H   0  0  0  0  0  0  0  0  0  0  0  0
   -6.9283    2.4000    0.0000 H   0  0  0  0  0  0  0  0  0  0  0  0
  1  2  1  0  0  0  0
  1  3  1  0  0  0  0
  1  4  1  0  0  0  0
  1  5  1  0  0  0  0
  5  6  1  0  0  0  0
  6  7  1  0  0  0  0
  7  8  1  0  0  0  0
  8  9  2  0  0  0  0
  8 10  1  0  0  0  0
 10 11  1  0  0  0  0
 11 12  2  0  0  0  0
 12 13  1  0  0  0  0
 13 14  1  0  0  0  0
 14 15  1  0  0  0  0
 14 16  1  0  0  0  0
 14 17  1  0  0  0  0
 12 18  1  0  0  0  0
 18 19  1  0  0  0  0
 18 20  1  0  0  0  0
 18 21  1  0  0  0  0
  7 22  1  0  0  0  0
 22 23  1  0  0  0  0
 22 24  1  0  0  0  0
 22 25  1  0  0  0  0
  5 26  1  0  0  0  0
 26 27  2  0  0  0  0
 26 28  1  0  0  0  0
 28 29  1  0  0  0  0
 29 30  2  0  0  0  0
 30 31  1  0  0  0  0
 31 32  1  0  0  0  0
 32 33  1  0  0  0  0
 32 34  1  0  0  0  0
 32 35  1  0  0  0  0
 30 36  1  0  0  0  0
 36 37  1  0  0  0  0
 36 38  1  0  0  0  0
 36 39  1  0  0  0  0
M  END
> <ChemID>
100694

> <source_casrn>
59669-26-0

> <CAS>
59669-26-0

> <SMILES>
CN(SN(C)C(=O)O/N=C(\C)/SC)C(=O)O/N=C(\C)/SC

> <NAME>
THIODICARB

> <preferred_name>
Thiodicarb

> <iupac>
dimethyl (1E,1'E)-N,N'-{sulfanediylbis[(methylcarbamoyl)oxy]}diethanimidothioate

> <MPID>
99945

> <dsstox_substance_id>
DTXSID0032578

> <Canonical_QSARr>
CN(SN(C)C(=O)ON=C(C)SC)C(=O)ON=C(C)SC

> <InChI_Code_QSARr>
InChI=1S/C10H18N4O4S3/c1-7(19-5)11-17-9(15)13(3)21-14(4)10(16)18-12-8(2)20-6/h1-6H3/b11-7-,12-8-

> <InChI Key_QSARr>
XDOTVMNBCQVZKG-OXAWKVHCSA-N

> <LogKOC>
2.54

$$$$
100696
  -INDIGO-08031722282D

 34 36  0  0  0  0  0  0  0  0999 V2000
    0.0000   -0.0001    0.0000 C   0  0  0  0  0  0  0  0  0  0  0  0
    1.3856    0.8000    0.0000 C   0  0  0  0  0  0  0  0  0  0  0  0
    1.6635    2.3757    0.0000 C   0  0  0  0  0  0  0  0  0  0  0  0
    1.0944    3.0070    0.0000 Cl  0  0  0  0  0  0  0  0  0  0  0  0
    3.1670    2.9228    0.0000 C   0  0  0  0  0  0  0  0  0  0  0  0
    3.4449    4.4986    0.0000 H   0  0  0  0  0  0  0  0  0  0  0  0
    4.3927    1.8944    0.0000 C   0  0  0  0  0  0  0  0  0  0  0  0
    5.8962    2.4417    0.0000 H   0  0  0  0  0  0  0  0  0  0  0  0
    4.1148    0.3188    0.0000 C   0  0  0  0  0  0  0  0  0  0  0  0
    5.3406   -0.7098    0.0000 H   0  0  0  0  0  0  0  0  0  0  0  0
    2.6114   -0.2284    0.0000 C   0  0  0  0  0  0  0  0  0  0  0  0
    2.3335   -1.8041    0.0000 H   0  0  0  0  0  0  0  0  0  0  0  0
   -1.0285    1.2257    0.0000 C   0  0  0  0  0  0  0  0  0  0  0  0
   -0.4812    2.7292    0.0000 C   0  0  0  0  0  0  0  0  0  0  0  0
    0.2037    3.2323    0.0000 H   0  0  0  0  0  0  0  0  0  0  0  0
   -1.5096    3.9549    0.0000 N   0  0  0  0  0  0  0  0  0  0  0  0
   -3.0854    3.6770    0.0000 C   0  0  0  0  0  0  0  0  0  0  0  0
   -4.1138    4.9027    0.0000 H   0  0  0  0  0  0  0  0  0  0  0  0
   -3.6327    2.1734    0.0000 N   0  0  0  0  0  0  0  0  0  0  0  0
   -2.6042    0.9479    0.0000 C   0  0  0  0  0  0  0  0  0  0  0  0
   -3.2186    0.3606    0.0000 H   0  0  0  0  0  0  0  0  0  0  0  0
   -1.0285   -1.2256    0.0000 C   0  0  0  0  0  0  0  0  0  0  0  0
   -2.6285   -1.2256    0.0000 C   0  0  0  0  0  0  0  0  0  0  0  0
   -3.1514   -0.5556    0.0000 H   0  0  0  0  0  0  0  0  0  0  0  0
   -3.4285   -2.6113    0.0000 C   0  0  0  0  0  0  0  0  0  0  0  0
   -5.0285   -2.6113    0.0000 H   0  0  0  0  0  0  0  0  0  0  0  0
   -2.6285   -3.9969    0.0000 C   0  0  0  0  0  0  0  0  0  0  0  0
   -3.4285   -5.3826    0.0000 Cl  0  0  0  0  0  0  0  0  0  0  0  0
   -1.0285   -3.9969    0.0000 C   0  0  0  0  0  0  0  0  0  0  0  0
   -0.2285   -5.3826    0.0000 H   0  0  0  0  0  0  0  0  0  0  0  0
   -0.2285   -2.6113    0.0000 C   0  0  0  0  0  0  0  0  0  0  0  0
    0.4813   -2.7292    0.0000 H   0  0  0  0  0  0  0  0  0  0  0  0
    1.0284   -1.2256    0.0000 O   0  0  0  0  0  0  0  0  0  0  0  0
    1.2014   -1.9240    0.0000 H   0  0  0  0  0  0  0  0  0  0  0  0
  1  2  1  0  0  0  0
  2  3  1  0  0  0  0
  3  4  1  0  0  0  0
  3  5  2  0  0  0  0
  5  6  1  0  0  0  0
  5  7  1  0  0  0  0
  7  8  1  0  0  0  0
  7  9  2  0  0  0  0
  9 10  1  0  0  0  0
  9 11  1  0  0  0  0
 11  2  2  0  0  0  0
 11 12  1  0  0  0  0
  1 13  1  0  0  0  0
 13 14  1  0  0  0  0
 14 15  1  0  0  0  0
 14 16  2  0  0  0  0
 16 17  1  0  0  0  0
 17 18  1  0  0  0  0
 17 19  2  0  0  0  0
 19 20  1  0  0  0  0
 20 13  2  0  0  0  0
 20 21  1  0  0  0  0
  1 22  1  0  0  0  0
 22 23  1  0  0  0  0
 23 24  1  0  0  0  0
 23 25  2  0  0  0  0
 25 26  1  0  0  0  0
 25 27  1  0  0  0  0
 27 28  1  0  0  0  0
 27 29  2  0  0  0  0
 29 30  1  0  0  0  0
 29 31  1  0  0  0  0
 31 22  2  0  0  0  0
 31 32  1  0  0  0  0
  1 33  1  0  0  0  0
 33 34  1  0  0  0  0
M  END
> <ChemID>
100696

> <source_casrn>
60168-88-9

> <CAS>
60168-88-9

> <SMILES>
OC(c1ccccc1Cl)(c1ccc(Cl)cc1)c1c[n]c[n]c1

> <NAME>
FENARIMOL

> <preferred_name>
Fenarimol

> <iupac>
(2-chlorophenyl)(4-chlorophenyl)pyrimidin-5-ylmethanol

> <MPID>
99947

> <dsstox_substance_id>
DTXSID2032390

> <Canonical_QSARr>
OC(c1ccccc1Cl)(c1ccc(Cl)cc1)c1c[n]c[n]c1

> <InChI_Code_QSARr>
InChI=1S/C17H12Cl2N2O/c18-14-7-5-12(6-8-14)17(22,13-9-20-11-21-10-13)15-3-1-2-4-16(15)19/h1-11,22H

> <InChI Key_QSARr>
NHOWDZOIZKMVAI-UHFFFAOYSA-N

> <LogKOC>
2.78

$$$$
100697
  -INDIGO-08031722282D

 39 41  0  0  0  0  0  0  0  0999 V2000
   -0.0001    0.0001    0.0000 C   0  0  0  0  0  0  0  0  0  0  0  0
    1.4128   -0.7511    0.0000 C   0  0  0  0  0  0  0  0  0  0  0  0
    2.7697    0.0968    0.0000 C   0  0  0  0  0  0  0  0  0  0  0  0
    2.9923    1.6811    0.0000 Cl  0  0  0  0  0  0  0  0  0  0  0  0
    4.1823   -0.6544    0.0000 C   0  0  0  0  0  0  0  0  0  0  0  0
    5.5392    0.1935    0.0000 H   0  0  0  0  0  0  0  0  0  0  0  0
    4.2382   -2.2535    0.0000 C   0  0  0  0  0  0  0  0  0  0  0  0
    5.6509   -3.0047    0.0000 Cl  0  0  0  0  0  0  0  0  0  0  0  0
    2.8813   -3.1014    0.0000 C   0  0  0  0  0  0  0  0  0  0  0  0
    2.9370   -4.7004    0.0000 H   0  0  0  0  0  0  0  0  0  0  0  0
    1.4685   -2.3502    0.0000 C   0  0  0  0  0  0  0  0  0  0  0  0
    0.1117   -3.1981    0.0000 H   0  0  0  0  0  0  0  0  0  0  0  0
    0.6507    1.4616    0.0000 C   0  0  0  0  0  0  0  0  0  0  0  0
    2.1850    1.0073    0.0000 H   0  0  0  0  0  0  0  0  0  0  0  0
    2.0569    2.2252    0.0000 H   0  0  0  0  0  0  0  0  0  0  0  0
   -0.2896    2.7561    0.0000 N   0  0  0  0  0  0  0  0  0  0  0  0
    0.2047    4.2778    0.0000 C   0  0  0  0  0  0  0  0  0  0  0  0
    1.7265    4.7722    0.0000 H   0  0  0  0  0  0  0  0  0  0  0  0
   -1.0896    5.2182    0.0000 N   0  0  0  0  0  0  0  0  0  0  0  0
   -2.3841    4.2778    0.0000 C   0  0  0  0  0  0  0  0  0  0  0  0
   -3.9058    4.7722    0.0000 H   0  0  0  0  0  0  0  0  0  0  0  0
   -1.8897    2.7561    0.0000 N   0  0  0  0  0  0  0  0  0  0  0  0
   -0.3327   -1.5650    0.0000 O   0  0  0  0  0  0  0  0  0  0  0  0
   -1.9238   -1.7323    0.0000 C   0  0  0  0  0  0  0  0  0  0  0  0
   -1.5912   -3.2974    0.0000 H   0  0  0  0  0  0  0  0  0  0  0  0
   -3.4457   -2.2267    0.0000 C   0  0  0  0  0  0  0  0  0  0  0  0
   -3.1541   -3.8000    0.0000 H   0  0  0  0  0  0  0  0  0  0  0  0
   -4.3518   -3.5453    0.0000 H   0  0  0  0  0  0  0  0  0  0  0  0
   -4.9290   -1.6274    0.0000 C   0  0  0  0  0  0  0  0  0  0  0  0
   -5.7411   -0.2488    0.0000 H   0  0  0  0  0  0  0  0  0  0  0  0
   -4.5285   -0.0783    0.0000 H   0  0  0  0  0  0  0  0  0  0  0  0
   -6.1898   -2.6124    0.0000 C   0  0  0  0  0  0  0  0  0  0  0  0
   -7.4508   -3.5975    0.0000 H   0  0  0  0  0  0  0  0  0  0  0  0
   -7.6734   -2.0130    0.0000 H   0  0  0  0  0  0  0  0  0  0  0  0
   -5.9672   -4.1968    0.0000 H   0  0  0  0  0  0  0  0  0  0  0  0
   -2.5747   -0.2705    0.0000 C   0  0  0  0  0  0  0  0  0  0  0  0
   -3.9602   -1.0706    0.0000 H   0  0  0  0  0  0  0  0  0  0  0  0
   -3.5152    1.0238    0.0000 H   0  0  0  0  0  0  0  0  0  0  0  0
   -1.3857    0.7999    0.0000 O   0  0  0  0  0  0  0  0  0  0  0  0
  1  2  1  0  0  0  0
  2  3  1  0  0  0  0
  3  4  1  0  0  0  0
  3  5  2  0  0  0  0
  5  6  1  0  0  0  0
  5  7  1  0  0  0  0
  7  8  1  0  0  0  0
  7  9  2  0  0  0  0
  9 10  1  0  0  0  0
  9 11  1  0  0  0  0
 11  2  2  0  0  0  0
 11 12  1  0  0  0  0
  1 13  1  0  0  0  0
 13 14  1  0  0  0  0
 13 15  1  0  0  0  0
 13 16  1  0  0  0  0
 16 17  1  0  0  0  0
 17 18  1  0  0  0  0
 17 19  2  0  0  0  0
 19 20  1  0  0  0  0
 20 21  1  0  0  0  0
 20 22  2  0  0  0  0
 22 16  1  0  0  0  0
  1 23  1  0  0  0  0
 23 24  1  0  0  0  0
 24 25  1  0  0  0  0
 24 26  1  0  0  0  0
 26 27  1  0  0  0  0
 26 28  1  0  0  0  0
 26 29  1  0  0  0  0
 29 30  1  0  0  0  0
 29 31  1  0  0  0  0
 29 32  1  0  0  0  0
 32 33  1  0  0  0  0
 32 34  1  0  0  0  0
 32 35  1  0  0  0  0
 24 36  1  0  0  0  0
 36 37  1  0  0  0  0
 36 38  1  0  0  0  0
 36 39  1  0  0  0  0
 39  1  1  0  0  0  0
M  END
> <ChemID>
100697

> <source_casrn>
60207-90-1

> <CAS>
60207-90-1

> <SMILES>
CCCC1COC(C[n]2c[n]c[n]2)(O1)c1ccc(Cl)cc1Cl

> <NAME>
PROPICONAZOLE

> <preferred_name>
Propiconazole

> <iupac>
1-{[2-(2,4-dichlorophenyl)-4-propyl-1,3-dioxolan-2-yl]methyl}-1H-1,2,4-triazole

> <MPID>
99948

> <dsstox_substance_id>
DTXSID8024280

> <Canonical_QSARr>
CCCC1COC(C[n]2c[n]c[n]2)(O1)c1ccc(Cl)cc1Cl

> <InChI_Code_QSARr>
InChI=1S/C15H17Cl2N3O2/c1-2-3-12-7-21-15(22-12,8-20-10-18-9-19-20)13-5-4-11(16)6-14(13)17/h4-6,9-10,12H,2-3,7-8H2,1H3

> <InChI Key_QSARr>
STJLVHWMYQXCPB-UHFFFAOYSA-N

> <LogKOC>
3.39

$$$$
100699
  -INDIGO-08031722282D

 40 41  0  0  0  0  0  0  0  0999 V2000
   -2.6043    1.5036    0.0000 C   0  0  0  0  0  0  0  0  0  0  0  0
   -3.1513    3.0071    0.0000 C   0  0  0  0  0  0  0  0  0  0  0  0
   -2.1229    4.2327    0.0000 F   0  0  0  0  0  0  0  0  0  0  0  0
   -4.7272    3.2849    0.0000 C   0  0  0  0  0  0  0  0  0  0  0  0
   -5.2744    4.7884    0.0000 H   0  0  0  0  0  0  0  0  0  0  0  0
   -5.7556    2.0592    0.0000 C   0  0  0  0  0  0  0  0  0  0  0  0
   -7.3312    2.3370    0.0000 H   0  0  0  0  0  0  0  0  0  0  0  0
   -5.2083    0.5557    0.0000 C   0  0  0  0  0  0  0  0  0  0  0  0
   -6.2367   -0.6700    0.0000 H   0  0  0  0  0  0  0  0  0  0  0  0
   -3.6327    0.2779    0.0000 C   0  0  0  0  0  0  0  0  0  0  0  0
   -3.0854   -1.2257    0.0000 Cl  0  0  0  0  0  0  0  0  0  0  0  0
   -1.0284    1.2256    0.0000 C   0  0  0  0  0  0  0  0  0  0  0  0
   -0.8196    2.8120    0.0000 H   0  0  0  0  0  0  0  0  0  0  0  0
    0.2408    2.1997    0.0000 H   0  0  0  0  0  0  0  0  0  0  0  0
    0.0000   -0.0001    0.0000 N   0  0  0  0  0  0  0  0  0  0  0  0
    1.5757    0.2779    0.0000 C   0  0  0  0  0  0  0  0  0  0  0  0
    2.3756    1.6635    0.0000 C   0  0  0  0  0  0  0  0  0  0  0  0
    1.8284    3.1670    0.0000 N   0  0  0  0  0  0  0  0  0  0  0  0
    0.2527    3.4448    0.0000 O   0  0  0  0  0  0  0  0  0  0  0  0
    2.8570    4.3927    0.0000 O   0  0  0  0  0  0  0  0  0  0  0  0
    3.9756    1.6635    0.0000 C   0  0  0  0  0  0  0  0  0  0  0  0
    4.7758    3.0491    0.0000 H   0  0  0  0  0  0  0  0  0  0  0  0
    4.7758    0.2779    0.0000 C   0  0  0  0  0  0  0  0  0  0  0  0
    6.3757    0.2779    0.0000 C   0  0  0  0  0  0  0  0  0  0  0  0
    7.9757    0.2779    0.0000 F   0  0  0  0  0  0  0  0  0  0  0  0
    7.1757    1.6635    0.0000 F   0  0  0  0  0  0  0  0  0  0  0  0
    7.1757   -1.1079    0.0000 F   0  0  0  0  0  0  0  0  0  0  0  0
    3.9756   -1.1079    0.0000 C   0  0  0  0  0  0  0  0  0  0  0  0
    4.7758   -2.4935    0.0000 H   0  0  0  0  0  0  0  0  0  0  0  0
    2.3756   -1.1079    0.0000 C   0  0  0  0  0  0  0  0  0  0  0  0
    2.3756   -2.7077    0.0000 N   0  0  0  0  0  0  0  0  0  0  0  0
    0.9901   -3.5078    0.0000 O   0  0  0  0  0  0  0  0  0  0  0  0
    3.8791   -3.2550    0.0000 O   0  0  0  0  0  0  0  0  0  0  0  0
   -0.5472   -1.5035    0.0000 C   0  0  0  0  0  0  0  0  0  0  0  0
   -1.7270   -0.4225    0.0000 H   0  0  0  0  0  0  0  0  0  0  0  0
   -2.1458   -1.5733    0.0000 H   0  0  0  0  0  0  0  0  0  0  0  0
   -0.2693   -3.0792    0.0000 C   0  0  0  0  0  0  0  0  0  0  0  0
   -1.4951   -4.1076    0.0000 H   0  0  0  0  0  0  0  0  0  0  0  0
    0.0084   -4.6549    0.0000 H   0  0  0  0  0  0  0  0  0  0  0  0
   -1.7730   -2.5319    0.0000 H   0  0  0  0  0  0  0  0  0  0  0  0
  1  2  1  0  0  0  0
  2  3  1  0  0  0  0
  2  4  2  0  0  0  0
  4  5  1  0  0  0  0
  4  6  1  0  0  0  0
  6  7  1  0  0  0  0
  6  8  2  0  0  0  0
  8  9  1  0  0  0  0
  8 10  1  0  0  0  0
 10  1  2  0  0  0  0
 10 11  1  0  0  0  0
  1 12  1  0  0  0  0
 12 13  1  0  0  0  0
 12 14  1  0  0  0  0
 12 15  1  0  0  0  0
 15 16  1  0  0  0  0
 16 17  1  0  0  0  0
 17 18  1  0  0  0  0
 18 19  1  0  0  0  0
 18 20  2  0  0  0  0
 17 21  2  0  0  0  0
 21 22  1  0  0  0  0
 21 23  1  0  0  0  0
 23 24  1  0  0  0  0
 24 25  1  0  0  0  0
 24 26  1  0  0  0  0
 24 27  1  0  0  0  0
 23 28  2  0  0  0  0
 28 29  1  0  0  0  0
 28 30  1  0  0  0  0
 30 16  2  0  0  0  0
 30 31  1  0  0  0  0
 31 32  1  0  0  0  0
 31 33  2  0  0  0  0
 15 34  1  0  0  0  0
 34 35  1  0  0  0  0
 34 36  1  0  0  0  0
 34 37  1  0  0  0  0
 37 38  1  0  0  0  0
 37 39  1  0  0  0  0
 37 40  1  0  0  0  0
M  CHG  4  18   1  19  -1  31   1  32  -1
M  END
> <ChemID>
100699

> <source_casrn>
62924-70-3

> <CAS>
62924-70-3

> <SMILES>
CCN(Cc1c(F)cccc1Cl)c1c(cc(cc1[N+]([O-])=O)C(F)(F)F)[N+]([O-])=O

> <NAME>
FLUMETRALIN

> <preferred_name>
Flumetralin

> <iupac>
N-(2-chloro-6-fluorobenzyl)-N-ethyl-2,6-dinitro-4-(trifluoromethyl)aniline

> <MPID>
99950

> <dsstox_substance_id>
DTXSID7032553

> <Canonical_QSARr>
CCN(Cc1c(F)cccc1Cl)c1c(cc(cc1[N+]([O-])=O)C(F)(F)F)[N+]([O-])=O

> <InChI_Code_QSARr>
InChI=1S/C16H12ClF4N3O4/c1-2-22(8-10-11(17)4-3-5-12(10)18)15-13(23(25)26)6-9(16(19,20)21)7-14(15)24(27)28/h3-7H,2,8H2,1H3

> <InChI Key_QSARr>
PWNAWOCHVWERAR-UHFFFAOYSA-N

> <LogKOC>
4.0

$$$$
100702
  -INDIGO-08031722282D

 65 67  0  0  0  0  0  0  0  0999 V2000
    5.5425   -0.0001    0.0000 C   0  0  0  0  0  0  0  0  0  0  0  0
    6.1548    1.4782    0.0000 H   0  0  0  0  0  0  0  0  0  0  0  0
    4.9303    1.4782    0.0000 H   0  0  0  0  0  0  0  0  0  0  0  0
    4.1569   -0.8000    0.0000 C   0  0  0  0  0  0  0  0  0  0  0  0
    3.5446   -2.2781    0.0000 H   0  0  0  0  0  0  0  0  0  0  0  0
    4.7691   -2.2781    0.0000 H   0  0  0  0  0  0  0  0  0  0  0  0
    2.7712   -0.0001    0.0000 C   0  0  0  0  0  0  0  0  0  0  0  0
    3.3834    1.4782    0.0000 H   0  0  0  0  0  0  0  0  0  0  0  0
    2.1589    1.4782    0.0000 H   0  0  0  0  0  0  0  0  0  0  0  0
    1.3855   -0.8000    0.0000 C   0  0  0  0  0  0  0  0  0  0  0  0
    0.7732   -2.2781    0.0000 H   0  0  0  0  0  0  0  0  0  0  0  0
    1.9981   -2.2781    0.0000 H   0  0  0  0  0  0  0  0  0  0  0  0
   -0.0002   -0.0001    0.0000 C   0  0  0  0  0  0  0  0  0  0  0  0
    0.6124    1.4782    0.0000 H   0  0  0  0  0  0  0  0  0  0  0  0
   -0.6124    1.4782    0.0000 H   0  0  0  0  0  0  0  0  0  0  0  0
   -1.3855   -0.8000    0.0000 C   0  0  0  0  0  0  0  0  0  0  0  0
   -1.9981   -2.2781    0.0000 H   0  0  0  0  0  0  0  0  0  0  0  0
   -0.7732   -2.2781    0.0000 H   0  0  0  0  0  0  0  0  0  0  0  0
   -2.7712   -0.0001    0.0000 C   0  0  0  0  0  0  0  0  0  0  0  0
   -2.1589    1.4782    0.0000 H   0  0  0  0  0  0  0  0  0  0  0  0
   -3.3834    1.4782    0.0000 H   0  0  0  0  0  0  0  0  0  0  0  0
   -4.1568   -0.8000    0.0000 C   0  0  0  0  0  0  0  0  0  0  0  0
   -4.7691   -2.2781    0.0000 H   0  0  0  0  0  0  0  0  0  0  0  0
   -3.5446   -2.2781    0.0000 H   0  0  0  0  0  0  0  0  0  0  0  0
   -5.5425   -0.0001    0.0000 C   0  0  0  0  0  0  0  0  0  0  0  0
   -6.9282    0.7999    0.0000 H   0  0  0  0  0  0  0  0  0  0  0  0
   -6.9282   -0.8000    0.0000 H   0  0  0  0  0  0  0  0  0  0  0  0
   -5.5425    1.6001    0.0000 H   0  0  0  0  0  0  0  0  0  0  0  0
    6.9282   -0.8000    0.0000 C   0  0  0  0  0  0  0  0  0  0  0  0
    8.3139   -0.0001    0.0000 C   0  0  0  0  0  0  0  0  0  0  0  0
    8.3139    1.6001    0.0000 H   0  0  0  0  0  0  0  0  0  0  0  0
    9.6996   -0.8000    0.0000 C   0  0  0  0  0  0  0  0  0  0  0  0
   11.0852   -0.0001    0.0000 H   0  0  0  0  0  0  0  0  0  0  0  0
    9.6996   -2.4000    0.0000 C   0  0  0  0  0  0  0  0  0  0  0  0
   11.0852   -3.2000    0.0000 O   0  0  0  0  0  0  0  0  0  0  0  0
   12.4709   -2.4000    0.0000 P   0  0  0  0  0  0  0  0  0  0  0  0
   12.4709   -3.9999    0.0000 O   0  0  0  0  0  0  0  0  0  0  0  0
   13.8562   -3.2000    0.0000 O   0  0  0  0  0  0  0  0  0  0  0  0
   13.8562   -4.7999    0.0000 C   0  0  0  0  0  0  0  0  0  0  0  0
   12.4709   -5.5999    0.0000 C   0  0  0  0  0  0  0  0  0  0  0  0
   11.0852   -4.7999    0.0000 H   0  0  0  0  0  0  0  0  0  0  0  0
   12.4709   -7.2001    0.0000 C   0  0  0  0  0  0  0  0  0  0  0  0
   11.0852   -8.0000    0.0000 H   0  0  0  0  0  0  0  0  0  0  0  0
   13.8562   -8.0000    0.0000 C   0  0  0  0  0  0  0  0  0  0  0  0
   13.8562   -9.6000    0.0000 H   0  0  0  0  0  0  0  0  0  0  0  0
   15.2419   -7.2001    0.0000 C   0  0  0  0  0  0  0  0  0  0  0  0
   16.6276   -8.0000    0.0000 H   0  0  0  0  0  0  0  0  0  0  0  0
   15.2419   -5.5999    0.0000 C   0  0  0  0  0  0  0  0  0  0  0  0
   16.6276   -4.7999    0.0000 H   0  0  0  0  0  0  0  0  0  0  0  0
   13.8562   -1.6000    0.0000 O   0  0  0  0  0  0  0  0  0  0  0  0
   14.4035   -0.0965    0.0000 C   0  0  0  0  0  0  0  0  0  0  0  0
   15.9794    0.1813    0.0000 C   0  0  0  0  0  0  0  0  0  0  0  0
   17.0076   -1.0442    0.0000 H   0  0  0  0  0  0  0  0  0  0  0  0
   16.5268    1.6848    0.0000 C   0  0  0  0  0  0  0  0  0  0  0  0
   18.1023    1.9628    0.0000 H   0  0  0  0  0  0  0  0  0  0  0  0
   15.4982    2.9105    0.0000 C   0  0  0  0  0  0  0  0  0  0  0  0
   16.0455    4.4140    0.0000 H   0  0  0  0  0  0  0  0  0  0  0  0
   13.9223    2.6327    0.0000 C   0  0  0  0  0  0  0  0  0  0  0  0
   12.8941    3.8583    0.0000 H   0  0  0  0  0  0  0  0  0  0  0  0
   13.3754    1.1292    0.0000 C   0  0  0  0  0  0  0  0  0  0  0  0
   11.7995    0.8512    0.0000 H   0  0  0  0  0  0  0  0  0  0  0  0
    8.3139   -3.2000    0.0000 C   0  0  0  0  0  0  0  0  0  0  0  0
    8.3139   -4.7999    0.0000 H   0  0  0  0  0  0  0  0  0  0  0  0
    6.9282   -2.4000    0.0000 C   0  0  0  0  0  0  0  0  0  0  0  0
    5.5425   -3.2000    0.0000 H   0  0  0  0  0  0  0  0  0  0  0  0
  1  2  1  0  0  0  0
  1  3  1  0  0  0  0
  1  4  1  0  0  0  0
  4  5  1  0  0  0  0
  4  6  1  0  0  0  0
  4  7  1  0  0  0  0
  7  8  1  0  0  0  0
  7  9  1  0  0  0  0
  7 10  1  0  0  0  0
 10 11  1  0  0  0  0
 10 12  1  0  0  0  0
 10 13  1  0  0  0  0
 13 14  1  0  0  0  0
 13 15  1  0  0  0  0
 13 16  1  0  0  0  0
 16 17  1  0  0  0  0
 16 18  1  0  0  0  0
 16 19  1  0  0  0  0
 19 20  1  0  0  0  0
 19 21  1  0  0  0  0
 19 22  1  0  0  0  0
 22 23  1  0  0  0  0
 22 24  1  0  0  0  0
 22 25  1  0  0  0  0
 25 26  1  0  0  0  0
 25 27  1  0  0  0  0
 25 28  1  0  0  0  0
  1 29  1  0  0  0  0
 29 30  1  0  0  0  0
 30 31  1  0  0  0  0
 30 32  2  0  0  0  0
 32 33  1  0  0  0  0
 32 34  1  0  0  0  0
 34 35  1  0  0  0  0
 35 36  1  0  0  0  0
 36 37  2  0  0  0  0
 36 38  1  0  0  0  0
 38 39  1  0  0  0  0
 39 40  1  0  0  0  0
 40 41  1  0  0  0  0
 40 42  2  0  0  0  0
 42 43  1  0  0  0  0
 42 44  1  0  0  0  0
 44 45  1  0  0  0  0
 44 46  2  0  0  0  0
 46 47  1  0  0  0  0
 46 48  1  0  0  0  0
 48 39  2  0  0  0  0
 48 49  1  0  0  0  0
 36 50  1  0  0  0  0
 50 51  1  0  0  0  0
 51 52  1  0  0  0  0
 52 53  1  0  0  0  0
 52 54  2  0  0  0  0
 54 55  1  0  0  0  0
 54 56  1  0  0  0  0
 56 57  1  0  0  0  0
 56 58  2  0  0  0  0
 58 59  1  0  0  0  0
 58 60  1  0  0  0  0
 60 51  2  0  0  0  0
 60 61  1  0  0  0  0
 34 62  2  0  0  0  0
 62 63  1  0  0  0  0
 62 64  1  0  0  0  0
 64 29  2  0  0  0  0
 64 65  1  0  0  0  0
M  END
> <ChemID>
100702

> <source_casrn>
64532-97-4

> <CAS>
64532-97-4

> <SMILES>
O=P(Oc1ccccc1)(Oc2ccccc2)Oc3ccc(CCCCCCCCC)cc3

> <NAME>
4-NONYLPHENYL DIPHENYL PHOSPATE

> <preferred_name>
Nonylphenyl diphenyl phosphate, mixed isomers

> <iupac>
4-nonylphenyl diphenyl phosphate

> <MPID>
99952

> <dsstox_substance_id>
DTXSID4025797

> <Canonical_QSARr>
CCCCCCCCCc1ccc(cc1)OP(=O)(Oc1ccccc1)Oc1ccccc1

> <InChI_Code_QSARr>
InChI=1S/C27H33O4P/c1-2-3-4-5-6-7-10-15-24-20-22-27(23-21-24)31-32(28,29-25-16-11-8-12-17-25)30-26-18-13-9-14-19-26/h8-9,11-14,16-23H,2-7,10,15H2,1H3

> <InChI Key_QSARr>
LMCLPMXCYFSRNG-UHFFFAOYSA-N

> <LogKOC>
4.06

$$$$
100703
  -INDIGO-08031722282D

 35 36  0  0  0  0  0  0  0  0999 V2000
    1.3857    0.8001    0.0000 S   0  0  0  0  0  0  0  0  0  0  0  0
    2.7713    1.6000    0.0000 N   0  0  0  0  0  0  0  0  0  0  0  0
    2.7713    3.2000    0.0000 H   0  0  0  0  0  0  0  0  0  0  0  0
    4.1569    0.8001    0.0000 C   0  0  0  0  0  0  0  0  0  0  0  0
    5.5425    1.6000    0.0000 N   0  0  0  0  0  0  0  0  0  0  0  0
    5.5425    3.2000    0.0000 H   0  0  0  0  0  0  0  0  0  0  0  0
    6.9281    0.8001    0.0000 C   0  0  0  0  0  0  0  0  0  0  0  0
    8.3137    1.6000    0.0000 N   0  0  0  0  0  0  0  0  0  0  0  0
    9.6996    0.8001    0.0000 C   0  0  0  0  0  0  0  0  0  0  0  0
   11.0852    1.6000    0.0000 O   0  0  0  0  0  0  0  0  0  0  0  0
   12.4708    0.7999    0.0000 C   0  0  0  0  0  0  0  0  0  0  0  0
   13.8564    1.6000    0.0000 H   0  0  0  0  0  0  0  0  0  0  0  0
   13.8564    0.0000    0.0000 H   0  0  0  0  0  0  0  0  0  0  0  0
   12.4708   -0.8001    0.0000 H   0  0  0  0  0  0  0  0  0  0  0  0
    9.6996   -0.8001    0.0000 N   0  0  0  0  0  0  0  0  0  0  0  0
    8.3137   -1.6000    0.0000 C   0  0  0  0  0  0  0  0  0  0  0  0
    8.3137   -3.2000    0.0000 C   0  0  0  0  0  0  0  0  0  0  0  0
    8.3137   -4.8000    0.0000 H   0  0  0  0  0  0  0  0  0  0  0  0
    9.6996   -4.0001    0.0000 H   0  0  0  0  0  0  0  0  0  0  0  0
    6.9281   -4.0001    0.0000 H   0  0  0  0  0  0  0  0  0  0  0  0
    6.9281   -0.7999    0.0000 N   0  0  0  0  0  0  0  0  0  0  0  0
    4.1569   -0.7999    0.0000 O   0  0  0  0  0  0  0  0  0  0  0  0
   -0.0001    0.0000    0.0000 C   0  0  0  0  0  0  0  0  0  0  0  0
   -0.0001   -1.6000    0.0000 C   0  0  0  0  0  0  0  0  0  0  0  0
    1.3857   -2.4001    0.0000 Cl  0  0  0  0  0  0  0  0  0  0  0  0
   -1.3857   -2.4001    0.0000 C   0  0  0  0  0  0  0  0  0  0  0  0
   -1.3857   -3.9999    0.0000 H   0  0  0  0  0  0  0  0  0  0  0  0
   -2.7713   -1.6000    0.0000 C   0  0  0  0  0  0  0  0  0  0  0  0
   -4.1569   -2.3999    0.0000 H   0  0  0  0  0  0  0  0  0  0  0  0
   -2.7713    0.0000    0.0000 C   0  0  0  0  0  0  0  0  0  0  0  0
   -4.1569    0.8001    0.0000 H   0  0  0  0  0  0  0  0  0  0  0  0
   -1.3857    0.8001    0.0000 C   0  0  0  0  0  0  0  0  0  0  0  0
   -1.3857    2.3999    0.0000 H   0  0  0  0  0  0  0  0  0  0  0  0
    2.1856   -0.5856    0.0000 O   0  0  0  0  0  0  0  0  0  0  0  0
    0.5856    2.1856    0.0000 O   0  0  0  0  0  0  0  0  0  0  0  0
  1  2  1  0  0  0  0
  2  3  1  0  0  0  0
  2  4  1  0  0  0  0
  4  5  1  0  0  0  0
  5  6  1  0  0  0  0
  5  7  1  0  0  0  0
  7  8  1  0  0  0  0
  8  9  2  0  0  0  0
  9 10  1  0  0  0  0
 10 11  1  0  0  0  0
 11 12  1  0  0  0  0
 11 13  1  0  0  0  0
 11 14  1  0  0  0  0
  9 15  1  0  0  0  0
 15 16  2  0  0  0  0
 16 17  1  0  0  0  0
 17 18  1  0  0  0  0
 17 19  1  0  0  0  0
 17 20  1  0  0  0  0
 16 21  1  0  0  0  0
 21  7  2  0  0  0  0
  4 22  2  0  0  0  0
  1 23  1  0  0  0  0
 23 24  1  0  0  0  0
 24 25  1  0  0  0  0
 24 26  2  0  0  0  0
 26 27  1  0  0  0  0
 26 28  1  0  0  0  0
 28 29  1  0  0  0  0
 28 30  2  0  0  0  0
 30 31  1  0  0  0  0
 30 32  1  0  0  0  0
 32 23  2  0  0  0  0
 32 33  1  0  0  0  0
  1 34  2  0  0  0  0
  1 35  2  0  0  0  0
M  END
> <ChemID>
100703

> <source_casrn>
64902-72-3

> <CAS>
64902-72-3

> <SMILES>
Cc1[n]c(NC(=O)NS(=O)(=O)c2ccccc2Cl)[n]c([n]1)OC

> <NAME>
CHLORSULFURON

> <preferred_name>
Chlorsulfuron

> <iupac>
2-chloro-N-[(4-methoxy-6-methyl-1,3,5-triazin-2-yl)carbamoyl]benzenesulfonamide

> <MPID>
99953

> <dsstox_substance_id>
DTXSID7023980

> <Canonical_QSARr>
Cc1[n]c(NC(=O)NS(=O)(=O)c2ccccc2Cl)[n]c([n]1)OC

> <InChI_Code_QSARr>
InChI=1S/C12H12ClN5O4S/c1-7-14-10(17-12(15-7)22-2)16-11(19)18-23(20,21)9-6-4-3-5-8(9)13/h3-6H,1-2H3,(H2,14,15,16,17,18,19)

> <InChI Key_QSARr>
VJYIFXVZLXQVHO-UHFFFAOYSA-N

> <LogKOC>
2.19

$$$$
100707
  -INDIGO-08031722282D

 41 43  0  0  0  0  0  0  0  0999 V2000
   -0.8000   -1.3856    0.0000 C   0  0  0  0  0  0  0  0  0  0  0  0
    0.0000    0.0001    0.0000 C   0  0  0  0  0  0  0  0  0  0  0  0
    0.8001    1.3856    0.0000 H   0  0  0  0  0  0  0  0  0  0  0  0
   -1.3858    0.8000    0.0000 C   0  0  0  0  0  0  0  0  0  0  0  0
   -2.7713    1.6001    0.0000 H   0  0  0  0  0  0  0  0  0  0  0  0
   -2.7713    0.0001    0.0000 H   0  0  0  0  0  0  0  0  0  0  0  0
   -1.3858    2.4000    0.0000 H   0  0  0  0  0  0  0  0  0  0  0  0
    1.3856   -0.8000    0.0000 O   0  0  0  0  0  0  0  0  0  0  0  0
    2.7713    0.0001    0.0000 C   0  0  0  0  0  0  0  0  0  0  0  0
    2.7713    1.6001    0.0000 C   0  0  0  0  0  0  0  0  0  0  0  0
    1.3856    2.4000    0.0000 H   0  0  0  0  0  0  0  0  0  0  0  0
    4.1569    2.4000    0.0000 C   0  0  0  0  0  0  0  0  0  0  0  0
    4.1569    4.0000    0.0000 H   0  0  0  0  0  0  0  0  0  0  0  0
    5.5427    1.6001    0.0000 C   0  0  0  0  0  0  0  0  0  0  0  0
    6.9282    2.4000    0.0000 O   0  0  0  0  0  0  0  0  0  0  0  0
    8.3140    1.6001    0.0000 C   0  0  0  0  0  0  0  0  0  0  0  0
    9.7756    2.2508    0.0000 N   0  0  0  0  0  0  0  0  0  0  0  0
   10.8460    1.0618    0.0000 C   0  0  0  0  0  0  0  0  0  0  0  0
   10.0460   -0.3239    0.0000 C   0  0  0  0  0  0  0  0  0  0  0  0
   10.8460   -1.7095    0.0000 C   0  0  0  0  0  0  0  0  0  0  0  0
   10.0460   -3.0952    0.0000 H   0  0  0  0  0  0  0  0  0  0  0  0
   12.4461   -1.7095    0.0000 C   0  0  0  0  0  0  0  0  0  0  0  0
   13.2461   -0.3239    0.0000 C   0  0  0  0  0  0  0  0  0  0  0  0
   14.8461   -0.3239    0.0000 H   0  0  0  0  0  0  0  0  0  0  0  0
   12.4461    1.0618    0.0000 C   0  0  0  0  0  0  0  0  0  0  0  0
   13.2461    2.4474    0.0000 H   0  0  0  0  0  0  0  0  0  0  0  0
   13.2461   -3.0952    0.0000 Cl  0  0  0  0  0  0  0  0  0  0  0  0
    8.4812    0.0088    0.0000 O   0  0  0  0  0  0  0  0  0  0  0  0
    5.5427    0.0001    0.0000 C   0  0  0  0  0  0  0  0  0  0  0  0
    6.9282   -0.8000    0.0000 H   0  0  0  0  0  0  0  0  0  0  0  0
    4.1569   -0.8000    0.0000 C   0  0  0  0  0  0  0  0  0  0  0  0
    4.1569   -2.4000    0.0000 H   0  0  0  0  0  0  0  0  0  0  0  0
    0.0000   -2.7712    0.0000 O   0  0  0  0  0  0  0  0  0  0  0  0
   -0.8000   -4.1569    0.0000 C   0  0  0  0  0  0  0  0  0  0  0  0
   -2.2783   -3.5446    0.0000 H   0  0  0  0  0  0  0  0  0  0  0  0
   -2.2783   -4.7692    0.0000 H   0  0  0  0  0  0  0  0  0  0  0  0
    0.0000   -5.5425    0.0000 C   0  0  0  0  0  0  0  0  0  0  0  0
    0.8001   -6.9282    0.0000 H   0  0  0  0  0  0  0  0  0  0  0  0
   -0.8000   -6.9282    0.0000 H   0  0  0  0  0  0  0  0  0  0  0  0
    1.6001   -5.5425    0.0000 H   0  0  0  0  0  0  0  0  0  0  0  0
   -2.4000   -1.3856    0.0000 O   0  0  0  0  0  0  0  0  0  0  0  0
  1  2  1  0  0  0  0
  2  3  1  0  0  0  0
  2  4  1  0  0  0  0
  4  5  1  0  0  0  0
  4  6  1  0  0  0  0
  4  7  1  0  0  0  0
  2  8  1  0  0  0  0
  8  9  1  0  0  0  0
  9 10  1  0  0  0  0
 10 11  1  0  0  0  0
 10 12  2  0  0  0  0
 12 13  1  0  0  0  0
 12 14  1  0  0  0  0
 14 15  1  0  0  0  0
 15 16  1  0  0  0  0
 16 17  2  0  0  0  0
 17 18  1  0  0  0  0
 18 19  1  0  0  0  0
 19 20  2  0  0  0  0
 20 21  1  0  0  0  0
 20 22  1  0  0  0  0
 22 23  2  0  0  0  0
 23 24  1  0  0  0  0
 23 25  1  0  0  0  0
 25 18  2  0  0  0  0
 25 26  1  0  0  0  0
 22 27  1  0  0  0  0
 19 28  1  0  0  0  0
 28 16  1  0  0  0  0
 14 29  2  0  0  0  0
 29 30  1  0  0  0  0
 29 31  1  0  0  0  0
 31  9  2  0  0  0  0
 31 32  1  0  0  0  0
  1 33  1  0  0  0  0
 33 34  1  0  0  0  0
 34 35  1  0  0  0  0
 34 36  1  0  0  0  0
 34 37  1  0  0  0  0
 37 38  1  0  0  0  0
 37 39  1  0  0  0  0
 37 40  1  0  0  0  0
  1 41  2  0  0  0  0
M  END
> <ChemID>
100707

> <source_casrn>
66441-23-4

> <CAS>
66441-23-4

> <SMILES>
o1c2cc(Cl)ccc2nc1Oc3ccc(OC(C)C(=O)OCC)cc3

> <NAME>
Fenoxaprop ethyl

> <preferred_name>
Fenoxaprop-ethyl

> <iupac>
C18H16ClNO5

> <MPID>
99956

> <dsstox_substance_id>
DTXSID2032392

> <Canonical_QSARr>
CCOC(=O)C(C)Oc1ccc(cc1)Oc1[n]c2ccc(Cl)cc2o1

> <InChI_Code_QSARr>
InChI=1S/C18H16ClNO5/c1-3-22-17(21)11(2)23-13-5-7-14(8-6-13)24-18-20-15-9-4-12(19)10-16(15)25-18/h4-11H,3H2,1-2H3

> <InChI Key_QSARr>
PQKBPHSEKWERTG-UHFFFAOYSA-N

> <LogKOC>
3.98

$$$$
100708
  -INDIGO-08031722282D

 49 51  0  0  0  0  0  0  0  0999 V2000
    0.8000    1.3857    0.0000 C   0  0  0  0  0  0  0  0  0  0  0  0
    1.0779    2.9613    0.0000 H   0  0  0  0  0  0  0  0  0  0  0  0
    0.0001   -0.0000    0.0000 C   0  0  0  0  0  0  0  0  0  0  0  0
    1.2258   -1.0285    0.0000 C   0  0  0  0  0  0  0  0  0  0  0  0
    2.4512   -2.0570    0.0000 H   0  0  0  0  0  0  0  0  0  0  0  0
    0.9479   -2.6041    0.0000 H   0  0  0  0  0  0  0  0  0  0  0  0
    2.1444   -1.0149    0.0000 H   0  0  0  0  0  0  0  0  0  0  0  0
   -1.2256   -1.0285    0.0000 C   0  0  0  0  0  0  0  0  0  0  0  0
   -2.4512   -2.0570    0.0000 H   0  0  0  0  0  0  0  0  0  0  0  0
   -0.9480   -2.6041    0.0000 H   0  0  0  0  0  0  0  0  0  0  0  0
   -2.7292   -0.4812    0.0000 H   0  0  0  0  0  0  0  0  0  0  0  0
   -0.8001    1.3857    0.0000 C   0  0  0  0  0  0  0  0  0  0  0  0
   -2.3034    0.8384    0.0000 H   0  0  0  0  0  0  0  0  0  0  0  0
   -1.3471    2.8892    0.0000 C   0  0  0  0  0  0  0  0  0  0  0  0
    0.0720    3.6279    0.0000 H   0  0  0  0  0  0  0  0  0  0  0  0
   -2.9229    3.1670    0.0000 C   0  0  0  0  0  0  0  0  0  0  0  0
   -4.4986    3.4448    0.0000 Br  0  0  0  0  0  0  0  0  0  0  0  0
   -3.4702    4.6705    0.0000 Br  0  0  0  0  0  0  0  0  0  0  0  0
   -3.9513    1.9412    0.0000 Br  0  0  0  0  0  0  0  0  0  0  0  0
   -0.8661    4.4151    0.0000 Br  0  0  0  0  0  0  0  0  0  0  0  0
    2.1856    0.5856    0.0000 C   0  0  0  0  0  0  0  0  0  0  0  0
    2.6114   -0.2285    0.0000 O   0  0  0  0  0  0  0  0  0  0  0  0
    3.5712    1.3857    0.0000 O   0  0  0  0  0  0  0  0  0  0  0  0
    4.9568    0.5856    0.0000 C   0  0  0  0  0  0  0  0  0  0  0  0
    4.9568   -1.0144    0.0000 H   0  0  0  0  0  0  0  0  0  0  0  0
    5.9852    1.8114    0.0000 C   0  0  0  0  0  0  0  0  0  0  0  0
    7.0140    3.0370    0.0000 N   0  0  0  0  0  0  0  0  0  0  0  0
    6.3424   -0.2144    0.0000 C   0  0  0  0  0  0  0  0  0  0  0  0
    7.7281    0.5856    0.0000 C   0  0  0  0  0  0  0  0  0  0  0  0
    7.7281    2.1857    0.0000 H   0  0  0  0  0  0  0  0  0  0  0  0
    9.1140   -0.2144    0.0000 C   0  0  0  0  0  0  0  0  0  0  0  0
   10.4996    0.5856    0.0000 O   0  0  0  0  0  0  0  0  0  0  0  0
   12.0753    0.3079    0.0000 C   0  0  0  0  0  0  0  0  0  0  0  0
   12.6224   -1.1957    0.0000 C   0  0  0  0  0  0  0  0  0  0  0  0
   11.5940   -2.4214    0.0000 H   0  0  0  0  0  0  0  0  0  0  0  0
   14.1981   -1.4736    0.0000 C   0  0  0  0  0  0  0  0  0  0  0  0
   14.7455   -2.9771    0.0000 H   0  0  0  0  0  0  0  0  0  0  0  0
   15.2265   -0.2479    0.0000 C   0  0  0  0  0  0  0  0  0  0  0  0
   16.8023   -0.5257    0.0000 H   0  0  0  0  0  0  0  0  0  0  0  0
   14.6795    1.2557    0.0000 C   0  0  0  0  0  0  0  0  0  0  0  0
   15.7079    2.4812    0.0000 H   0  0  0  0  0  0  0  0  0  0  0  0
   13.1037    1.5334    0.0000 C   0  0  0  0  0  0  0  0  0  0  0  0
   12.5564    3.0370    0.0000 H   0  0  0  0  0  0  0  0  0  0  0  0
    9.1140   -1.8144    0.0000 C   0  0  0  0  0  0  0  0  0  0  0  0
   10.4996   -2.6143    0.0000 H   0  0  0  0  0  0  0  0  0  0  0  0
    7.7281   -2.6143    0.0000 C   0  0  0  0  0  0  0  0  0  0  0  0
    7.7281   -4.2144    0.0000 H   0  0  0  0  0  0  0  0  0  0  0  0
    6.3424   -1.8144    0.0000 C   0  0  0  0  0  0  0  0  0  0  0  0
    4.9568   -2.6143    0.0000 H   0  0  0  0  0  0  0  0  0  0  0  0
  1  2  1  0  0  0  0
  1  3  1  0  0  0  0
  3  4  1  0  0  0  0
  4  5  1  0  0  0  0
  4  6  1  0  0  0  0
  4  7  1  0  0  0  0
  3  8  1  0  0  0  0
  8  9  1  0  0  0  0
  8 10  1  0  0  0  0
  8 11  1  0  0  0  0
  3 12  1  0  0  0  0
 12  1  1  0  0  0  0
 12 13  1  0  0  0  0
 12 14  1  0  0  0  0
 14 15  1  0  0  0  0
 14 16  1  0  0  0  0
 16 17  1  0  0  0  0
 16 18  1  0  0  0  0
 16 19  1  0  0  0  0
 14 20  1  0  0  0  0
  1 21  1  0  0  0  0
 21 22  2  0  0  0  0
 21 23  1  0  0  0  0
 23 24  1  0  0  0  0
 24 25  1  0  0  0  0
 24 26  1  0  0  0  0
 26 27  3  0  0  0  0
 24 28  1  0  0  0  0
 28 29  1  0  0  0  0
 29 30  1  0  0  0  0
 29 31  2  0  0  0  0
 31 32  1  0  0  0  0
 32 33  1  0  0  0  0
 33 34  1  0  0  0  0
 34 35  1  0  0  0  0
 34 36  2  0  0  0  0
 36 37  1  0  0  0  0
 36 38  1  0  0  0  0
 38 39  1  0  0  0  0
 38 40  2  0  0  0  0
 40 41  1  0  0  0  0
 40 42  1  0  0  0  0
 42 33  2  0  0  0  0
 42 43  1  0  0  0  0
 31 44  1  0  0  0  0
 44 45  1  0  0  0  0
 44 46  2  0  0  0  0
 46 47  1  0  0  0  0
 46 48  1  0  0  0  0
 48 28  2  0  0  0  0
 48 49  1  0  0  0  0
M  END
> <ChemID>
100708

> <source_casrn>
66841-25-6

> <CAS>
66841-25-6

> <SMILES>
CC1(C)[C@H]([C@H]1C(=O)O[C@H](C#N)c1cccc(c1)Oc1ccccc1)C(Br)C(Br)(Br)Br

> <NAME>
TRALOMETHRIN

> <preferred_name>
Tralomethrin

> <iupac>
(S)-cyano-3-phenoxybenzyl (1R,3S)-2,2-dimethyl-3-[(1R)-1,2,2,2-tetrabromoethyl]cyclopropanecarboxylate

> <MPID>
99957

> <dsstox_substance_id>
DTXSID0024343

> <Canonical_QSARr>
CC1(C)C(C1C(=O)OC(C#N)c1cccc(c1)Oc1ccccc1)C(Br)C(Br)(Br)Br

> <InChI_Code_QSARr>
InChI=1S/C22H19Br4NO3/c1-21(2)17(19(23)22(24,25)26)18(21)20(28)30-16(12-27)13-7-6-10-15(11-13)29-14-8-4-3-5-9-14/h3-11,16-19H,1-2H3

> <InChI Key_QSARr>
YWSCPYYRJXKUDB-UHFFFAOYSA-N

> <LogKOC>
5.0

$$$$
100709
  -INDIGO-08031722282D

 59 61  0  0  0  0  0  0  0  0999 V2000
    2.7712   -1.6000    0.0000 C   0  0  0  0  0  0  0  0  0  0  0  0
    4.1569   -2.4001    0.0000 N   0  0  0  0  0  0  0  0  0  0  0  0
    5.5425   -1.6000    0.0000 N   0  0  0  0  0  0  0  0  0  0  0  0
    6.9282   -2.4001    0.0000 C   0  0  0  0  0  0  0  0  0  0  0  0
    8.3138   -1.6000    0.0000 C   0  0  0  0  0  0  0  0  0  0  0  0
    9.6995   -2.4001    0.0000 H   0  0  0  0  0  0  0  0  0  0  0  0
    8.3138    0.0000    0.0000 C   0  0  0  0  0  0  0  0  0  0  0  0
    6.9282    0.8001    0.0000 H   0  0  0  0  0  0  0  0  0  0  0  0
    9.6995    0.8001    0.0000 C   0  0  0  0  0  0  0  0  0  0  0  0
    9.6995    2.3999    0.0000 C   0  0  0  0  0  0  0  0  0  0  0  0
    8.3138    3.1999    0.0000 H   0  0  0  0  0  0  0  0  0  0  0  0
   11.0851    3.1999    0.0000 C   0  0  0  0  0  0  0  0  0  0  0  0
   11.0851    4.8000    0.0000 H   0  0  0  0  0  0  0  0  0  0  0  0
   12.4708    2.3999    0.0000 C   0  0  0  0  0  0  0  0  0  0  0  0
   13.8564    3.1999    0.0000 C   0  0  0  0  0  0  0  0  0  0  0  0
   15.2420    4.0000    0.0000 F   0  0  0  0  0  0  0  0  0  0  0  0
   13.8564    4.8000    0.0000 F   0  0  0  0  0  0  0  0  0  0  0  0
   15.2420    2.3999    0.0000 F   0  0  0  0  0  0  0  0  0  0  0  0
   12.4708    0.8001    0.0000 C   0  0  0  0  0  0  0  0  0  0  0  0
   13.8564    0.0000    0.0000 H   0  0  0  0  0  0  0  0  0  0  0  0
   11.0851    0.0000    0.0000 C   0  0  0  0  0  0  0  0  0  0  0  0
   11.0851   -1.6000    0.0000 H   0  0  0  0  0  0  0  0  0  0  0  0
    6.9282   -4.0001    0.0000 C   0  0  0  0  0  0  0  0  0  0  0  0
    5.5425   -4.7999    0.0000 H   0  0  0  0  0  0  0  0  0  0  0  0
    8.3138   -4.7999    0.0000 C   0  0  0  0  0  0  0  0  0  0  0  0
    9.6995   -4.0001    0.0000 H   0  0  0  0  0  0  0  0  0  0  0  0
    8.3138   -6.4000    0.0000 C   0  0  0  0  0  0  0  0  0  0  0  0
    6.9282   -7.2000    0.0000 C   0  0  0  0  0  0  0  0  0  0  0  0
    5.5425   -6.4000    0.0000 H   0  0  0  0  0  0  0  0  0  0  0  0
    6.9282   -8.8001    0.0000 C   0  0  0  0  0  0  0  0  0  0  0  0
    5.5425   -9.6001    0.0000 H   0  0  0  0  0  0  0  0  0  0  0  0
    8.3138   -9.6001    0.0000 C   0  0  0  0  0  0  0  0  0  0  0  0
    8.3138  -11.1999    0.0000 C   0  0  0  0  0  0  0  0  0  0  0  0
    8.3138  -12.8000    0.0000 F   0  0  0  0  0  0  0  0  0  0  0  0
    9.6995  -12.0000    0.0000 F   0  0  0  0  0  0  0  0  0  0  0  0
    6.9282  -12.0000    0.0000 F   0  0  0  0  0  0  0  0  0  0  0  0
    9.6995   -8.8001    0.0000 C   0  0  0  0  0  0  0  0  0  0  0  0
   11.0851   -9.6001    0.0000 H   0  0  0  0  0  0  0  0  0  0  0  0
    9.6995   -7.2000    0.0000 C   0  0  0  0  0  0  0  0  0  0  0  0
   11.0851   -6.4000    0.0000 H   0  0  0  0  0  0  0  0  0  0  0  0
    2.7712    0.0000    0.0000 N   0  0  0  0  0  0  0  0  0  0  0  0
    4.1569    0.8001    0.0000 H   0  0  0  0  0  0  0  0  0  0  0  0
    1.3856    0.8001    0.0000 C   0  0  0  0  0  0  0  0  0  0  0  0
    2.4142    2.0258    0.0000 H   0  0  0  0  0  0  0  0  0  0  0  0
    0.3572    2.0258    0.0000 H   0  0  0  0  0  0  0  0  0  0  0  0
   -0.0001    0.0000    0.0000 C   0  0  0  0  0  0  0  0  0  0  0  0
   -0.5474    1.5034    0.0000 C   0  0  0  0  0  0  0  0  0  0  0  0
   -1.0944    3.0071    0.0000 H   0  0  0  0  0  0  0  0  0  0  0  0
   -2.1230    1.7814    0.0000 H   0  0  0  0  0  0  0  0  0  0  0  0
   -0.0001    3.0071    0.0000 H   0  0  0  0  0  0  0  0  0  0  0  0
   -1.5757   -0.2779    0.0000 C   0  0  0  0  0  0  0  0  0  0  0  0
   -3.1514   -0.5556    0.0000 H   0  0  0  0  0  0  0  0  0  0  0  0
   -2.6041    0.9478    0.0000 H   0  0  0  0  0  0  0  0  0  0  0  0
   -2.6041   -1.5036    0.0000 H   0  0  0  0  0  0  0  0  0  0  0  0
   -0.0001   -1.6000    0.0000 C   0  0  0  0  0  0  0  0  0  0  0  0
   -1.5757   -1.3221    0.0000 H   0  0  0  0  0  0  0  0  0  0  0  0
   -0.5474   -3.1034    0.0000 H   0  0  0  0  0  0  0  0  0  0  0  0
    1.3856   -2.4001    0.0000 N   0  0  0  0  0  0  0  0  0  0  0  0
    1.3856   -3.9999    0.0000 H   0  0  0  0  0  0  0  0  0  0  0  0
  1  2  2  0  0  0  0
  2  3  1  0  0  0  0
  3  4  2  0  0  0  0
  4  5  1  0  0  0  0
  5  6  1  0  0  0  0
  5  7  2  0  0  0  0
  7  8  1  0  0  0  0
  7  9  1  0  0  0  0
  9 10  1  0  0  0  0
 10 11  1  0  0  0  0
 10 12  2  0  0  0  0
 12 13  1  0  0  0  0
 12 14  1  0  0  0  0
 14 15  1  0  0  0  0
 15 16  1  0  0  0  0
 15 17  1  0  0  0  0
 15 18  1  0  0  0  0
 14 19  2  0  0  0  0
 19 20  1  0  0  0  0
 19 21  1  0  0  0  0
 21  9  2  0  0  0  0
 21 22  1  0  0  0  0
  4 23  1  0  0  0  0
 23 24  1  0  0  0  0
 23 25  2  0  0  0  0
 25 26  1  0  0  0  0
 25 27  1  0  0  0  0
 27 28  1  0  0  0  0
 28 29  1  0  0  0  0
 28 30  2  0  0  0  0
 30 31  1  0  0  0  0
 30 32  1  0  0  0  0
 32 33  1  0  0  0  0
 33 34  1  0  0  0  0
 33 35  1  0  0  0  0
 33 36  1  0  0  0  0
 32 37  2  0  0  0  0
 37 38  1  0  0  0  0
 37 39  1  0  0  0  0
 39 27  2  0  0  0  0
 39 40  1  0  0  0  0
  1 41  1  0  0  0  0
 41 42  1  0  0  0  0
 41 43  1  0  0  0  0
 43 44  1  0  0  0  0
 43 45  1  0  0  0  0
 43 46  1  0  0  0  0
 46 47  1  0  0  0  0
 47 48  1  0  0  0  0
 47 49  1  0  0  0  0
 47 50  1  0  0  0  0
 46 51  1  0  0  0  0
 51 52  1  0  0  0  0
 51 53  1  0  0  0  0
 51 54  1  0  0  0  0
 46 55  1  0  0  0  0
 55 56  1  0  0  0  0
 55 57  1  0  0  0  0
 55 58  1  0  0  0  0
 58  1  1  0  0  0  0
 58 59  1  0  0  0  0
M  END
> <ChemID>
100709

> <source_casrn>
67485-29-4

> <CAS>
67485-29-4

> <SMILES>
CC1(C)CNC(NC1)=NN=C(/C=C/c1ccc(cc1)C(F)(F)F)/C=C/c1ccc(cc1)C(F)(F)F

> <NAME>
HYDRAMETHYLNON

> <preferred_name>
Hydramethylnon

> <iupac>
2-({(1E,4E)-1,5-bis[4-(trifluoromethyl)phenyl]penta-1,4-dien-3-ylidene}hydrazinylidene)-5,5-dimethylhexahydropyrimidine

> <MPID>
99958

> <dsstox_substance_id>
DTXSID6023868

> <Canonical_QSARr>
CC1(C)CNC(NC1)=NN=C(C=Cc1ccc(cc1)C(F)(F)F)C=Cc1ccc(cc1)C(F)(F)F

> <InChI_Code_QSARr>
InChI=1S/C25H24F6N4/c1-23(2)15-32-22(33-16-23)35-34-21(13-7-17-3-9-19(10-4-17)24(26,27)28)14-8-18-5-11-20(12-6-18)25(29,30)31/h3-14H,15-16H2,1-2H3,(H2,32,33,35)/b13-7+,14-8+

> <InChI Key_QSARr>
IQVNEKKDSLOHHK-FNCQTZNRSA-N

> <LogKOC>
5.86

$$$$
100711
  -INDIGO-08031722282D

 50 52  0  0  0  0  0  0  0  0999 V2000
   -0.0000    0.0000    0.0000 C   0  0  0  0  0  0  0  0  0  0  0  0
   -0.8000   -1.3856    0.0000 C   0  0  0  0  0  0  0  0  0  0  0  0
    0.4257   -2.4140    0.0000 H   0  0  0  0  0  0  0  0  0  0  0  0
   -2.1856   -2.1857    0.0000 C   0  0  0  0  0  0  0  0  0  0  0  0
   -3.1445   -2.1353    0.0000 H   0  0  0  0  0  0  0  0  0  0  0  0
   -2.1856   -3.7857    0.0000 C   0  0  0  0  0  0  0  0  0  0  0  0
   -3.5711   -4.5856    0.0000 C   0  0  0  0  0  0  0  0  0  0  0  0
   -4.9570   -5.3856    0.0000 F   0  0  0  0  0  0  0  0  0  0  0  0
   -3.5711   -6.1856    0.0000 F   0  0  0  0  0  0  0  0  0  0  0  0
   -4.9570   -3.7857    0.0000 F   0  0  0  0  0  0  0  0  0  0  0  0
   -0.8000   -4.5856    0.0000 Cl  0  0  0  0  0  0  0  0  0  0  0  0
   -1.6000    0.0000    0.0000 C   0  0  0  0  0  0  0  0  0  0  0  0
   -1.8780    1.5757    0.0000 H   0  0  0  0  0  0  0  0  0  0  0  0
   -3.1034   -0.5473    0.0000 C   0  0  0  0  0  0  0  0  0  0  0  0
   -4.3291    0.4812    0.0000 O   0  0  0  0  0  0  0  0  0  0  0  0
   -5.8328   -0.0660    0.0000 C   0  0  0  0  0  0  0  0  0  0  0  0
   -6.1104   -1.6417    0.0000 H   0  0  0  0  0  0  0  0  0  0  0  0
   -6.6328    1.3197    0.0000 C   0  0  0  0  0  0  0  0  0  0  0  0
   -7.4328    2.7053    0.0000 N   0  0  0  0  0  0  0  0  0  0  0  0
   -7.3362   -0.6133    0.0000 C   0  0  0  0  0  0  0  0  0  0  0  0
   -8.5619    0.4152    0.0000 C   0  0  0  0  0  0  0  0  0  0  0  0
   -8.2840    1.9909    0.0000 H   0  0  0  0  0  0  0  0  0  0  0  0
  -10.0653   -0.1320    0.0000 C   0  0  0  0  0  0  0  0  0  0  0  0
  -11.2910    0.8964    0.0000 O   0  0  0  0  0  0  0  0  0  0  0  0
  -12.8910    0.8964    0.0000 C   0  0  0  0  0  0  0  0  0  0  0  0
  -13.6910   -0.4892    0.0000 C   0  0  0  0  0  0  0  0  0  0  0  0
  -12.8910   -1.8749    0.0000 H   0  0  0  0  0  0  0  0  0  0  0  0
  -15.2910   -0.4892    0.0000 C   0  0  0  0  0  0  0  0  0  0  0  0
  -16.0910   -1.8749    0.0000 H   0  0  0  0  0  0  0  0  0  0  0  0
  -16.0910    0.8964    0.0000 C   0  0  0  0  0  0  0  0  0  0  0  0
  -17.6911    0.8964    0.0000 H   0  0  0  0  0  0  0  0  0  0  0  0
  -15.2910    2.2821    0.0000 C   0  0  0  0  0  0  0  0  0  0  0  0
  -16.0910    3.6677    0.0000 H   0  0  0  0  0  0  0  0  0  0  0  0
  -13.6910    2.2821    0.0000 C   0  0  0  0  0  0  0  0  0  0  0  0
  -12.8910    3.6677    0.0000 H   0  0  0  0  0  0  0  0  0  0  0  0
  -10.3432   -1.7077    0.0000 C   0  0  0  0  0  0  0  0  0  0  0  0
  -11.8466   -2.2550    0.0000 H   0  0  0  0  0  0  0  0  0  0  0  0
   -9.1175   -2.7361    0.0000 C   0  0  0  0  0  0  0  0  0  0  0  0
   -9.3954   -4.3118    0.0000 H   0  0  0  0  0  0  0  0  0  0  0  0
   -7.6141   -2.1890    0.0000 C   0  0  0  0  0  0  0  0  0  0  0  0
   -6.3884   -3.2174    0.0000 H   0  0  0  0  0  0  0  0  0  0  0  0
   -3.5711   -1.3856    0.0000 O   0  0  0  0  0  0  0  0  0  0  0  0
    0.2779    1.5757    0.0000 C   0  0  0  0  0  0  0  0  0  0  0  0
    0.5555    3.1514    0.0000 H   0  0  0  0  0  0  0  0  0  0  0  0
    1.7813    2.1229    0.0000 H   0  0  0  0  0  0  0  0  0  0  0  0
   -0.9478    2.6041    0.0000 H   0  0  0  0  0  0  0  0  0  0  0  0
    1.5037   -0.5473    0.0000 C   0  0  0  0  0  0  0  0  0  0  0  0
    3.0070   -1.0945    0.0000 H   0  0  0  0  0  0  0  0  0  0  0  0
    2.7291    0.4812    0.0000 H   0  0  0  0  0  0  0  0  0  0  0  0
    1.7813   -2.1230    0.0000 H   0  0  0  0  0  0  0  0  0  0  0  0
  1  2  1  0  0  0  0
  2  3  1  0  0  0  0
  2  4  1  0  0  0  0
  4  5  1  0  0  0  0
  4  6  2  0  0  0  0
  6  7  1  0  0  0  0
  7  8  1  0  0  0  0
  7  9  1  0  0  0  0
  7 10  1  0  0  0  0
  6 11  1  0  0  0  0
  2 12  1  0  0  0  0
 12  1  1  0  0  0  0
 12 13  1  0  0  0  0
 12 14  1  0  0  0  0
 14 15  1  0  0  0  0
 15 16  1  0  0  0  0
 16 17  1  0  0  0  0
 16 18  1  0  0  0  0
 18 19  3  0  0  0  0
 16 20  1  0  0  0  0
 20 21  1  0  0  0  0
 21 22  1  0  0  0  0
 21 23  2  0  0  0  0
 23 24  1  0  0  0  0
 24 25  1  0  0  0  0
 25 26  1  0  0  0  0
 26 27  1  0  0  0  0
 26 28  2  0  0  0  0
 28 29  1  0  0  0  0
 28 30  1  0  0  0  0
 30 31  1  0  0  0  0
 30 32  2  0  0  0  0
 32 33  1  0  0  0  0
 32 34  1  0  0  0  0
 34 25  2  0  0  0  0
 34 35  1  0  0  0  0
 23 36  1  0  0  0  0
 36 37  1  0  0  0  0
 36 38  2  0  0  0  0
 38 39  1  0  0  0  0
 38 40  1  0  0  0  0
 40 20  2  0  0  0  0
 40 41  1  0  0  0  0
 14 42  2  0  0  0  0
  1 43  1  0  0  0  0
 43 44  1  0  0  0  0
 43 45  1  0  0  0  0
 43 46  1  0  0  0  0
  1 47  1  0  0  0  0
 47 48  1  0  0  0  0
 47 49  1  0  0  0  0
 47 50  1  0  0  0  0
M  END
> <ChemID>
100711

> <source_casrn>
68085-85-8|91465-08-6

> <CAS>
68085-85-8|91465-08-6

> <SMILES>
CC1(C)[C@H]([C@H]1/C=C(\Cl)/C(F)(F)F)C(=O)O[C@H](C#N)c1cccc(c1)Oc1ccccc1

> <NAME>
CYHALOTHRIN, LAMBDA-CYHALOTHRIN

> <preferred_name>
Cyhalothrin

> <iupac>
(S)-cyano(3-phenoxyphenyl)methyl (1S,3S)-3-[(1Z)-2-chloro-3,3,3-trifluoroprop-1-en-1-yl]-2,2-dimethylcyclopropanecarboxylate

> <MPID>
99960|100003

> <dsstox_substance_id>
DTXSID6023997|DTXSID7032559

> <Canonical_QSARr>
CC1(C)C(C1C=C(Cl)C(F)(F)F)C(=O)OC(C#N)c1cccc(c1)Oc1ccccc1

> <InChI_Code_QSARr>
InChI=1S/C23H19ClF3NO3/c1-22(2)17(12-19(24)23(25,26)27)20(22)21(29)31-18(13-28)14-7-6-10-16(11-14)30-15-8-4-3-5-9-15/h3-12,17-18,20H,1-2H3/b19-12-

> <InChI Key_QSARr>
ZXQYGBMAQZUVMI-UNOMPAQXSA-N

> <LogKOC>
5.26

$$$$
100712
  -INDIGO-08031722282D

 47 49  0  0  0  0  0  0  0  0999 V2000
   -0.0000    0.0000    0.0000 C   0  0  0  0  0  0  0  0  0  0  0  0
   -0.8000   -1.3857    0.0000 C   0  0  0  0  0  0  0  0  0  0  0  0
    0.4257   -2.4141    0.0000 H   0  0  0  0  0  0  0  0  0  0  0  0
   -2.1856   -2.1856    0.0000 C   0  0  0  0  0  0  0  0  0  0  0  0
   -3.1445   -2.1354    0.0000 H   0  0  0  0  0  0  0  0  0  0  0  0
   -2.1856   -3.7857    0.0000 C   0  0  0  0  0  0  0  0  0  0  0  0
   -3.5711   -4.5856    0.0000 Cl  0  0  0  0  0  0  0  0  0  0  0  0
   -0.8000   -4.5856    0.0000 Cl  0  0  0  0  0  0  0  0  0  0  0  0
   -1.6000    0.0000    0.0000 C   0  0  0  0  0  0  0  0  0  0  0  0
   -1.8780    1.5756    0.0000 H   0  0  0  0  0  0  0  0  0  0  0  0
   -3.1034   -0.5472    0.0000 C   0  0  0  0  0  0  0  0  0  0  0  0
   -4.3291    0.4812    0.0000 O   0  0  0  0  0  0  0  0  0  0  0  0
   -5.8328   -0.0660    0.0000 C   0  0  0  0  0  0  0  0  0  0  0  0
   -6.1104   -1.6417    0.0000 H   0  0  0  0  0  0  0  0  0  0  0  0
   -7.3362   -0.6133    0.0000 C   0  0  0  0  0  0  0  0  0  0  0  0
   -8.5619    0.4153    0.0000 C   0  0  0  0  0  0  0  0  0  0  0  0
   -8.2840    1.9909    0.0000 H   0  0  0  0  0  0  0  0  0  0  0  0
  -10.0653   -0.1320    0.0000 C   0  0  0  0  0  0  0  0  0  0  0  0
  -11.2910    0.8965    0.0000 O   0  0  0  0  0  0  0  0  0  0  0  0
  -12.8910    0.8965    0.0000 C   0  0  0  0  0  0  0  0  0  0  0  0
  -13.6910   -0.4892    0.0000 C   0  0  0  0  0  0  0  0  0  0  0  0
  -12.8910   -1.8748    0.0000 H   0  0  0  0  0  0  0  0  0  0  0  0
  -15.2910   -0.4892    0.0000 C   0  0  0  0  0  0  0  0  0  0  0  0
  -16.0910   -1.8748    0.0000 H   0  0  0  0  0  0  0  0  0  0  0  0
  -16.0910    0.8965    0.0000 C   0  0  0  0  0  0  0  0  0  0  0  0
  -17.6911    0.8965    0.0000 H   0  0  0  0  0  0  0  0  0  0  0  0
  -15.2910    2.2820    0.0000 C   0  0  0  0  0  0  0  0  0  0  0  0
  -16.0910    3.6677    0.0000 H   0  0  0  0  0  0  0  0  0  0  0  0
  -13.6910    2.2820    0.0000 C   0  0  0  0  0  0  0  0  0  0  0  0
  -12.8910    3.6677    0.0000 H   0  0  0  0  0  0  0  0  0  0  0  0
  -10.3432   -1.7077    0.0000 C   0  0  0  0  0  0  0  0  0  0  0  0
  -11.8466   -2.2549    0.0000 F   0  0  0  0  0  0  0  0  0  0  0  0
   -9.1175   -2.7361    0.0000 C   0  0  0  0  0  0  0  0  0  0  0  0
   -9.3954   -4.3119    0.0000 H   0  0  0  0  0  0  0  0  0  0  0  0
   -7.6141   -2.1889    0.0000 C   0  0  0  0  0  0  0  0  0  0  0  0
   -6.3884   -3.2174    0.0000 H   0  0  0  0  0  0  0  0  0  0  0  0
   -6.6328    1.3196    0.0000 C   0  0  0  0  0  0  0  0  0  0  0  0
   -7.4328    2.7053    0.0000 N   0  0  0  0  0  0  0  0  0  0  0  0
   -3.5711   -1.3857    0.0000 O   0  0  0  0  0  0  0  0  0  0  0  0
    0.2779    1.5756    0.0000 C   0  0  0  0  0  0  0  0  0  0  0  0
    0.5555    3.1514    0.0000 H   0  0  0  0  0  0  0  0  0  0  0  0
    1.7813    2.1230    0.0000 H   0  0  0  0  0  0  0  0  0  0  0  0
   -0.9478    2.6042    0.0000 H   0  0  0  0  0  0  0  0  0  0  0  0
    1.5037   -0.5472    0.0000 C   0  0  0  0  0  0  0  0  0  0  0  0
    3.0070   -1.0945    0.0000 H   0  0  0  0  0  0  0  0  0  0  0  0
    2.7291    0.4812    0.0000 H   0  0  0  0  0  0  0  0  0  0  0  0
    1.7813   -2.1229    0.0000 H   0  0  0  0  0  0  0  0  0  0  0  0
  1  2  1  0  0  0  0
  2  3  1  0  0  0  0
  2  4  1  0  0  0  0
  4  5  1  0  0  0  0
  4  6  2  0  0  0  0
  6  7  1  0  0  0  0
  6  8  1  0  0  0  0
  2  9  1  0  0  0  0
  9  1  1  0  0  0  0
  9 10  1  0  0  0  0
  9 11  1  0  0  0  0
 11 12  1  0  0  0  0
 12 13  1  0  0  0  0
 13 14  1  0  0  0  0
 13 15  1  0  0  0  0
 15 16  1  0  0  0  0
 16 17  1  0  0  0  0
 16 18  2  0  0  0  0
 18 19  1  0  0  0  0
 19 20  1  0  0  0  0
 20 21  1  0  0  0  0
 21 22  1  0  0  0  0
 21 23  2  0  0  0  0
 23 24  1  0  0  0  0
 23 25  1  0  0  0  0
 25 26  1  0  0  0  0
 25 27  2  0  0  0  0
 27 28  1  0  0  0  0
 27 29  1  0  0  0  0
 29 20  2  0  0  0  0
 29 30  1  0  0  0  0
 18 31  1  0  0  0  0
 31 32  1  0  0  0  0
 31 33  2  0  0  0  0
 33 34  1  0  0  0  0
 33 35  1  0  0  0  0
 35 15  2  0  0  0  0
 35 36  1  0  0  0  0
 13 37  1  0  0  0  0
 37 38  3  0  0  0  0
 11 39  2  0  0  0  0
  1 40  1  0  0  0  0
 40 41  1  0  0  0  0
 40 42  1  0  0  0  0
 40 43  1  0  0  0  0
  1 44  1  0  0  0  0
 44 45  1  0  0  0  0
 44 46  1  0  0  0  0
 44 47  1  0  0  0  0
M  END
> <ChemID>
100712

> <source_casrn>
68359-37-5

> <CAS>
68359-37-5

> <SMILES>
CC1(C)C(C1C=C(Cl)Cl)C(=O)OC(C#N)c1ccc(F)c(c1)Oc1ccccc1

> <NAME>
CYFLUTHRIN

> <preferred_name>
Cyfluthrin

> <iupac>
cyano(4-fluoro-3-phenoxyphenyl)methyl 3-(2,2-dichloroethenyl)-2,2-dimethylcyclopropanecarboxylate

> <MPID>
99961

> <dsstox_substance_id>
DTXSID5035957

> <Canonical_QSARr>
CC1(C)C(C1C=C(Cl)Cl)C(=O)OC(C#N)c1ccc(F)c(c1)Oc1ccccc1

> <InChI_Code_QSARr>
InChI=1S/C22H18Cl2FNO3/c1-22(2)15(11-19(23)24)20(22)21(27)29-18(12-26)13-8-9-16(25)17(10-13)28-14-6-4-3-5-7-14/h3-11,15,18,20H,1-2H3

> <InChI Key_QSARr>
QQODLKZGRKWIFG-UHFFFAOYSA-N

> <LogKOC>
5.0

$$$$
100713
  -INDIGO-08031722282D

 18 18  0  0  0  0  0  0  0  0999 V2000
   -0.0000    2.7713    0.0000 Cl  0  0  0  0  0  0  0  0  0  0  0  0
    0.8001    1.3856    0.0000 C   0  0  0  0  0  0  0  0  0  0  0  0
    2.4000    1.3856    0.0000 N   0  0  0  0  0  0  0  0  0  0  0  0
    3.2000    0.0000    0.0000 C   0  0  0  0  0  0  0  0  0  0  0  0
    4.8000    0.0000    0.0000 N   0  0  0  0  0  0  0  0  0  0  0  0
    5.6000    1.3856    0.0000 H   0  0  0  0  0  0  0  0  0  0  0  0
    5.6000   -1.3856    0.0000 H   0  0  0  0  0  0  0  0  0  0  0  0
    2.4000   -1.3856    0.0000 N   0  0  0  0  0  0  0  0  0  0  0  0
    0.8001   -1.3856    0.0000 C   0  0  0  0  0  0  0  0  0  0  0  0
   -0.0000   -2.7713    0.0000 N   0  0  0  0  0  0  0  0  0  0  0  0
    0.8001   -4.1569    0.0000 H   0  0  0  0  0  0  0  0  0  0  0  0
   -1.6000   -2.7713    0.0000 H   0  0  0  0  0  0  0  0  0  0  0  0
   -0.0000    0.0000    0.0000 C   0  0  0  0  0  0  0  0  0  0  0  0
   -1.6000    0.0000    0.0000 S   0  0  0  0  0  0  0  0  0  0  0  0
   -2.4001    1.3856    0.0000 C   0  0  0  0  0  0  0  0  0  0  0  0
   -4.0000    1.3856    0.0000 H   0  0  0  0  0  0  0  0  0  0  0  0
   -3.2000    2.7713    0.0000 H   0  0  0  0  0  0  0  0  0  0  0  0
   -3.2000    0.0000    0.0000 H   0  0  0  0  0  0  0  0  0  0  0  0
  1  2  1  0  0  0  0
  2  3  1  0  0  0  0
  3  4  2  0  0  0  0
  4  5  1  0  0  0  0
  5  6  1  0  0  0  0
  5  7  1  0  0  0  0
  4  8  1  0  0  0  0
  8  9  2  0  0  0  0
  9 10  1  0  0  0  0
 10 11  1  0  0  0  0
 10 12  1  0  0  0  0
  9 13  1  0  0  0  0
 13  2  2  0  0  0  0
 13 14  1  0  0  0  0
 14 15  1  0  0  0  0
 15 16  1  0  0  0  0
 15 17  1  0  0  0  0
 15 18  1  0  0  0  0
M  END
> <ChemID>
100713

> <source_casrn>
68925-41-7

> <CAS>
68925-41-7

> <SMILES>
CSc1c(Cl)[n]c(N)[n]c1N

> <NAME>
6-CHLORO-5-(METHYLTHIO)-2,4-PYRIMIDINEDIAMINE

> <preferred_name>
Tioclorim [ISO]

> <iupac>
6-chloro-5-methylsulfanylpyrimidine-2,4-diamine

> <MPID>
99962

> <dsstox_substance_id>
DTXSID30218994

> <Canonical_QSARr>
CSc1c(Cl)[n]c(N)[n]c1N

> <InChI_Code_QSARr>
InChI=1S/C5H7ClN4S/c1-11-2-3(6)9-5(8)10-4(2)7/h1H3,(H4,7,8,9,10)

> <InChI Key_QSARr>
QQRJUWIHLNBDQF-UHFFFAOYSA-N

> <LogKOC>
2.08

$$$$
100715
  -INDIGO-08031722282D

 38 39  0  0  0  0  0  0  0  0999 V2000
   -0.8001    1.3857    0.0000 C   0  0  0  0  0  0  0  0  0  0  0  0
   -0.0001    0.0001    0.0000 C   0  0  0  0  0  0  0  0  0  0  0  0
    0.8001   -1.3856    0.0000 H   0  0  0  0  0  0  0  0  0  0  0  0
   -1.3857   -0.8001    0.0000 C   0  0  0  0  0  0  0  0  0  0  0  0
   -2.7713   -1.6001    0.0000 H   0  0  0  0  0  0  0  0  0  0  0  0
   -2.7713    0.0001    0.0000 H   0  0  0  0  0  0  0  0  0  0  0  0
   -1.3857   -2.4000    0.0000 H   0  0  0  0  0  0  0  0  0  0  0  0
    1.3857    0.8000    0.0000 O   0  0  0  0  0  0  0  0  0  0  0  0
    2.7713    0.0001    0.0000 C   0  0  0  0  0  0  0  0  0  0  0  0
    2.7713   -1.6001    0.0000 C   0  0  0  0  0  0  0  0  0  0  0  0
    1.3857   -2.4000    0.0000 H   0  0  0  0  0  0  0  0  0  0  0  0
    4.1569   -2.4000    0.0000 C   0  0  0  0  0  0  0  0  0  0  0  0
    4.1569   -4.0000    0.0000 H   0  0  0  0  0  0  0  0  0  0  0  0
    5.5427   -1.6001    0.0000 C   0  0  0  0  0  0  0  0  0  0  0  0
    6.9283   -2.4000    0.0000 O   0  0  0  0  0  0  0  0  0  0  0  0
    8.3138   -1.6001    0.0000 C   0  0  0  0  0  0  0  0  0  0  0  0
    8.3138    0.0001    0.0000 N   0  0  0  0  0  0  0  0  0  0  0  0
    9.6994    0.8000    0.0000 C   0  0  0  0  0  0  0  0  0  0  0  0
    9.6994    2.4000    0.0000 H   0  0  0  0  0  0  0  0  0  0  0  0
   11.0850    0.0001    0.0000 C   0  0  0  0  0  0  0  0  0  0  0  0
   12.4708    0.8000    0.0000 C   0  0  0  0  0  0  0  0  0  0  0  0
   13.8564    1.6000    0.0000 F   0  0  0  0  0  0  0  0  0  0  0  0
   12.4708    2.4000    0.0000 F   0  0  0  0  0  0  0  0  0  0  0  0
   13.8564    0.0001    0.0000 F   0  0  0  0  0  0  0  0  0  0  0  0
   11.0850   -1.6001    0.0000 C   0  0  0  0  0  0  0  0  0  0  0  0
   12.4708   -2.4000    0.0000 H   0  0  0  0  0  0  0  0  0  0  0  0
    9.6994   -2.4000    0.0000 C   0  0  0  0  0  0  0  0  0  0  0  0
    9.6994   -4.0000    0.0000 Cl  0  0  0  0  0  0  0  0  0  0  0  0
    5.5424    0.0001    0.0000 C   0  0  0  0  0  0  0  0  0  0  0  0
    6.9283    0.8000    0.0000 H   0  0  0  0  0  0  0  0  0  0  0  0
    4.1569    0.8000    0.0000 C   0  0  0  0  0  0  0  0  0  0  0  0
    4.1569    2.4000    0.0000 H   0  0  0  0  0  0  0  0  0  0  0  0
   -0.0001    2.7713    0.0000 O   0  0  0  0  0  0  0  0  0  0  0  0
   -0.8001    4.1569    0.0000 C   0  0  0  0  0  0  0  0  0  0  0  0
   -1.6001    5.5426    0.0000 H   0  0  0  0  0  0  0  0  0  0  0  0
   -0.0001    5.5426    0.0000 H   0  0  0  0  0  0  0  0  0  0  0  0
   -2.4001    4.1569    0.0000 H   0  0  0  0  0  0  0  0  0  0  0  0
   -2.4001    1.3857    0.0000 O   0  0  0  0  0  0  0  0  0  0  0  0
  1  2  1  0  0  0  0
  2  3  1  0  0  0  0
  2  4  1  0  0  0  0
  4  5  1  0  0  0  0
  4  6  1  0  0  0  0
  4  7  1  0  0  0  0
  2  8  1  0  0  0  0
  8  9  1  0  0  0  0
  9 10  1  0  0  0  0
 10 11  1  0  0  0  0
 10 12  2  0  0  0  0
 12 13  1  0  0  0  0
 12 14  1  0  0  0  0
 14 15  1  0  0  0  0
 15 16  1  0  0  0  0
 16 17  1  0  0  0  0
 17 18  2  0  0  0  0
 18 19  1  0  0  0  0
 18 20  1  0  0  0  0
 20 21  1  0  0  0  0
 21 22  1  0  0  0  0
 21 23  1  0  0  0  0
 21 24  1  0  0  0  0
 20 25  2  0  0  0  0
 25 26  1  0  0  0  0
 25 27  1  0  0  0  0
 27 16  2  0  0  0  0
 27 28  1  0  0  0  0
 14 29  2  0  0  0  0
 29 30  1  0  0  0  0
 29 31  1  0  0  0  0
 31  9  2  0  0  0  0
 31 32  1  0  0  0  0
  1 33  1  0  0  0  0
 33 34  1  0  0  0  0
 34 35  1  0  0  0  0
 34 36  1  0  0  0  0
 34 37  1  0  0  0  0
  1 38  2  0  0  0  0
M  END
> <ChemID>
100715

> <source_casrn>
69806-40-2

> <CAS>
69806-40-2

> <SMILES>
COC(=O)C(C)Oc1ccc(cc1)Oc1[n]cc(cc1Cl)C(F)(F)F

> <NAME>
HALOXYFOP-METHYL

> <preferred_name>
Haloxyfop-methyl

> <iupac>
methyl 2-(4-{[3-chloro-5-(trifluoromethyl)pyridin-2-yl]oxy}phenoxy)propanoate

> <MPID>
99964

> <dsstox_substance_id>
DTXSID6024123

> <Canonical_QSARr>
COC(=O)C(C)Oc1ccc(cc1)Oc1[n]cc(cc1Cl)C(F)(F)F

> <InChI_Code_QSARr>
InChI=1S/C16H13ClF3NO4/c1-9(15(22)23-2)24-11-3-5-12(6-4-11)25-14-13(17)7-10(8-21-14)16(18,19)20/h3-9H,1-2H3

> <InChI Key_QSARr>
MFSWTRQUCLNFOM-UHFFFAOYSA-N

> <LogKOC>
1.88

$$$$
100716
  -INDIGO-08031722282D

 47 48  0  0  0  0  0  0  0  0999 V2000
    1.3857    4.0000    0.0000 C   0  0  0  0  0  0  0  0  0  0  0  0
    2.7713    4.8001    0.0000 C   0  0  0  0  0  0  0  0  0  0  0  0
    4.1570    5.5999    0.0000 H   0  0  0  0  0  0  0  0  0  0  0  0
    1.9713    6.1856    0.0000 C   0  0  0  0  0  0  0  0  0  0  0  0
    1.1712    7.5713    0.0000 H   0  0  0  0  0  0  0  0  0  0  0  0
    0.3712    6.1856    0.0000 H   0  0  0  0  0  0  0  0  0  0  0  0
    2.7713    7.5713    0.0000 H   0  0  0  0  0  0  0  0  0  0  0  0
    3.5714    3.4144    0.0000 O   0  0  0  0  0  0  0  0  0  0  0  0
    5.1712    3.4144    0.0000 C   0  0  0  0  0  0  0  0  0  0  0  0
    5.9713    4.8001    0.0000 C   0  0  0  0  0  0  0  0  0  0  0  0
    5.1712    6.1856    0.0000 H   0  0  0  0  0  0  0  0  0  0  0  0
    7.5714    4.8001    0.0000 C   0  0  0  0  0  0  0  0  0  0  0  0
    8.3712    6.1856    0.0000 H   0  0  0  0  0  0  0  0  0  0  0  0
    8.3712    3.4144    0.0000 C   0  0  0  0  0  0  0  0  0  0  0  0
    9.9713    3.4144    0.0000 O   0  0  0  0  0  0  0  0  0  0  0  0
   10.7713    2.0287    0.0000 C   0  0  0  0  0  0  0  0  0  0  0  0
    9.9713    0.6430    0.0000 N   0  0  0  0  0  0  0  0  0  0  0  0
   10.7713   -0.7425    0.0000 C   0  0  0  0  0  0  0  0  0  0  0  0
    9.9713   -2.1282    0.0000 H   0  0  0  0  0  0  0  0  0  0  0  0
   12.3714   -0.7425    0.0000 C   0  0  0  0  0  0  0  0  0  0  0  0
   13.1712   -2.1282    0.0000 C   0  0  0  0  0  0  0  0  0  0  0  0
   13.9712   -3.5139    0.0000 F   0  0  0  0  0  0  0  0  0  0  0  0
   12.3714   -3.5139    0.0000 F   0  0  0  0  0  0  0  0  0  0  0  0
   14.7713   -2.1282    0.0000 F   0  0  0  0  0  0  0  0  0  0  0  0
   13.1712    0.6430    0.0000 C   0  0  0  0  0  0  0  0  0  0  0  0
   14.7713    0.6430    0.0000 H   0  0  0  0  0  0  0  0  0  0  0  0
   12.3714    2.0287    0.0000 C   0  0  0  0  0  0  0  0  0  0  0  0
   13.1712    3.4144    0.0000 H   0  0  0  0  0  0  0  0  0  0  0  0
    7.5714    2.0287    0.0000 C   0  0  0  0  0  0  0  0  0  0  0  0
    8.3712    0.6430    0.0000 H   0  0  0  0  0  0  0  0  0  0  0  0
    5.9713    2.0287    0.0000 C   0  0  0  0  0  0  0  0  0  0  0  0
    5.1712    0.6430    0.0000 H   0  0  0  0  0  0  0  0  0  0  0  0
    1.3857    2.4000    0.0000 O   0  0  0  0  0  0  0  0  0  0  0  0
    0.0000    1.6000    0.0000 C   0  0  0  0  0  0  0  0  0  0  0  0
   -0.9741    2.8693    0.0000 H   0  0  0  0  0  0  0  0  0  0  0  0
   -1.5863    1.8089    0.0000 H   0  0  0  0  0  0  0  0  0  0  0  0
    0.0000   -0.0001    0.0000 C   0  0  0  0  0  0  0  0  0  0  0  0
    0.9741   -1.2694    0.0000 H   0  0  0  0  0  0  0  0  0  0  0  0
    1.5863   -0.2088    0.0000 H   0  0  0  0  0  0  0  0  0  0  0  0
   -1.3857   -0.8001    0.0000 C   0  0  0  0  0  0  0  0  0  0  0  0
   -2.3595    0.4694    0.0000 H   0  0  0  0  0  0  0  0  0  0  0  0
   -2.9720   -0.5912    0.0000 H   0  0  0  0  0  0  0  0  0  0  0  0
   -1.3857   -2.4000    0.0000 C   0  0  0  0  0  0  0  0  0  0  0  0
   -1.3857   -4.0000    0.0000 H   0  0  0  0  0  0  0  0  0  0  0  0
   -2.7713   -3.2000    0.0000 H   0  0  0  0  0  0  0  0  0  0  0  0
    0.0000   -3.2000    0.0000 H   0  0  0  0  0  0  0  0  0  0  0  0
    0.0000    4.8001    0.0000 O   0  0  0  0  0  0  0  0  0  0  0  0
  1  2  1  0  0  0  0
  2  3  1  0  0  0  0
  2  4  1  0  0  0  0
  4  5  1  0  0  0  0
  4  6  1  0  0  0  0
  4  7  1  0  0  0  0
  2  8  1  0  0  0  0
  8  9  1  0  0  0  0
  9 10  1  0  0  0  0
 10 11  1  0  0  0  0
 10 12  2  0  0  0  0
 12 13  1  0  0  0  0
 12 14  1  0  0  0  0
 14 15  1  0  0  0  0
 15 16  1  0  0  0  0
 16 17  1  0  0  0  0
 17 18  2  0  0  0  0
 18 19  1  0  0  0  0
 18 20  1  0  0  0  0
 20 21  1  0  0  0  0
 21 22  1  0  0  0  0
 21 23  1  0  0  0  0
 21 24  1  0  0  0  0
 20 25  2  0  0  0  0
 25 26  1  0  0  0  0
 25 27  1  0  0  0  0
 27 16  2  0  0  0  0
 27 28  1  0  0  0  0
 14 29  2  0  0  0  0
 29 30  1  0  0  0  0
 29 31  1  0  0  0  0
 31  9  2  0  0  0  0
 31 32  1  0  0  0  0
  1 33  1  0  0  0  0
 33 34  1  0  0  0  0
 34 35  1  0  0  0  0
 34 36  1  0  0  0  0
 34 37  1  0  0  0  0
 37 38  1  0  0  0  0
 37 39  1  0  0  0  0
 37 40  1  0  0  0  0
 40 41  1  0  0  0  0
 40 42  1  0  0  0  0
 40 43  1  0  0  0  0
 43 44  1  0  0  0  0
 43 45  1  0  0  0  0
 43 46  1  0  0  0  0
  1 47  2  0  0  0  0
M  END
> <ChemID>
100716

> <source_casrn>
69806-50-4|79241-46-6

> <CAS>
69806-50-4|79241-46-6

> <SMILES>
n1cc(C(F)(F)F)ccc1Oc2ccc(OC(C)C(=O)OCCCC)cc2

> <NAME>
FLUAZIFOP - BUTYL, Fluazifop-P-butyl

> <preferred_name>
Fluazifop-butyl

> <iupac>
butyl 2-(4-{[5-(trifluoromethyl)pyridin-2-yl]oxy}phenoxy)propanoate

> <MPID>
99965|99985

> <dsstox_substance_id>
DTXSID3034612|DTXSID0034855

> <Canonical_QSARr>
CCCCOC(=O)C(C)Oc1ccc(cc1)Oc1ccc(c[n]1)C(F)(F)F

> <InChI_Code_QSARr>
InChI=1S/C19H20F3NO4/c1-3-4-11-25-18(24)13(2)26-15-6-8-16(9-7-15)27-17-10-5-14(12-23-17)19(20,21)22/h5-10,12-13H,3-4,11H2,1-2H3

> <InChI Key_QSARr>
VAIZTNZGPYBOGF-UHFFFAOYSA-N

> <LogKOC>
3.62

$$$$
100717
  -INDIGO-08031722282D

 56 58  0  0  0  0  0  0  0  0999 V2000
   -1.5036   -0.5472    0.0000 C   0  0  0  0  0  0  0  0  0  0  0  0
   -0.0000    0.0000    0.0000 C   0  0  0  0  0  0  0  0  0  0  0  0
    1.5035    0.5473    0.0000 H   0  0  0  0  0  0  0  0  0  0  0  0
   -0.5471    1.5034    0.0000 C   0  0  0  0  0  0  0  0  0  0  0  0
   -1.9330    0.7035    0.0000 H   0  0  0  0  0  0  0  0  0  0  0  0
   -1.3473    2.8892    0.0000 C   0  0  0  0  0  0  0  0  0  0  0  0
   -2.1471    4.2748    0.0000 H   0  0  0  0  0  0  0  0  0  0  0  0
   -0.5471    4.2748    0.0000 H   0  0  0  0  0  0  0  0  0  0  0  0
   -2.9473    2.8892    0.0000 H   0  0  0  0  0  0  0  0  0  0  0  0
    0.8385    2.3036    0.0000 C   0  0  0  0  0  0  0  0  0  0  0  0
    2.2242    3.1036    0.0000 H   0  0  0  0  0  0  0  0  0  0  0  0
    0.8385    3.9036    0.0000 H   0  0  0  0  0  0  0  0  0  0  0  0
    2.2242    1.5034    0.0000 H   0  0  0  0  0  0  0  0  0  0  0  0
    0.5473   -1.5035    0.0000 C   0  0  0  0  0  0  0  0  0  0  0  0
   -0.2528   -2.8891    0.0000 C   0  0  0  0  0  0  0  0  0  0  0  0
   -1.8284   -3.1669    0.0000 H   0  0  0  0  0  0  0  0  0  0  0  0
    0.5473   -4.2747    0.0000 C   0  0  0  0  0  0  0  0  0  0  0  0
   -0.2528   -5.6605    0.0000 H   0  0  0  0  0  0  0  0  0  0  0  0
    2.1474   -4.2747    0.0000 C   0  0  0  0  0  0  0  0  0  0  0  0
    2.9472   -5.6605    0.0000 O   0  0  0  0  0  0  0  0  0  0  0  0
    4.5472   -5.6605    0.0000 C   0  0  0  0  0  0  0  0  0  0  0  0
    5.3474   -7.0461    0.0000 H   0  0  0  0  0  0  0  0  0  0  0  0
    6.1472   -5.6605    0.0000 F   0  0  0  0  0  0  0  0  0  0  0  0
    3.7474   -7.0461    0.0000 F   0  0  0  0  0  0  0  0  0  0  0  0
    2.9472   -2.8891    0.0000 C   0  0  0  0  0  0  0  0  0  0  0  0
    4.5472   -2.8891    0.0000 H   0  0  0  0  0  0  0  0  0  0  0  0
    2.1474   -1.5035    0.0000 C   0  0  0  0  0  0  0  0  0  0  0  0
    2.9472   -0.1179    0.0000 H   0  0  0  0  0  0  0  0  0  0  0  0
   -2.8892    0.2528    0.0000 O   0  0  0  0  0  0  0  0  0  0  0  0
   -4.2748   -0.5472    0.0000 C   0  0  0  0  0  0  0  0  0  0  0  0
   -4.2748   -2.1472    0.0000 H   0  0  0  0  0  0  0  0  0  0  0  0
   -5.3033    0.6784    0.0000 C   0  0  0  0  0  0  0  0  0  0  0  0
   -6.3318    1.9040    0.0000 N   0  0  0  0  0  0  0  0  0  0  0  0
   -5.6604   -1.3472    0.0000 C   0  0  0  0  0  0  0  0  0  0  0  0
   -5.6604   -2.9472    0.0000 C   0  0  0  0  0  0  0  0  0  0  0  0
   -4.2748   -3.7472    0.0000 H   0  0  0  0  0  0  0  0  0  0  0  0
   -7.0460   -3.7472    0.0000 C   0  0  0  0  0  0  0  0  0  0  0  0
   -7.0460   -5.3473    0.0000 H   0  0  0  0  0  0  0  0  0  0  0  0
   -8.4316   -2.9472    0.0000 C   0  0  0  0  0  0  0  0  0  0  0  0
   -9.8172   -3.7472    0.0000 H   0  0  0  0  0  0  0  0  0  0  0  0
   -8.4316   -1.3472    0.0000 C   0  0  0  0  0  0  0  0  0  0  0  0
   -9.8172   -0.5472    0.0000 O   0  0  0  0  0  0  0  0  0  0  0  0
  -11.3931   -0.8250    0.0000 C   0  0  0  0  0  0  0  0  0  0  0  0
  -11.9402   -2.3286    0.0000 C   0  0  0  0  0  0  0  0  0  0  0  0
  -10.9117   -3.5542    0.0000 H   0  0  0  0  0  0  0  0  0  0  0  0
  -13.5161   -2.6063    0.0000 C   0  0  0  0  0  0  0  0  0  0  0  0
  -14.0631   -4.1099    0.0000 H   0  0  0  0  0  0  0  0  0  0  0  0
  -14.5446   -1.3807    0.0000 C   0  0  0  0  0  0  0  0  0  0  0  0
  -16.1201   -1.6587    0.0000 H   0  0  0  0  0  0  0  0  0  0  0  0
  -13.9972    0.1227    0.0000 C   0  0  0  0  0  0  0  0  0  0  0  0
  -15.0257    1.3485    0.0000 H   0  0  0  0  0  0  0  0  0  0  0  0
  -12.4216    0.4006    0.0000 C   0  0  0  0  0  0  0  0  0  0  0  0
  -11.8743    1.9040    0.0000 H   0  0  0  0  0  0  0  0  0  0  0  0
   -7.0460   -0.5472    0.0000 C   0  0  0  0  0  0  0  0  0  0  0  0
   -7.0460    1.0527    0.0000 H   0  0  0  0  0  0  0  0  0  0  0  0
   -1.7815   -2.1230    0.0000 O   0  0  0  0  0  0  0  0  0  0  0  0
  1  2  1  0  0  0  0
  2  3  1  0  0  0  0
  2  4  1  0  0  0  0
  4  5  1  0  0  0  0
  4  6  1  0  0  0  0
  6  7  1  0  0  0  0
  6  8  1  0  0  0  0
  6  9  1  0  0  0  0
  4 10  1  0  0  0  0
 10 11  1  0  0  0  0
 10 12  1  0  0  0  0
 10 13  1  0  0  0  0
  2 14  1  0  0  0  0
 14 15  1  0  0  0  0
 15 16  1  0  0  0  0
 15 17  2  0  0  0  0
 17 18  1  0  0  0  0
 17 19  1  0  0  0  0
 19 20  1  0  0  0  0
 20 21  1  0  0  0  0
 21 22  1  0  0  0  0
 21 23  1  0  0  0  0
 21 24  1  0  0  0  0
 19 25  2  0  0  0  0
 25 26  1  0  0  0  0
 25 27  1  0  0  0  0
 27 14  2  0  0  0  0
 27 28  1  0  0  0  0
  1 29  1  0  0  0  0
 29 30  1  0  0  0  0
 30 31  1  0  0  0  0
 30 32  1  0  0  0  0
 32 33  3  0  0  0  0
 30 34  1  0  0  0  0
 34 35  1  0  0  0  0
 35 36  1  0  0  0  0
 35 37  2  0  0  0  0
 37 38  1  0  0  0  0
 37 39  1  0  0  0  0
 39 40  1  0  0  0  0
 39 41  2  0  0  0  0
 41 42  1  0  0  0  0
 42 43  1  0  0  0  0
 43 44  1  0  0  0  0
 44 45  1  0  0  0  0
 44 46  2  0  0  0  0
 46 47  1  0  0  0  0
 46 48  1  0  0  0  0
 48 49  1  0  0  0  0
 48 50  2  0  0  0  0
 50 51  1  0  0  0  0
 50 52  1  0  0  0  0
 52 43  2  0  0  0  0
 52 53  1  0  0  0  0
 41 54  1  0  0  0  0
 54 34  2  0  0  0  0
 54 55  1  0  0  0  0
  1 56  2  0  0  0  0
M  END
> <ChemID>
100717

> <source_casrn>
70124-77-5

> <CAS>
70124-77-5

> <SMILES>
CC(C)[C@H](C(=O)OC(C#N)c1cccc(c1)Oc1ccccc1)c1ccc(cc1)OC(F)F

> <NAME>
FLUCYTHRINATE

> <preferred_name>
Flucythrinate

> <iupac>
cyano(3-phenoxyphenyl)methyl (2S)-2-[4-(difluoromethoxy)phenyl]-3-methylbutanoate

> <MPID>
99966

> <dsstox_substance_id>
DTXSID0022301

> <Canonical_QSARr>
CC(C)C(C(=O)OC(C#N)c1cccc(c1)Oc1ccccc1)c1ccc(cc1)OC(F)F

> <InChI_Code_QSARr>
InChI=1S/C26H23F2NO4/c1-17(2)24(18-11-13-21(14-12-18)32-26(27)28)25(30)33-23(16-29)19-7-6-10-22(15-19)31-20-8-4-3-5-9-20/h3-15,17,23-24,26H,1-2H3

> <InChI Key_QSARr>
GBIHOLCMZGAKNG-UHFFFAOYSA-N

> <LogKOC>
5.0

$$$$
100720
  -INDIGO-08031722282D

 38 39  0  0  0  0  0  0  0  0999 V2000
   -2.7713    1.6000    0.0000 O   0  0  0  0  0  0  0  0  0  0  0  0
   -1.3857    2.4001    0.0000 N   0  0  0  0  0  0  0  0  0  0  0  0
   -1.3857    4.0000    0.0000 O   0  0  0  0  0  0  0  0  0  0  0  0
   -0.0000    1.6000    0.0000 C   0  0  0  0  0  0  0  0  0  0  0  0
   -0.0000    0.0000    0.0000 C   0  0  0  0  0  0  0  0  0  0  0  0
   -1.3857   -0.8001    0.0000 C   0  0  0  0  0  0  0  0  0  0  0  0
   -2.7713    0.0000    0.0000 O   0  0  0  0  0  0  0  0  0  0  0  0
   -1.3857   -2.4000    0.0000 N   0  0  0  0  0  0  0  0  0  0  0  0
   -0.0000   -3.2000    0.0000 H   0  0  0  0  0  0  0  0  0  0  0  0
   -2.7713   -3.2000    0.0000 S   0  0  0  0  0  0  0  0  0  0  0  0
   -4.1569   -4.0001    0.0000 C   0  0  0  0  0  0  0  0  0  0  0  0
   -5.5426   -4.8000    0.0000 H   0  0  0  0  0  0  0  0  0  0  0  0
   -4.1569   -5.6000    0.0000 H   0  0  0  0  0  0  0  0  0  0  0  0
   -5.5426   -3.2000    0.0000 H   0  0  0  0  0  0  0  0  0  0  0  0
   -1.9712   -4.5856    0.0000 O   0  0  0  0  0  0  0  0  0  0  0  0
   -3.5714   -1.8143    0.0000 O   0  0  0  0  0  0  0  0  0  0  0  0
    1.3856   -0.7999    0.0000 C   0  0  0  0  0  0  0  0  0  0  0  0
    1.3856   -2.4000    0.0000 H   0  0  0  0  0  0  0  0  0  0  0  0
    2.7713    0.0000    0.0000 C   0  0  0  0  0  0  0  0  0  0  0  0
    4.1569   -0.7999    0.0000 O   0  0  0  0  0  0  0  0  0  0  0  0
    5.7327   -0.5222    0.0000 C   0  0  0  0  0  0  0  0  0  0  0  0
    6.7611   -1.7478    0.0000 C   0  0  0  0  0  0  0  0  0  0  0  0
    6.2139   -3.2514    0.0000 Cl  0  0  0  0  0  0  0  0  0  0  0  0
    8.3369   -1.4700    0.0000 C   0  0  0  0  0  0  0  0  0  0  0  0
    9.3652   -2.6956    0.0000 H   0  0  0  0  0  0  0  0  0  0  0  0
    8.8840    0.0336    0.0000 C   0  0  0  0  0  0  0  0  0  0  0  0
   10.4596    0.3113    0.0000 C   0  0  0  0  0  0  0  0  0  0  0  0
   12.0354    0.5892    0.0000 F   0  0  0  0  0  0  0  0  0  0  0  0
   11.4882   -0.9143    0.0000 F   0  0  0  0  0  0  0  0  0  0  0  0
   11.0070    1.8149    0.0000 F   0  0  0  0  0  0  0  0  0  0  0  0
    7.8554    1.2592    0.0000 C   0  0  0  0  0  0  0  0  0  0  0  0
    8.4029    2.7626    0.0000 H   0  0  0  0  0  0  0  0  0  0  0  0
    6.2799    0.9814    0.0000 C   0  0  0  0  0  0  0  0  0  0  0  0
    5.2515    2.2070    0.0000 H   0  0  0  0  0  0  0  0  0  0  0  0
    2.7713    1.6000    0.0000 C   0  0  0  0  0  0  0  0  0  0  0  0
    4.1569    2.4001    0.0000 H   0  0  0  0  0  0  0  0  0  0  0  0
    1.3856    2.3999    0.0000 C   0  0  0  0  0  0  0  0  0  0  0  0
    1.3856    4.0000    0.0000 H   0  0  0  0  0  0  0  0  0  0  0  0
  1  2  1  0  0  0  0
  2  3  2  0  0  0  0
  2  4  1  0  0  0  0
  4  5  1  0  0  0  0
  5  6  1  0  0  0  0
  6  7  2  0  0  0  0
  6  8  1  0  0  0  0
  8  9  1  0  0  0  0
  8 10  1  0  0  0  0
 10 11  1  0  0  0  0
 11 12  1  0  0  0  0
 11 13  1  0  0  0  0
 11 14  1  0  0  0  0
 10 15  2  0  0  0  0
 10 16  2  0  0  0  0
  5 17  2  0  0  0  0
 17 18  1  0  0  0  0
 17 19  1  0  0  0  0
 19 20  1  0  0  0  0
 20 21  1  0  0  0  0
 21 22  1  0  0  0  0
 22 23  1  0  0  0  0
 22 24  2  0  0  0  0
 24 25  1  0  0  0  0
 24 26  1  0  0  0  0
 26 27  1  0  0  0  0
 27 28  1  0  0  0  0
 27 29  1  0  0  0  0
 27 30  1  0  0  0  0
 26 31  2  0  0  0  0
 31 32  1  0  0  0  0
 31 33  1  0  0  0  0
 33 21  2  0  0  0  0
 33 34  1  0  0  0  0
 19 35  2  0  0  0  0
 35 36  1  0  0  0  0
 35 37  1  0  0  0  0
 37  4  2  0  0  0  0
 37 38  1  0  0  0  0
M  CHG  2   1  -1   2   1
M  END
> <ChemID>
100720

> <source_casrn>
72178-02-0

> <CAS>
72178-02-0

> <SMILES>
CS(=O)(=O)NC(=O)c1cc(ccc1[N+]([O-])=O)Oc1ccc(cc1Cl)C(F)(F)F

> <NAME>
FOMESAFEN

> <preferred_name>
Fomesafen

> <iupac>
5-[2-chloro-4-(trifluoromethyl)phenoxy]-N-(methylsulfonyl)-2-nitrobenzamide

> <MPID>
99968

> <dsstox_substance_id>
DTXSID7024112

> <Canonical_QSARr>
CS(=O)(=O)NC(=O)c1cc(ccc1[N+]([O-])=O)Oc1ccc(cc1Cl)C(F)(F)F

> <InChI_Code_QSARr>
InChI=1S/C15H10ClF3N2O6S/c1-28(25,26)20-14(22)10-7-9(3-4-12(10)21(23)24)27-13-5-2-8(6-11(13)16)15(17,18)19/h2-7H,1H3,(H,20,22)

> <InChI Key_QSARr>
BGZZWXTVIYUUEY-UHFFFAOYSA-N

> <LogKOC>
1.78

$$$$
100722
  -INDIGO-08031722282D

 41 42  0  0  0  0  0  0  0  0999 V2000
   -2.7711    0.0000    0.0000 C   0  0  0  0  0  0  0  0  0  0  0  0
   -2.7711    1.6000    0.0000 O   0  0  0  0  0  0  0  0  0  0  0  0
   -4.1571   -0.8000    0.0000 O   0  0  0  0  0  0  0  0  0  0  0  0
   -5.5427    0.0000    0.0000 C   0  0  0  0  0  0  0  0  0  0  0  0
   -6.1550    1.4782    0.0000 H   0  0  0  0  0  0  0  0  0  0  0  0
   -4.9303    1.4782    0.0000 H   0  0  0  0  0  0  0  0  0  0  0  0
   -6.9283   -0.8000    0.0000 C   0  0  0  0  0  0  0  0  0  0  0  0
   -8.3138   -1.6000    0.0000 H   0  0  0  0  0  0  0  0  0  0  0  0
   -8.3138    0.0000    0.0000 H   0  0  0  0  0  0  0  0  0  0  0  0
   -6.9283   -2.4000    0.0000 H   0  0  0  0  0  0  0  0  0  0  0  0
   -1.3855   -0.8000    0.0000 N   0  0  0  0  0  0  0  0  0  0  0  0
   -1.3855   -2.4000    0.0000 H   0  0  0  0  0  0  0  0  0  0  0  0
    0.0000    0.0000    0.0000 C   0  0  0  0  0  0  0  0  0  0  0  0
   -0.6123    1.4782    0.0000 H   0  0  0  0  0  0  0  0  0  0  0  0
    0.6124    1.4782    0.0000 H   0  0  0  0  0  0  0  0  0  0  0  0
    1.3856   -0.8000    0.0000 C   0  0  0  0  0  0  0  0  0  0  0  0
    1.9980   -2.2782    0.0000 H   0  0  0  0  0  0  0  0  0  0  0  0
    0.7733   -2.2782    0.0000 H   0  0  0  0  0  0  0  0  0  0  0  0
    2.7712    0.0000    0.0000 O   0  0  0  0  0  0  0  0  0  0  0  0
    4.1568   -0.8000    0.0000 C   0  0  0  0  0  0  0  0  0  0  0  0
    4.1568   -2.4000    0.0000 C   0  0  0  0  0  0  0  0  0  0  0  0
    2.7712   -3.2000    0.0000 H   0  0  0  0  0  0  0  0  0  0  0  0
    5.5424   -3.2000    0.0000 C   0  0  0  0  0  0  0  0  0  0  0  0
    5.5424   -4.8000    0.0000 H   0  0  0  0  0  0  0  0  0  0  0  0
    6.9283   -2.4000    0.0000 C   0  0  0  0  0  0  0  0  0  0  0  0
    8.3139   -3.2000    0.0000 O   0  0  0  0  0  0  0  0  0  0  0  0
    9.8895   -2.9222    0.0000 C   0  0  0  0  0  0  0  0  0  0  0  0
   10.9179   -4.1479    0.0000 C   0  0  0  0  0  0  0  0  0  0  0  0
   10.3706   -5.6513    0.0000 H   0  0  0  0  0  0  0  0  0  0  0  0
   12.4938   -3.8700    0.0000 C   0  0  0  0  0  0  0  0  0  0  0  0
   13.5221   -5.0957    0.0000 H   0  0  0  0  0  0  0  0  0  0  0  0
   13.0410   -2.3665    0.0000 C   0  0  0  0  0  0  0  0  0  0  0  0
   14.6166   -2.0887    0.0000 H   0  0  0  0  0  0  0  0  0  0  0  0
   12.0123   -1.1409    0.0000 C   0  0  0  0  0  0  0  0  0  0  0  0
   12.5596    0.3627    0.0000 H   0  0  0  0  0  0  0  0  0  0  0  0
   10.4368   -1.4187    0.0000 C   0  0  0  0  0  0  0  0  0  0  0  0
    9.4084   -0.1929    0.0000 H   0  0  0  0  0  0  0  0  0  0  0  0
    6.9283   -0.8000    0.0000 C   0  0  0  0  0  0  0  0  0  0  0  0
    8.3139    0.0000    0.0000 H   0  0  0  0  0  0  0  0  0  0  0  0
    5.5424    0.0000    0.0000 C   0  0  0  0  0  0  0  0  0  0  0  0
    5.5424    1.6000    0.0000 H   0  0  0  0  0  0  0  0  0  0  0  0
  1  2  2  0  0  0  0
  1  3  1  0  0  0  0
  3  4  1  0  0  0  0
  4  5  1  0  0  0  0
  4  6  1  0  0  0  0
  4  7  1  0  0  0  0
  7  8  1  0  0  0  0
  7  9  1  0  0  0  0
  7 10  1  0  0  0  0
  1 11  1  0  0  0  0
 11 12  1  0  0  0  0
 11 13  1  0  0  0  0
 13 14  1  0  0  0  0
 13 15  1  0  0  0  0
 13 16  1  0  0  0  0
 16 17  1  0  0  0  0
 16 18  1  0  0  0  0
 16 19  1  0  0  0  0
 19 20  1  0  0  0  0
 20 21  1  0  0  0  0
 21 22  1  0  0  0  0
 21 23  2  0  0  0  0
 23 24  1  0  0  0  0
 23 25  1  0  0  0  0
 25 26  1  0  0  0  0
 26 27  1  0  0  0  0
 27 28  1  0  0  0  0
 28 29  1  0  0  0  0
 28 30  2  0  0  0  0
 30 31  1  0  0  0  0
 30 32  1  0  0  0  0
 32 33  1  0  0  0  0
 32 34  2  0  0  0  0
 34 35  1  0  0  0  0
 34 36  1  0  0  0  0
 36 27  2  0  0  0  0
 36 37  1  0  0  0  0
 25 38  2  0  0  0  0
 38 39  1  0  0  0  0
 38 40  1  0  0  0  0
 40 20  2  0  0  0  0
 40 41  1  0  0  0  0
M  END
> <ChemID>
100722

> <source_casrn>
72490-01-8|79127-80-3

> <CAS>
72490-01-8

> <SMILES>
CCOC(=O)NCCOc1ccc(cc1)Oc1ccccc1

> <NAME>
FENOXYCARB

> <preferred_name>
Fenoxycarb

> <iupac>
ethyl [2-(4-phenoxyphenoxy)ethyl]carbamate

> <MPID>
99969|99984

> <dsstox_substance_id>
DTXSID7032393

> <Canonical_QSARr>
CCOC(=O)NCCOc1ccc(cc1)Oc1ccccc1

> <InChI_Code_QSARr>
InChI=1S/C17H19NO4/c1-2-20-17(19)18-12-13-21-14-8-10-16(11-9-14)22-15-6-4-3-5-7-15/h3-11H,2,12-13H2,1H3,(H,18,19)

> <InChI Key_QSARr>
HJUFTIJOISQSKQ-UHFFFAOYSA-N

> <LogKOC>
3.0

$$$$
100724
  -INDIGO-08031722282D

 28 30  0  0  0  0  0  0  0  0999 V2000
    1.6000   -0.0000    0.0000 C   0  0  0  0  0  0  0  0  0  0  0  0
    2.4001   -1.3856    0.0000 N   0  0  0  0  0  0  0  0  0  0  0  0
    3.9999   -1.3856    0.0000 N   0  0  0  0  0  0  0  0  0  0  0  0
    4.8000   -0.0000    0.0000 C   0  0  0  0  0  0  0  0  0  0  0  0
    6.4001   -0.0000    0.0000 C   0  0  0  0  0  0  0  0  0  0  0  0
    7.1999   -1.3856    0.0000 C   0  0  0  0  0  0  0  0  0  0  0  0
    6.4001   -2.7713    0.0000 Cl  0  0  0  0  0  0  0  0  0  0  0  0
    8.8001   -1.3856    0.0000 C   0  0  0  0  0  0  0  0  0  0  0  0
    9.6001   -2.7713    0.0000 H   0  0  0  0  0  0  0  0  0  0  0  0
    9.6001    0.0000    0.0000 C   0  0  0  0  0  0  0  0  0  0  0  0
   11.2000    0.0000    0.0000 H   0  0  0  0  0  0  0  0  0  0  0  0
    8.8001    1.3856    0.0000 C   0  0  0  0  0  0  0  0  0  0  0  0
    9.5999    2.7713    0.0000 H   0  0  0  0  0  0  0  0  0  0  0  0
    7.1999    1.3856    0.0000 C   0  0  0  0  0  0  0  0  0  0  0  0
    6.3999    2.7713    0.0000 H   0  0  0  0  0  0  0  0  0  0  0  0
    3.9999    1.3856    0.0000 N   0  0  0  0  0  0  0  0  0  0  0  0
    2.4001    1.3856    0.0000 N   0  0  0  0  0  0  0  0  0  0  0  0
   -0.0001   -0.0000    0.0000 C   0  0  0  0  0  0  0  0  0  0  0  0
   -0.7999    1.3856    0.0000 C   0  0  0  0  0  0  0  0  0  0  0  0
   -0.0001    2.7713    0.0000 Cl  0  0  0  0  0  0  0  0  0  0  0  0
   -2.4001    1.3856    0.0000 C   0  0  0  0  0  0  0  0  0  0  0  0
   -3.2001    2.7713    0.0000 H   0  0  0  0  0  0  0  0  0  0  0  0
   -3.2001   -0.0000    0.0000 C   0  0  0  0  0  0  0  0  0  0  0  0
   -4.8000   -0.0000    0.0000 H   0  0  0  0  0  0  0  0  0  0  0  0
   -2.4001   -1.3856    0.0000 C   0  0  0  0  0  0  0  0  0  0  0  0
   -3.2001   -2.7713    0.0000 H   0  0  0  0  0  0  0  0  0  0  0  0
   -0.7999   -1.3856    0.0000 C   0  0  0  0  0  0  0  0  0  0  0  0
    0.0001   -2.7713    0.0000 H   0  0  0  0  0  0  0  0  0  0  0  0
  1  2  1  0  0  0  0
  2  3  2  0  0  0  0
  3  4  1  0  0  0  0
  4  5  1  0  0  0  0
  5  6  1  0  0  0  0
  6  7  1  0  0  0  0
  6  8  2  0  0  0  0
  8  9  1  0  0  0  0
  8 10  1  0  0  0  0
 10 11  1  0  0  0  0
 10 12  2  0  0  0  0
 12 13  1  0  0  0  0
 12 14  1  0  0  0  0
 14  5  2  0  0  0  0
 14 15  1  0  0  0  0
  4 16  2  0  0  0  0
 16 17  1  0  0  0  0
 17  1  2  0  0  0  0
  1 18  1  0  0  0  0
 18 19  1  0  0  0  0
 19 20  1  0  0  0  0
 19 21  2  0  0  0  0
 21 22  1  0  0  0  0
 21 23  1  0  0  0  0
 23 24  1  0  0  0  0
 23 25  2  0  0  0  0
 25 26  1  0  0  0  0
 25 27  1  0  0  0  0
 27 18  2  0  0  0  0
 27 28  1  0  0  0  0
M  END
> <ChemID>
100724

> <source_casrn>
74115-24-5

> <CAS>
74115-24-5

> <SMILES>
Clc1ccccc1-c1[n][n]c([n][n]1)-c1ccccc1Cl

> <NAME>
CLOFENTEZINE

> <preferred_name>
Clofentezine

> <iupac>
3,6-bis(2-chlorophenyl)-1,2,4,5-tetrazine

> <MPID>
99971

> <dsstox_substance_id>
DTXSID9023881

> <Canonical_QSARr>
Clc1ccccc1-c1[n][n]c([n][n]1)-c1ccccc1Cl

> <InChI_Code_QSARr>
InChI=1S/C14H8Cl2N4/c15-11-7-3-1-5-9(11)13-17-19-14(20-18-13)10-6-2-4-8-12(10)16/h1-8H

> <InChI Key_QSARr>
UXADOQPNKNTIHB-UHFFFAOYSA-N

> <LogKOC>
4.66

$$$$
100725
  -INDIGO-08031722282D

 41 42  0  0  0  0  0  0  0  0999 V2000
    1.3856    0.8001    0.0000 S   0  0  0  0  0  0  0  0  0  0  0  0
    2.7712    1.6001    0.0000 N   0  0  0  0  0  0  0  0  0  0  0  0
    2.7712    3.2000    0.0000 H   0  0  0  0  0  0  0  0  0  0  0  0
    4.1570    0.7999    0.0000 C   0  0  0  0  0  0  0  0  0  0  0  0
    5.5426    1.6001    0.0000 N   0  0  0  0  0  0  0  0  0  0  0  0
    5.5426    3.2000    0.0000 H   0  0  0  0  0  0  0  0  0  0  0  0
    6.9282    0.7999    0.0000 C   0  0  0  0  0  0  0  0  0  0  0  0
    6.9282   -0.8001    0.0000 N   0  0  0  0  0  0  0  0  0  0  0  0
    8.3138   -1.6000    0.0000 C   0  0  0  0  0  0  0  0  0  0  0  0
    8.3138   -3.2000    0.0000 C   0  0  0  0  0  0  0  0  0  0  0  0
    8.3138   -4.8000    0.0000 H   0  0  0  0  0  0  0  0  0  0  0  0
    9.6996   -4.0000    0.0000 H   0  0  0  0  0  0  0  0  0  0  0  0
    6.9282   -4.0000    0.0000 H   0  0  0  0  0  0  0  0  0  0  0  0
    9.6996   -0.8001    0.0000 C   0  0  0  0  0  0  0  0  0  0  0  0
   11.0852   -1.6000    0.0000 H   0  0  0  0  0  0  0  0  0  0  0  0
    9.6996    0.8001    0.0000 C   0  0  0  0  0  0  0  0  0  0  0  0
   11.0852    1.6001    0.0000 C   0  0  0  0  0  0  0  0  0  0  0  0
   12.4708    2.4001    0.0000 H   0  0  0  0  0  0  0  0  0  0  0  0
   11.0852    3.2000    0.0000 H   0  0  0  0  0  0  0  0  0  0  0  0
   12.4708    0.8001    0.0000 H   0  0  0  0  0  0  0  0  0  0  0  0
    8.3138    1.6001    0.0000 N   0  0  0  0  0  0  0  0  0  0  0  0
    4.1570   -0.8001    0.0000 O   0  0  0  0  0  0  0  0  0  0  0  0
    0.0001   -0.0001    0.0000 C   0  0  0  0  0  0  0  0  0  0  0  0
   -1.3855    0.8001    0.0000 C   0  0  0  0  0  0  0  0  0  0  0  0
   -1.3855    2.4001    0.0000 C   0  0  0  0  0  0  0  0  0  0  0  0
    0.0001    3.2000    0.0000 O   0  0  0  0  0  0  0  0  0  0  0  0
   -2.7713    3.2000    0.0000 O   0  0  0  0  0  0  0  0  0  0  0  0
   -2.7713    4.8000    0.0000 C   0  0  0  0  0  0  0  0  0  0  0  0
   -2.7713    6.4000    0.0000 H   0  0  0  0  0  0  0  0  0  0  0  0
   -4.1569    5.6000    0.0000 H   0  0  0  0  0  0  0  0  0  0  0  0
   -1.3858    5.6000    0.0000 H   0  0  0  0  0  0  0  0  0  0  0  0
   -2.7713   -0.0001    0.0000 C   0  0  0  0  0  0  0  0  0  0  0  0
   -4.1569    0.8001    0.0000 H   0  0  0  0  0  0  0  0  0  0  0  0
   -2.7713   -1.6000    0.0000 C   0  0  0  0  0  0  0  0  0  0  0  0
   -4.1569   -2.4000    0.0000 H   0  0  0  0  0  0  0  0  0  0  0  0
   -1.3855   -2.4000    0.0000 C   0  0  0  0  0  0  0  0  0  0  0  0
   -1.3855   -4.0000    0.0000 H   0  0  0  0  0  0  0  0  0  0  0  0
    0.0001   -1.6000    0.0000 C   0  0  0  0  0  0  0  0  0  0  0  0
    1.3856   -2.4000    0.0000 H   0  0  0  0  0  0  0  0  0  0  0  0
    2.1856   -0.5856    0.0000 O   0  0  0  0  0  0  0  0  0  0  0  0
    0.5857    2.1856    0.0000 O   0  0  0  0  0  0  0  0  0  0  0  0
  1  2  1  0  0  0  0
  2  3  1  0  0  0  0
  2  4  1  0  0  0  0
  4  5  1  0  0  0  0
  5  6  1  0  0  0  0
  5  7  1  0  0  0  0
  7  8  1  0  0  0  0
  8  9  2  0  0  0  0
  9 10  1  0  0  0  0
 10 11  1  0  0  0  0
 10 12  1  0  0  0  0
 10 13  1  0  0  0  0
  9 14  1  0  0  0  0
 14 15  1  0  0  0  0
 14 16  2  0  0  0  0
 16 17  1  0  0  0  0
 17 18  1  0  0  0  0
 17 19  1  0  0  0  0
 17 20  1  0  0  0  0
 16 21  1  0  0  0  0
 21  7  2  0  0  0  0
  4 22  2  0  0  0  0
  1 23  1  0  0  0  0
 23 24  1  0  0  0  0
 24 25  1  0  0  0  0
 25 26  2  0  0  0  0
 25 27  1  0  0  0  0
 27 28  1  0  0  0  0
 28 29  1  0  0  0  0
 28 30  1  0  0  0  0
 28 31  1  0  0  0  0
 24 32  2  0  0  0  0
 32 33  1  0  0  0  0
 32 34  1  0  0  0  0
 34 35  1  0  0  0  0
 34 36  2  0  0  0  0
 36 37  1  0  0  0  0
 36 38  1  0  0  0  0
 38 23  2  0  0  0  0
 38 39  1  0  0  0  0
  1 40  2  0  0  0  0
  1 41  2  0  0  0  0
M  END
> <ChemID>
100725

> <source_casrn>
74222-97-2

> <CAS>
74222-97-2

> <SMILES>
n1c(C)cc(C)nc1NC(=O)NS(=O)(=O)c2ccccc2C(=O)OC

> <NAME>
SULFOMETURON (pH 5-7)

> <preferred_name>
Sulfometuron-methyl

> <iupac>
methyl 2-{[(4,6-dimethylpyrimidin-2-yl)carbamoyl]sulfamoyl}benzoate

> <MPID>
99972

> <dsstox_substance_id>
DTXSID0034936

> <Canonical_QSARr>
COC(=O)c1ccccc1S(=O)(=O)NC(=O)Nc1[n]c(C)cc(C)[n]1

> <InChI_Code_QSARr>
InChI=1S/C15H16N4O5S/c1-9-8-10(2)17-14(16-9)18-15(21)19-25(22,23)12-7-5-4-6-11(12)13(20)24-3/h4-8H,1-3H3,(H2,16,17,18,19,21)

> <InChI Key_QSARr>
ZDXMLEQEMNLCQG-UHFFFAOYSA-N

> <LogKOC>
1.62

$$$$
100726
  -INDIGO-08031722282D

 38 39  0  0  0  0  0  0  0  0999 V2000
    1.3856    0.8000    0.0000 S   0  0  0  0  0  0  0  0  0  0  0  0
    2.1856   -0.5856    0.0000 O   0  0  0  0  0  0  0  0  0  0  0  0
    0.5857    2.1857    0.0000 O   0  0  0  0  0  0  0  0  0  0  0  0
    2.7712    1.6000    0.0000 N   0  0  0  0  0  0  0  0  0  0  0  0
    2.7712    3.1999    0.0000 H   0  0  0  0  0  0  0  0  0  0  0  0
    4.1570    0.8000    0.0000 C   0  0  0  0  0  0  0  0  0  0  0  0
    4.1570   -0.8000    0.0000 O   0  0  0  0  0  0  0  0  0  0  0  0
    5.5426    1.6000    0.0000 N   0  0  0  0  0  0  0  0  0  0  0  0
    5.5426    3.1999    0.0000 H   0  0  0  0  0  0  0  0  0  0  0  0
    6.9282    0.8000    0.0000 C   0  0  0  0  0  0  0  0  0  0  0  0
    6.9282   -0.8000    0.0000 N   0  0  0  0  0  0  0  0  0  0  0  0
    8.3138   -1.6000    0.0000 C   0  0  0  0  0  0  0  0  0  0  0  0
    8.3138   -3.2001    0.0000 C   0  0  0  0  0  0  0  0  0  0  0  0
    8.3138   -4.8000    0.0000 H   0  0  0  0  0  0  0  0  0  0  0  0
    9.6996   -4.0000    0.0000 H   0  0  0  0  0  0  0  0  0  0  0  0
    6.9282   -4.0000    0.0000 H   0  0  0  0  0  0  0  0  0  0  0  0
    9.6996   -0.8000    0.0000 C   0  0  0  0  0  0  0  0  0  0  0  0
   11.0852   -1.6000    0.0000 H   0  0  0  0  0  0  0  0  0  0  0  0
    9.6996    0.8000    0.0000 C   0  0  0  0  0  0  0  0  0  0  0  0
   11.0852    1.6000    0.0000 C   0  0  0  0  0  0  0  0  0  0  0  0
   12.4708    2.4000    0.0000 H   0  0  0  0  0  0  0  0  0  0  0  0
   11.0852    3.2001    0.0000 H   0  0  0  0  0  0  0  0  0  0  0  0
   12.4708    0.8000    0.0000 H   0  0  0  0  0  0  0  0  0  0  0  0
    8.3138    1.6000    0.0000 N   0  0  0  0  0  0  0  0  0  0  0  0
    0.0001    0.0001    0.0000 C   0  0  0  0  0  0  0  0  0  0  0  0
   -1.3858    0.8000    0.0000 C   0  0  0  0  0  0  0  0  0  0  0  0
   -1.3858    2.4000    0.0000 C   0  0  0  0  0  0  0  0  0  0  0  0
   -2.7713    3.2001    0.0000 O   0  0  0  0  0  0  0  0  0  0  0  0
   -2.7713    4.8000    0.0000 H   0  0  0  0  0  0  0  0  0  0  0  0
    0.0001    3.2001    0.0000 O   0  0  0  0  0  0  0  0  0  0  0  0
   -2.7713    0.0001    0.0000 C   0  0  0  0  0  0  0  0  0  0  0  0
   -4.1569    0.8000    0.0000 H   0  0  0  0  0  0  0  0  0  0  0  0
   -2.7713   -1.6000    0.0000 C   0  0  0  0  0  0  0  0  0  0  0  0
   -4.1569   -2.4000    0.0000 H   0  0  0  0  0  0  0  0  0  0  0  0
   -1.3855   -2.4000    0.0000 C   0  0  0  0  0  0  0  0  0  0  0  0
   -1.3858   -4.0000    0.0000 H   0  0  0  0  0  0  0  0  0  0  0  0
    0.0001   -1.6000    0.0000 C   0  0  0  0  0  0  0  0  0  0  0  0
    1.3856   -2.4000    0.0000 H   0  0  0  0  0  0  0  0  0  0  0  0
  1  2  2  0  0  0  0
  1  3  2  0  0  0  0
  1  4  1  0  0  0  0
  4  5  1  0  0  0  0
  4  6  1  0  0  0  0
  6  7  2  0  0  0  0
  6  8  1  0  0  0  0
  8  9  1  0  0  0  0
  8 10  1  0  0  0  0
 10 11  1  0  0  0  0
 11 12  2  0  0  0  0
 12 13  1  0  0  0  0
 13 14  1  0  0  0  0
 13 15  1  0  0  0  0
 13 16  1  0  0  0  0
 12 17  1  0  0  0  0
 17 18  1  0  0  0  0
 17 19  2  0  0  0  0
 19 20  1  0  0  0  0
 20 21  1  0  0  0  0
 20 22  1  0  0  0  0
 20 23  1  0  0  0  0
 19 24  1  0  0  0  0
 24 10  2  0  0  0  0
  1 25  1  0  0  0  0
 25 26  1  0  0  0  0
 26 27  1  0  0  0  0
 27 28  1  0  0  0  0
 28 29  1  0  0  0  0
 27 30  2  0  0  0  0
 26 31  2  0  0  0  0
 31 32  1  0  0  0  0
 31 33  1  0  0  0  0
 33 34  1  0  0  0  0
 33 35  2  0  0  0  0
 35 36  1  0  0  0  0
 35 37  1  0  0  0  0
 37 25  2  0  0  0  0
 37 38  1  0  0  0  0
M  END
> <ChemID>
100726

> <source_casrn>
74223-56-6

> <CAS>
74223-56-6

> <SMILES>
Cc1cc(C)[n]c(NC(=O)NS(=O)(=O)c2ccccc2C(O)=O)[n]1

> <NAME>
SULFOMETURON

> <preferred_name>
Sulfometuron [ANSI:BSI:ISO]

> <iupac>
2-[(4,6-dimethylpyrimidin-2-yl)carbamoylsulfamoyl]benzoic acid

> <MPID>
99973

> <dsstox_substance_id>
DTXSID20225213

> <Canonical_QSARr>
Cc1cc(C)[n]c(NC(=O)NS(=O)(=O)c2ccccc2C(O)=O)[n]1

> <InChI_Code_QSARr>
InChI=1S/C14H14N4O5S/c1-8-7-9(2)16-13(15-8)17-14(21)18-24(22,23)11-6-4-3-5-10(11)12(19)20/h3-7H,1-2H3,(H,19,20)(H2,15,16,17,18,21)

> <InChI Key_QSARr>
FZMKKCQHDROFNI-UHFFFAOYSA-N

> <LogKOC>
1.8

$$$$
100729
  -INDIGO-08031722282D

 43 45  0  0  0  0  0  0  0  0999 V2000
   -8.3138    0.0001    0.0000 N   0  0  0  0  0  0  0  0  0  0  0  0
   -8.3138    1.6001    0.0000 C   0  0  0  0  0  0  0  0  0  0  0  0
   -6.9283    2.4000    0.0000 O   0  0  0  0  0  0  0  0  0  0  0  0
   -5.5427    1.6001    0.0000 C   0  0  0  0  0  0  0  0  0  0  0  0
   -5.5427    0.0001    0.0000 C   0  0  0  0  0  0  0  0  0  0  0  0
   -6.9283   -0.8000    0.0000 H   0  0  0  0  0  0  0  0  0  0  0  0
   -4.1569   -0.8000    0.0000 C   0  0  0  0  0  0  0  0  0  0  0  0
   -4.1569   -2.4000    0.0000 H   0  0  0  0  0  0  0  0  0  0  0  0
   -2.7713    0.0001    0.0000 C   0  0  0  0  0  0  0  0  0  0  0  0
   -1.3857   -0.8000    0.0000 O   0  0  0  0  0  0  0  0  0  0  0  0
    0.0001    0.0001    0.0000 C   0  0  0  0  0  0  0  0  0  0  0  0
   -0.8001    1.3856    0.0000 H   0  0  0  0  0  0  0  0  0  0  0  0
    0.8001   -1.3856    0.0000 C   0  0  0  0  0  0  0  0  0  0  0  0
    2.4001   -1.3856    0.0000 O   0  0  0  0  0  0  0  0  0  0  0  0
    0.0001   -2.7712    0.0000 O   0  0  0  0  0  0  0  0  0  0  0  0
    0.8001   -4.1569    0.0000 C   0  0  0  0  0  0  0  0  0  0  0  0
    2.2783   -3.5446    0.0000 H   0  0  0  0  0  0  0  0  0  0  0  0
    2.2783   -4.7692    0.0000 H   0  0  0  0  0  0  0  0  0  0  0  0
    0.0001   -5.5425    0.0000 C   0  0  0  0  0  0  0  0  0  0  0  0
    0.8001   -6.9282    0.0000 H   0  0  0  0  0  0  0  0  0  0  0  0
   -0.8001   -6.9282    0.0000 H   0  0  0  0  0  0  0  0  0  0  0  0
   -1.6001   -5.5425    0.0000 H   0  0  0  0  0  0  0  0  0  0  0  0
    1.3857    0.8000    0.0000 C   0  0  0  0  0  0  0  0  0  0  0  0
    2.7713    1.6001    0.0000 H   0  0  0  0  0  0  0  0  0  0  0  0
    2.7713    0.0001    0.0000 H   0  0  0  0  0  0  0  0  0  0  0  0
    1.3857    2.4000    0.0000 H   0  0  0  0  0  0  0  0  0  0  0  0
   -2.7713    1.6001    0.0000 C   0  0  0  0  0  0  0  0  0  0  0  0
   -1.3857    2.4000    0.0000 H   0  0  0  0  0  0  0  0  0  0  0  0
   -4.1569    2.4000    0.0000 C   0  0  0  0  0  0  0  0  0  0  0  0
   -4.1569    4.0000    0.0000 H   0  0  0  0  0  0  0  0  0  0  0  0
   -9.6994    2.4000    0.0000 C   0  0  0  0  0  0  0  0  0  0  0  0
   -9.6994    4.0000    0.0000 H   0  0  0  0  0  0  0  0  0  0  0  0
  -11.0850    1.6001    0.0000 N   0  0  0  0  0  0  0  0  0  0  0  0
  -11.0850    0.0001    0.0000 C   0  0  0  0  0  0  0  0  0  0  0  0
   -9.6994   -0.8000    0.0000 C   0  0  0  0  0  0  0  0  0  0  0  0
   -9.6994   -2.4000    0.0000 C   0  0  0  0  0  0  0  0  0  0  0  0
   -8.3138   -3.1999    0.0000 H   0  0  0  0  0  0  0  0  0  0  0  0
  -11.0850   -3.1999    0.0000 C   0  0  0  0  0  0  0  0  0  0  0  0
  -11.0850   -4.7999    0.0000 H   0  0  0  0  0  0  0  0  0  0  0  0
  -12.4708   -2.4000    0.0000 C   0  0  0  0  0  0  0  0  0  0  0  0
  -12.4708   -0.8000    0.0000 C   0  0  0  0  0  0  0  0  0  0  0  0
  -13.8564    0.0001    0.0000 H   0  0  0  0  0  0  0  0  0  0  0  0
  -13.8564   -3.1999    0.0000 Cl  0  0  0  0  0  0  0  0  0  0  0  0
  1  2  1  0  0  0  0
  2  3  1  0  0  0  0
  3  4  1  0  0  0  0
  4  5  1  0  0  0  0
  5  6  1  0  0  0  0
  5  7  2  0  0  0  0
  7  8  1  0  0  0  0
  7  9  1  0  0  0  0
  9 10  1  0  0  0  0
 10 11  1  0  0  0  0
 11 12  1  0  0  0  0
 11 13  1  0  0  0  0
 13 14  2  0  0  0  0
 13 15  1  0  0  0  0
 15 16  1  0  0  0  0
 16 17  1  0  0  0  0
 16 18  1  0  0  0  0
 16 19  1  0  0  0  0
 19 20  1  0  0  0  0
 19 21  1  0  0  0  0
 19 22  1  0  0  0  0
 11 23  1  0  0  0  0
 23 24  1  0  0  0  0
 23 25  1  0  0  0  0
 23 26  1  0  0  0  0
  9 27  2  0  0  0  0
 27 28  1  0  0  0  0
 27 29  1  0  0  0  0
 29  4  2  0  0  0  0
 29 30  1  0  0  0  0
  2 31  2  0  0  0  0
 31 32  1  0  0  0  0
 31 33  1  0  0  0  0
 33 34  2  0  0  0  0
 34 35  1  0  0  0  0
 35  1  2  0  0  0  0
 35 36  1  0  0  0  0
 36 37  1  0  0  0  0
 36 38  2  0  0  0  0
 38 39  1  0  0  0  0
 38 40  1  0  0  0  0
 40 41  2  0  0  0  0
 41 34  1  0  0  0  0
 41 42  1  0  0  0  0
 40 43  1  0  0  0  0
M  END
> <ChemID>
100729

> <source_casrn>
76578-14-8

> <CAS>
76578-14-8

> <SMILES>
CCOC(=O)C(C)Oc1ccc(cc1)Oc1c[n]c2cc(Cl)ccc2[n]1

> <NAME>
QUIZALOFOP-ETHYL

> <preferred_name>
Quizalofop-ethyl

> <iupac>
ethyl 2-{4-[(6-chloroquinoxalin-2-yl)oxy]phenoxy}propanoate

> <MPID>
99975

> <dsstox_substance_id>
DTXSID9023889

> <Canonical_QSARr>
CCOC(=O)C(C)Oc1ccc(cc1)Oc1c[n]c2cc(Cl)ccc2[n]1

> <InChI_Code_QSARr>
InChI=1S/C19H17ClN2O4/c1-3-24-19(23)12(2)25-14-5-7-15(8-6-14)26-18-11-21-17-10-13(20)4-9-16(17)22-18/h4-12H,3H2,1-2H3

> <InChI Key_QSARr>
OSUHJPCHFDQAIT-UHFFFAOYSA-N

> <LogKOC>
2.71

$$$$
100730
  -INDIGO-08031722282D

 35 37  0  0  0  0  0  0  0  0999 V2000
   -0.0000   -0.0001    0.0000 C   0  0  0  0  0  0  0  0  0  0  0  0
    1.5758    0.2778    0.0000 C   0  0  0  0  0  0  0  0  0  0  0  0
    2.3757    1.6634    0.0000 C   0  0  0  0  0  0  0  0  0  0  0  0
    1.5758    3.0491    0.0000 F   0  0  0  0  0  0  0  0  0  0  0  0
    3.9756    1.6634    0.0000 C   0  0  0  0  0  0  0  0  0  0  0  0
    4.7757    3.0491    0.0000 H   0  0  0  0  0  0  0  0  0  0  0  0
    4.7757    0.2778    0.0000 C   0  0  0  0  0  0  0  0  0  0  0  0
    6.3757    0.2778    0.0000 H   0  0  0  0  0  0  0  0  0  0  0  0
    3.9756   -1.1078    0.0000 C   0  0  0  0  0  0  0  0  0  0  0  0
    4.7757   -2.4935    0.0000 H   0  0  0  0  0  0  0  0  0  0  0  0
    2.3757   -1.1078    0.0000 C   0  0  0  0  0  0  0  0  0  0  0  0
    1.5758   -2.4935    0.0000 H   0  0  0  0  0  0  0  0  0  0  0  0
   -0.2778    1.5757    0.0000 C   0  0  0  0  0  0  0  0  0  0  0  0
    1.2482    2.0569    0.0000 H   0  0  0  0  0  0  0  0  0  0  0  0
    0.4610    2.9949    0.0000 H   0  0  0  0  0  0  0  0  0  0  0  0
   -1.7814    2.1229    0.0000 N   0  0  0  0  0  0  0  0  0  0  0  0
   -3.1078    1.2282    0.0000 N   0  0  0  0  0  0  0  0  0  0  0  0
   -4.3687    2.2133    0.0000 C   0  0  0  0  0  0  0  0  0  0  0  0
   -5.9066    1.7722    0.0000 H   0  0  0  0  0  0  0  0  0  0  0  0
   -3.8214    3.7167    0.0000 N   0  0  0  0  0  0  0  0  0  0  0  0
   -2.2224    3.6610    0.0000 C   0  0  0  0  0  0  0  0  0  0  0  0
   -1.2373    4.9218    0.0000 H   0  0  0  0  0  0  0  0  0  0  0  0
   -1.5035   -0.5472    0.0000 C   0  0  0  0  0  0  0  0  0  0  0  0
   -2.8892    0.2528    0.0000 C   0  0  0  0  0  0  0  0  0  0  0  0
   -2.6113    1.8284    0.0000 H   0  0  0  0  0  0  0  0  0  0  0  0
   -4.2748   -0.5472    0.0000 C   0  0  0  0  0  0  0  0  0  0  0  0
   -5.6604    0.2528    0.0000 H   0  0  0  0  0  0  0  0  0  0  0  0
   -4.2748   -2.1473    0.0000 C   0  0  0  0  0  0  0  0  0  0  0  0
   -5.6604   -2.9472    0.0000 F   0  0  0  0  0  0  0  0  0  0  0  0
   -2.8892   -2.9472    0.0000 C   0  0  0  0  0  0  0  0  0  0  0  0
   -2.8892   -4.5472    0.0000 H   0  0  0  0  0  0  0  0  0  0  0  0
   -1.5035   -2.1473    0.0000 C   0  0  0  0  0  0  0  0  0  0  0  0
   -0.9478   -2.6042    0.0000 H   0  0  0  0  0  0  0  0  0  0  0  0
    0.2779   -1.5757    0.0000 O   0  0  0  0  0  0  0  0  0  0  0  0
    0.0785   -2.2669    0.0000 H   0  0  0  0  0  0  0  0  0  0  0  0
  1  2  1  0  0  0  0
  2  3  1  0  0  0  0
  3  4  1  0  0  0  0
  3  5  2  0  0  0  0
  5  6  1  0  0  0  0
  5  7  1  0  0  0  0
  7  8  1  0  0  0  0
  7  9  2  0  0  0  0
  9 10  1  0  0  0  0
  9 11  1  0  0  0  0
 11  2  2  0  0  0  0
 11 12  1  0  0  0  0
  1 13  1  0  0  0  0
 13 14  1  0  0  0  0
 13 15  1  0  0  0  0
 13 16  1  0  0  0  0
 16 17  1  0  0  0  0
 17 18  2  0  0  0  0
 18 19  1  0  0  0  0
 18 20  1  0  0  0  0
 20 21  2  0  0  0  0
 21 16  1  0  0  0  0
 21 22  1  0  0  0  0
  1 23  1  0  0  0  0
 23 24  1  0  0  0  0
 24 25  1  0  0  0  0
 24 26  2  0  0  0  0
 26 27  1  0  0  0  0
 26 28  1  0  0  0  0
 28 29  1  0  0  0  0
 28 30  2  0  0  0  0
 30 31  1  0  0  0  0
 30 32  1  0  0  0  0
 32 23  2  0  0  0  0
 32 33  1  0  0  0  0
  1 34  1  0  0  0  0
 34 35  1  0  0  0  0
M  END
> <ChemID>
100730

> <source_casrn>
76674-21-0

> <CAS>
76674-21-0

> <SMILES>
n1cncn1CC(O)(c2ccc(F)cc2)c3ccccc3F

> <NAME>
FLUTRIAFOL (PP450)

> <preferred_name>
Flutriafol

> <iupac>
1-(2-fluorophenyl)-1-(4-fluorophenyl)-2-(1H-1,2,4-triazol-1-yl)ethanol

> <MPID>
99976

> <dsstox_substance_id>
DTXSID8040727

> <Canonical_QSARr>
OC(C[n]1c[n]c[n]1)(c1ccccc1F)c1ccc(F)cc1

> <InChI_Code_QSARr>
InChI=1S/C16H13F2N3O/c17-13-7-5-12(6-8-13)16(22,9-21-11-19-10-20-21)14-3-1-2-4-15(14)18/h1-8,10-11,22H,9H2

> <InChI Key_QSARr>
JWUCHKBSVLQQCO-UHFFFAOYSA-N

> <LogKOC>
1.88

$$$$
100731
  -INDIGO-08031722282D

 40 41  0  0  0  0  0  0  0  0999 V2000
   -1.4229   -3.2826    0.0000 N   0  0  0  0  0  0  0  0  0  0  0  0
    0.1733   -3.1710    0.0000 N   0  0  0  0  0  0  0  0  0  0  0  0
    0.7727   -4.6545    0.0000 C   0  0  0  0  0  0  0  0  0  0  0  0
    2.3251   -5.0416    0.0000 H   0  0  0  0  0  0  0  0  0  0  0  0
   -0.4531   -5.6830    0.0000 N   0  0  0  0  0  0  0  0  0  0  0  0
   -1.8100   -4.8351    0.0000 C   0  0  0  0  0  0  0  0  0  0  0  0
   -3.2935   -5.4344    0.0000 H   0  0  0  0  0  0  0  0  0  0  0  0
   -2.4513   -2.0570    0.0000 C   0  0  0  0  0  0  0  0  0  0  0  0
   -3.6771   -3.0854    0.0000 H   0  0  0  0  0  0  0  0  0  0  0  0
   -1.2256   -1.0285    0.0000 C   0  0  0  0  0  0  0  0  0  0  0  0
   -2.2542    0.1972    0.0000 H   0  0  0  0  0  0  0  0  0  0  0  0
   -0.0000    0.0000    0.0000 C   0  0  0  0  0  0  0  0  0  0  0  0
    1.2257    1.0284    0.0000 C   0  0  0  0  0  0  0  0  0  0  0  0
    2.4513    2.0569    0.0000 H   0  0  0  0  0  0  0  0  0  0  0  0
    0.9478    2.6041    0.0000 H   0  0  0  0  0  0  0  0  0  0  0  0
    2.7292    0.4812    0.0000 H   0  0  0  0  0  0  0  0  0  0  0  0
   -0.8001    1.3857    0.0000 C   0  0  0  0  0  0  0  0  0  0  0  0
   -0.0000    2.7713    0.0000 H   0  0  0  0  0  0  0  0  0  0  0  0
   -1.5999    2.7713    0.0000 H   0  0  0  0  0  0  0  0  0  0  0  0
   -2.4000    1.3857    0.0000 H   0  0  0  0  0  0  0  0  0  0  0  0
    0.8000   -1.3856    0.0000 C   0  0  0  0  0  0  0  0  0  0  0  0
    2.3999   -1.3856    0.0000 H   0  0  0  0  0  0  0  0  0  0  0  0
    1.6001   -2.7712    0.0000 H   0  0  0  0  0  0  0  0  0  0  0  0
    1.6001    0.0000    0.0000 H   0  0  0  0  0  0  0  0  0  0  0  0
   -0.1972   -2.2541    0.0000 O   0  0  0  0  0  0  0  0  0  0  0  0
   -0.4751   -3.8298    0.0000 H   0  0  0  0  0  0  0  0  0  0  0  0
   -3.8369   -1.2569    0.0000 C   0  0  0  0  0  0  0  0  0  0  0  0
   -4.4492    0.2212    0.0000 H   0  0  0  0  0  0  0  0  0  0  0  0
   -3.2248    0.2212    0.0000 H   0  0  0  0  0  0  0  0  0  0  0  0
   -5.2227   -2.0570    0.0000 C   0  0  0  0  0  0  0  0  0  0  0  0
   -6.6082   -1.2569    0.0000 C   0  0  0  0  0  0  0  0  0  0  0  0
   -6.6082    0.3431    0.0000 H   0  0  0  0  0  0  0  0  0  0  0  0
   -7.9940   -2.0570    0.0000 C   0  0  0  0  0  0  0  0  0  0  0  0
   -9.3795   -1.2569    0.0000 H   0  0  0  0  0  0  0  0  0  0  0  0
   -7.9940   -3.6569    0.0000 C   0  0  0  0  0  0  0  0  0  0  0  0
   -9.3795   -4.4570    0.0000 Cl  0  0  0  0  0  0  0  0  0  0  0  0
   -6.6082   -4.4570    0.0000 C   0  0  0  0  0  0  0  0  0  0  0  0
   -6.6082   -6.0569    0.0000 H   0  0  0  0  0  0  0  0  0  0  0  0
   -5.2227   -3.6569    0.0000 C   0  0  0  0  0  0  0  0  0  0  0  0
   -3.8369   -4.4570    0.0000 H   0  0  0  0  0  0  0  0  0  0  0  0
  1  2  1  0  0  0  0
  2  3  2  0  0  0  0
  3  4  1  0  0  0  0
  3  5  1  0  0  0  0
  5  6  2  0  0  0  0
  6  1  1  0  0  0  0
  6  7  1  0  0  0  0
  1  8  1  0  0  0  0
  8  9  1  0  0  0  0
  8 10  1  0  0  0  0
 10 11  1  0  0  0  0
 10 12  1  0  0  0  0
 12 13  1  0  0  0  0
 13 14  1  0  0  0  0
 13 15  1  0  0  0  0
 13 16  1  0  0  0  0
 12 17  1  0  0  0  0
 17 18  1  0  0  0  0
 17 19  1  0  0  0  0
 17 20  1  0  0  0  0
 12 21  1  0  0  0  0
 21 22  1  0  0  0  0
 21 23  1  0  0  0  0
 21 24  1  0  0  0  0
 10 25  1  0  0  0  0
 25 26  1  0  0  0  0
  8 27  1  0  0  0  0
 27 28  1  0  0  0  0
 27 29  1  0  0  0  0
 27 30  1  0  0  0  0
 30 31  1  0  0  0  0
 31 32  1  0  0  0  0
 31 33  2  0  0  0  0
 33 34  1  0  0  0  0
 33 35  1  0  0  0  0
 35 36  1  0  0  0  0
 35 37  2  0  0  0  0
 37 38  1  0  0  0  0
 37 39  1  0  0  0  0
 39 30  2  0  0  0  0
 39 40  1  0  0  0  0
M  END
> <ChemID>
100731

> <source_casrn>
76738-62-0

> <CAS>
76738-62-0

> <SMILES>
CC(C)(C)[C@@H](O)[C@@H](Cc1ccc(Cl)cc1)[n]1c[n]c[n]1 |o1:4,6|

> <NAME>
PACLOBUTRAZOL

> <preferred_name>
Paclobutrazol

> <iupac>


> <MPID>
99977

> <dsstox_substance_id>
DTXSID2024242

> <Canonical_QSARr>
CC(C)(C)C(O)C(Cc1ccc(Cl)cc1)[n]1c[n]c[n]1

> <InChI_Code_QSARr>
InChI=1S/C15H20ClN3O/c1-15(2,3)14(20)13(19-10-17-9-18-19)8-11-4-6-12(16)7-5-11/h4-7,9-10,13-14,20H,8H2,1-3H3

> <InChI Key_QSARr>
RMOGWMIKYWRTKW-UHFFFAOYSA-N

> <LogKOC>
2.7

$$$$
100732
  -INDIGO-08031722282D

 23 22  0  0  0  0  0  0  0  0999 V2000
    4.1569    0.8000    0.0000 O   0  0  0  0  0  0  0  0  0  0  0  0
    5.5426    1.6000    0.0000 H   0  0  0  0  0  0  0  0  0  0  0  0
    2.7712    1.6000    0.0000 C   0  0  0  0  0  0  0  0  0  0  0  0
    1.3856    0.8000    0.0000 C   0  0  0  0  0  0  0  0  0  0  0  0
    0.5857    2.1856    0.0000 H   0  0  0  0  0  0  0  0  0  0  0  0
    2.1856   -0.5856    0.0000 N   0  0  0  0  0  0  0  0  0  0  0  0
    1.6385   -2.0891    0.0000 H   0  0  0  0  0  0  0  0  0  0  0  0
    3.7856   -0.5856    0.0000 H   0  0  0  0  0  0  0  0  0  0  0  0
    0.0001   -0.0000    0.0000 C   0  0  0  0  0  0  0  0  0  0  0  0
   -0.6122   -1.4782    0.0000 H   0  0  0  0  0  0  0  0  0  0  0  0
    0.6122   -1.4782    0.0000 H   0  0  0  0  0  0  0  0  0  0  0  0
   -1.3856    0.8000    0.0000 C   0  0  0  0  0  0  0  0  0  0  0  0
   -0.7734    2.2782    0.0000 H   0  0  0  0  0  0  0  0  0  0  0  0
   -1.9979    2.2782    0.0000 H   0  0  0  0  0  0  0  0  0  0  0  0
   -2.7712   -0.0000    0.0000 P   0  0  0  0  0  0  0  0  0  0  0  0
   -1.9713   -1.3856    0.0000 O   0  0  0  0  0  0  0  0  0  0  0  0
   -3.5713    1.3856    0.0000 O   0  0  0  0  0  0  0  0  0  0  0  0
   -5.1713    1.3856    0.0000 H   0  0  0  0  0  0  0  0  0  0  0  0
   -4.1569   -0.8000    0.0000 C   0  0  0  0  0  0  0  0  0  0  0  0
   -5.5426   -1.6000    0.0000 H   0  0  0  0  0  0  0  0  0  0  0  0
   -5.5426   -0.0000    0.0000 H   0  0  0  0  0  0  0  0  0  0  0  0
   -4.1569   -2.4000    0.0000 H   0  0  0  0  0  0  0  0  0  0  0  0
    2.7712    3.2000    0.0000 O   0  0  0  0  0  0  0  0  0  0  0  0
  1  2  1  0  0  0  0
  1  3  1  0  0  0  0
  3  4  1  0  0  0  0
  4  5  1  0  0  0  0
  4  6  1  0  0  0  0
  6  7  1  0  0  0  0
  6  8  1  0  0  0  0
  4  9  1  0  0  0  0
  9 10  1  0  0  0  0
  9 11  1  0  0  0  0
  9 12  1  0  0  0  0
 12 13  1  0  0  0  0
 12 14  1  0  0  0  0
 12 15  1  0  0  0  0
 15 16  2  0  0  0  0
 15 17  1  0  0  0  0
 17 18  1  0  0  0  0
 15 19  1  0  0  0  0
 19 20  1  0  0  0  0
 19 21  1  0  0  0  0
 19 22  1  0  0  0  0
  3 23  2  0  0  0  0
M  END
> <ChemID>
100732

> <source_casrn>
77182-82-2

> <CAS>
77182-82-2

> <SMILES>
[NH4+].CP(O)(=O)CCC(N)C([O-])=O

> <NAME>
GLUFOSINATE-AMMONIUM

> <preferred_name>
Glufosinate-ammonium

> <iupac>
ammonium 2-amino-4-[hydroxy(methyl)phosphoryl]butanoate

> <MPID>
99978

> <dsstox_substance_id>
DTXSID1024120

> <Canonical_QSARr>
CP(O)(=O)CCC(N)C(O)=O

> <InChI_Code_QSARr>
InChI=1S/C5H12NO4P/c1-11(9,10)3-2-4(6)5(7)8/h4H,2-3,6H2,1H3,(H,7,8)(H,9,10)

> <InChI Key_QSARr>
IAJOBQBIJHVGMQ-UHFFFAOYSA-N

> <LogKOC>
2.63

$$$$
100735
  -INDIGO-08031722282D

 29 30  0  0  0  0  0  0  0  0999 V2000
   -2.7714    0.0000    0.0000 C   0  0  0  0  0  0  0  0  0  0  0  0
   -2.7714   -1.6000    0.0000 O   0  0  0  0  0  0  0  0  0  0  0  0
   -1.3857    0.8000    0.0000 N   0  0  0  0  0  0  0  0  0  0  0  0
   -1.3857    2.4000    0.0000 H   0  0  0  0  0  0  0  0  0  0  0  0
    0.0001    0.0000    0.0000 C   0  0  0  0  0  0  0  0  0  0  0  0
    0.0001   -1.6000    0.0000 C   0  0  0  0  0  0  0  0  0  0  0  0
   -1.3857   -2.4000    0.0000 H   0  0  0  0  0  0  0  0  0  0  0  0
    1.3855   -2.4000    0.0000 C   0  0  0  0  0  0  0  0  0  0  0  0
    1.3855   -4.0000    0.0000 H   0  0  0  0  0  0  0  0  0  0  0  0
    2.7712   -1.6000    0.0000 C   0  0  0  0  0  0  0  0  0  0  0  0
    4.1569   -2.4000    0.0000 O   0  0  0  0  0  0  0  0  0  0  0  0
    5.7326   -2.1222    0.0000 C   0  0  0  0  0  0  0  0  0  0  0  0
    6.7611   -3.3479    0.0000 C   0  0  0  0  0  0  0  0  0  0  0  0
    6.2139   -4.8513    0.0000 H   0  0  0  0  0  0  0  0  0  0  0  0
    8.3368   -3.0700    0.0000 C   0  0  0  0  0  0  0  0  0  0  0  0
    9.3653   -4.2957    0.0000 H   0  0  0  0  0  0  0  0  0  0  0  0
    8.8840   -1.5665    0.0000 C   0  0  0  0  0  0  0  0  0  0  0  0
   10.4597   -1.2887    0.0000 H   0  0  0  0  0  0  0  0  0  0  0  0
    7.8555   -0.3409    0.0000 C   0  0  0  0  0  0  0  0  0  0  0  0
    8.4027    1.1627    0.0000 H   0  0  0  0  0  0  0  0  0  0  0  0
    6.2798   -0.6186    0.0000 C   0  0  0  0  0  0  0  0  0  0  0  0
    5.2514    0.6071    0.0000 H   0  0  0  0  0  0  0  0  0  0  0  0
    2.7712    0.0000    0.0000 C   0  0  0  0  0  0  0  0  0  0  0  0
    4.1569    0.8000    0.0000 H   0  0  0  0  0  0  0  0  0  0  0  0
    1.3855    0.8000    0.0000 C   0  0  0  0  0  0  0  0  0  0  0  0
    1.3855    2.4000    0.0000 H   0  0  0  0  0  0  0  0  0  0  0  0
   -4.1568    0.8000    0.0000 N   0  0  0  0  0  0  0  0  0  0  0  0
   -5.5426    0.0000    0.0000 H   0  0  0  0  0  0  0  0  0  0  0  0
   -4.1568    2.4000    0.0000 H   0  0  0  0  0  0  0  0  0  0  0  0
  1  2  2  0  0  0  0
  1  3  1  0  0  0  0
  3  4  1  0  0  0  0
  3  5  1  0  0  0  0
  5  6  1  0  0  0  0
  6  7  1  0  0  0  0
  6  8  2  0  0  0  0
  8  9  1  0  0  0  0
  8 10  1  0  0  0  0
 10 11  1  0  0  0  0
 11 12  1  0  0  0  0
 12 13  1  0  0  0  0
 13 14  1  0  0  0  0
 13 15  2  0  0  0  0
 15 16  1  0  0  0  0
 15 17  1  0  0  0  0
 17 18  1  0  0  0  0
 17 19  2  0  0  0  0
 19 20  1  0  0  0  0
 19 21  1  0  0  0  0
 21 12  2  0  0  0  0
 21 22  1  0  0  0  0
 10 23  2  0  0  0  0
 23 24  1  0  0  0  0
 23 25  1  0  0  0  0
 25  5  2  0  0  0  0
 25 26  1  0  0  0  0
  1 27  1  0  0  0  0
 27 28  1  0  0  0  0
 27 29  1  0  0  0  0
M  END
> <ChemID>
100735

> <source_casrn>
78508-44-8

> <CAS>
78508-44-8

> <SMILES>
NC(=O)Nc1ccc(Oc2ccccc2)cc1

> <NAME>
(4-PHENOXYPHENYL)UREA

> <preferred_name>


> <iupac>


> <MPID>
99980

> <dsstox_substance_id>
DTXSID60877139

> <Canonical_QSARr>
NC(=O)Nc1ccc(cc1)Oc1ccccc1

> <InChI_Code_QSARr>
InChI=1S/C13H12N2O2/c14-13(16)15-10-6-8-12(9-7-10)17-11-4-2-1-3-5-11/h1-9H,(H3,14,15,16)

> <InChI Key_QSARr>
ABBMQADJUMXTAJ-UHFFFAOYSA-N

> <LogKOC>
2.56

$$$$
100736
  -INDIGO-08031722282D

 21 21  0  0  0  0  0  0  0  0999 V2000
   -5.5425   -0.0000    0.0000 C   0  0  0  0  0  0  0  0  0  0  0  0
   -5.5425   -1.6000    0.0000 O   0  0  0  0  0  0  0  0  0  0  0  0
   -4.1569    0.8000    0.0000 N   0  0  0  0  0  0  0  0  0  0  0  0
   -4.1569    2.4000    0.0000 H   0  0  0  0  0  0  0  0  0  0  0  0
   -2.7712   -0.0000    0.0000 C   0  0  0  0  0  0  0  0  0  0  0  0
   -2.7712   -1.6000    0.0000 C   0  0  0  0  0  0  0  0  0  0  0  0
   -4.1569   -2.4000    0.0000 H   0  0  0  0  0  0  0  0  0  0  0  0
   -1.3857   -2.4000    0.0000 C   0  0  0  0  0  0  0  0  0  0  0  0
   -1.3857   -4.0000    0.0000 H   0  0  0  0  0  0  0  0  0  0  0  0
   -0.0000   -1.6000    0.0000 C   0  0  0  0  0  0  0  0  0  0  0  0
    1.3856   -2.4000    0.0000 F   0  0  0  0  0  0  0  0  0  0  0  0
   -0.0000   -0.0000    0.0000 C   0  0  0  0  0  0  0  0  0  0  0  0
    1.3856    0.8000    0.0000 C   0  0  0  0  0  0  0  0  0  0  0  0
    2.7713    1.6000    0.0000 H   0  0  0  0  0  0  0  0  0  0  0  0
    2.7713   -0.0000    0.0000 H   0  0  0  0  0  0  0  0  0  0  0  0
    1.3856    2.4000    0.0000 H   0  0  0  0  0  0  0  0  0  0  0  0
   -1.3857    0.8000    0.0000 C   0  0  0  0  0  0  0  0  0  0  0  0
   -1.3857    2.4000    0.0000 H   0  0  0  0  0  0  0  0  0  0  0  0
   -6.9282    0.8000    0.0000 N   0  0  0  0  0  0  0  0  0  0  0  0
   -8.3138   -0.0000    0.0000 H   0  0  0  0  0  0  0  0  0  0  0  0
   -6.9282    2.4000    0.0000 H   0  0  0  0  0  0  0  0  0  0  0  0
  1  2  2  0  0  0  0
  1  3  1  0  0  0  0
  3  4  1  0  0  0  0
  3  5  1  0  0  0  0
  5  6  1  0  0  0  0
  6  7  1  0  0  0  0
  6  8  2  0  0  0  0
  8  9  1  0  0  0  0
  8 10  1  0  0  0  0
 10 11  1  0  0  0  0
 10 12  2  0  0  0  0
 12 13  1  0  0  0  0
 13 14  1  0  0  0  0
 13 15  1  0  0  0  0
 13 16  1  0  0  0  0
 12 17  1  0  0  0  0
 17  5  2  0  0  0  0
 17 18  1  0  0  0  0
  1 19  1  0  0  0  0
 19 20  1  0  0  0  0
 19 21  1  0  0  0  0
M  END
> <ChemID>
100736

> <source_casrn>
78508-45-9

> <CAS>
78508-45-9

> <SMILES>
c1c(F)c(C)cc(NC(=O)N)c1

> <NAME>
(4-FLUORO-3-METHYLPHENYL)UREA

> <preferred_name>


> <iupac>


> <MPID>
99981

> <dsstox_substance_id>
DTXSID90879404

> <Canonical_QSARr>
Cc1cc(ccc1F)NC(N)=O

> <InChI_Code_QSARr>
InChI=1S/C8H9FN2O/c1-5-4-6(11-8(10)12)2-3-7(5)9/h2-4H,1H3,(H3,10,11,12)

> <InChI Key_QSARr>
FPZGSLWNDUCKEA-UHFFFAOYSA-N

> <LogKOC>
1.75

$$$$
100737
  -INDIGO-08031722282D

 21 21  0  0  0  0  0  0  0  0999 V2000
    1.3856    2.4000    0.0000 Br  0  0  0  0  0  0  0  0  0  0  0  0
   -0.0000    1.6000    0.0000 C   0  0  0  0  0  0  0  0  0  0  0  0
   -0.0000    0.0000    0.0000 C   0  0  0  0  0  0  0  0  0  0  0  0
    1.3856   -0.8000    0.0000 C   0  0  0  0  0  0  0  0  0  0  0  0
    2.7713   -1.6000    0.0000 H   0  0  0  0  0  0  0  0  0  0  0  0
    2.7713    0.0000    0.0000 H   0  0  0  0  0  0  0  0  0  0  0  0
    1.3856   -2.4000    0.0000 H   0  0  0  0  0  0  0  0  0  0  0  0
   -1.3857   -0.8000    0.0000 C   0  0  0  0  0  0  0  0  0  0  0  0
   -1.3857   -2.4000    0.0000 H   0  0  0  0  0  0  0  0  0  0  0  0
   -2.7714    0.0000    0.0000 C   0  0  0  0  0  0  0  0  0  0  0  0
   -4.1569   -0.8000    0.0000 N   0  0  0  0  0  0  0  0  0  0  0  0
   -4.1569   -2.4000    0.0000 H   0  0  0  0  0  0  0  0  0  0  0  0
   -5.5425    0.0000    0.0000 C   0  0  0  0  0  0  0  0  0  0  0  0
   -5.5425    1.6000    0.0000 O   0  0  0  0  0  0  0  0  0  0  0  0
   -6.9282   -0.8000    0.0000 N   0  0  0  0  0  0  0  0  0  0  0  0
   -8.3138    0.0000    0.0000 H   0  0  0  0  0  0  0  0  0  0  0  0
   -6.9282   -2.4000    0.0000 H   0  0  0  0  0  0  0  0  0  0  0  0
   -2.7712    1.6000    0.0000 C   0  0  0  0  0  0  0  0  0  0  0  0
   -4.1569    2.4000    0.0000 H   0  0  0  0  0  0  0  0  0  0  0  0
   -1.3857    2.4000    0.0000 C   0  0  0  0  0  0  0  0  0  0  0  0
   -1.3857    4.0000    0.0000 H   0  0  0  0  0  0  0  0  0  0  0  0
  1  2  1  0  0  0  0
  2  3  1  0  0  0  0
  3  4  1  0  0  0  0
  4  5  1  0  0  0  0
  4  6  1  0  0  0  0
  4  7  1  0  0  0  0
  3  8  2  0  0  0  0
  8  9  1  0  0  0  0
  8 10  1  0  0  0  0
 10 11  1  0  0  0  0
 11 12  1  0  0  0  0
 11 13  1  0  0  0  0
 13 14  2  0  0  0  0
 13 15  1  0  0  0  0
 15 16  1  0  0  0  0
 15 17  1  0  0  0  0
 10 18  2  0  0  0  0
 18 19  1  0  0  0  0
 18 20  1  0  0  0  0
 20  2  2  0  0  0  0
 20 21  1  0  0  0  0
M  END
> <ChemID>
100737

> <source_casrn>
78508-46-0

> <CAS>
78508-46-0

> <SMILES>
Cc1cc(ccc1Br)NC(N)=O

> <NAME>
(3-METHYL-4-BROMOPHENYL)UREA

> <preferred_name>
(3-Methyl-4-bromophenyl)urea

> <iupac>
(4-bromo-3-methylphenyl)urea

> <MPID>
99982

> <dsstox_substance_id>
DTXSID10229129

> <Canonical_QSARr>
Cc1cc(ccc1Br)NC(N)=O

> <InChI_Code_QSARr>
InChI=1S/C8H9BrN2O/c1-5-4-6(11-8(10)12)2-3-7(5)9/h2-4H,1H3,(H3,10,11,12)

> <InChI Key_QSARr>
CRGNBCADENCADB-UHFFFAOYSA-N

> <LogKOC>
2.37

$$$$
100741
  -INDIGO-08031722282D

 38 39  0  0  0  0  0  0  0  0999 V2000
   -2.3651    1.0530    0.0000 S   0  0  0  0  0  0  0  0  0  0  0  0
   -1.2943    2.2420    0.0000 C   0  0  0  0  0  0  0  0  0  0  0  0
   -1.6272    3.8070    0.0000 H   0  0  0  0  0  0  0  0  0  0  0  0
    0.1672    1.5912    0.0000 C   0  0  0  0  0  0  0  0  0  0  0  0
    1.5530    2.3912    0.0000 H   0  0  0  0  0  0  0  0  0  0  0  0
    0.0000    0.0000    0.0000 C   0  0  0  0  0  0  0  0  0  0  0  0
    1.1890   -1.0706    0.0000 S   0  0  0  0  0  0  0  0  0  0  0  0
    2.2595    0.1184    0.0000 O   0  0  0  0  0  0  0  0  0  0  0  0
    0.1184   -2.2596    0.0000 O   0  0  0  0  0  0  0  0  0  0  0  0
    2.3780   -2.1412    0.0000 N   0  0  0  0  0  0  0  0  0  0  0  0
    2.0454   -3.7062    0.0000 H   0  0  0  0  0  0  0  0  0  0  0  0
    3.8999   -1.6467    0.0000 C   0  0  0  0  0  0  0  0  0  0  0  0
    4.2325   -0.0817    0.0000 O   0  0  0  0  0  0  0  0  0  0  0  0
    5.0889   -2.7175    0.0000 N   0  0  0  0  0  0  0  0  0  0  0  0
    4.7563   -4.2824    0.0000 H   0  0  0  0  0  0  0  0  0  0  0  0
    6.6105   -2.2230    0.0000 C   0  0  0  0  0  0  0  0  0  0  0  0
    6.9431   -0.6580    0.0000 N   0  0  0  0  0  0  0  0  0  0  0  0
    8.4647   -0.1635    0.0000 C   0  0  0  0  0  0  0  0  0  0  0  0
    8.7973    1.4015    0.0000 C   0  0  0  0  0  0  0  0  0  0  0  0
    9.1303    2.9666    0.0000 H   0  0  0  0  0  0  0  0  0  0  0  0
   10.3193    1.8960    0.0000 H   0  0  0  0  0  0  0  0  0  0  0  0
    7.6083    2.4721    0.0000 H   0  0  0  0  0  0  0  0  0  0  0  0
    9.6537   -1.2341    0.0000 N   0  0  0  0  0  0  0  0  0  0  0  0
    9.3211   -2.7992    0.0000 C   0  0  0  0  0  0  0  0  0  0  0  0
   10.5101   -3.8698    0.0000 O   0  0  0  0  0  0  0  0  0  0  0  0
   12.0320   -3.3753    0.0000 C   0  0  0  0  0  0  0  0  0  0  0  0
   13.2210   -4.4459    0.0000 H   0  0  0  0  0  0  0  0  0  0  0  0
   13.5536   -2.8809    0.0000 H   0  0  0  0  0  0  0  0  0  0  0  0
   12.3646   -1.8103    0.0000 H   0  0  0  0  0  0  0  0  0  0  0  0
    7.7995   -3.2936    0.0000 N   0  0  0  0  0  0  0  0  0  0  0  0
   -1.5650   -0.3326    0.0000 C   0  0  0  0  0  0  0  0  0  0  0  0
   -2.2159   -1.7944    0.0000 C   0  0  0  0  0  0  0  0  0  0  0  0
   -1.2754   -3.0887    0.0000 O   0  0  0  0  0  0  0  0  0  0  0  0
   -3.8072   -1.9616    0.0000 O   0  0  0  0  0  0  0  0  0  0  0  0
   -4.4578   -3.4232    0.0000 C   0  0  0  0  0  0  0  0  0  0  0  0
   -5.1086   -4.8849    0.0000 H   0  0  0  0  0  0  0  0  0  0  0  0
   -6.0491   -3.5904    0.0000 H   0  0  0  0  0  0  0  0  0  0  0  0
   -3.5173   -4.7177    0.0000 H   0  0  0  0  0  0  0  0  0  0  0  0
  1  2  1  0  0  0  0
  2  3  1  0  0  0  0
  2  4  2  0  0  0  0
  4  5  1  0  0  0  0
  4  6  1  0  0  0  0
  6  7  1  0  0  0  0
  7  8  2  0  0  0  0
  7  9  2  0  0  0  0
  7 10  1  0  0  0  0
 10 11  1  0  0  0  0
 10 12  1  0  0  0  0
 12 13  2  0  0  0  0
 12 14  1  0  0  0  0
 14 15  1  0  0  0  0
 14 16  1  0  0  0  0
 16 17  1  0  0  0  0
 17 18  2  0  0  0  0
 18 19  1  0  0  0  0
 19 20  1  0  0  0  0
 19 21  1  0  0  0  0
 19 22  1  0  0  0  0
 18 23  1  0  0  0  0
 23 24  2  0  0  0  0
 24 25  1  0  0  0  0
 25 26  1  0  0  0  0
 26 27  1  0  0  0  0
 26 28  1  0  0  0  0
 26 29  1  0  0  0  0
 24 30  1  0  0  0  0
 30 16  2  0  0  0  0
  6 31  2  0  0  0  0
 31  1  1  0  0  0  0
 31 32  1  0  0  0  0
 32 33  2  0  0  0  0
 32 34  1  0  0  0  0
 34 35  1  0  0  0  0
 35 36  1  0  0  0  0
 35 37  1  0  0  0  0
 35 38  1  0  0  0  0
M  END
> <ChemID>
100741

> <source_casrn>
79277-27-3

> <CAS>
79277-27-3

> <SMILES>
Cc1[n]c(NC(=O)NS(=O)(=O)c2cc[s]c2C(=O)OC)[n]c([n]1)OC

> <NAME>
HARMONY

> <preferred_name>
Thifensulfuron-methyl

> <iupac>
methyl 3-{[(4-methoxy-6-methyl-1,3,5-triazin-2-yl)carbamoyl]sulfamoyl}thiophene-2-carboxylate

> <MPID>
99986

> <dsstox_substance_id>
DTXSID1024124

> <Canonical_QSARr>
Cc1[n]c(NC(=O)NS(=O)(=O)c2cc[s]c2C(=O)OC)[n]c([n]1)OC

> <InChI_Code_QSARr>
InChI=1S/C12H13N5O6S2/c1-6-13-10(16-12(14-6)23-3)15-11(19)17-25(20,21)7-4-5-24-8(7)9(18)22-2/h4-5H,1-3H3,(H2,13,14,15,16,17,19)

> <InChI Key_QSARr>
AHTPATJNIAFOLR-UHFFFAOYSA-N

> <LogKOC>
1.45

$$$$
100742
  -INDIGO-08031722282D

 27 27  0  0  0  0  0  0  0  0999 V2000
   -8.8000   -1.3856    0.0000 Br  0  0  0  0  0  0  0  0  0  0  0  0
   -7.2000   -1.3856    0.0000 C   0  0  0  0  0  0  0  0  0  0  0  0
   -6.4000    0.0000    0.0000 C   0  0  0  0  0  0  0  0  0  0  0  0
   -7.2000    1.3856    0.0000 H   0  0  0  0  0  0  0  0  0  0  0  0
   -4.8000    0.0000    0.0000 C   0  0  0  0  0  0  0  0  0  0  0  0
   -4.0000    1.3856    0.0000 H   0  0  0  0  0  0  0  0  0  0  0  0
   -4.0000   -1.3856    0.0000 C   0  0  0  0  0  0  0  0  0  0  0  0
   -2.4000   -1.3856    0.0000 C   0  0  0  0  0  0  0  0  0  0  0  0
   -1.6000   -2.7713    0.0000 O   0  0  0  0  0  0  0  0  0  0  0  0
   -1.6000    0.0000    0.0000 N   0  0  0  0  0  0  0  0  0  0  0  0
   -2.4000    1.3856    0.0000 H   0  0  0  0  0  0  0  0  0  0  0  0
    0.0000    0.0000    0.0000 C   0  0  0  0  0  0  0  0  0  0  0  0
    1.6000    0.0000    0.0000 C   0  0  0  0  0  0  0  0  0  0  0  0
    3.2000    0.0000    0.0000 H   0  0  0  0  0  0  0  0  0  0  0  0
    2.4000    1.3856    0.0000 H   0  0  0  0  0  0  0  0  0  0  0  0
    2.4000   -1.3856    0.0000 H   0  0  0  0  0  0  0  0  0  0  0  0
    0.0000    1.6000    0.0000 C   0  0  0  0  0  0  0  0  0  0  0  0
    0.0000    3.2000    0.0000 H   0  0  0  0  0  0  0  0  0  0  0  0
    1.3856    2.4001    0.0000 H   0  0  0  0  0  0  0  0  0  0  0  0
   -1.3856    2.4001    0.0000 H   0  0  0  0  0  0  0  0  0  0  0  0
    0.0000   -1.6000    0.0000 C   0  0  0  0  0  0  0  0  0  0  0  0
    0.0000   -3.2000    0.0000 C   0  0  0  0  0  0  0  0  0  0  0  0
    0.0000   -4.8000    0.0000 H   0  0  0  0  0  0  0  0  0  0  0  0
   -4.8000   -2.7713    0.0000 C   0  0  0  0  0  0  0  0  0  0  0  0
   -4.0000   -4.1569    0.0000 H   0  0  0  0  0  0  0  0  0  0  0  0
   -6.4000   -2.7713    0.0000 C   0  0  0  0  0  0  0  0  0  0  0  0
   -7.2000   -4.1569    0.0000 H   0  0  0  0  0  0  0  0  0  0  0  0
  1  2  1  0  0  0  0
  2  3  1  0  0  0  0
  3  4  1  0  0  0  0
  3  5  2  0  0  0  0
  5  6  1  0  0  0  0
  5  7  1  0  0  0  0
  7  8  1  0  0  0  0
  8  9  2  0  0  0  0
  8 10  1  0  0  0  0
 10 11  1  0  0  0  0
 10 12  1  0  0  0  0
 12 13  1  0  0  0  0
 13 14  1  0  0  0  0
 13 15  1  0  0  0  0
 13 16  1  0  0  0  0
 12 17  1  0  0  0  0
 17 18  1  0  0  0  0
 17 19  1  0  0  0  0
 17 20  1  0  0  0  0
 12 21  1  0  0  0  0
 21 22  3  0  0  0  0
 22 23  1  0  0  0  0
  7 24  2  0  0  0  0
 24 25  1  0  0  0  0
 24 26  1  0  0  0  0
 26  2  2  0  0  0  0
 26 27  1  0  0  0  0
M  END
> <ChemID>
100742

> <source_casrn>
80045-50-7

> <CAS>
80045-50-7

> <SMILES>
C#CC(NC(=O)c1ccc(cc1)Br)(C)C

> <NAME>
BROMOPROPYZAMIDE

> <preferred_name>
Bromopropyzamide

> <iupac>
4-bromo-N-(2-methylbut-3-yn-2-yl)benzamide

> <MPID>
99987

> <dsstox_substance_id>
DTXSID20230044

> <Canonical_QSARr>
CC(C)(C#C)NC(=O)c1ccc(Br)cc1

> <InChI_Code_QSARr>
InChI=1S/C12H12BrNO/c1-4-12(2,3)14-11(15)9-5-7-10(13)8-6-9/h1,5-8H,2-3H3,(H,14,15)

> <InChI Key_QSARr>
GNFQHXMPSRUKIS-UHFFFAOYSA-N

> <LogKOC>
2.01

$$$$
100743
  -INDIGO-08031722282D

 27 27  0  0  0  0  0  0  0  0999 V2000
   -8.8000   -1.3856    0.0000 F   0  0  0  0  0  0  0  0  0  0  0  0
   -7.2000   -1.3856    0.0000 C   0  0  0  0  0  0  0  0  0  0  0  0
   -6.4000    0.0000    0.0000 C   0  0  0  0  0  0  0  0  0  0  0  0
   -7.2000    1.3856    0.0000 H   0  0  0  0  0  0  0  0  0  0  0  0
   -4.8000    0.0000    0.0000 C   0  0  0  0  0  0  0  0  0  0  0  0
   -4.0000    1.3856    0.0000 H   0  0  0  0  0  0  0  0  0  0  0  0
   -4.0000   -1.3856    0.0000 C   0  0  0  0  0  0  0  0  0  0  0  0
   -2.4000   -1.3856    0.0000 C   0  0  0  0  0  0  0  0  0  0  0  0
   -1.6000   -2.7713    0.0000 O   0  0  0  0  0  0  0  0  0  0  0  0
   -1.6000    0.0000    0.0000 N   0  0  0  0  0  0  0  0  0  0  0  0
   -2.4000    1.3856    0.0000 H   0  0  0  0  0  0  0  0  0  0  0  0
    0.0000    0.0000    0.0000 C   0  0  0  0  0  0  0  0  0  0  0  0
    1.6000    0.0000    0.0000 C   0  0  0  0  0  0  0  0  0  0  0  0
    3.2000    0.0000    0.0000 H   0  0  0  0  0  0  0  0  0  0  0  0
    2.4000    1.3856    0.0000 H   0  0  0  0  0  0  0  0  0  0  0  0
    2.4000   -1.3856    0.0000 H   0  0  0  0  0  0  0  0  0  0  0  0
    0.0000    1.6000    0.0000 C   0  0  0  0  0  0  0  0  0  0  0  0
    0.0000    3.2000    0.0000 H   0  0  0  0  0  0  0  0  0  0  0  0
    1.3856    2.4001    0.0000 H   0  0  0  0  0  0  0  0  0  0  0  0
   -1.3856    2.4001    0.0000 H   0  0  0  0  0  0  0  0  0  0  0  0
    0.0000   -1.6000    0.0000 C   0  0  0  0  0  0  0  0  0  0  0  0
    0.0000   -3.2000    0.0000 C   0  0  0  0  0  0  0  0  0  0  0  0
    0.0000   -4.8000    0.0000 H   0  0  0  0  0  0  0  0  0  0  0  0
   -4.8000   -2.7713    0.0000 C   0  0  0  0  0  0  0  0  0  0  0  0
   -4.0000   -4.1569    0.0000 H   0  0  0  0  0  0  0  0  0  0  0  0
   -6.4000   -2.7713    0.0000 C   0  0  0  0  0  0  0  0  0  0  0  0
   -7.2000   -4.1569    0.0000 H   0  0  0  0  0  0  0  0  0  0  0  0
  1  2  1  0  0  0  0
  2  3  1  0  0  0  0
  3  4  1  0  0  0  0
  3  5  2  0  0  0  0
  5  6  1  0  0  0  0
  5  7  1  0  0  0  0
  7  8  1  0  0  0  0
  8  9  2  0  0  0  0
  8 10  1  0  0  0  0
 10 11  1  0  0  0  0
 10 12  1  0  0  0  0
 12 13  1  0  0  0  0
 13 14  1  0  0  0  0
 13 15  1  0  0  0  0
 13 16  1  0  0  0  0
 12 17  1  0  0  0  0
 17 18  1  0  0  0  0
 17 19  1  0  0  0  0
 17 20  1  0  0  0  0
 12 21  1  0  0  0  0
 21 22  3  0  0  0  0
 22 23  1  0  0  0  0
  7 24  2  0  0  0  0
 24 25  1  0  0  0  0
 24 26  1  0  0  0  0
 26  2  2  0  0  0  0
 26 27  1  0  0  0  0
M  END
> <ChemID>
100743

> <source_casrn>
80045-51-8

> <CAS>
80045-51-8

> <SMILES>
C#CC(NC(=O)c1ccc(cc1)F)(C)C

> <NAME>
FLUOROPROPYZAMIDE

> <preferred_name>
Fluoropropyzamide

> <iupac>
4-fluoro-N-(2-methylbut-3-yn-2-yl)benzamide

> <MPID>
99988

> <dsstox_substance_id>
DTXSID80230045

> <Canonical_QSARr>
CC(C)(C#C)NC(=O)c1ccc(F)cc1

> <InChI_Code_QSARr>
InChI=1S/C12H12FNO/c1-4-12(2,3)14-11(15)9-5-7-10(13)8-6-9/h1,5-8H,2-3H3,(H,14,15)

> <InChI Key_QSARr>
PTBZQKPCPZYJDD-UHFFFAOYSA-N

> <LogKOC>
1.68

$$$$
100745
  -INDIGO-08031722282D

 34 35  0  0  0  0  0  0  0  0999 V2000
   -2.5324   -0.5382    0.0000 C   0  0  0  0  0  0  0  0  0  0  0  0
   -1.4617    0.6508    0.0000 N   0  0  0  0  0  0  0  0  0  0  0  0
    0.0001    0.0000    0.0000 C   0  0  0  0  0  0  0  0  0  0  0  0
    0.4944    1.5217    0.0000 C   0  0  0  0  0  0  0  0  0  0  0  0
   -1.0899    1.7444    0.0000 H   0  0  0  0  0  0  0  0  0  0  0  0
    0.4386    3.1207    0.0000 C   0  0  0  0  0  0  0  0  0  0  0  0
    0.3828    4.7198    0.0000 H   0  0  0  0  0  0  0  0  0  0  0  0
   -0.9741    3.8718    0.0000 H   0  0  0  0  0  0  0  0  0  0  0  0
    1.7955    3.9686    0.0000 H   0  0  0  0  0  0  0  0  0  0  0  0
    2.0788    1.2990    0.0000 C   0  0  0  0  0  0  0  0  0  0  0  0
    3.0640    2.5598    0.0000 H   0  0  0  0  0  0  0  0  0  0  0  0
    3.6633    1.0763    0.0000 H   0  0  0  0  0  0  0  0  0  0  0  0
    1.4795    2.7826    0.0000 H   0  0  0  0  0  0  0  0  0  0  0  0
    1.4835   -0.5994    0.0000 C   0  0  0  0  0  0  0  0  0  0  0  0
    2.9670   -1.1987    0.0000 H   0  0  0  0  0  0  0  0  0  0  0  0
    1.7062   -2.1837    0.0000 H   0  0  0  0  0  0  0  0  0  0  0  0
    2.7443    0.3857    0.0000 H   0  0  0  0  0  0  0  0  0  0  0  0
   -0.1673   -1.5912    0.0000 C   0  0  0  0  0  0  0  0  0  0  0  0
    0.8179   -2.8521    0.0000 O   0  0  0  0  0  0  0  0  0  0  0  0
   -1.7324   -1.9239    0.0000 N   0  0  0  0  0  0  0  0  0  0  0  0
   -2.3830   -3.3856    0.0000 H   0  0  0  0  0  0  0  0  0  0  0  0
   -4.1235   -0.3710    0.0000 C   0  0  0  0  0  0  0  0  0  0  0  0
   -4.7742    1.0906    0.0000 C   0  0  0  0  0  0  0  0  0  0  0  0
   -3.8339    2.3851    0.0000 C   0  0  0  0  0  0  0  0  0  0  0  0
   -2.2426    2.2179    0.0000 O   0  0  0  0  0  0  0  0  0  0  0  0
   -4.4846    3.8467    0.0000 O   0  0  0  0  0  0  0  0  0  0  0  0
   -3.5441    5.1412    0.0000 H   0  0  0  0  0  0  0  0  0  0  0  0
   -6.3656    1.2579    0.0000 C   0  0  0  0  0  0  0  0  0  0  0  0
   -7.0163    2.7196    0.0000 H   0  0  0  0  0  0  0  0  0  0  0  0
   -7.3061   -0.0365    0.0000 C   0  0  0  0  0  0  0  0  0  0  0  0
   -8.8972    0.1308    0.0000 H   0  0  0  0  0  0  0  0  0  0  0  0
   -6.6552   -1.4982    0.0000 C   0  0  0  0  0  0  0  0  0  0  0  0
   -7.5957   -2.7927    0.0000 H   0  0  0  0  0  0  0  0  0  0  0  0
   -5.0640   -1.6654    0.0000 N   0  0  0  0  0  0  0  0  0  0  0  0
  1  2  2  0  0  0  0
  2  3  1  0  0  0  0
  3  4  1  0  0  0  0
  4  5  1  0  0  0  0
  4  6  1  0  0  0  0
  6  7  1  0  0  0  0
  6  8  1  0  0  0  0
  6  9  1  0  0  0  0
  4 10  1  0  0  0  0
 10 11  1  0  0  0  0
 10 12  1  0  0  0  0
 10 13  1  0  0  0  0
  3 14  1  0  0  0  0
 14 15  1  0  0  0  0
 14 16  1  0  0  0  0
 14 17  1  0  0  0  0
  3 18  1  0  0  0  0
 18 19  2  0  0  0  0
 18 20  1  0  0  0  0
 20  1  1  0  0  0  0
 20 21  1  0  0  0  0
  1 22  1  0  0  0  0
 22 23  1  0  0  0  0
 23 24  1  0  0  0  0
 24 25  2  0  0  0  0
 24 26  1  0  0  0  0
 26 27  1  0  0  0  0
 23 28  2  0  0  0  0
 28 29  1  0  0  0  0
 28 30  1  0  0  0  0
 30 31  1  0  0  0  0
 30 32  2  0  0  0  0
 32 33  1  0  0  0  0
 32 34  1  0  0  0  0
 34 22  2  0  0  0  0
M  END
> <ChemID>
100745

> <source_casrn>
81334-34-1

> <CAS>
81334-34-1

> <SMILES>
CC1(N=C(NC1=O)c1[n]cccc1C(O)=O)C(C)C

> <NAME>
IMAZAPYR

> <preferred_name>
Imazapyr

> <iupac>
2-[4-methyl-5-oxo-4-(propan-2-yl)-4,5-dihydro-1H-imidazol-2-yl]pyridine-3-carboxylic acid

> <MPID>
99990

> <dsstox_substance_id>
DTXSID8034665

> <Canonical_QSARr>
CC1(N=C(NC1=O)c1[n]cccc1C(O)=O)C(C)C

> <InChI_Code_QSARr>
InChI=1S/C13H15N3O3/c1-7(2)13(3)12(19)15-10(16-13)9-8(11(17)18)5-4-6-14-9/h4-7H,1-3H3,(H,17,18)(H,15,16,19)

> <InChI Key_QSARr>
CLQMBPJKHLGMQK-UHFFFAOYSA-N

> <LogKOC>
2.0

$$$$
100746
  -INDIGO-08031722282D

 40 42  0  0  0  0  0  0  0  0999 V2000
   -2.4622   -0.8001    0.0000 C   0  0  0  0  0  0  0  0  0  0  0  0
   -1.5217    0.4944    0.0000 N   0  0  0  0  0  0  0  0  0  0  0  0
    0.0000    0.0001    0.0000 C   0  0  0  0  0  0  0  0  0  0  0  0
    1.5913   -0.1672    0.0000 C   0  0  0  0  0  0  0  0  0  0  0  0
    1.2042    1.3852    0.0000 H   0  0  0  0  0  0  0  0  0  0  0  0
    3.0528    0.4836    0.0000 C   0  0  0  0  0  0  0  0  0  0  0  0
    4.5146    1.1344    0.0000 H   0  0  0  0  0  0  0  0  0  0  0  0
    4.3473   -0.4570    0.0000 H   0  0  0  0  0  0  0  0  0  0  0  0
    3.2201    2.0748    0.0000 H   0  0  0  0  0  0  0  0  0  0  0  0
    1.9784   -1.7198    0.0000 C   0  0  0  0  0  0  0  0  0  0  0  0
    3.5162   -2.1607    0.0000 H   0  0  0  0  0  0  0  0  0  0  0  0
    2.3653   -3.2722    0.0000 H   0  0  0  0  0  0  0  0  0  0  0  0
    3.1291   -0.6082    0.0000 H   0  0  0  0  0  0  0  0  0  0  0  0
    0.0559    1.5991    0.0000 C   0  0  0  0  0  0  0  0  0  0  0  0
    0.1117    3.1980    0.0000 H   0  0  0  0  0  0  0  0  0  0  0  0
   -1.3012    2.4469    0.0000 H   0  0  0  0  0  0  0  0  0  0  0  0
    1.4685    2.3502    0.0000 H   0  0  0  0  0  0  0  0  0  0  0  0
    0.0000   -1.6000    0.0000 C   0  0  0  0  0  0  0  0  0  0  0  0
    1.2945   -2.5404    0.0000 O   0  0  0  0  0  0  0  0  0  0  0  0
   -1.5217   -2.0944    0.0000 N   0  0  0  0  0  0  0  0  0  0  0  0
   -2.0161   -3.6161    0.0000 H   0  0  0  0  0  0  0  0  0  0  0  0
   -4.0622   -0.8001    0.0000 C   0  0  0  0  0  0  0  0  0  0  0  0
   -4.8621    0.5857    0.0000 C   0  0  0  0  0  0  0  0  0  0  0  0
   -4.0622    1.9713    0.0000 C   0  0  0  0  0  0  0  0  0  0  0  0
   -2.4622    1.9713    0.0000 O   0  0  0  0  0  0  0  0  0  0  0  0
   -4.8621    3.3569    0.0000 O   0  0  0  0  0  0  0  0  0  0  0  0
   -4.0622    4.7426    0.0000 H   0  0  0  0  0  0  0  0  0  0  0  0
   -6.4621    0.5857    0.0000 C   0  0  0  0  0  0  0  0  0  0  0  0
   -7.2621    1.9713    0.0000 H   0  0  0  0  0  0  0  0  0  0  0  0
   -7.2621   -0.8001    0.0000 C   0  0  0  0  0  0  0  0  0  0  0  0
   -6.4621   -2.1857    0.0000 C   0  0  0  0  0  0  0  0  0  0  0  0
   -7.2621   -3.5713    0.0000 C   0  0  0  0  0  0  0  0  0  0  0  0
   -6.4621   -4.9569    0.0000 H   0  0  0  0  0  0  0  0  0  0  0  0
   -8.8622   -3.5713    0.0000 C   0  0  0  0  0  0  0  0  0  0  0  0
   -9.6622   -4.9569    0.0000 H   0  0  0  0  0  0  0  0  0  0  0  0
   -9.6622   -2.1857    0.0000 C   0  0  0  0  0  0  0  0  0  0  0  0
  -11.2621   -2.1857    0.0000 H   0  0  0  0  0  0  0  0  0  0  0  0
   -8.8622   -0.8001    0.0000 C   0  0  0  0  0  0  0  0  0  0  0  0
   -9.6622    0.5857    0.0000 H   0  0  0  0  0  0  0  0  0  0  0  0
   -4.8621   -2.1857    0.0000 N   0  0  0  0  0  0  0  0  0  0  0  0
  1  2  2  0  0  0  0
  2  3  1  0  0  0  0
  3  4  1  0  0  0  0
  4  5  1  0  0  0  0
  4  6  1  0  0  0  0
  6  7  1  0  0  0  0
  6  8  1  0  0  0  0
  6  9  1  0  0  0  0
  4 10  1  0  0  0  0
 10 11  1  0  0  0  0
 10 12  1  0  0  0  0
 10 13  1  0  0  0  0
  3 14  1  0  0  0  0
 14 15  1  0  0  0  0
 14 16  1  0  0  0  0
 14 17  1  0  0  0  0
  3 18  1  0  0  0  0
 18 19  2  0  0  0  0
 18 20  1  0  0  0  0
 20  1  1  0  0  0  0
 20 21  1  0  0  0  0
  1 22  1  0  0  0  0
 22 23  1  0  0  0  0
 23 24  1  0  0  0  0
 24 25  2  0  0  0  0
 24 26  1  0  0  0  0
 26 27  1  0  0  0  0
 23 28  2  0  0  0  0
 28 29  1  0  0  0  0
 28 30  1  0  0  0  0
 30 31  1  0  0  0  0
 31 32  2  0  0  0  0
 32 33  1  0  0  0  0
 32 34  1  0  0  0  0
 34 35  1  0  0  0  0
 34 36  2  0  0  0  0
 36 37  1  0  0  0  0
 36 38  1  0  0  0  0
 38 30  2  0  0  0  0
 38 39  1  0  0  0  0
 31 40  1  0  0  0  0
 40 22  2  0  0  0  0
M  END
> <ChemID>
100746

> <source_casrn>
81335-37-7

> <CAS>
81335-37-7

> <SMILES>
CC(C)C1(C)N=C(NC1=O)c1[n]c2ccccc2cc1C(O)=O

> <NAME>
Imazaquin

> <preferred_name>
Imazaquin

> <iupac>
2-[4-methyl-5-oxo-4-(propan-2-yl)-4,5-dihydro-1H-imidazol-2-yl]quinoline-3-carboxylic acid

> <MPID>
99991

> <dsstox_substance_id>
DTXSID3024152

> <Canonical_QSARr>
CC(C)C1(C)N=C(NC1=O)c1[n]c2ccccc2cc1C(O)=O

> <InChI_Code_QSARr>
InChI=1S/C17H17N3O3/c1-9(2)17(3)16(23)19-14(20-17)13-11(15(21)22)8-10-6-4-5-7-12(10)18-13/h4-9H,1-3H3,(H,21,22)(H,19,20,23)

> <InChI Key_QSARr>
CABMTIJINOIHOD-UHFFFAOYSA-N

> <LogKOC>
1.3

$$$$
100747
  -INDIGO-08031722282D

 40 41  0  0  0  0  0  0  0  0999 V2000
    5.0639   -1.6654    0.0000 N   0  0  0  0  0  0  0  0  0  0  0  0
    6.6552   -1.4982    0.0000 C   0  0  0  0  0  0  0  0  0  0  0  0
    7.5957   -2.7927    0.0000 H   0  0  0  0  0  0  0  0  0  0  0  0
    7.3060   -0.0365    0.0000 C   0  0  0  0  0  0  0  0  0  0  0  0
    8.8973    0.1308    0.0000 C   0  0  0  0  0  0  0  0  0  0  0  0
    8.9390    1.7302    0.0000 H   0  0  0  0  0  0  0  0  0  0  0  0
   10.0578    1.2320    0.0000 H   0  0  0  0  0  0  0  0  0  0  0  0
    9.8376   -1.1637    0.0000 C   0  0  0  0  0  0  0  0  0  0  0  0
   11.4289   -0.9965    0.0000 H   0  0  0  0  0  0  0  0  0  0  0  0
   10.7781   -2.4581    0.0000 H   0  0  0  0  0  0  0  0  0  0  0  0
   10.4884    0.2980    0.0000 H   0  0  0  0  0  0  0  0  0  0  0  0
    6.3655    1.2579    0.0000 C   0  0  0  0  0  0  0  0  0  0  0  0
    7.0163    2.7196    0.0000 H   0  0  0  0  0  0  0  0  0  0  0  0
    4.7744    1.0906    0.0000 C   0  0  0  0  0  0  0  0  0  0  0  0
    3.8339    2.3851    0.0000 C   0  0  0  0  0  0  0  0  0  0  0  0
    2.2426    2.2179    0.0000 O   0  0  0  0  0  0  0  0  0  0  0  0
    4.4847    3.8467    0.0000 O   0  0  0  0  0  0  0  0  0  0  0  0
    3.5442    5.1412    0.0000 H   0  0  0  0  0  0  0  0  0  0  0  0
    4.1236   -0.3710    0.0000 C   0  0  0  0  0  0  0  0  0  0  0  0
    2.5323   -0.5382    0.0000 C   0  0  0  0  0  0  0  0  0  0  0  0
    1.4616    0.6508    0.0000 N   0  0  0  0  0  0  0  0  0  0  0  0
   -0.0000    0.0000    0.0000 C   0  0  0  0  0  0  0  0  0  0  0  0
   -1.4836   -0.5994    0.0000 C   0  0  0  0  0  0  0  0  0  0  0  0
   -2.9669   -1.1987    0.0000 H   0  0  0  0  0  0  0  0  0  0  0  0
   -1.7063   -2.1837    0.0000 H   0  0  0  0  0  0  0  0  0  0  0  0
   -2.7444    0.3857    0.0000 H   0  0  0  0  0  0  0  0  0  0  0  0
   -0.4945    1.5217    0.0000 C   0  0  0  0  0  0  0  0  0  0  0  0
    1.0899    1.7444    0.0000 H   0  0  0  0  0  0  0  0  0  0  0  0
   -0.4385    3.1207    0.0000 C   0  0  0  0  0  0  0  0  0  0  0  0
   -0.3828    4.7198    0.0000 H   0  0  0  0  0  0  0  0  0  0  0  0
    0.9741    3.8718    0.0000 H   0  0  0  0  0  0  0  0  0  0  0  0
   -1.7954    3.9686    0.0000 H   0  0  0  0  0  0  0  0  0  0  0  0
   -2.0789    1.2990    0.0000 C   0  0  0  0  0  0  0  0  0  0  0  0
   -3.0638    2.5598    0.0000 H   0  0  0  0  0  0  0  0  0  0  0  0
   -3.6633    1.0763    0.0000 H   0  0  0  0  0  0  0  0  0  0  0  0
   -1.4794    2.7826    0.0000 H   0  0  0  0  0  0  0  0  0  0  0  0
    0.1672   -1.5912    0.0000 C   0  0  0  0  0  0  0  0  0  0  0  0
   -0.8178   -2.8521    0.0000 O   0  0  0  0  0  0  0  0  0  0  0  0
    1.7322   -1.9239    0.0000 N   0  0  0  0  0  0  0  0  0  0  0  0
    2.3830   -3.3856    0.0000 H   0  0  0  0  0  0  0  0  0  0  0  0
  1  2  1  0  0  0  0
  2  3  1  0  0  0  0
  2  4  2  0  0  0  0
  4  5  1  0  0  0  0
  5  6  1  0  0  0  0
  5  7  1  0  0  0  0
  5  8  1  0  0  0  0
  8  9  1  0  0  0  0
  8 10  1  0  0  0  0
  8 11  1  0  0  0  0
  4 12  1  0  0  0  0
 12 13  1  0  0  0  0
 12 14  2  0  0  0  0
 14 15  1  0  0  0  0
 15 16  2  0  0  0  0
 15 17  1  0  0  0  0
 17 18  1  0  0  0  0
 14 19  1  0  0  0  0
 19  1  2  0  0  0  0
 19 20  1  0  0  0  0
 20 21  2  0  0  0  0
 21 22  1  0  0  0  0
 22 23  1  0  0  0  0
 23 24  1  0  0  0  0
 23 25  1  0  0  0  0
 23 26  1  0  0  0  0
 22 27  1  0  0  0  0
 27 28  1  0  0  0  0
 27 29  1  0  0  0  0
 29 30  1  0  0  0  0
 29 31  1  0  0  0  0
 29 32  1  0  0  0  0
 27 33  1  0  0  0  0
 33 34  1  0  0  0  0
 33 35  1  0  0  0  0
 33 36  1  0  0  0  0
 22 37  1  0  0  0  0
 37 38  2  0  0  0  0
 37 39  1  0  0  0  0
 39 20  1  0  0  0  0
 39 40  1  0  0  0  0
M  END
> <ChemID>
100747

> <source_casrn>
81335-77-5

> <CAS>
81335-77-5

> <SMILES>
CCc1cc(C(O)=O)c([n]c1)C1NC(=O)C(C)(N=1)C(C)C

> <NAME>
Imazethapyr

> <preferred_name>
Imazethapyr

> <iupac>
5-ethyl-2-[4-methyl-5-oxo-4-(propan-2-yl)-4,5-dihydro-1H-imidazol-2-yl]pyridine-3-carboxylic acid

> <MPID>
99992

> <dsstox_substance_id>
DTXSID3024287

> <Canonical_QSARr>
CCc1cc(C(O)=O)c([n]c1)C1NC(=O)C(C)(N=1)C(C)C

> <InChI_Code_QSARr>
InChI=1S/C15H19N3O3/c1-5-9-6-10(13(19)20)11(16-7-9)12-17-14(21)15(4,18-12)8(2)3/h6-8H,5H2,1-4H3,(H,19,20)(H,17,18,21)

> <InChI Key_QSARr>
XVOKUMIPKHGGTN-UHFFFAOYSA-N

> <LogKOC>
0.85

$$$$
100750
  -INDIGO-08031722282D

 42 43  0  0  0  0  0  0  0  0999 V2000
    0.0000    0.0000    0.0000 C   0  0  0  0  0  0  0  0  0  0  0  0
    0.0000   -1.6000    0.0000 C   0  0  0  0  0  0  0  0  0  0  0  0
    1.3856   -2.4000    0.0000 H   0  0  0  0  0  0  0  0  0  0  0  0
   -1.3856   -2.4000    0.0000 C   0  0  0  0  0  0  0  0  0  0  0  0
   -1.3856   -4.0000    0.0000 H   0  0  0  0  0  0  0  0  0  0  0  0
   -2.7712   -1.6000    0.0000 C   0  0  0  0  0  0  0  0  0  0  0  0
   -4.1570   -2.4000    0.0000 H   0  0  0  0  0  0  0  0  0  0  0  0
   -2.7712    0.0000    0.0000 C   0  0  0  0  0  0  0  0  0  0  0  0
   -4.1570    0.8000    0.0000 H   0  0  0  0  0  0  0  0  0  0  0  0
   -1.3856    0.8000    0.0000 C   0  0  0  0  0  0  0  0  0  0  0  0
   -1.3856    2.4000    0.0000 O   0  0  0  0  0  0  0  0  0  0  0  0
   -2.7712    3.2000    0.0000 C   0  0  0  0  0  0  0  0  0  0  0  0
   -4.3576    2.9911    0.0000 H   0  0  0  0  0  0  0  0  0  0  0  0
   -3.7454    1.9307    0.0000 H   0  0  0  0  0  0  0  0  0  0  0  0
   -2.7712    4.8000    0.0000 C   0  0  0  0  0  0  0  0  0  0  0  0
   -2.7712    6.4000    0.0000 H   0  0  0  0  0  0  0  0  0  0  0  0
   -4.1570    5.6000    0.0000 H   0  0  0  0  0  0  0  0  0  0  0  0
   -1.3856    5.6000    0.0000 Cl  0  0  0  0  0  0  0  0  0  0  0  0
    1.3856    0.8000    0.0000 S   0  0  0  0  0  0  0  0  0  0  0  0
    2.1855   -0.5856    0.0000 O   0  0  0  0  0  0  0  0  0  0  0  0
    2.7713    1.6000    0.0000 N   0  0  0  0  0  0  0  0  0  0  0  0
    2.7713    3.2000    0.0000 H   0  0  0  0  0  0  0  0  0  0  0  0
    4.1569    0.8000    0.0000 C   0  0  0  0  0  0  0  0  0  0  0  0
    4.1569   -0.8000    0.0000 O   0  0  0  0  0  0  0  0  0  0  0  0
    5.5425    1.6000    0.0000 N   0  0  0  0  0  0  0  0  0  0  0  0
    5.5425    3.2000    0.0000 H   0  0  0  0  0  0  0  0  0  0  0  0
    6.9281    0.8000    0.0000 C   0  0  0  0  0  0  0  0  0  0  0  0
    8.3139    1.6000    0.0000 N   0  0  0  0  0  0  0  0  0  0  0  0
    9.6996    0.8000    0.0000 C   0  0  0  0  0  0  0  0  0  0  0  0
   11.0852    1.6000    0.0000 C   0  0  0  0  0  0  0  0  0  0  0  0
   12.4708    2.4000    0.0000 H   0  0  0  0  0  0  0  0  0  0  0  0
   12.4708    0.8000    0.0000 H   0  0  0  0  0  0  0  0  0  0  0  0
   11.0852    3.2000    0.0000 H   0  0  0  0  0  0  0  0  0  0  0  0
    9.6996   -0.8000    0.0000 N   0  0  0  0  0  0  0  0  0  0  0  0
    8.3139   -1.6000    0.0000 C   0  0  0  0  0  0  0  0  0  0  0  0
    8.3139   -3.2000    0.0000 O   0  0  0  0  0  0  0  0  0  0  0  0
    9.6996   -4.0000    0.0000 C   0  0  0  0  0  0  0  0  0  0  0  0
   11.0852   -4.8000    0.0000 H   0  0  0  0  0  0  0  0  0  0  0  0
    9.6996   -5.6000    0.0000 H   0  0  0  0  0  0  0  0  0  0  0  0
   11.0852   -3.2000    0.0000 H   0  0  0  0  0  0  0  0  0  0  0  0
    6.9281   -0.8000    0.0000 N   0  0  0  0  0  0  0  0  0  0  0  0
    0.5858    2.1856    0.0000 O   0  0  0  0  0  0  0  0  0  0  0  0
  1  2  1  0  0  0  0
  2  3  1  0  0  0  0
  2  4  2  0  0  0  0
  4  5  1  0  0  0  0
  4  6  1  0  0  0  0
  6  7  1  0  0  0  0
  6  8  2  0  0  0  0
  8  9  1  0  0  0  0
  8 10  1  0  0  0  0
 10  1  2  0  0  0  0
 10 11  1  0  0  0  0
 11 12  1  0  0  0  0
 12 13  1  0  0  0  0
 12 14  1  0  0  0  0
 12 15  1  0  0  0  0
 15 16  1  0  0  0  0
 15 17  1  0  0  0  0
 15 18  1  0  0  0  0
  1 19  1  0  0  0  0
 19 20  2  0  0  0  0
 19 21  1  0  0  0  0
 21 22  1  0  0  0  0
 21 23  1  0  0  0  0
 23 24  2  0  0  0  0
 23 25  1  0  0  0  0
 25 26  1  0  0  0  0
 25 27  1  0  0  0  0
 27 28  1  0  0  0  0
 28 29  2  0  0  0  0
 29 30  1  0  0  0  0
 30 31  1  0  0  0  0
 30 32  1  0  0  0  0
 30 33  1  0  0  0  0
 29 34  1  0  0  0  0
 34 35  2  0  0  0  0
 35 36  1  0  0  0  0
 36 37  1  0  0  0  0
 37 38  1  0  0  0  0
 37 39  1  0  0  0  0
 37 40  1  0  0  0  0
 35 41  1  0  0  0  0
 41 27  2  0  0  0  0
 19 42  2  0  0  0  0
M  END
> <ChemID>
100750

> <source_casrn>
82097-50-5

> <CAS>
82097-50-5

> <SMILES>
Cc1[n]c(NC(=O)NS(=O)(=O)c2ccccc2OCCCl)[n]c([n]1)OC

> <NAME>
Triasulfuron

> <preferred_name>
Triasulfuron

> <iupac>
2-(2-chloroethoxy)-N-[(4-methoxy-6-methyl-1,3,5-triazin-2-yl)carbamoyl]benzenesulfonamide

> <MPID>
99994

> <dsstox_substance_id>
DTXSID0024345

> <Canonical_QSARr>
Cc1[n]c(NC(=O)NS(=O)(=O)c2ccccc2OCCCl)[n]c([n]1)OC

> <InChI_Code_QSARr>
InChI=1S/C14H16ClN5O5S/c1-9-16-12(19-14(17-9)24-2)18-13(21)20-26(22,23)11-6-4-3-5-10(11)25-8-7-15/h3-6H,7-8H2,1-2H3,(H2,16,17,18,19,20,21)

> <InChI Key_QSARr>
XOPFESVZMSQIKC-UHFFFAOYSA-N

> <LogKOC>
2.02

$$$$
100751
  -INDIGO-08031722282D

 48 49  0  0  0  0  0  0  0  0999 V2000
    6.1567    0.3547    0.0000 C   0  0  0  0  0  0  0  0  0  0  0  0
    7.7565    0.3547    0.0000 C   0  0  0  0  0  0  0  0  0  0  0  0
    8.5566    1.7404    0.0000 C   0  0  0  0  0  0  0  0  0  0  0  0
    7.7565    3.1261    0.0000 O   0  0  0  0  0  0  0  0  0  0  0  0
    8.5566    4.5117    0.0000 C   0  0  0  0  0  0  0  0  0  0  0  0
    9.3565    5.8974    0.0000 H   0  0  0  0  0  0  0  0  0  0  0  0
    7.7565    5.8974    0.0000 H   0  0  0  0  0  0  0  0  0  0  0  0
   10.1566    4.5117    0.0000 H   0  0  0  0  0  0  0  0  0  0  0  0
   10.1566    1.7404    0.0000 C   0  0  0  0  0  0  0  0  0  0  0  0
   10.9565    3.1261    0.0000 H   0  0  0  0  0  0  0  0  0  0  0  0
   10.9565    0.3547    0.0000 C   0  0  0  0  0  0  0  0  0  0  0  0
   12.5566    0.3547    0.0000 H   0  0  0  0  0  0  0  0  0  0  0  0
   10.1566   -1.0308    0.0000 C   0  0  0  0  0  0  0  0  0  0  0  0
   10.9565   -2.4164    0.0000 H   0  0  0  0  0  0  0  0  0  0  0  0
    8.5566   -1.0308    0.0000 C   0  0  0  0  0  0  0  0  0  0  0  0
    7.7565   -2.4164    0.0000 O   0  0  0  0  0  0  0  0  0  0  0  0
    8.5566   -3.8021    0.0000 C   0  0  0  0  0  0  0  0  0  0  0  0
    7.7565   -5.1877    0.0000 H   0  0  0  0  0  0  0  0  0  0  0  0
    9.3565   -5.1877    0.0000 H   0  0  0  0  0  0  0  0  0  0  0  0
    6.9566   -3.8021    0.0000 H   0  0  0  0  0  0  0  0  0  0  0  0
    5.3565    1.7404    0.0000 N   0  0  0  0  0  0  0  0  0  0  0  0
    6.1567    3.1261    0.0000 H   0  0  0  0  0  0  0  0  0  0  0  0
    3.7565    1.7404    0.0000 C   0  0  0  0  0  0  0  0  0  0  0  0
    2.8160    0.4461    0.0000 C   0  0  0  0  0  0  0  0  0  0  0  0
    3.5673   -0.9667    0.0000 H   0  0  0  0  0  0  0  0  0  0  0  0
    1.2944    0.9405    0.0000 C   0  0  0  0  0  0  0  0  0  0  0  0
   -0.0000    0.0000    0.0000 C   0  0  0  0  0  0  0  0  0  0  0  0
   -1.2945   -0.9404    0.0000 C   0  0  0  0  0  0  0  0  0  0  0  0
   -2.8940   -0.8985    0.0000 H   0  0  0  0  0  0  0  0  0  0  0  0
   -2.3959    0.2201    0.0000 H   0  0  0  0  0  0  0  0  0  0  0  0
   -1.1271   -2.5316    0.0000 C   0  0  0  0  0  0  0  0  0  0  0  0
   -2.4216   -3.4721    0.0000 H   0  0  0  0  0  0  0  0  0  0  0  0
   -0.9598   -4.1230    0.0000 H   0  0  0  0  0  0  0  0  0  0  0  0
   -2.5889   -1.8809    0.0000 H   0  0  0  0  0  0  0  0  0  0  0  0
   -0.9405    1.2944    0.0000 C   0  0  0  0  0  0  0  0  0  0  0  0
    0.3937    2.1775    0.0000 H   0  0  0  0  0  0  0  0  0  0  0  0
   -0.6214    2.8624    0.0000 H   0  0  0  0  0  0  0  0  0  0  0  0
   -2.5364    1.4060    0.0000 C   0  0  0  0  0  0  0  0  0  0  0  0
   -3.2380    2.8441    0.0000 H   0  0  0  0  0  0  0  0  0  0  0  0
   -1.6418    2.7324    0.0000 H   0  0  0  0  0  0  0  0  0  0  0  0
   -4.1327    1.5176    0.0000 H   0  0  0  0  0  0  0  0  0  0  0  0
    0.9404   -1.2945    0.0000 C   0  0  0  0  0  0  0  0  0  0  0  0
    0.2898   -2.7561    0.0000 H   0  0  0  0  0  0  0  0  0  0  0  0
    1.8809   -2.5888    0.0000 H   0  0  0  0  0  0  0  0  0  0  0  0
    2.5316   -1.1272    0.0000 H   0  0  0  0  0  0  0  0  0  0  0  0
    1.2944    2.5405    0.0000 N   0  0  0  0  0  0  0  0  0  0  0  0
    2.8160    3.0349    0.0000 O   0  0  0  0  0  0  0  0  0  0  0  0
    5.3565   -1.0308    0.0000 O   0  0  0  0  0  0  0  0  0  0  0  0
  1  2  1  0  0  0  0
  2  3  1  0  0  0  0
  3  4  1  0  0  0  0
  4  5  1  0  0  0  0
  5  6  1  0  0  0  0
  5  7  1  0  0  0  0
  5  8  1  0  0  0  0
  3  9  2  0  0  0  0
  9 10  1  0  0  0  0
  9 11  1  0  0  0  0
 11 12  1  0  0  0  0
 11 13  2  0  0  0  0
 13 14  1  0  0  0  0
 13 15  1  0  0  0  0
 15  2  2  0  0  0  0
 15 16  1  0  0  0  0
 16 17  1  0  0  0  0
 17 18  1  0  0  0  0
 17 19  1  0  0  0  0
 17 20  1  0  0  0  0
  1 21  1  0  0  0  0
 21 22  1  0  0  0  0
 21 23  1  0  0  0  0
 23 24  2  0  0  0  0
 24 25  1  0  0  0  0
 24 26  1  0  0  0  0
 26 27  1  0  0  0  0
 27 28  1  0  0  0  0
 28 29  1  0  0  0  0
 28 30  1  0  0  0  0
 28 31  1  0  0  0  0
 31 32  1  0  0  0  0
 31 33  1  0  0  0  0
 31 34  1  0  0  0  0
 27 35  1  0  0  0  0
 35 36  1  0  0  0  0
 35 37  1  0  0  0  0
 35 38  1  0  0  0  0
 38 39  1  0  0  0  0
 38 40  1  0  0  0  0
 38 41  1  0  0  0  0
 27 42  1  0  0  0  0
 42 43  1  0  0  0  0
 42 44  1  0  0  0  0
 42 45  1  0  0  0  0
 26 46  2  0  0  0  0
 46 47  1  0  0  0  0
 47 23  1  0  0  0  0
  1 48  2  0  0  0  0
M  END
> <ChemID>
100751

> <source_casrn>
82558-50-7

> <CAS>
82558-50-7

> <SMILES>
CC(CC)(CC)c1cc(NC(=O)c2c(cccc2OC)OC)o[n]1

> <NAME>
Isoxaben

> <preferred_name>
Isoxaben

> <iupac>
2,6-dimethoxy-N-[3-(3-methylpentan-3-yl)-1,2-oxazol-5-yl]benzamide

> <MPID>
99995

> <dsstox_substance_id>
DTXSID8024159

> <Canonical_QSARr>
CC(CC)(CC)c1cc(NC(=O)c2c(cccc2OC)OC)o[n]1

> <InChI_Code_QSARr>
InChI=1S/C18H24N2O4/c1-6-18(3,7-2)14-11-15(24-20-14)19-17(21)16-12(22-4)9-8-10-13(16)23-5/h8-11H,6-7H2,1-5H3,(H,19,21)

> <InChI Key_QSARr>
PMHURSZHKKJGBM-UHFFFAOYSA-N

> <LogKOC>
2.4

$$$$
100752
  -INDIGO-08031722282D

 51 53  0  0  0  0  0  0  0  0999 V2000
    0.0000   -0.0001    0.0000 C   0  0  0  0  0  0  0  0  0  0  0  0
   -0.7999   -1.3857    0.0000 C   0  0  0  0  0  0  0  0  0  0  0  0
    0.4257   -2.4142    0.0000 H   0  0  0  0  0  0  0  0  0  0  0  0
   -2.1856   -2.1856    0.0000 C   0  0  0  0  0  0  0  0  0  0  0  0
   -3.1443   -2.1353    0.0000 H   0  0  0  0  0  0  0  0  0  0  0  0
   -2.1856   -3.7856    0.0000 C   0  0  0  0  0  0  0  0  0  0  0  0
   -3.5712   -4.5857    0.0000 C   0  0  0  0  0  0  0  0  0  0  0  0
   -4.9568   -5.3857    0.0000 F   0  0  0  0  0  0  0  0  0  0  0  0
   -3.5712   -6.1856    0.0000 F   0  0  0  0  0  0  0  0  0  0  0  0
   -4.9568   -3.7856    0.0000 F   0  0  0  0  0  0  0  0  0  0  0  0
   -0.7999   -4.5857    0.0000 Cl  0  0  0  0  0  0  0  0  0  0  0  0
   -1.6001   -0.0001    0.0000 C   0  0  0  0  0  0  0  0  0  0  0  0
   -1.8778    1.5756    0.0000 H   0  0  0  0  0  0  0  0  0  0  0  0
   -3.1035   -0.5472    0.0000 C   0  0  0  0  0  0  0  0  0  0  0  0
   -4.3291    0.4813    0.0000 O   0  0  0  0  0  0  0  0  0  0  0  0
   -5.8328   -0.0659    0.0000 C   0  0  0  0  0  0  0  0  0  0  0  0
   -6.6924   -1.4154    0.0000 H   0  0  0  0  0  0  0  0  0  0  0  0
   -5.4863   -1.6280    0.0000 H   0  0  0  0  0  0  0  0  0  0  0  0
   -7.0585    0.9625    0.0000 C   0  0  0  0  0  0  0  0  0  0  0  0
   -8.5618    0.4153    0.0000 C   0  0  0  0  0  0  0  0  0  0  0  0
   -8.8398   -1.1604    0.0000 C   0  0  0  0  0  0  0  0  0  0  0  0
   -9.1175   -2.7362    0.0000 H   0  0  0  0  0  0  0  0  0  0  0  0
  -10.3432   -1.7077    0.0000 H   0  0  0  0  0  0  0  0  0  0  0  0
   -7.6142   -2.1889    0.0000 H   0  0  0  0  0  0  0  0  0  0  0  0
   -9.7875    1.4438    0.0000 C   0  0  0  0  0  0  0  0  0  0  0  0
  -11.3631    1.1658    0.0000 C   0  0  0  0  0  0  0  0  0  0  0  0
  -11.9104   -0.3377    0.0000 C   0  0  0  0  0  0  0  0  0  0  0  0
  -11.1105   -1.7233    0.0000 H   0  0  0  0  0  0  0  0  0  0  0  0
  -13.4863   -0.6154    0.0000 C   0  0  0  0  0  0  0  0  0  0  0  0
  -14.0333   -2.1189    0.0000 H   0  0  0  0  0  0  0  0  0  0  0  0
  -14.5147    0.6103    0.0000 C   0  0  0  0  0  0  0  0  0  0  0  0
  -16.0903    0.3323    0.0000 H   0  0  0  0  0  0  0  0  0  0  0  0
  -13.9674    2.1137    0.0000 C   0  0  0  0  0  0  0  0  0  0  0  0
  -14.9958    3.3394    0.0000 H   0  0  0  0  0  0  0  0  0  0  0  0
  -12.3918    2.3915    0.0000 C   0  0  0  0  0  0  0  0  0  0  0  0
  -11.8445    3.8950    0.0000 H   0  0  0  0  0  0  0  0  0  0  0  0
   -9.5098    3.0193    0.0000 C   0  0  0  0  0  0  0  0  0  0  0  0
  -10.7354    4.0478    0.0000 H   0  0  0  0  0  0  0  0  0  0  0  0
   -8.0061    3.5666    0.0000 C   0  0  0  0  0  0  0  0  0  0  0  0
   -7.7284    5.1423    0.0000 H   0  0  0  0  0  0  0  0  0  0  0  0
   -6.7805    2.5381    0.0000 C   0  0  0  0  0  0  0  0  0  0  0  0
   -5.2771    3.0854    0.0000 H   0  0  0  0  0  0  0  0  0  0  0  0
   -3.5712   -1.3857    0.0000 O   0  0  0  0  0  0  0  0  0  0  0  0
    0.2777    1.5756    0.0000 C   0  0  0  0  0  0  0  0  0  0  0  0
    0.5557    3.1514    0.0000 H   0  0  0  0  0  0  0  0  0  0  0  0
    1.7814    2.1229    0.0000 H   0  0  0  0  0  0  0  0  0  0  0  0
   -0.9480    2.6041    0.0000 H   0  0  0  0  0  0  0  0  0  0  0  0
    1.5036   -0.5472    0.0000 C   0  0  0  0  0  0  0  0  0  0  0  0
    3.0070   -1.0944    0.0000 H   0  0  0  0  0  0  0  0  0  0  0  0
    2.7293    0.4811    0.0000 H   0  0  0  0  0  0  0  0  0  0  0  0
    1.7814   -2.1229    0.0000 H   0  0  0  0  0  0  0  0  0  0  0  0
  1  2  1  0  0  0  0
  2  3  1  0  0  0  0
  2  4  1  0  0  0  0
  4  5  1  0  0  0  0
  4  6  2  0  0  0  0
  6  7  1  0  0  0  0
  7  8  1  0  0  0  0
  7  9  1  0  0  0  0
  7 10  1  0  0  0  0
  6 11  1  0  0  0  0
  2 12  1  0  0  0  0
 12  1  1  0  0  0  0
 12 13  1  0  0  0  0
 12 14  1  0  0  0  0
 14 15  1  0  0  0  0
 15 16  1  0  0  0  0
 16 17  1  0  0  0  0
 16 18  1  0  0  0  0
 16 19  1  0  0  0  0
 19 20  1  0  0  0  0
 20 21  1  0  0  0  0
 21 22  1  0  0  0  0
 21 23  1  0  0  0  0
 21 24  1  0  0  0  0
 20 25  2  0  0  0  0
 25 26  1  0  0  0  0
 26 27  1  0  0  0  0
 27 28  1  0  0  0  0
 27 29  2  0  0  0  0
 29 30  1  0  0  0  0
 29 31  1  0  0  0  0
 31 32  1  0  0  0  0
 31 33  2  0  0  0  0
 33 34  1  0  0  0  0
 33 35  1  0  0  0  0
 35 26  2  0  0  0  0
 35 36  1  0  0  0  0
 25 37  1  0  0  0  0
 37 38  1  0  0  0  0
 37 39  2  0  0  0  0
 39 40  1  0  0  0  0
 39 41  1  0  0  0  0
 41 19  2  0  0  0  0
 41 42  1  0  0  0  0
 14 43  2  0  0  0  0
  1 44  1  0  0  0  0
 44 45  1  0  0  0  0
 44 46  1  0  0  0  0
 44 47  1  0  0  0  0
  1 48  1  0  0  0  0
 48 49  1  0  0  0  0
 48 50  1  0  0  0  0
 48 51  1  0  0  0  0
M  END
> <ChemID>
100752

> <source_casrn>
82657-04-3

> <CAS>
82657-04-3

> <SMILES>
CC1(C)[C@@H]([C@@H]1/C=C(\Cl)/C(F)(F)F)C(=O)OCc1cccc(-c2ccccc2)c1C |&1:3,4|

> <NAME>
Bifenthrin

> <preferred_name>
Bifenthrin

> <iupac>
(2-methyl-3-phenylphenyl)methyl (1S,3S)-3-[(Z)-2-chloro-3,3,3-trifluoroprop-1-enyl]-2,2-dimethylcyclopropane-1-carboxylate

> <MPID>
99996

> <dsstox_substance_id>
DTXSID9020160

> <Canonical_QSARr>
CC1(C)C(C1C=C(Cl)C(F)(F)F)C(=O)OCc1cccc(-c2ccccc2)c1C

> <InChI_Code_QSARr>
InChI=1S/C23H22ClF3O2/c1-14-16(10-7-11-17(14)15-8-5-4-6-9-15)13-29-21(28)20-18(22(20,2)3)12-19(24)23(25,26)27/h4-12,18,20H,13H2,1-3H3/b19-12-

> <InChI Key_QSARr>
OMFRMAHOUUJSGP-UNOMPAQXSA-N

> <LogKOC>
5.35

$$$$
100754
  -INDIGO-08031722282D

 37 39  0  0  0  0  0  0  0  0999 V2000
   -2.0257    2.4142    0.0000 N   0  0  0  0  0  0  0  0  0  0  0  0
   -0.8000    1.3856    0.0000 C   0  0  0  0  0  0  0  0  0  0  0  0
    0.4694    2.3597    0.0000 H   0  0  0  0  0  0  0  0  0  0  0  0
   -0.5912    2.9719    0.0000 H   0  0  0  0  0  0  0  0  0  0  0  0
    0.0000   -0.0000    0.0000 Si  0  0  0  0  0  0  0  0  0  0  0  0
    1.3856    0.8000    0.0000 C   0  0  0  0  0  0  0  0  0  0  0  0
    1.6635    2.3757    0.0000 C   0  0  0  0  0  0  0  0  0  0  0  0
    0.4378    3.4041    0.0000 H   0  0  0  0  0  0  0  0  0  0  0  0
    3.1670    2.9229    0.0000 C   0  0  0  0  0  0  0  0  0  0  0  0
    3.4449    4.4986    0.0000 H   0  0  0  0  0  0  0  0  0  0  0  0
    4.3927    1.8945    0.0000 C   0  0  0  0  0  0  0  0  0  0  0  0
    5.8962    2.4418    0.0000 F   0  0  0  0  0  0  0  0  0  0  0  0
    4.1148    0.3187    0.0000 C   0  0  0  0  0  0  0  0  0  0  0  0
    5.3406   -0.7097    0.0000 H   0  0  0  0  0  0  0  0  0  0  0  0
    2.6114   -0.2284    0.0000 C   0  0  0  0  0  0  0  0  0  0  0  0
    2.8891   -1.8042    0.0000 H   0  0  0  0  0  0  0  0  0  0  0  0
   -1.2257   -1.0284    0.0000 C   0  0  0  0  0  0  0  0  0  0  0  0
   -1.2257   -2.6284    0.0000 C   0  0  0  0  0  0  0  0  0  0  0  0
   -0.1973   -3.8542    0.0000 H   0  0  0  0  0  0  0  0  0  0  0  0
   -2.6113   -3.4285    0.0000 C   0  0  0  0  0  0  0  0  0  0  0  0
   -2.6113   -5.0285    0.0000 H   0  0  0  0  0  0  0  0  0  0  0  0
   -3.9969   -2.6284    0.0000 C   0  0  0  0  0  0  0  0  0  0  0  0
   -5.3825   -3.4285    0.0000 F   0  0  0  0  0  0  0  0  0  0  0  0
   -3.9969   -1.0284    0.0000 C   0  0  0  0  0  0  0  0  0  0  0  0
   -5.3825   -0.2284    0.0000 H   0  0  0  0  0  0  0  0  0  0  0  0
   -2.6113   -0.2284    0.0000 C   0  0  0  0  0  0  0  0  0  0  0  0
   -2.6113    1.3716    0.0000 H   0  0  0  0  0  0  0  0  0  0  0  0
    1.0285   -1.2256    0.0000 C   0  0  0  0  0  0  0  0  0  0  0  0
    2.0569   -2.4513    0.0000 H   0  0  0  0  0  0  0  0  0  0  0  0
    0.4812   -2.7292    0.0000 H   0  0  0  0  0  0  0  0  0  0  0  0
   -0.4750   -1.7729    0.0000 H   0  0  0  0  0  0  0  0  0  0  0  0
   -3.5781    2.0271    0.0000 N   0  0  0  0  0  0  0  0  0  0  0  0
   -4.4261    3.3839    0.0000 C   0  0  0  0  0  0  0  0  0  0  0  0
   -6.0221    3.4955    0.0000 H   0  0  0  0  0  0  0  0  0  0  0  0
   -3.3975    4.6096    0.0000 N   0  0  0  0  0  0  0  0  0  0  0  0
   -1.9141    4.0102    0.0000 C   0  0  0  0  0  0  0  0  0  0  0  0
   -0.5572    4.8581    0.0000 H   0  0  0  0  0  0  0  0  0  0  0  0
  1  2  1  0  0  0  0
  2  3  1  0  0  0  0
  2  4  1  0  0  0  0
  2  5  1  0  0  0  0
  5  6  1  0  0  0  0
  6  7  1  0  0  0  0
  7  8  1  0  0  0  0
  7  9  2  0  0  0  0
  9 10  1  0  0  0  0
  9 11  1  0  0  0  0
 11 12  1  0  0  0  0
 11 13  2  0  0  0  0
 13 14  1  0  0  0  0
 13 15  1  0  0  0  0
 15  6  2  0  0  0  0
 15 16  1  0  0  0  0
  5 17  1  0  0  0  0
 17 18  1  0  0  0  0
 18 19  1  0  0  0  0
 18 20  2  0  0  0  0
 20 21  1  0  0  0  0
 20 22  1  0  0  0  0
 22 23  1  0  0  0  0
 22 24  2  0  0  0  0
 24 25  1  0  0  0  0
 24 26  1  0  0  0  0
 26 17  2  0  0  0  0
 26 27  1  0  0  0  0
  5 28  1  0  0  0  0
 28 29  1  0  0  0  0
 28 30  1  0  0  0  0
 28 31  1  0  0  0  0
  1 32  1  0  0  0  0
 32 33  2  0  0  0  0
 33 34  1  0  0  0  0
 33 35  1  0  0  0  0
 35 36  2  0  0  0  0
 36  1  1  0  0  0  0
 36 37  1  0  0  0  0
M  END
> <ChemID>
100754

> <source_casrn>
85509-19-9

> <CAS>
85509-19-9

> <SMILES>
C[Si](C[n]1c[n]c[n]1)(c1ccc(F)cc1)c1ccc(F)cc1

> <NAME>
Flusilazole

> <preferred_name>
Flusilazole

> <iupac>
1-{[bis(4-fluorophenyl)(methyl)silyl]methyl}-1H-1,2,4-triazole

> <MPID>
99998

> <dsstox_substance_id>
DTXSID3024235

> <Canonical_QSARr>
C[Si](C[n]1c[n]c[n]1)(c1ccc(F)cc1)c1ccc(F)cc1

> <InChI_Code_QSARr>
InChI=1S/C16H15F2N3Si/c1-22(12-21-11-19-10-20-21,15-6-2-13(17)3-7-15)16-8-4-14(18)5-9-16/h2-11H,12H2,1H3

> <InChI Key_QSARr>
FQKUGOMFVDPBIZ-UHFFFAOYSA-N

> <LogKOC>
3.22

$$$$
100755
  -INDIGO-08031722282D

 43 44  0  0  0  0  0  0  0  0999 V2000
   -1.3855    2.4000    0.0000 C   0  0  0  0  0  0  0  0  0  0  0  0
    0.0001    3.2000    0.0000 O   0  0  0  0  0  0  0  0  0  0  0  0
   -1.3855    0.8000    0.0000 C   0  0  0  0  0  0  0  0  0  0  0  0
    0.0001    0.0000    0.0000 C   0  0  0  0  0  0  0  0  0  0  0  0
    1.3856    0.8000    0.0000 S   0  0  0  0  0  0  0  0  0  0  0  0
    2.1856   -0.5856    0.0000 O   0  0  0  0  0  0  0  0  0  0  0  0
    0.5857    2.1856    0.0000 O   0  0  0  0  0  0  0  0  0  0  0  0
    2.7712    1.6000    0.0000 N   0  0  0  0  0  0  0  0  0  0  0  0
    2.7712    3.2000    0.0000 H   0  0  0  0  0  0  0  0  0  0  0  0
    4.1570    0.8000    0.0000 C   0  0  0  0  0  0  0  0  0  0  0  0
    4.1570   -0.8000    0.0000 O   0  0  0  0  0  0  0  0  0  0  0  0
    5.5426    1.6000    0.0000 N   0  0  0  0  0  0  0  0  0  0  0  0
    5.5426    3.2000    0.0000 H   0  0  0  0  0  0  0  0  0  0  0  0
    6.9282    0.8000    0.0000 C   0  0  0  0  0  0  0  0  0  0  0  0
    8.3138    1.6000    0.0000 N   0  0  0  0  0  0  0  0  0  0  0  0
    9.6996    0.8000    0.0000 C   0  0  0  0  0  0  0  0  0  0  0  0
   11.0852    1.6000    0.0000 O   0  0  0  0  0  0  0  0  0  0  0  0
   11.0852    3.2000    0.0000 C   0  0  0  0  0  0  0  0  0  0  0  0
   12.4708    4.0000    0.0000 H   0  0  0  0  0  0  0  0  0  0  0  0
   11.0852    4.8000    0.0000 F   0  0  0  0  0  0  0  0  0  0  0  0
    9.6996    4.0000    0.0000 F   0  0  0  0  0  0  0  0  0  0  0  0
    9.6996   -0.8000    0.0000 C   0  0  0  0  0  0  0  0  0  0  0  0
   11.0852   -1.6000    0.0000 H   0  0  0  0  0  0  0  0  0  0  0  0
    8.3138   -1.6000    0.0000 C   0  0  0  0  0  0  0  0  0  0  0  0
    8.3138   -3.2000    0.0000 O   0  0  0  0  0  0  0  0  0  0  0  0
    9.6996   -4.0000    0.0000 C   0  0  0  0  0  0  0  0  0  0  0  0
    9.6996   -5.6000    0.0000 H   0  0  0  0  0  0  0  0  0  0  0  0
   11.0852   -4.8000    0.0000 F   0  0  0  0  0  0  0  0  0  0  0  0
    8.3138   -4.8000    0.0000 F   0  0  0  0  0  0  0  0  0  0  0  0
    6.9282   -0.8000    0.0000 N   0  0  0  0  0  0  0  0  0  0  0  0
    0.0001   -1.6000    0.0000 C   0  0  0  0  0  0  0  0  0  0  0  0
    1.3856   -2.4000    0.0000 H   0  0  0  0  0  0  0  0  0  0  0  0
   -1.3855   -2.4000    0.0000 C   0  0  0  0  0  0  0  0  0  0  0  0
   -1.3855   -4.0000    0.0000 H   0  0  0  0  0  0  0  0  0  0  0  0
   -2.7713   -1.6000    0.0000 C   0  0  0  0  0  0  0  0  0  0  0  0
   -4.1569   -2.4000    0.0000 H   0  0  0  0  0  0  0  0  0  0  0  0
   -2.7713    0.0000    0.0000 C   0  0  0  0  0  0  0  0  0  0  0  0
   -4.1569    0.8000    0.0000 H   0  0  0  0  0  0  0  0  0  0  0  0
   -2.7713    3.2000    0.0000 O   0  0  0  0  0  0  0  0  0  0  0  0
   -2.7713    4.8000    0.0000 C   0  0  0  0  0  0  0  0  0  0  0  0
   -2.7713    6.4000    0.0000 H   0  0  0  0  0  0  0  0  0  0  0  0
   -4.1569    5.6000    0.0000 H   0  0  0  0  0  0  0  0  0  0  0  0
   -1.3858    5.6000    0.0000 H   0  0  0  0  0  0  0  0  0  0  0  0
  1  2  2  0  0  0  0
  1  3  1  0  0  0  0
  3  4  1  0  0  0  0
  4  5  1  0  0  0  0
  5  6  2  0  0  0  0
  5  7  2  0  0  0  0
  5  8  1  0  0  0  0
  8  9  1  0  0  0  0
  8 10  1  0  0  0  0
 10 11  2  0  0  0  0
 10 12  1  0  0  0  0
 12 13  1  0  0  0  0
 12 14  1  0  0  0  0
 14 15  1  0  0  0  0
 15 16  2  0  0  0  0
 16 17  1  0  0  0  0
 17 18  1  0  0  0  0
 18 19  1  0  0  0  0
 18 20  1  0  0  0  0
 18 21  1  0  0  0  0
 16 22  1  0  0  0  0
 22 23  1  0  0  0  0
 22 24  2  0  0  0  0
 24 25  1  0  0  0  0
 25 26  1  0  0  0  0
 26 27  1  0  0  0  0
 26 28  1  0  0  0  0
 26 29  1  0  0  0  0
 24 30  1  0  0  0  0
 30 14  2  0  0  0  0
  4 31  2  0  0  0  0
 31 32  1  0  0  0  0
 31 33  1  0  0  0  0
 33 34  1  0  0  0  0
 33 35  2  0  0  0  0
 35 36  1  0  0  0  0
 35 37  1  0  0  0  0
 37  3  2  0  0  0  0
 37 38  1  0  0  0  0
  1 39  1  0  0  0  0
 39 40  1  0  0  0  0
 40 41  1  0  0  0  0
 40 42  1  0  0  0  0
 40 43  1  0  0  0  0
M  END
> <ChemID>
100755

> <source_casrn>
86209-51-0

> <CAS>
86209-51-0

> <SMILES>
COC(=O)c1ccccc1S(=O)(=O)NC(=O)Nc1[n]c(cc([n]1)OC(F)F)OC(F)F

> <NAME>
PRIMISULFURON-METHYL

> <preferred_name>
Primisulfuron-methyl

> <iupac>
methyl 2-({[4,6-bis(difluoromethoxy)pyrimidin-2-yl]carbamoyl}sulfamoyl)benzoate

> <MPID>
99999

> <dsstox_substance_id>
DTXSID8032463

> <Canonical_QSARr>
COC(=O)c1ccccc1S(=O)(=O)NC(=O)Nc1[n]c(cc([n]1)OC(F)F)OC(F)F

> <InChI_Code_QSARr>
InChI=1S/C15H12F4N4O7S/c1-28-11(24)7-4-2-3-5-8(7)31(26,27)23-15(25)22-14-20-9(29-12(16)17)6-10(21-14)30-13(18)19/h2-6,12-13H,1H3,(H2,20,21,22,23,25)

> <InChI Key_QSARr>
ZTYVMAQSHCZXLF-UHFFFAOYSA-N

> <LogKOC>
1.08

$$$$
100756
  -INDIGO-08031722282D

 46 48  0  0  0  0  0  0  0  0999 V2000
    1.4506    0.0449    0.0000 C   0  0  0  0  0  0  0  0  0  0  0  0
    2.2511    0.8590    0.0000 H   0  0  0  0  0  0  0  0  0  0  0  0
    1.5157   -1.5538    0.0000 H   0  0  0  0  0  0  0  0  0  0  0  0
    1.3522    1.6861    0.0000 C   0  0  0  0  0  0  0  0  0  0  0  0
    2.9514    1.7391    0.0000 H   0  0  0  0  0  0  0  0  0  0  0  0
    1.3423    3.2861    0.0000 H   0  0  0  0  0  0  0  0  0  0  0  0
   -0.2568    1.7194    0.0000 C   0  0  0  0  0  0  0  0  0  0  0  0
   -1.3184    2.8095    0.0000 O   0  0  0  0  0  0  0  0  0  0  0  0
    0.0000    0.0001    0.0000 C   0  0  0  0  0  0  0  0  0  0  0  0
   -1.0240   -1.2294    0.0000 C   0  0  0  0  0  0  0  0  0  0  0  0
   -2.5242   -1.7855    0.0000 H   0  0  0  0  0  0  0  0  0  0  0  0
   -0.7371   -2.1394    0.0000 H   0  0  0  0  0  0  0  0  0  0  0  0
   -1.1663    0.2732    0.0000 C   0  0  0  0  0  0  0  0  0  0  0  0
   -2.2025    1.4923    0.0000 H   0  0  0  0  0  0  0  0  0  0  0  0
   -2.6403   -0.3490    0.0000 O   0  0  0  0  0  0  0  0  0  0  0  0
   -3.9161    0.6165    0.0000 C   0  0  0  0  0  0  0  0  0  0  0  0
   -4.3406    2.1592    0.0000 H   0  0  0  0  0  0  0  0  0  0  0  0
   -3.1255    2.0074    0.0000 H   0  0  0  0  0  0  0  0  0  0  0  0
   -5.3904   -0.0057    0.0000 C   0  0  0  0  0  0  0  0  0  0  0  0
   -6.6662    0.9598    0.0000 C   0  0  0  0  0  0  0  0  0  0  0  0
   -6.4680    2.5476    0.0000 H   0  0  0  0  0  0  0  0  0  0  0  0
   -8.1402    0.3376    0.0000 C   0  0  0  0  0  0  0  0  0  0  0  0
   -9.4160    1.3032    0.0000 H   0  0  0  0  0  0  0  0  0  0  0  0
   -8.3384   -1.2500    0.0000 C   0  0  0  0  0  0  0  0  0  0  0  0
   -9.8125   -1.8722    0.0000 H   0  0  0  0  0  0  0  0  0  0  0  0
   -7.0626   -2.2155    0.0000 C   0  0  0  0  0  0  0  0  0  0  0  0
   -7.2609   -3.8032    0.0000 H   0  0  0  0  0  0  0  0  0  0  0  0
   -5.5884   -1.5933    0.0000 C   0  0  0  0  0  0  0  0  0  0  0  0
   -4.3126   -2.5588    0.0000 C   0  0  0  0  0  0  0  0  0  0  0  0
   -4.5108   -4.1465    0.0000 H   0  0  0  0  0  0  0  0  0  0  0  0
   -3.0368   -3.5243    0.0000 H   0  0  0  0  0  0  0  0  0  0  0  0
   -5.7866   -3.1810    0.0000 H   0  0  0  0  0  0  0  0  0  0  0  0
    0.7011   -1.4382    0.0000 C   0  0  0  0  0  0  0  0  0  0  0  0
    0.1386   -2.2088    0.0000 H   0  0  0  0  0  0  0  0  0  0  0  0
    1.4022   -2.8764    0.0000 C   0  0  0  0  0  0  0  0  0  0  0  0
    2.1033   -4.3146    0.0000 H   0  0  0  0  0  0  0  0  0  0  0  0
    2.9984   -2.9882    0.0000 H   0  0  0  0  0  0  0  0  0  0  0  0
    0.5072   -4.2027    0.0000 H   0  0  0  0  0  0  0  0  0  0  0  0
    2.1394   -0.7371    0.0000 C   0  0  0  0  0  0  0  0  0  0  0  0
    2.9679    0.0486    0.0000 H   0  0  0  0  0  0  0  0  0  0  0  0
    3.6774   -0.2964    0.0000 H   0  0  0  0  0  0  0  0  0  0  0  0
    3.4656   -1.6320    0.0000 H   0  0  0  0  0  0  0  0  0  0  0  0
   -0.1599    3.3165    0.0000 C   0  0  0  0  0  0  0  0  0  0  0  0
   -1.6276    3.9537    0.0000 H   0  0  0  0  0  0  0  0  0  0  0  0
   -0.3419    4.9061    0.0000 H   0  0  0  0  0  0  0  0  0  0  0  0
    1.1258    4.2687    0.0000 H   0  0  0  0  0  0  0  0  0  0  0  0
  1  2  1  0  0  0  0
  1  3  1  0  0  0  0
  1  4  1  0  0  0  0
  4  5  1  0  0  0  0
  4  6  1  0  0  0  0
  4  7  1  0  0  0  0
  7  8  1  0  0  0  0
  8  9  1  0  0  0  0
  9  1  1  0  0  0  0
  9 10  1  0  0  0  0
 10 11  1  0  0  0  0
 10 12  1  0  0  0  0
 10 13  1  0  0  0  0
 13  7  1  0  0  0  0
 13 14  1  0  0  0  0
 13 15  1  0  0  0  0
 15 16  1  0  0  0  0
 16 17  1  0  0  0  0
 16 18  1  0  0  0  0
 16 19  1  0  0  0  0
 19 20  1  0  0  0  0
 20 21  1  0  0  0  0
 20 22  2  0  0  0  0
 22 23  1  0  0  0  0
 22 24  1  0  0  0  0
 24 25  1  0  0  0  0
 24 26  2  0  0  0  0
 26 27  1  0  0  0  0
 26 28  1  0  0  0  0
 28 19  2  0  0  0  0
 28 29  1  0  0  0  0
 29 30  1  0  0  0  0
 29 31  1  0  0  0  0
 29 32  1  0  0  0  0
  9 33  1  0  0  0  0
 33 34  1  0  0  0  0
 33 35  1  0  0  0  0
 35 36  1  0  0  0  0
 35 37  1  0  0  0  0
 35 38  1  0  0  0  0
 33 39  1  0  0  0  0
 39 40  1  0  0  0  0
 39 41  1  0  0  0  0
 39 42  1  0  0  0  0
  7 43  1  0  0  0  0
 43 44  1  0  0  0  0
 43 45  1  0  0  0  0
 43 46  1  0  0  0  0
M  END
> <ChemID>
100756

> <source_casrn>
87818-31-3

> <CAS>
87818-31-3

> <SMILES>
C[C@@]12CC[C@@](C[C@@H]1OCc1ccccc1C)(O2)C(C)C |o1:1,4,6|

> <NAME>
CINMETHYLIN

> <preferred_name>
Cinmethylin

> <iupac>


> <MPID>
100000

> <dsstox_substance_id>
DTXSID3034456

> <Canonical_QSARr>
CC12CCC(CC1OCc1ccccc1C)(O2)C(C)C

> <InChI_Code_QSARr>
InChI=1S/C18H26O2/c1-13(2)18-10-9-17(4,20-18)16(11-18)19-12-15-8-6-5-7-14(15)3/h5-8,13,16H,9-12H2,1-4H3

> <InChI Key_QSARr>
QMTNOLKHSWIQBE-UHFFFAOYSA-N

> <LogKOC>
2.6

$$$$
100758
  -INDIGO-08031722282D

 42 43  0  0  0  0  0  0  0  0999 V2000
    1.3857    0.7999    0.0000 S   0  0  0  0  0  0  0  0  0  0  0  0
    2.7713    1.5999    0.0000 N   0  0  0  0  0  0  0  0  0  0  0  0
    2.7713    3.2001    0.0000 H   0  0  0  0  0  0  0  0  0  0  0  0
    4.1569    0.7999    0.0000 C   0  0  0  0  0  0  0  0  0  0  0  0
    5.5425    1.5999    0.0000 N   0  0  0  0  0  0  0  0  0  0  0  0
    5.5425    3.2001    0.0000 H   0  0  0  0  0  0  0  0  0  0  0  0
    6.9281    0.7999    0.0000 C   0  0  0  0  0  0  0  0  0  0  0  0
    6.9281   -0.8000    0.0000 N   0  0  0  0  0  0  0  0  0  0  0  0
    8.3140   -1.6000    0.0000 C   0  0  0  0  0  0  0  0  0  0  0  0
    8.3140   -3.2000    0.0000 Cl  0  0  0  0  0  0  0  0  0  0  0  0
    9.6996   -0.8000    0.0000 C   0  0  0  0  0  0  0  0  0  0  0  0
   11.0852   -1.6000    0.0000 H   0  0  0  0  0  0  0  0  0  0  0  0
    9.6996    0.7999    0.0000 C   0  0  0  0  0  0  0  0  0  0  0  0
   11.0852    1.6001    0.0000 O   0  0  0  0  0  0  0  0  0  0  0  0
   11.0852    3.2001    0.0000 C   0  0  0  0  0  0  0  0  0  0  0  0
   12.4708    4.0000    0.0000 H   0  0  0  0  0  0  0  0  0  0  0  0
   11.0852    4.8000    0.0000 H   0  0  0  0  0  0  0  0  0  0  0  0
    9.6996    4.0000    0.0000 H   0  0  0  0  0  0  0  0  0  0  0  0
    8.3140    1.5999    0.0000 N   0  0  0  0  0  0  0  0  0  0  0  0
    4.1569   -0.8000    0.0000 O   0  0  0  0  0  0  0  0  0  0  0  0
    0.0001   -0.0001    0.0000 C   0  0  0  0  0  0  0  0  0  0  0  0
   -1.3858    0.7999    0.0000 C   0  0  0  0  0  0  0  0  0  0  0  0
   -1.3858    2.4001    0.0000 C   0  0  0  0  0  0  0  0  0  0  0  0
    0.0001    3.2001    0.0000 O   0  0  0  0  0  0  0  0  0  0  0  0
   -2.7714    3.2001    0.0000 O   0  0  0  0  0  0  0  0  0  0  0  0
   -2.7714    4.8000    0.0000 C   0  0  0  0  0  0  0  0  0  0  0  0
   -1.7972    6.0693    0.0000 H   0  0  0  0  0  0  0  0  0  0  0  0
   -1.1848    5.0089    0.0000 H   0  0  0  0  0  0  0  0  0  0  0  0
   -4.1570    5.6000    0.0000 C   0  0  0  0  0  0  0  0  0  0  0  0
   -5.5426    6.4000    0.0000 H   0  0  0  0  0  0  0  0  0  0  0  0
   -4.1570    7.2000    0.0000 H   0  0  0  0  0  0  0  0  0  0  0  0
   -5.5426    4.8000    0.0000 H   0  0  0  0  0  0  0  0  0  0  0  0
   -2.7714   -0.0001    0.0000 C   0  0  0  0  0  0  0  0  0  0  0  0
   -4.1570    0.7999    0.0000 H   0  0  0  0  0  0  0  0  0  0  0  0
   -2.7714   -1.6000    0.0000 C   0  0  0  0  0  0  0  0  0  0  0  0
   -4.1570   -2.4000    0.0000 H   0  0  0  0  0  0  0  0  0  0  0  0
   -1.3858   -2.4000    0.0000 C   0  0  0  0  0  0  0  0  0  0  0  0
   -1.3858   -4.0000    0.0000 H   0  0  0  0  0  0  0  0  0  0  0  0
    0.0001   -1.6000    0.0000 C   0  0  0  0  0  0  0  0  0  0  0  0
    1.3857   -2.4000    0.0000 H   0  0  0  0  0  0  0  0  0  0  0  0
    2.1856   -0.5856    0.0000 O   0  0  0  0  0  0  0  0  0  0  0  0
    0.5856    2.1856    0.0000 O   0  0  0  0  0  0  0  0  0  0  0  0
  1  2  1  0  0  0  0
  2  3  1  0  0  0  0
  2  4  1  0  0  0  0
  4  5  1  0  0  0  0
  5  6  1  0  0  0  0
  5  7  1  0  0  0  0
  7  8  1  0  0  0  0
  8  9  2  0  0  0  0
  9 10  1  0  0  0  0
  9 11  1  0  0  0  0
 11 12  1  0  0  0  0
 11 13  2  0  0  0  0
 13 14  1  0  0  0  0
 14 15  1  0  0  0  0
 15 16  1  0  0  0  0
 15 17  1  0  0  0  0
 15 18  1  0  0  0  0
 13 19  1  0  0  0  0
 19  7  2  0  0  0  0
  4 20  2  0  0  0  0
  1 21  1  0  0  0  0
 21 22  1  0  0  0  0
 22 23  1  0  0  0  0
 23 24  2  0  0  0  0
 23 25  1  0  0  0  0
 25 26  1  0  0  0  0
 26 27  1  0  0  0  0
 26 28  1  0  0  0  0
 26 29  1  0  0  0  0
 29 30  1  0  0  0  0
 29 31  1  0  0  0  0
 29 32  1  0  0  0  0
 22 33  2  0  0  0  0
 33 34  1  0  0  0  0
 33 35  1  0  0  0  0
 35 36  1  0  0  0  0
 35 37  2  0  0  0  0
 37 38  1  0  0  0  0
 37 39  1  0  0  0  0
 39 21  2  0  0  0  0
 39 40  1  0  0  0  0
  1 41  2  0  0  0  0
  1 42  2  0  0  0  0
M  END
> <ChemID>
100758

> <source_casrn>
90982-32-4

> <CAS>
90982-32-4

> <SMILES>
n1c(Cl)cc(OC)nc1NC(=O)NS(=O)(=O)c2ccccc2C(=O)OCC

> <NAME>
CHLORIMURON-ETHYL

> <preferred_name>
Chlorimuron-ethyl

> <iupac>
ethyl 2-{[(4-chloro-6-methoxypyrimidin-2-yl)carbamoyl]sulfamoyl}benzoate

> <MPID>
100002

> <dsstox_substance_id>
DTXSID0023955

> <Canonical_QSARr>
COc1cc(Cl)[n]c(NC(=O)NS(=O)(=O)c2ccccc2C(=O)OCC)[n]1

> <InChI_Code_QSARr>
InChI=1S/C15H15ClN4O6S/c1-3-26-13(21)9-6-4-5-7-10(9)27(23,24)20-15(22)19-14-17-11(16)8-12(18-14)25-2/h4-8H,3H2,1-2H3,(H2,17,18,19,20,22)

> <InChI Key_QSARr>
NSWAMPCUPHPTTC-UHFFFAOYSA-N

> <LogKOC>
2.04

$$$$
100760
  -INDIGO-08031722282D

 46 47  0  0  0  0  0  0  0  0999 V2000
   -2.4000    1.3857    0.0000 C   0  0  0  0  0  0  0  0  0  0  0  0
   -1.5999    2.7712    0.0000 O   0  0  0  0  0  0  0  0  0  0  0  0
   -1.5999    0.0000    0.0000 C   0  0  0  0  0  0  0  0  0  0  0  0
    0.0000    0.0000    0.0000 C   0  0  0  0  0  0  0  0  0  0  0  0
    0.8001    1.3857    0.0000 S   0  0  0  0  0  0  0  0  0  0  0  0
    2.1856    0.5857    0.0000 O   0  0  0  0  0  0  0  0  0  0  0  0
   -0.5857    2.1857    0.0000 O   0  0  0  0  0  0  0  0  0  0  0  0
    1.5999    2.7712    0.0000 N   0  0  0  0  0  0  0  0  0  0  0  0
    0.8001    4.1569    0.0000 H   0  0  0  0  0  0  0  0  0  0  0  0
    3.2001    2.7712    0.0000 C   0  0  0  0  0  0  0  0  0  0  0  0
    4.0000    1.3857    0.0000 O   0  0  0  0  0  0  0  0  0  0  0  0
    4.0000    4.1569    0.0000 N   0  0  0  0  0  0  0  0  0  0  0  0
    3.2001    5.5426    0.0000 H   0  0  0  0  0  0  0  0  0  0  0  0
    5.5999    4.1569    0.0000 C   0  0  0  0  0  0  0  0  0  0  0  0
    6.4000    5.5426    0.0000 N   0  0  0  0  0  0  0  0  0  0  0  0
    7.9999    5.5426    0.0000 C   0  0  0  0  0  0  0  0  0  0  0  0
    8.8000    6.9281    0.0000 N   0  0  0  0  0  0  0  0  0  0  0  0
    7.9999    8.3138    0.0000 H   0  0  0  0  0  0  0  0  0  0  0  0
   10.4000    6.9281    0.0000 C   0  0  0  0  0  0  0  0  0  0  0  0
   11.9999    6.9281    0.0000 H   0  0  0  0  0  0  0  0  0  0  0  0
   11.2001    8.3138    0.0000 H   0  0  0  0  0  0  0  0  0  0  0  0
   11.2001    5.5426    0.0000 H   0  0  0  0  0  0  0  0  0  0  0  0
    8.8000    4.1569    0.0000 N   0  0  0  0  0  0  0  0  0  0  0  0
    7.9999    2.7712    0.0000 C   0  0  0  0  0  0  0  0  0  0  0  0
    8.8000    1.3857    0.0000 O   0  0  0  0  0  0  0  0  0  0  0  0
   10.4000    1.3857    0.0000 C   0  0  0  0  0  0  0  0  0  0  0  0
   11.6694    2.3596    0.0000 H   0  0  0  0  0  0  0  0  0  0  0  0
   10.6089    2.9720    0.0000 H   0  0  0  0  0  0  0  0  0  0  0  0
   11.2001    0.0000    0.0000 C   0  0  0  0  0  0  0  0  0  0  0  0
   11.9999   -1.3857    0.0000 H   0  0  0  0  0  0  0  0  0  0  0  0
   12.8000    0.0000    0.0000 H   0  0  0  0  0  0  0  0  0  0  0  0
   10.4000   -1.3857    0.0000 H   0  0  0  0  0  0  0  0  0  0  0  0
    6.4000    2.7712    0.0000 N   0  0  0  0  0  0  0  0  0  0  0  0
    0.8001   -1.3857    0.0000 C   0  0  0  0  0  0  0  0  0  0  0  0
    2.4000   -1.3857    0.0000 H   0  0  0  0  0  0  0  0  0  0  0  0
    0.0000   -2.7712    0.0000 C   0  0  0  0  0  0  0  0  0  0  0  0
    0.8001   -4.1569    0.0000 H   0  0  0  0  0  0  0  0  0  0  0  0
   -1.5999   -2.7712    0.0000 C   0  0  0  0  0  0  0  0  0  0  0  0
   -2.4000   -4.1569    0.0000 H   0  0  0  0  0  0  0  0  0  0  0  0
   -2.4000   -1.3857    0.0000 C   0  0  0  0  0  0  0  0  0  0  0  0
   -4.0000   -1.3857    0.0000 H   0  0  0  0  0  0  0  0  0  0  0  0
   -4.0000    1.3857    0.0000 O   0  0  0  0  0  0  0  0  0  0  0  0
   -4.8001    2.7712    0.0000 C   0  0  0  0  0  0  0  0  0  0  0  0
   -5.5999    4.1569    0.0000 H   0  0  0  0  0  0  0  0  0  0  0  0
   -6.4000    2.7712    0.0000 H   0  0  0  0  0  0  0  0  0  0  0  0
   -4.0000    4.1569    0.0000 H   0  0  0  0  0  0  0  0  0  0  0  0
  1  2  2  0  0  0  0
  1  3  1  0  0  0  0
  3  4  1  0  0  0  0
  4  5  1  0  0  0  0
  5  6  2  0  0  0  0
  5  7  2  0  0  0  0
  5  8  1  0  0  0  0
  8  9  1  0  0  0  0
  8 10  1  0  0  0  0
 10 11  2  0  0  0  0
 10 12  1  0  0  0  0
 12 13  1  0  0  0  0
 12 14  1  0  0  0  0
 14 15  1  0  0  0  0
 15 16  2  0  0  0  0
 16 17  1  0  0  0  0
 17 18  1  0  0  0  0
 17 19  1  0  0  0  0
 19 20  1  0  0  0  0
 19 21  1  0  0  0  0
 19 22  1  0  0  0  0
 16 23  1  0  0  0  0
 23 24  2  0  0  0  0
 24 25  1  0  0  0  0
 25 26  1  0  0  0  0
 26 27  1  0  0  0  0
 26 28  1  0  0  0  0
 26 29  1  0  0  0  0
 29 30  1  0  0  0  0
 29 31  1  0  0  0  0
 29 32  1  0  0  0  0
 24 33  1  0  0  0  0
 33 14  2  0  0  0  0
  4 34  2  0  0  0  0
 34 35  1  0  0  0  0
 34 36  1  0  0  0  0
 36 37  1  0  0  0  0
 36 38  2  0  0  0  0
 38 39  1  0  0  0  0
 38 40  1  0  0  0  0
 40  3  2  0  0  0  0
 40 41  1  0  0  0  0
  1 42  1  0  0  0  0
 42 43  1  0  0  0  0
 43 44  1  0  0  0  0
 43 45  1  0  0  0  0
 43 46  1  0  0  0  0
M  END
> <ChemID>
100760

> <source_casrn>
97780-06-8

> <CAS>
97780-06-8

> <SMILES>
COC(=O)c1ccccc1S(=O)(=O)NC(=O)Nc1[n]c(NC)[n]c([n]1)OCC

> <NAME>
ETHAMETSULFURON-METHYL

> <preferred_name>
Ethametsulfuron-methyl

> <iupac>
methyl 2-({[4-ethoxy-6-(methylamino)-1,3,5-triazin-2-yl]carbamoyl}sulfamoyl)benzoate

> <MPID>
100004

> <dsstox_substance_id>
DTXSID9034573

> <Canonical_QSARr>
COC(=O)c1ccccc1S(=O)(=O)NC(=O)Nc1[n]c(NC)[n]c([n]1)OCC

> <InChI_Code_QSARr>
InChI=1S/C15H18N6O6S/c1-4-27-15-19-12(16-2)17-13(20-15)18-14(23)21-28(24,25)10-8-6-5-7-9(10)11(22)26-3/h5-8H,4H2,1-3H3,(H3,16,17,18,19,20,21,23)

> <InChI Key_QSARr>
ZINJLDJMHCUBIP-UHFFFAOYSA-N

> <LogKOC>
1.93

$$$$
100761
  -INDIGO-08031722282D

 31 33  0  0  0  0  0  0  0  0999 V2000
   -4.7999   -0.0001    0.0000 F   0  0  0  0  0  0  0  0  0  0  0  0
   -4.0001    1.3856    0.0000 C   0  0  0  0  0  0  0  0  0  0  0  0
   -2.4000    1.3856    0.0000 C   0  0  0  0  0  0  0  0  0  0  0  0
   -1.5999   -0.0001    0.0000 N   0  0  0  0  0  0  0  0  0  0  0  0
   -2.4000   -1.3856    0.0000 H   0  0  0  0  0  0  0  0  0  0  0  0
   -0.0001   -0.0001    0.0000 S   0  0  0  0  0  0  0  0  0  0  0  0
   -0.0001    1.6000    0.0000 O   0  0  0  0  0  0  0  0  0  0  0  0
   -0.0001   -1.6000    0.0000 O   0  0  0  0  0  0  0  0  0  0  0  0
    1.6000   -0.0001    0.0000 C   0  0  0  0  0  0  0  0  0  0  0  0
    2.5405   -1.2945    0.0000 N   0  0  0  0  0  0  0  0  0  0  0  0
    4.0622   -0.7999    0.0000 N   0  0  0  0  0  0  0  0  0  0  0  0
    4.0622    0.8000    0.0000 C   0  0  0  0  0  0  0  0  0  0  0  0
    5.4479    1.6000    0.0000 N   0  0  0  0  0  0  0  0  0  0  0  0
    6.8333    0.8000    0.0000 C   0  0  0  0  0  0  0  0  0  0  0  0
    6.8333   -0.7999    0.0000 C   0  0  0  0  0  0  0  0  0  0  0  0
    8.2190   -1.6000    0.0000 H   0  0  0  0  0  0  0  0  0  0  0  0
    5.4479   -1.6000    0.0000 C   0  0  0  0  0  0  0  0  0  0  0  0
    5.4479   -3.2000    0.0000 H   0  0  0  0  0  0  0  0  0  0  0  0
    8.2190    1.6000    0.0000 C   0  0  0  0  0  0  0  0  0  0  0  0
    9.6047    2.4000    0.0000 H   0  0  0  0  0  0  0  0  0  0  0  0
    8.2190    3.2000    0.0000 H   0  0  0  0  0  0  0  0  0  0  0  0
    9.6047    0.8000    0.0000 H   0  0  0  0  0  0  0  0  0  0  0  0
    2.5405    1.2945    0.0000 N   0  0  0  0  0  0  0  0  0  0  0  0
   -1.5999    2.7713    0.0000 C   0  0  0  0  0  0  0  0  0  0  0  0
   -0.0001    2.7713    0.0000 F   0  0  0  0  0  0  0  0  0  0  0  0
   -2.4000    4.1569    0.0000 C   0  0  0  0  0  0  0  0  0  0  0  0
   -1.5999    5.5426    0.0000 H   0  0  0  0  0  0  0  0  0  0  0  0
   -4.0001    4.1569    0.0000 C   0  0  0  0  0  0  0  0  0  0  0  0
   -4.7999    5.5426    0.0000 H   0  0  0  0  0  0  0  0  0  0  0  0
   -4.7999    2.7713    0.0000 C   0  0  0  0  0  0  0  0  0  0  0  0
   -6.4000    2.7713    0.0000 H   0  0  0  0  0  0  0  0  0  0  0  0
  1  2  1  0  0  0  0
  2  3  1  0  0  0  0
  3  4  1  0  0  0  0
  4  5  1  0  0  0  0
  4  6  1  0  0  0  0
  6  7  2  0  0  0  0
  6  8  2  0  0  0  0
  6  9  1  0  0  0  0
  9 10  2  0  0  0  0
 10 11  1  0  0  0  0
 11 12  1  0  0  0  0
 12 13  1  0  0  0  0
 13 14  2  0  0  0  0
 14 15  1  0  0  0  0
 15 16  1  0  0  0  0
 15 17  2  0  0  0  0
 17 11  1  0  0  0  0
 17 18  1  0  0  0  0
 14 19  1  0  0  0  0
 19 20  1  0  0  0  0
 19 21  1  0  0  0  0
 19 22  1  0  0  0  0
 12 23  2  0  0  0  0
 23  9  1  0  0  0  0
  3 24  2  0  0  0  0
 24 25  1  0  0  0  0
 24 26  1  0  0  0  0
 26 27  1  0  0  0  0
 26 28  2  0  0  0  0
 28 29  1  0  0  0  0
 28 30  1  0  0  0  0
 30  2  2  0  0  0  0
 30 31  1  0  0  0  0
M  END
> <ChemID>
100761

> <source_casrn>
98967-40-9

> <CAS>
98967-40-9

> <SMILES>
Fc1cccc(F)c1NS(=O)(=O)c2nc3nc(C)ccn3n2

> <NAME>
FLUMETSULAM

> <preferred_name>
Flumetsulam

> <iupac>
N-(2,6-difluorophenyl)-5-methyl[1,2,4]triazolo[1,5-a]pyrimidine-2-sulfonamide

> <MPID>
100005

> <dsstox_substance_id>
DTXSID4032615

> <Canonical_QSARr>
Cc1cc[n]2[n]c([n]c2[n]1)S(=O)(=O)Nc1c(F)cccc1F

> <InChI_Code_QSARr>
InChI=1S/C12H9F2N5O2S/c1-7-5-6-19-11(15-7)16-12(17-19)22(20,21)18-10-8(13)3-2-4-9(10)14/h2-6,18H,1H3

> <InChI Key_QSARr>
RXCPQSJAVKGONC-UHFFFAOYSA-N

> <LogKOC>
1.45

$$$$
100765
  -INDIGO-08031722282D

 46 47  0  0  0  0  0  0  0  0999 V2000
   -2.7713    0.0000    0.0000 S   0  0  0  0  0  0  0  0  0  0  0  0
   -1.3857   -0.8000    0.0000 C   0  0  0  0  0  0  0  0  0  0  0  0
    0.0001    0.0000    0.0000 C   0  0  0  0  0  0  0  0  0  0  0  0
    0.0001    1.6000    0.0000 C   0  0  0  0  0  0  0  0  0  0  0  0
    1.3857    2.4000    0.0000 N   0  0  0  0  0  0  0  0  0  0  0  0
    1.3857    4.0000    0.0000 C   0  0  0  0  0  0  0  0  0  0  0  0
    1.3857    5.6000    0.0000 H   0  0  0  0  0  0  0  0  0  0  0  0
    2.7713    4.8000    0.0000 H   0  0  0  0  0  0  0  0  0  0  0  0
    0.0001    4.8000    0.0000 H   0  0  0  0  0  0  0  0  0  0  0  0
    2.7713    1.6000    0.0000 C   0  0  0  0  0  0  0  0  0  0  0  0
    4.1569    2.4000    0.0000 H   0  0  0  0  0  0  0  0  0  0  0  0
    4.1569    0.8000    0.0000 H   0  0  0  0  0  0  0  0  0  0  0  0
    2.7713    3.2000    0.0000 H   0  0  0  0  0  0  0  0  0  0  0  0
   -1.3857    2.4000    0.0000 O   0  0  0  0  0  0  0  0  0  0  0  0
    1.3857   -0.8000    0.0000 C   0  0  0  0  0  0  0  0  0  0  0  0
    2.7713    0.0000    0.0000 H   0  0  0  0  0  0  0  0  0  0  0  0
    1.3857   -2.4000    0.0000 C   0  0  0  0  0  0  0  0  0  0  0  0
    2.7713   -3.2000    0.0000 H   0  0  0  0  0  0  0  0  0  0  0  0
    0.0001   -3.2000    0.0000 C   0  0  0  0  0  0  0  0  0  0  0  0
    0.0001   -4.8000    0.0000 H   0  0  0  0  0  0  0  0  0  0  0  0
   -1.3857   -2.4000    0.0000 N   0  0  0  0  0  0  0  0  0  0  0  0
   -4.1569    0.8000    0.0000 N   0  0  0  0  0  0  0  0  0  0  0  0
   -4.1569    2.4000    0.0000 H   0  0  0  0  0  0  0  0  0  0  0  0
   -5.5425    0.0000    0.0000 C   0  0  0  0  0  0  0  0  0  0  0  0
   -6.9281    0.8000    0.0000 N   0  0  0  0  0  0  0  0  0  0  0  0
   -6.9281    2.4000    0.0000 H   0  0  0  0  0  0  0  0  0  0  0  0
   -8.3137    0.0000    0.0000 C   0  0  0  0  0  0  0  0  0  0  0  0
   -8.3137   -1.6000    0.0000 N   0  0  0  0  0  0  0  0  0  0  0  0
   -9.6996   -2.4000    0.0000 C   0  0  0  0  0  0  0  0  0  0  0  0
   -9.6996   -4.0000    0.0000 O   0  0  0  0  0  0  0  0  0  0  0  0
  -11.0852   -4.8000    0.0000 C   0  0  0  0  0  0  0  0  0  0  0  0
  -11.0852   -6.4000    0.0000 H   0  0  0  0  0  0  0  0  0  0  0  0
  -12.4708   -5.6000    0.0000 H   0  0  0  0  0  0  0  0  0  0  0  0
   -9.6996   -5.6000    0.0000 H   0  0  0  0  0  0  0  0  0  0  0  0
  -11.0852   -1.6000    0.0000 C   0  0  0  0  0  0  0  0  0  0  0  0
  -12.4708   -2.4000    0.0000 H   0  0  0  0  0  0  0  0  0  0  0  0
  -11.0852    0.0000    0.0000 C   0  0  0  0  0  0  0  0  0  0  0  0
  -12.4708    0.8000    0.0000 O   0  0  0  0  0  0  0  0  0  0  0  0
  -12.4708    2.4000    0.0000 C   0  0  0  0  0  0  0  0  0  0  0  0
  -13.8564    3.2000    0.0000 H   0  0  0  0  0  0  0  0  0  0  0  0
  -12.4708    4.0000    0.0000 H   0  0  0  0  0  0  0  0  0  0  0  0
  -11.0852    3.2000    0.0000 H   0  0  0  0  0  0  0  0  0  0  0  0
   -9.6996    0.8000    0.0000 N   0  0  0  0  0  0  0  0  0  0  0  0
   -5.5425   -1.6000    0.0000 O   0  0  0  0  0  0  0  0  0  0  0  0
   -3.5712   -1.3856    0.0000 O   0  0  0  0  0  0  0  0  0  0  0  0
   -1.9712    1.3856    0.0000 O   0  0  0  0  0  0  0  0  0  0  0  0
  1  2  1  0  0  0  0
  2  3  1  0  0  0  0
  3  4  1  0  0  0  0
  4  5  1  0  0  0  0
  5  6  1  0  0  0  0
  6  7  1  0  0  0  0
  6  8  1  0  0  0  0
  6  9  1  0  0  0  0
  5 10  1  0  0  0  0
 10 11  1  0  0  0  0
 10 12  1  0  0  0  0
 10 13  1  0  0  0  0
  4 14  2  0  0  0  0
  3 15  2  0  0  0  0
 15 16  1  0  0  0  0
 15 17  1  0  0  0  0
 17 18  1  0  0  0  0
 17 19  2  0  0  0  0
 19 20  1  0  0  0  0
 19 21  1  0  0  0  0
 21  2  2  0  0  0  0
  1 22  1  0  0  0  0
 22 23  1  0  0  0  0
 22 24  1  0  0  0  0
 24 25  1  0  0  0  0
 25 26  1  0  0  0  0
 25 27  1  0  0  0  0
 27 28  1  0  0  0  0
 28 29  2  0  0  0  0
 29 30  1  0  0  0  0
 30 31  1  0  0  0  0
 31 32  1  0  0  0  0
 31 33  1  0  0  0  0
 31 34  1  0  0  0  0
 29 35  1  0  0  0  0
 35 36  1  0  0  0  0
 35 37  2  0  0  0  0
 37 38  1  0  0  0  0
 38 39  1  0  0  0  0
 39 40  1  0  0  0  0
 39 41  1  0  0  0  0
 39 42  1  0  0  0  0
 37 43  1  0  0  0  0
 43 27  2  0  0  0  0
 24 44  2  0  0  0  0
  1 45  2  0  0  0  0
  1 46  2  0  0  0  0
M  END
> <ChemID>
100765

> <source_casrn>
111991-09-4

> <CAS>
111991-09-4

> <SMILES>
CN(C)C(=O)c1ccc[n]c1S(=O)(=O)NC(=O)Nc1[n]c(cc([n]1)OC)OC

> <NAME>
Nicosulfuron

> <preferred_name>
Nicosulfuron

> <iupac>
2-{[(4,6-dimethoxypyrimidin-2-yl)carbamoyl]sulfamoyl}-N,N-dimethylpyridine-3-carboxamide

> <MPID>
100008

> <dsstox_substance_id>
DTXSID6034764

> <Canonical_QSARr>
CN(C)C(=O)c1ccc[n]c1S(=O)(=O)NC(=O)Nc1[n]c(cc([n]1)OC)OC

> <InChI_Code_QSARr>
InChI=1S/C15H18N6O6S/c1-21(2)13(22)9-6-5-7-16-12(9)28(24,25)20-15(23)19-14-17-10(26-3)8-11(18-14)27-4/h5-8H,1-4H3,(H2,17,18,19,20,23)

> <InChI Key_QSARr>
RTCOGUMHFFWOJV-UHFFFAOYSA-N

> <LogKOC>
1.48

$$$$
100766
  -INDIGO-08031722282D

 45 47  0  0  0  0  0  0  0  0999 V2000
    3.4722    2.4217    0.0000 C   0  0  0  0  0  0  0  0  0  0  0  0
    4.1228    0.9599    0.0000 O   0  0  0  0  0  0  0  0  0  0  0  0
    4.4125    3.7161    0.0000 N   0  0  0  0  0  0  0  0  0  0  0  0
    3.7619    5.1776    0.0000 H   0  0  0  0  0  0  0  0  0  0  0  0
    6.0037    3.5488    0.0000 C   0  0  0  0  0  0  0  0  0  0  0  0
    6.9443    4.8432    0.0000 N   0  0  0  0  0  0  0  0  0  0  0  0
    8.5355    4.6761    0.0000 C   0  0  0  0  0  0  0  0  0  0  0  0
    9.4761    5.9705    0.0000 O   0  0  0  0  0  0  0  0  0  0  0  0
    8.8252    7.4320    0.0000 C   0  0  0  0  0  0  0  0  0  0  0  0
    9.7656    8.7264    0.0000 H   0  0  0  0  0  0  0  0  0  0  0  0
    8.1744    8.8937    0.0000 H   0  0  0  0  0  0  0  0  0  0  0  0
    7.2340    7.5993    0.0000 H   0  0  0  0  0  0  0  0  0  0  0  0
    9.1864    3.2143    0.0000 C   0  0  0  0  0  0  0  0  0  0  0  0
   10.7776    3.0470    0.0000 H   0  0  0  0  0  0  0  0  0  0  0  0
    8.2458    1.9199    0.0000 C   0  0  0  0  0  0  0  0  0  0  0  0
    8.8967    0.4582    0.0000 O   0  0  0  0  0  0  0  0  0  0  0  0
   10.4879    0.2910    0.0000 C   0  0  0  0  0  0  0  0  0  0  0  0
   11.1388   -1.1707    0.0000 H   0  0  0  0  0  0  0  0  0  0  0  0
   12.0791    0.1237    0.0000 H   0  0  0  0  0  0  0  0  0  0  0  0
    9.5473   -1.0036    0.0000 H   0  0  0  0  0  0  0  0  0  0  0  0
    6.6546    2.0870    0.0000 N   0  0  0  0  0  0  0  0  0  0  0  0
    1.8810    2.5888    0.0000 N   0  0  0  0  0  0  0  0  0  0  0  0
    1.2301    4.0505    0.0000 H   0  0  0  0  0  0  0  0  0  0  0  0
    0.9404    1.2944    0.0000 S   0  0  0  0  0  0  0  0  0  0  0  0
    2.2349    0.3540    0.0000 O   0  0  0  0  0  0  0  0  0  0  0  0
   -0.3539    2.2349    0.0000 O   0  0  0  0  0  0  0  0  0  0  0  0
    0.0001   -0.0000    0.0000 C   0  0  0  0  0  0  0  0  0  0  0  0
    0.4945   -1.5217    0.0000 N   0  0  0  0  0  0  0  0  0  0  0  0
    2.0161   -2.0161    0.0000 C   0  0  0  0  0  0  0  0  0  0  0  0
    3.5379   -2.5106    0.0000 H   0  0  0  0  0  0  0  0  0  0  0  0
    2.3489   -3.5812    0.0000 H   0  0  0  0  0  0  0  0  0  0  0  0
    3.2051   -0.9455    0.0000 H   0  0  0  0  0  0  0  0  0  0  0  0
   -0.8000   -2.4621    0.0000 N   0  0  0  0  0  0  0  0  0  0  0  0
   -2.0943   -1.5217    0.0000 C   0  0  0  0  0  0  0  0  0  0  0  0
   -3.6161   -2.0161    0.0000 H   0  0  0  0  0  0  0  0  0  0  0  0
   -1.5999   -0.0000    0.0000 C   0  0  0  0  0  0  0  0  0  0  0  0
   -2.5405    1.2944    0.0000 C   0  0  0  0  0  0  0  0  0  0  0  0
   -4.1404    1.2944    0.0000 N   0  0  0  0  0  0  0  0  0  0  0  0
   -4.6348    2.8161    0.0000 N   0  0  0  0  0  0  0  0  0  0  0  0
   -6.1567    3.3106    0.0000 C   0  0  0  0  0  0  0  0  0  0  0  0
   -7.6783    3.8050    0.0000 H   0  0  0  0  0  0  0  0  0  0  0  0
   -6.4892    4.8755    0.0000 H   0  0  0  0  0  0  0  0  0  0  0  0
   -7.3457    2.2399    0.0000 H   0  0  0  0  0  0  0  0  0  0  0  0
   -3.3406    3.7566    0.0000 N   0  0  0  0  0  0  0  0  0  0  0  0
   -2.0461    2.8161    0.0000 N   0  0  0  0  0  0  0  0  0  0  0  0
  1  2  2  0  0  0  0
  1  3  1  0  0  0  0
  3  4  1  0  0  0  0
  3  5  1  0  0  0  0
  5  6  1  0  0  0  0
  6  7  2  0  0  0  0
  7  8  1  0  0  0  0
  8  9  1  0  0  0  0
  9 10  1  0  0  0  0
  9 11  1  0  0  0  0
  9 12  1  0  0  0  0
  7 13  1  0  0  0  0
 13 14  1  0  0  0  0
 13 15  2  0  0  0  0
 15 16  1  0  0  0  0
 16 17  1  0  0  0  0
 17 18  1  0  0  0  0
 17 19  1  0  0  0  0
 17 20  1  0  0  0  0
 15 21  1  0  0  0  0
 21  5  2  0  0  0  0
  1 22  1  0  0  0  0
 22 23  1  0  0  0  0
 22 24  1  0  0  0  0
 24 25  2  0  0  0  0
 24 26  2  0  0  0  0
 24 27  1  0  0  0  0
 27 28  1  0  0  0  0
 28 29  1  0  0  0  0
 29 30  1  0  0  0  0
 29 31  1  0  0  0  0
 29 32  1  0  0  0  0
 28 33  1  0  0  0  0
 33 34  2  0  0  0  0
 34 35  1  0  0  0  0
 34 36  1  0  0  0  0
 36 27  2  0  0  0  0
 36 37  1  0  0  0  0
 37 38  2  0  0  0  0
 38 39  1  0  0  0  0
 39 40  1  0  0  0  0
 40 41  1  0  0  0  0
 40 42  1  0  0  0  0
 40 43  1  0  0  0  0
 39 44  1  0  0  0  0
 44 45  2  0  0  0  0
 45 37  1  0  0  0  0
M  END
> <ChemID>
100766

> <source_casrn>
120162-55-2

> <CAS>
120162-55-2

> <SMILES>
C[n]1[n][n]c([n]1)-c1c[n][n](C)c1S(=O)(=O)NC(=O)Nc1[n]c(cc([n]1)OC)OC

> <NAME>
Azimsulfuron

> <preferred_name>
Azimsulfuron

> <iupac>
N-[(4,6-dimethoxypyrimidin-2-yl)carbamoyl]-1-methyl-4-(2-methyl-2H-tetrazol-5-yl)-1H-pyrazole-5-sulfonamide

> <MPID>
100009

> <dsstox_substance_id>
DTXSID8041614

> <Canonical_QSARr>
C[n]1[n][n]c([n]1)-c1c[n][n](C)c1S(=O)(=O)NC(=O)Nc1[n]c(cc([n]1)OC)OC

> <InChI_Code_QSARr>
InChI=1S/C13H16N10O5S/c1-22-11(7(6-14-22)10-18-21-23(2)19-10)29(25,26)20-13(24)17-12-15-8(27-3)5-9(16-12)28-4/h5-6H,1-4H3,(H2,15,16,17,20,24)

> <InChI Key_QSARr>
MAHPNPYYQAIOJN-UHFFFAOYSA-N

> <LogKOC>
1.89

$$$$
100767
  -INDIGO-08031722282D

 45 46  0  0  0  0  0  0  0  0999 V2000
    2.3999   -1.3856    0.0000 C   0  0  0  0  0  0  0  0  0  0  0  0
    3.6257   -0.3572    0.0000 S   0  0  0  0  0  0  0  0  0  0  0  0
    4.8515    0.6713    0.0000 N   0  0  0  0  0  0  0  0  0  0  0  0
    4.5734    2.2469    0.0000 H   0  0  0  0  0  0  0  0  0  0  0  0
    6.3548    0.1241    0.0000 C   0  0  0  0  0  0  0  0  0  0  0  0
    7.5806    1.1526    0.0000 N   0  0  0  0  0  0  0  0  0  0  0  0
    7.3028    2.7282    0.0000 H   0  0  0  0  0  0  0  0  0  0  0  0
    9.0839    0.6053    0.0000 C   0  0  0  0  0  0  0  0  0  0  0  0
   10.3097    1.6337    0.0000 N   0  0  0  0  0  0  0  0  0  0  0  0
   11.8133    1.0864    0.0000 C   0  0  0  0  0  0  0  0  0  0  0  0
   13.0388    2.1150    0.0000 O   0  0  0  0  0  0  0  0  0  0  0  0
   12.7610    3.6906    0.0000 C   0  0  0  0  0  0  0  0  0  0  0  0
   13.9868    4.7191    0.0000 H   0  0  0  0  0  0  0  0  0  0  0  0
   12.4832    5.2663    0.0000 H   0  0  0  0  0  0  0  0  0  0  0  0
   11.2574    4.2378    0.0000 H   0  0  0  0  0  0  0  0  0  0  0  0
   12.0911   -0.4892    0.0000 C   0  0  0  0  0  0  0  0  0  0  0  0
   13.5947   -1.0364    0.0000 H   0  0  0  0  0  0  0  0  0  0  0  0
   10.8653   -1.5177    0.0000 C   0  0  0  0  0  0  0  0  0  0  0  0
   11.1433   -3.0933    0.0000 O   0  0  0  0  0  0  0  0  0  0  0  0
   12.6466   -3.6406    0.0000 C   0  0  0  0  0  0  0  0  0  0  0  0
   12.9244   -5.2163    0.0000 H   0  0  0  0  0  0  0  0  0  0  0  0
   14.1502   -4.1878    0.0000 H   0  0  0  0  0  0  0  0  0  0  0  0
   11.4211   -4.6691    0.0000 H   0  0  0  0  0  0  0  0  0  0  0  0
    9.3620   -0.9704    0.0000 N   0  0  0  0  0  0  0  0  0  0  0  0
    6.6326   -1.4517    0.0000 O   0  0  0  0  0  0  0  0  0  0  0  0
    4.6540   -1.5828    0.0000 O   0  0  0  0  0  0  0  0  0  0  0  0
    2.5973    0.8686    0.0000 O   0  0  0  0  0  0  0  0  0  0  0  0
    3.2000   -2.7714    0.0000 N   0  0  0  0  0  0  0  0  0  0  0  0
    2.3999   -4.1570    0.0000 C   0  0  0  0  0  0  0  0  0  0  0  0
    3.2000   -5.5426    0.0000 H   0  0  0  0  0  0  0  0  0  0  0  0
    0.7999   -4.1570    0.0000 C   0  0  0  0  0  0  0  0  0  0  0  0
    0.0001   -5.5426    0.0000 H   0  0  0  0  0  0  0  0  0  0  0  0
    0.0001   -2.7714    0.0000 C   0  0  0  0  0  0  0  0  0  0  0  0
   -1.5999   -2.7714    0.0000 H   0  0  0  0  0  0  0  0  0  0  0  0
    0.7999   -1.3856    0.0000 C   0  0  0  0  0  0  0  0  0  0  0  0
    0.0001    0.0000    0.0000 S   0  0  0  0  0  0  0  0  0  0  0  0
   -0.8001    1.3856    0.0000 C   0  0  0  0  0  0  0  0  0  0  0  0
    0.4695    2.3597    0.0000 H   0  0  0  0  0  0  0  0  0  0  0  0
   -0.5912    2.9720    0.0000 H   0  0  0  0  0  0  0  0  0  0  0  0
   -2.4000    1.3856    0.0000 C   0  0  0  0  0  0  0  0  0  0  0  0
   -4.0000    1.3856    0.0000 H   0  0  0  0  0  0  0  0  0  0  0  0
   -3.1999    2.7712    0.0000 H   0  0  0  0  0  0  0  0  0  0  0  0
   -3.1999    0.0000    0.0000 H   0  0  0  0  0  0  0  0  0  0  0  0
   -1.3855   -0.8001    0.0000 O   0  0  0  0  0  0  0  0  0  0  0  0
    1.3857    0.8000    0.0000 O   0  0  0  0  0  0  0  0  0  0  0  0
  1  2  1  0  0  0  0
  2  3  1  0  0  0  0
  3  4  1  0  0  0  0
  3  5  1  0  0  0  0
  5  6  1  0  0  0  0
  6  7  1  0  0  0  0
  6  8  1  0  0  0  0
  8  9  1  0  0  0  0
  9 10  2  0  0  0  0
 10 11  1  0  0  0  0
 11 12  1  0  0  0  0
 12 13  1  0  0  0  0
 12 14  1  0  0  0  0
 12 15  1  0  0  0  0
 10 16  1  0  0  0  0
 16 17  1  0  0  0  0
 16 18  2  0  0  0  0
 18 19  1  0  0  0  0
 19 20  1  0  0  0  0
 20 21  1  0  0  0  0
 20 22  1  0  0  0  0
 20 23  1  0  0  0  0
 18 24  1  0  0  0  0
 24  8  2  0  0  0  0
  5 25  2  0  0  0  0
  2 26  2  0  0  0  0
  2 27  2  0  0  0  0
  1 28  1  0  0  0  0
 28 29  2  0  0  0  0
 29 30  1  0  0  0  0
 29 31  1  0  0  0  0
 31 32  1  0  0  0  0
 31 33  2  0  0  0  0
 33 34  1  0  0  0  0
 33 35  1  0  0  0  0
 35  1  2  0  0  0  0
 35 36  1  0  0  0  0
 36 37  1  0  0  0  0
 37 38  1  0  0  0  0
 37 39  1  0  0  0  0
 37 40  1  0  0  0  0
 40 41  1  0  0  0  0
 40 42  1  0  0  0  0
 40 43  1  0  0  0  0
 36 44  2  0  0  0  0
 36 45  2  0  0  0  0
M  END
> <ChemID>
100767

> <source_casrn>
122931-48-0

> <CAS>
122931-48-0

> <SMILES>
CCS(=O)(=O)c1ccc[n]c1S(=O)(=O)NC(=O)Nc1[n]c(cc([n]1)OC)OC

> <NAME>
RIMSULFURON

> <preferred_name>
Rimsulfuron

> <iupac>
N-[(4,6-dimethoxypyrimidin-2-yl)carbamoyl]-3-(ethylsulfonyl)pyridine-2-sulfonamide

> <MPID>
100010

> <dsstox_substance_id>
DTXSID1032642

> <Canonical_QSARr>
CCS(=O)(=O)c1ccc[n]c1S(=O)(=O)NC(=O)Nc1[n]c(cc([n]1)OC)OC

> <InChI_Code_QSARr>
InChI=1S/C14H17N5O7S2/c1-4-27(21,22)9-6-5-7-15-12(9)28(23,24)19-14(20)18-13-16-10(25-2)8-11(17-13)26-3/h5-8H,4H2,1-3H3,(H2,16,17,18,19,20)

> <InChI Key_QSARr>
MEFOUWRMVYJCQC-UHFFFAOYSA-N

> <LogKOC>
1.71

$$$$
100770
  -INDIGO-08031722282D

 45 46  0  0  0  0  0  0  0  0999 V2000
    4.1570   -0.8000    0.0000 O   0  0  0  0  0  0  0  0  0  0  0  0
    5.5426   -1.6000    0.0000 H   0  0  0  0  0  0  0  0  0  0  0  0
    4.1570    0.8000    0.0000 C   0  0  0  0  0  0  0  0  0  0  0  0
    2.7712    1.6000    0.0000 N   0  0  0  0  0  0  0  0  0  0  0  0
    2.7712    3.2000    0.0000 H   0  0  0  0  0  0  0  0  0  0  0  0
    1.3856    0.8000    0.0000 S   0  0  0  0  0  0  0  0  0  0  0  0
    2.1856   -0.5856    0.0000 O   0  0  0  0  0  0  0  0  0  0  0  0
    0.5857    2.1856    0.0000 O   0  0  0  0  0  0  0  0  0  0  0  0
    0.0001    0.0000    0.0000 C   0  0  0  0  0  0  0  0  0  0  0  0
   -1.3855    0.8000    0.0000 C   0  0  0  0  0  0  0  0  0  0  0  0
   -1.3855    2.4000    0.0000 C   0  0  0  0  0  0  0  0  0  0  0  0
    0.0001    3.2000    0.0000 O   0  0  0  0  0  0  0  0  0  0  0  0
   -2.7713    3.2000    0.0000 O   0  0  0  0  0  0  0  0  0  0  0  0
   -2.7713    4.8000    0.0000 C   0  0  0  0  0  0  0  0  0  0  0  0
   -2.7713    6.4000    0.0000 H   0  0  0  0  0  0  0  0  0  0  0  0
   -4.1569    5.6000    0.0000 H   0  0  0  0  0  0  0  0  0  0  0  0
   -1.3855    5.6000    0.0000 H   0  0  0  0  0  0  0  0  0  0  0  0
   -2.7713    0.0000    0.0000 C   0  0  0  0  0  0  0  0  0  0  0  0
   -4.1569    0.8000    0.0000 H   0  0  0  0  0  0  0  0  0  0  0  0
   -2.7713   -1.6000    0.0000 C   0  0  0  0  0  0  0  0  0  0  0  0
   -4.1569   -2.4000    0.0000 H   0  0  0  0  0  0  0  0  0  0  0  0
   -1.3855   -2.4000    0.0000 C   0  0  0  0  0  0  0  0  0  0  0  0
   -1.3855   -4.0000    0.0000 C   0  0  0  0  0  0  0  0  0  0  0  0
   -1.3855   -5.6000    0.0000 F   0  0  0  0  0  0  0  0  0  0  0  0
    0.0001   -4.8000    0.0000 F   0  0  0  0  0  0  0  0  0  0  0  0
   -2.7713   -4.8000    0.0000 F   0  0  0  0  0  0  0  0  0  0  0  0
    0.0001   -1.6000    0.0000 N   0  0  0  0  0  0  0  0  0  0  0  0
    5.5426    1.6000    0.0000 N   0  0  0  0  0  0  0  0  0  0  0  0
    6.9282    0.8000    0.0000 C   0  0  0  0  0  0  0  0  0  0  0  0
    6.9282   -0.8000    0.0000 N   0  0  0  0  0  0  0  0  0  0  0  0
    8.3138   -1.6000    0.0000 C   0  0  0  0  0  0  0  0  0  0  0  0
    8.3138   -3.2000    0.0000 O   0  0  0  0  0  0  0  0  0  0  0  0
    9.6996   -4.0000    0.0000 C   0  0  0  0  0  0  0  0  0  0  0  0
    9.6996   -5.6000    0.0000 H   0  0  0  0  0  0  0  0  0  0  0  0
   11.0852   -4.8000    0.0000 H   0  0  0  0  0  0  0  0  0  0  0  0
    8.3138   -4.8000    0.0000 H   0  0  0  0  0  0  0  0  0  0  0  0
    9.6996   -0.8000    0.0000 C   0  0  0  0  0  0  0  0  0  0  0  0
   11.0852   -1.6000    0.0000 H   0  0  0  0  0  0  0  0  0  0  0  0
    9.6996    0.8000    0.0000 C   0  0  0  0  0  0  0  0  0  0  0  0
   11.0852    1.6000    0.0000 O   0  0  0  0  0  0  0  0  0  0  0  0
   11.0852    3.2000    0.0000 C   0  0  0  0  0  0  0  0  0  0  0  0
   12.4708    4.0000    0.0000 H   0  0  0  0  0  0  0  0  0  0  0  0
   11.0852    4.8000    0.0000 H   0  0  0  0  0  0  0  0  0  0  0  0
    9.6994    4.0000    0.0000 H   0  0  0  0  0  0  0  0  0  0  0  0
    8.3138    1.6000    0.0000 N   0  0  0  0  0  0  0  0  0  0  0  0
  1  2  1  0  0  0  0
  1  3  1  0  0  0  0
  3  4  1  0  0  0  0
  4  5  1  0  0  0  0
  4  6  1  0  0  0  0
  6  7  2  0  0  0  0
  6  8  2  0  0  0  0
  6  9  1  0  0  0  0
  9 10  1  0  0  0  0
 10 11  1  0  0  0  0
 11 12  2  0  0  0  0
 11 13  1  0  0  0  0
 13 14  1  0  0  0  0
 14 15  1  0  0  0  0
 14 16  1  0  0  0  0
 14 17  1  0  0  0  0
 10 18  2  0  0  0  0
 18 19  1  0  0  0  0
 18 20  1  0  0  0  0
 20 21  1  0  0  0  0
 20 22  2  0  0  0  0
 22 23  1  0  0  0  0
 23 24  1  0  0  0  0
 23 25  1  0  0  0  0
 23 26  1  0  0  0  0
 22 27  1  0  0  0  0
 27  9  2  0  0  0  0
  3 28  2  0  0  0  0
 28 29  1  0  0  0  0
 29 30  1  0  0  0  0
 30 31  2  0  0  0  0
 31 32  1  0  0  0  0
 32 33  1  0  0  0  0
 33 34  1  0  0  0  0
 33 35  1  0  0  0  0
 33 36  1  0  0  0  0
 31 37  1  0  0  0  0
 37 38  1  0  0  0  0
 37 39  2  0  0  0  0
 39 40  1  0  0  0  0
 40 41  1  0  0  0  0
 41 42  1  0  0  0  0
 41 43  1  0  0  0  0
 41 44  1  0  0  0  0
 39 45  1  0  0  0  0
 45 29  2  0  0  0  0
M  END
> <ChemID>
100770

> <source_casrn>
144740-54-5

> <CAS>
144740-54-5

> <SMILES>
COC(=O)c1ccc(C(F)(F)F)nc1S(=O)(=O)N([Na])C(=O)Nc2nc(OC)cc(OC)n2

> <NAME>
FLUPYRSULFURON-METHYL-SODIUM

> <preferred_name>
Flupyrsulfuron-methyl-sodium

> <iupac>
sodium N'-(4,6-dimethoxypyrimidin-2-yl)-N-{[3-(methoxycarbonyl)-6-(trifluoromethyl)pyridin-2-yl]sulfonyl}carbamimidate

> <MPID>
100013

> <dsstox_substance_id>
DTXSID9058311

> <Canonical_QSARr>
COC(=O)c1ccc([n]c1S(=O)(=O)NC(O)=Nc1[n]c(cc([n]1)OC)OC)C(F)(F)F

> <InChI_Code_QSARr>
InChI=1S/C15H14F3N5O7S/c1-28-9-6-10(29-2)21-13(20-9)22-14(25)23-31(26,27)11-7(12(24)30-3)4-5-8(19-11)15(16,17)18/h4-6H,1-3H3,(H2,20,21,22,23,25)

> <InChI Key_QSARr>
DTVOKYWXACGVGO-UHFFFAOYSA-N

> <LogKOC>
1.46

$$$$
100771
  -INDIGO-08031722282D

 26 27  0  0  0  0  0  0  0  0999 V2000
   -4.4896    2.3650    0.0000 N   0  0  0  0  0  0  0  0  0  0  0  0
   -6.0809    2.5323    0.0000 N   0  0  0  0  0  0  0  0  0  0  0  0
   -6.7316    1.0706    0.0000 N   0  0  0  0  0  0  0  0  0  0  0  0
   -8.2966    0.7379    0.0000 H   0  0  0  0  0  0  0  0  0  0  0  0
   -5.5425    0.0000    0.0000 C   0  0  0  0  0  0  0  0  0  0  0  0
   -4.1568    0.8000    0.0000 C   0  0  0  0  0  0  0  0  0  0  0  0
   -2.7713    0.0000    0.0000 C   0  0  0  0  0  0  0  0  0  0  0  0
   -2.7713   -1.6000    0.0000 C   0  0  0  0  0  0  0  0  0  0  0  0
   -1.3857   -2.4000    0.0000 H   0  0  0  0  0  0  0  0  0  0  0  0
   -4.1568   -2.4000    0.0000 C   0  0  0  0  0  0  0  0  0  0  0  0
   -4.1568   -4.0000    0.0000 H   0  0  0  0  0  0  0  0  0  0  0  0
   -5.5425   -1.6000    0.0000 C   0  0  0  0  0  0  0  0  0  0  0  0
   -6.9282   -2.4000    0.0000 H   0  0  0  0  0  0  0  0  0  0  0  0
   -1.3857    0.8000    0.0000 C   0  0  0  0  0  0  0  0  0  0  0  0
   -1.9979    2.2782    0.0000 H   0  0  0  0  0  0  0  0  0  0  0  0
   -0.7734    2.2782    0.0000 H   0  0  0  0  0  0  0  0  0  0  0  0
    0.0000    0.0000    0.0000 C   0  0  0  0  0  0  0  0  0  0  0  0
    0.6123   -1.4782    0.0000 H   0  0  0  0  0  0  0  0  0  0  0  0
   -0.6122   -1.4782    0.0000 H   0  0  0  0  0  0  0  0  0  0  0  0
    1.3857    0.8000    0.0000 C   0  0  0  0  0  0  0  0  0  0  0  0
    0.7733    2.2782    0.0000 H   0  0  0  0  0  0  0  0  0  0  0  0
    1.9980    2.2782    0.0000 H   0  0  0  0  0  0  0  0  0  0  0  0
    2.7712    0.0000    0.0000 C   0  0  0  0  0  0  0  0  0  0  0  0
    4.1569   -0.8000    0.0000 H   0  0  0  0  0  0  0  0  0  0  0  0
    4.1569    0.8000    0.0000 H   0  0  0  0  0  0  0  0  0  0  0  0
    2.7712   -1.6000    0.0000 H   0  0  0  0  0  0  0  0  0  0  0  0
  1  2  2  0  0  0  0
  2  3  1  0  0  0  0
  3  4  1  0  0  0  0
  3  5  1  0  0  0  0
  5  6  1  0  0  0  0
  6  1  1  0  0  0  0
  6  7  2  0  0  0  0
  7  8  1  0  0  0  0
  8  9  1  0  0  0  0
  8 10  2  0  0  0  0
 10 11  1  0  0  0  0
 10 12  1  0  0  0  0
 12  5  2  0  0  0  0
 12 13  1  0  0  0  0
  7 14  1  0  0  0  0
 14 15  1  0  0  0  0
 14 16  1  0  0  0  0
 14 17  1  0  0  0  0
 17 18  1  0  0  0  0
 17 19  1  0  0  0  0
 17 20  1  0  0  0  0
 20 21  1  0  0  0  0
 20 22  1  0  0  0  0
 20 23  1  0  0  0  0
 23 24  1  0  0  0  0
 23 25  1  0  0  0  0
 23 26  1  0  0  0  0
M  END
> <ChemID>
100771

> <source_casrn>
KOC000-00-1

> <CAS>
NOCAS_876006

> <SMILES>
c1cc(CCCC)c2nnnc2c1

> <NAME>
4-N-BUTYLBENZOTRIAZOLE

> <preferred_name>


> <iupac>


> <MPID>
100014

> <dsstox_substance_id>
DTXSID60876006

> <Canonical_QSARr>
CCCCc1cccc2[nH][n][n]c21

> <InChI_Code_QSARr>
InChI=1S/C10H13N3/c1-2-3-5-8-6-4-7-9-10(8)12-13-11-9/h4,6-7H,2-3,5H2,1H3,(H,11,12,13)

> <InChI Key_QSARr>
IPIVUPVIFPKFTG-UHFFFAOYSA-N

> <LogKOC>
2.16

$$$$
100773
  -INDIGO-08031722282D

 14 15  0  0  0  0  0  0  0  0999 V2000
   -0.2706    2.5746    0.0000 N   0  0  0  0  0  0  0  0  0  0  0  0
   -1.7323    1.9239    0.0000 N   0  0  0  0  0  0  0  0  0  0  0  0
   -1.5651    0.3327    0.0000 N   0  0  0  0  0  0  0  0  0  0  0  0
   -2.7541   -0.7380    0.0000 H   0  0  0  0  0  0  0  0  0  0  0  0
    0.0000   -0.0000    0.0000 C   0  0  0  0  0  0  0  0  0  0  0  0
    0.8000    1.3856    0.0000 C   0  0  0  0  0  0  0  0  0  0  0  0
    2.4000    1.3856    0.0000 C   0  0  0  0  0  0  0  0  0  0  0  0
    3.2000   -0.0000    0.0000 C   0  0  0  0  0  0  0  0  0  0  0  0
    4.8000   -0.0000    0.0000 H   0  0  0  0  0  0  0  0  0  0  0  0
    2.4000   -1.3856    0.0000 C   0  0  0  0  0  0  0  0  0  0  0  0
    3.2000   -2.7713    0.0000 H   0  0  0  0  0  0  0  0  0  0  0  0
    0.8000   -1.3856    0.0000 C   0  0  0  0  0  0  0  0  0  0  0  0
    0.0000   -2.7713    0.0000 H   0  0  0  0  0  0  0  0  0  0  0  0
    3.2000    2.7713    0.0000 F   0  0  0  0  0  0  0  0  0  0  0  0
  1  2  2  0  0  0  0
  2  3  1  0  0  0  0
  3  4  1  0  0  0  0
  3  5  1  0  0  0  0
  5  6  1  0  0  0  0
  6  1  1  0  0  0  0
  6  7  2  0  0  0  0
  7  8  1  0  0  0  0
  8  9  1  0  0  0  0
  8 10  2  0  0  0  0
 10 11  1  0  0  0  0
 10 12  1  0  0  0  0
 12  5  2  0  0  0  0
 12 13  1  0  0  0  0
  7 14  1  0  0  0  0
M  END
> <ChemID>
100773

> <source_casrn>
KOC000-00-3

> <CAS>
NOCAS_878864

> <SMILES>
c1cc(F)c2nnnc2c1

> <NAME>
4-FLUOROBENZOTRIAZOLE

> <preferred_name>


> <iupac>


> <MPID>
100015

> <dsstox_substance_id>
DTXSID20878864

> <Canonical_QSARr>
Fc1cccc2[nH][n][n]c21

> <InChI_Code_QSARr>
InChI=1S/C6H4FN3/c7-4-2-1-3-5-6(4)9-10-8-5/h1-3H,(H,8,9,10)

> <InChI Key_QSARr>
ALDDXGSQUCGTDT-UHFFFAOYSA-N

> <LogKOC>
1.87

$$$$
