100001
  -INDIGO-08031722522D

  4  3  0  0  0  0  0  0  0  0999 V2000
    0.0000    0.0000    0.0000 C   0  0  0  0  0  0  0  0  0  0  0  0
    1.3856    0.8000    0.0000 H   0  0  0  0  0  0  0  0  0  0  0  0
   -1.3856    0.8000    0.0000 H   0  0  0  0  0  0  0  0  0  0  0  0
    0.0000   -1.6000    0.0000 O   0  0  0  0  0  0  0  0  0  0  0  0
  1  2  1  0  0  0  0
  1  3  1  0  0  0  0
  1  4  2  0  0  0  0
M  END
> <ChemID>
100001

> <source_casrn>
50-00-0

> <CAS>
50-00-0

> <SMILES>
C=O

> <NAME>
Formaldehyde

> <preferred_name>
Formaldehyde

> <iupac>
formaldehyde

> <MPID>
100017

> <dsstox_substance_id>
DTXSID7020637

> <Canonical_QSARr>
C=O

> <InChI_Code_QSARr>
InChI=1S/CH2O/c1-2/h1H2

> <InChI Key_QSARr>
WSFSSNUMVMOOMR-UHFFFAOYSA-N

> <Salt_Solvent>
?

> <Ready_Biodeg>
1.0

$$$$
100002
  -INDIGO-08031722522D

 29 29  0  0  0  0  0  0  0  0999 V2000
    2.6701   -3.2848    0.0000 Cl  0  0  0  0  0  0  0  0  0  0  0  0
    3.6987   -2.0592    0.0000 C   0  0  0  0  0  0  0  0  0  0  0  0
    4.2459   -3.5627    0.0000 H   0  0  0  0  0  0  0  0  0  0  0  0
    5.2743   -2.3370    0.0000 H   0  0  0  0  0  0  0  0  0  0  0  0
    2.1229   -1.7814    0.0000 C   0  0  0  0  0  0  0  0  0  0  0  0
    1.6418   -3.3073    0.0000 H   0  0  0  0  0  0  0  0  0  0  0  0
    0.7037   -2.5201    0.0000 H   0  0  0  0  0  0  0  0  0  0  0  0
    1.5756   -0.2778    0.0000 N   0  0  0  0  0  0  0  0  0  0  0  0
    2.6042    0.9478    0.0000 C   0  0  0  0  0  0  0  0  0  0  0  0
    1.5232    2.1275    0.0000 H   0  0  0  0  0  0  0  0  0  0  0  0
    2.6740    2.5463    0.0000 H   0  0  0  0  0  0  0  0  0  0  0  0
    4.1798    0.6700    0.0000 C   0  0  0  0  0  0  0  0  0  0  0  0
    5.2083    1.8956    0.0000 H   0  0  0  0  0  0  0  0  0  0  0  0
    5.7555    0.3922    0.0000 H   0  0  0  0  0  0  0  0  0  0  0  0
    3.6327    2.1735    0.0000 Cl  0  0  0  0  0  0  0  0  0  0  0  0
    0.0000    0.0000    0.0000 P   0  0  0  0  0  0  0  0  0  0  0  0
    0.5473    1.5035    0.0000 O   0  0  0  0  0  0  0  0  0  0  0  0
   -1.3857    0.8000    0.0000 N   0  0  0  0  0  0  0  0  0  0  0  0
   -1.3857    2.4000    0.0000 H   0  0  0  0  0  0  0  0  0  0  0  0
   -2.7712    0.0000    0.0000 C   0  0  0  0  0  0  0  0  0  0  0  0
   -3.3185    1.5035    0.0000 H   0  0  0  0  0  0  0  0  0  0  0  0
   -4.3470   -0.2778    0.0000 H   0  0  0  0  0  0  0  0  0  0  0  0
   -2.7712   -1.6000    0.0000 C   0  0  0  0  0  0  0  0  0  0  0  0
   -4.3470   -1.3222    0.0000 H   0  0  0  0  0  0  0  0  0  0  0  0
   -3.3185   -3.1035    0.0000 H   0  0  0  0  0  0  0  0  0  0  0  0
   -1.3857   -2.4000    0.0000 C   0  0  0  0  0  0  0  0  0  0  0  0
   -2.4140   -3.6257    0.0000 H   0  0  0  0  0  0  0  0  0  0  0  0
   -0.3571   -3.6257    0.0000 H   0  0  0  0  0  0  0  0  0  0  0  0
    0.0000   -1.6000    0.0000 O   0  0  0  0  0  0  0  0  0  0  0  0
  1  2  1  0  0  0  0
  2  3  1  0  0  0  0
  2  4  1  0  0  0  0
  2  5  1  0  0  0  0
  5  6  1  0  0  0  0
  5  7  1  0  0  0  0
  5  8  1  0  0  0  0
  8  9  1  0  0  0  0
  9 10  1  0  0  0  0
  9 11  1  0  0  0  0
  9 12  1  0  0  0  0
 12 13  1  0  0  0  0
 12 14  1  0  0  0  0
 12 15  1  0  0  0  0
  8 16  1  0  0  0  0
 16 17  2  0  0  0  0
 16 18  1  0  0  0  0
 18 19  1  0  0  0  0
 18 20  1  0  0  0  0
 20 21  1  0  0  0  0
 20 22  1  0  0  0  0
 20 23  1  0  0  0  0
 23 24  1  0  0  0  0
 23 25  1  0  0  0  0
 23 26  1  0  0  0  0
 26 27  1  0  0  0  0
 26 28  1  0  0  0  0
 26 29  1  0  0  0  0
 29 16  1  0  0  0  0
M  END
> <ChemID>
100002

> <source_casrn>
50-18-0

> <CAS>
50-18-0

> <SMILES>
O=P1(NCCCO1)N(CCCl)CCCl

> <NAME>
Cyclophosphamide

> <preferred_name>
Cyclophosphamide

> <iupac>
N,N-bis(2-chloroethyl)-1,3,2-oxazaphosphinan-2-amine 2-oxide

> <MPID>
100018

> <dsstox_substance_id>
DTXSID5020364

> <Canonical_QSARr>
O=P1(NCCCO1)N(CCCl)CCCl

> <InChI_Code_QSARr>
InChI=1S/C7H15Cl2N2O2P/c8-2-5-11(6-3-9)14(12)10-4-1-7-13-14/h1-7H2,(H,10,12)

> <InChI Key_QSARr>
CMSMOCZEIVJLDB-UHFFFAOYSA-N

> <Salt_Solvent>
?

> <Ready_Biodeg>
0.0

$$$$
100003
  -INDIGO-08031722522D

 12 11  0  0  0  0  0  0  0  0999 V2000
    1.6000    0.0000    0.0000 C   0  0  0  0  0  0  0  0  0  0  0  0
    2.4000   -1.3856    0.0000 O   0  0  0  0  0  0  0  0  0  0  0  0
    4.0000   -1.3856    0.0000 H   0  0  0  0  0  0  0  0  0  0  0  0
    2.4000    1.3856    0.0000 O   0  0  0  0  0  0  0  0  0  0  0  0
    0.0000    0.0000    0.0000 C   0  0  0  0  0  0  0  0  0  0  0  0
    0.0000   -1.6000    0.0000 H   0  0  0  0  0  0  0  0  0  0  0  0
   -1.6000    0.0000    0.0000 C   0  0  0  0  0  0  0  0  0  0  0  0
   -3.2000    0.0000    0.0000 H   0  0  0  0  0  0  0  0  0  0  0  0
   -2.4000   -1.3856    0.0000 H   0  0  0  0  0  0  0  0  0  0  0  0
   -2.4000    1.3856    0.0000 H   0  0  0  0  0  0  0  0  0  0  0  0
    0.0000    1.6000    0.0000 O   0  0  0  0  0  0  0  0  0  0  0  0
    1.3857    2.4000    0.0000 H   0  0  0  0  0  0  0  0  0  0  0  0
  1  2  1  0  0  0  0
  2  3  1  0  0  0  0
  1  4  2  0  0  0  0
  1  5  1  0  0  0  0
  5  6  1  0  0  0  0
  5  7  1  0  0  0  0
  7  8  1  0  0  0  0
  7  9  1  0  0  0  0
  7 10  1  0  0  0  0
  5 11  1  0  0  0  0
 11 12  1  0  0  0  0
M  END
> <ChemID>
100003

> <source_casrn>
50-21-5

> <CAS>
50-21-5

> <SMILES>
CC(O)C(O)=O

> <NAME>
LACTIC ACID

> <preferred_name>
Lactic acid

> <iupac>
2-hydroxypropanoic acid

> <MPID>
100019

> <dsstox_substance_id>
DTXSID7023192

> <Canonical_QSARr>
CC(O)C(O)=O

> <InChI_Code_QSARr>
InChI=1S/C3H6O3/c1-2(4)3(5)6/h2,4H,1H3,(H,5,6)

> <InChI Key_QSARr>
JVTAAEKCZFNVCJ-UHFFFAOYSA-N

> <Salt_Solvent>
?

> <Ready_Biodeg>
1.0

$$$$
100005
  -INDIGO-08031722522D

 15 15  0  0  0  0  0  0  0  0999 V2000
   -1.3856    0.8000    0.0000 C   0  0  0  0  0  0  0  0  0  0  0  0
   -1.3856    2.4000    0.0000 O   0  0  0  0  0  0  0  0  0  0  0  0
   -2.7713   -0.0000    0.0000 O   0  0  0  0  0  0  0  0  0  0  0  0
   -4.1569    0.8000    0.0000 H   0  0  0  0  0  0  0  0  0  0  0  0
   -0.0001   -0.0000    0.0000 C   0  0  0  0  0  0  0  0  0  0  0  0
   -0.0001   -1.6000    0.0000 C   0  0  0  0  0  0  0  0  0  0  0  0
   -1.3856   -2.4000    0.0000 Cl  0  0  0  0  0  0  0  0  0  0  0  0
    1.3856   -2.4000    0.0000 C   0  0  0  0  0  0  0  0  0  0  0  0
    1.3856   -4.0000    0.0000 H   0  0  0  0  0  0  0  0  0  0  0  0
    2.7713   -1.6000    0.0000 C   0  0  0  0  0  0  0  0  0  0  0  0
    4.1569   -2.4000    0.0000 H   0  0  0  0  0  0  0  0  0  0  0  0
    2.7712   -0.0000    0.0000 C   0  0  0  0  0  0  0  0  0  0  0  0
    4.1569    0.8000    0.0000 H   0  0  0  0  0  0  0  0  0  0  0  0
    1.3856    0.8000    0.0000 C   0  0  0  0  0  0  0  0  0  0  0  0
    1.3856    2.4000    0.0000 Cl  0  0  0  0  0  0  0  0  0  0  0  0
  1  2  2  0  0  0  0
  1  3  1  0  0  0  0
  3  4  1  0  0  0  0
  1  5  1  0  0  0  0
  5  6  1  0  0  0  0
  6  7  1  0  0  0  0
  6  8  2  0  0  0  0
  8  9  1  0  0  0  0
  8 10  1  0  0  0  0
 10 11  1  0  0  0  0
 10 12  2  0  0  0  0
 12 13  1  0  0  0  0
 12 14  1  0  0  0  0
 14  5  2  0  0  0  0
 14 15  1  0  0  0  0
M  END
> <ChemID>
100005

> <source_casrn>
50-30-6

> <CAS>
50-30-6

> <SMILES>
OC(=O)c1c(Cl)cccc1Cl

> <NAME>
2,6-DICHLOROBENZOIC ACID

> <preferred_name>
2,6-Dichlorobenzoic acid

> <iupac>
2,6-dichlorobenzoic acid

> <MPID>
100021

> <dsstox_substance_id>
DTXSID0024979

> <Canonical_QSARr>
OC(=O)c1c(Cl)cccc1Cl

> <InChI_Code_QSARr>
InChI=1S/C7H4Cl2O2/c8-4-2-1-3-5(9)6(4)7(10)11/h1-3H,(H,10,11)

> <InChI Key_QSARr>
MRUDNSFOFOQZDA-UHFFFAOYSA-N

> <Salt_Solvent>
?

> <Ready_Biodeg>
0.0

$$$$
100006
  -INDIGO-08031722522D

 15 15  0  0  0  0  0  0  0  0999 V2000
   -1.3856    0.8000    0.0000 C   0  0  0  0  0  0  0  0  0  0  0  0
   -1.3856    2.4000    0.0000 O   0  0  0  0  0  0  0  0  0  0  0  0
   -0.0001   -0.0000    0.0000 C   0  0  0  0  0  0  0  0  0  0  0  0
   -0.0001   -1.6000    0.0000 C   0  0  0  0  0  0  0  0  0  0  0  0
   -1.3856   -2.4000    0.0000 Cl  0  0  0  0  0  0  0  0  0  0  0  0
    1.3856   -2.4000    0.0000 C   0  0  0  0  0  0  0  0  0  0  0  0
    1.3856   -4.0000    0.0000 Cl  0  0  0  0  0  0  0  0  0  0  0  0
    2.7713   -1.6000    0.0000 C   0  0  0  0  0  0  0  0  0  0  0  0
    4.1569   -2.4000    0.0000 H   0  0  0  0  0  0  0  0  0  0  0  0
    2.7712   -0.0000    0.0000 C   0  0  0  0  0  0  0  0  0  0  0  0
    4.1569    0.8000    0.0000 H   0  0  0  0  0  0  0  0  0  0  0  0
    1.3856    0.8000    0.0000 C   0  0  0  0  0  0  0  0  0  0  0  0
    1.3856    2.4000    0.0000 Cl  0  0  0  0  0  0  0  0  0  0  0  0
   -2.7713   -0.0000    0.0000 O   0  0  0  0  0  0  0  0  0  0  0  0
   -4.1569    0.8000    0.0000 H   0  0  0  0  0  0  0  0  0  0  0  0
  1  2  2  0  0  0  0
  1  3  1  0  0  0  0
  3  4  1  0  0  0  0
  4  5  1  0  0  0  0
  4  6  2  0  0  0  0
  6  7  1  0  0  0  0
  6  8  1  0  0  0  0
  8  9  1  0  0  0  0
  8 10  2  0  0  0  0
 10 11  1  0  0  0  0
 10 12  1  0  0  0  0
 12  3  2  0  0  0  0
 12 13  1  0  0  0  0
  1 14  1  0  0  0  0
 14 15  1  0  0  0  0
M  END
> <ChemID>
100006

> <source_casrn>
50-31-7

> <CAS>
50-31-7

> <SMILES>
OC(=O)c1c(Cl)c(Cl)ccc1Cl

> <NAME>
2,5,6-Trichlorobenzoic acid

> <preferred_name>
2,3,6-Trichlorobenzoic acid

> <iupac>
2,3,6-trichlorobenzoic acid

> <MPID>
100022

> <dsstox_substance_id>
DTXSID6040296

> <Canonical_QSARr>
OC(=O)c1c(Cl)c(Cl)ccc1Cl

> <InChI_Code_QSARr>
InChI=1S/C7H3Cl3O2/c8-3-1-2-4(9)6(10)5(3)7(11)12/h1-2H,(H,11,12)

> <InChI Key_QSARr>
XZIDTOHMJBOSOX-UHFFFAOYSA-N

> <Salt_Solvent>
?

> <Ready_Biodeg>
0.0

$$$$
100007
  -INDIGO-08031722522D

 29 30  0  0  0  0  0  0  0  0999 V2000
   -2.4001    1.3856    0.0000 O   0  0  0  0  0  0  0  0  0  0  0  0
   -1.6001    0.0000    0.0000 C   0  0  0  0  0  0  0  0  0  0  0  0
    0.0000    0.0000    0.0000 C   0  0  0  0  0  0  0  0  0  0  0  0
    0.8000   -1.3856    0.0000 C   0  0  0  0  0  0  0  0  0  0  0  0
    0.0000   -2.7713    0.0000 O   0  0  0  0  0  0  0  0  0  0  0  0
    0.8000   -4.1569    0.0000 H   0  0  0  0  0  0  0  0  0  0  0  0
    2.4001   -1.3856    0.0000 C   0  0  0  0  0  0  0  0  0  0  0  0
    3.1999   -2.7713    0.0000 H   0  0  0  0  0  0  0  0  0  0  0  0
    3.1999    0.0000    0.0000 C   0  0  0  0  0  0  0  0  0  0  0  0
    4.8000    0.0000    0.0000 H   0  0  0  0  0  0  0  0  0  0  0  0
    2.4001    1.3856    0.0000 C   0  0  0  0  0  0  0  0  0  0  0  0
    3.1999    2.7713    0.0000 Cl  0  0  0  0  0  0  0  0  0  0  0  0
    0.8000    1.3856    0.0000 C   0  0  0  0  0  0  0  0  0  0  0  0
    0.0000    2.7713    0.0000 H   0  0  0  0  0  0  0  0  0  0  0  0
   -2.4001   -1.3856    0.0000 N   0  0  0  0  0  0  0  0  0  0  0  0
   -1.6001   -2.7713    0.0000 H   0  0  0  0  0  0  0  0  0  0  0  0
   -4.0000   -1.3856    0.0000 C   0  0  0  0  0  0  0  0  0  0  0  0
   -4.8000    0.0000    0.0000 C   0  0  0  0  0  0  0  0  0  0  0  0
   -4.0000    1.3856    0.0000 H   0  0  0  0  0  0  0  0  0  0  0  0
   -6.4001    0.0000    0.0000 C   0  0  0  0  0  0  0  0  0  0  0  0
   -7.1999    1.3856    0.0000 H   0  0  0  0  0  0  0  0  0  0  0  0
   -7.1999   -1.3856    0.0000 C   0  0  0  0  0  0  0  0  0  0  0  0
   -8.8000   -1.3856    0.0000 N   0  0  0  0  0  0  0  0  0  0  0  0
   -9.6000   -2.7713    0.0000 O   0  0  0  0  0  0  0  0  0  0  0  0
   -9.6000    0.0000    0.0000 O   0  0  0  0  0  0  0  0  0  0  0  0
   -6.4001   -2.7713    0.0000 C   0  0  0  0  0  0  0  0  0  0  0  0
   -7.1999   -4.1569    0.0000 H   0  0  0  0  0  0  0  0  0  0  0  0
   -4.8000   -2.7713    0.0000 C   0  0  0  0  0  0  0  0  0  0  0  0
   -4.0000   -4.1569    0.0000 Cl  0  0  0  0  0  0  0  0  0  0  0  0
  1  2  2  0  0  0  0
  2  3  1  0  0  0  0
  3  4  1  0  0  0  0
  4  5  1  0  0  0  0
  5  6  1  0  0  0  0
  4  7  2  0  0  0  0
  7  8  1  0  0  0  0
  7  9  1  0  0  0  0
  9 10  1  0  0  0  0
  9 11  2  0  0  0  0
 11 12  1  0  0  0  0
 11 13  1  0  0  0  0
 13  3  2  0  0  0  0
 13 14  1  0  0  0  0
  2 15  1  0  0  0  0
 15 16  1  0  0  0  0
 15 17  1  0  0  0  0
 17 18  1  0  0  0  0
 18 19  1  0  0  0  0
 18 20  2  0  0  0  0
 20 21  1  0  0  0  0
 20 22  1  0  0  0  0
 22 23  1  0  0  0  0
 23 24  2  0  0  0  0
 23 25  1  0  0  0  0
 22 26  2  0  0  0  0
 26 27  1  0  0  0  0
 26 28  1  0  0  0  0
 28 17  2  0  0  0  0
 28 29  1  0  0  0  0
M  CHG  2  23   1  25  -1
M  END
> <ChemID>
100007

> <source_casrn>
50-65-7

> <CAS>
50-65-7

> <SMILES>
[O-][N+](=O)c1cc(Cl)c(cc1)NC(=O)c1cc(Cl)ccc1O

> <NAME>
Niclosamide

> <preferred_name>
Niclosamide

> <iupac>
5-chloro-N-(2-chloro-4-nitrophenyl)-2-hydroxybenzamide

> <MPID>
100023

> <dsstox_substance_id>
DTXSID7040362

> <Canonical_QSARr>
[O-][N+](=O)c1cc(Cl)c(cc1)NC(=O)c1cc(Cl)ccc1O

> <InChI_Code_QSARr>
InChI=1S/C13H8Cl2N2O4/c14-7-1-4-12(18)9(5-7)13(19)16-11-3-2-8(17(20)21)6-10(11)15/h1-6,18H,(H,16,19)

> <InChI Key_QSARr>
RJMUSRYZPJIFPJ-UHFFFAOYSA-N

> <Salt_Solvent>
?

> <Ready_Biodeg>
0.0

$$$$
100009
  -INDIGO-08031722522D

 15 15  0  0  0  0  0  0  0  0999 V2000
   -1.3856    0.8000    0.0000 C   0  0  0  0  0  0  0  0  0  0  0  0
   -1.3856    2.4000    0.0000 O   0  0  0  0  0  0  0  0  0  0  0  0
   -2.7713   -0.0000    0.0000 O   0  0  0  0  0  0  0  0  0  0  0  0
   -4.1569    0.8000    0.0000 H   0  0  0  0  0  0  0  0  0  0  0  0
   -0.0001   -0.0000    0.0000 C   0  0  0  0  0  0  0  0  0  0  0  0
   -0.0001   -1.6000    0.0000 C   0  0  0  0  0  0  0  0  0  0  0  0
   -1.3856   -2.4000    0.0000 H   0  0  0  0  0  0  0  0  0  0  0  0
    1.3856   -2.4000    0.0000 C   0  0  0  0  0  0  0  0  0  0  0  0
    1.3856   -4.0000    0.0000 Cl  0  0  0  0  0  0  0  0  0  0  0  0
    2.7713   -1.6000    0.0000 C   0  0  0  0  0  0  0  0  0  0  0  0
    4.1569   -2.4000    0.0000 H   0  0  0  0  0  0  0  0  0  0  0  0
    2.7712   -0.0000    0.0000 C   0  0  0  0  0  0  0  0  0  0  0  0
    4.1569    0.8000    0.0000 H   0  0  0  0  0  0  0  0  0  0  0  0
    1.3856    0.8000    0.0000 C   0  0  0  0  0  0  0  0  0  0  0  0
    1.3856    2.4000    0.0000 Cl  0  0  0  0  0  0  0  0  0  0  0  0
  1  2  2  0  0  0  0
  1  3  1  0  0  0  0
  3  4  1  0  0  0  0
  1  5  1  0  0  0  0
  5  6  1  0  0  0  0
  6  7  1  0  0  0  0
  6  8  2  0  0  0  0
  8  9  1  0  0  0  0
  8 10  1  0  0  0  0
 10 11  1  0  0  0  0
 10 12  2  0  0  0  0
 12 13  1  0  0  0  0
 12 14  1  0  0  0  0
 14  5  2  0  0  0  0
 14 15  1  0  0  0  0
M  END
> <ChemID>
100009

> <source_casrn>
50-79-3

> <CAS>
50-79-3

> <SMILES>
OC(=O)c1cc(Cl)ccc1Cl

> <NAME>
2,5-DICHLOROBENZOIC ACID

> <preferred_name>
2,5-Dichlorobenzoic acid

> <iupac>
2,5-dichlorobenzoic acid

> <MPID>
100025

> <dsstox_substance_id>
DTXSID5024978

> <Canonical_QSARr>
OC(=O)c1cc(Cl)ccc1Cl

> <InChI_Code_QSARr>
InChI=1S/C7H4Cl2O2/c8-4-1-2-6(9)5(3-4)7(10)11/h1-3H,(H,10,11)

> <InChI Key_QSARr>
QVTQYSFCFOGITD-UHFFFAOYSA-N

> <Salt_Solvent>
?

> <Ready_Biodeg>
0.0

$$$$
100010
  -INDIGO-08031722522D

 15 15  0  0  0  0  0  0  0  0999 V2000
   -1.3856    0.8000    0.0000 C   0  0  0  0  0  0  0  0  0  0  0  0
   -1.3856    2.4000    0.0000 O   0  0  0  0  0  0  0  0  0  0  0  0
   -2.7713   -0.0000    0.0000 O   0  0  0  0  0  0  0  0  0  0  0  0
   -4.1569    0.8000    0.0000 H   0  0  0  0  0  0  0  0  0  0  0  0
   -0.0001   -0.0000    0.0000 C   0  0  0  0  0  0  0  0  0  0  0  0
   -0.0001   -1.6000    0.0000 C   0  0  0  0  0  0  0  0  0  0  0  0
   -1.3856   -2.4000    0.0000 H   0  0  0  0  0  0  0  0  0  0  0  0
    1.3856   -2.4000    0.0000 C   0  0  0  0  0  0  0  0  0  0  0  0
    1.3856   -4.0000    0.0000 H   0  0  0  0  0  0  0  0  0  0  0  0
    2.7713   -1.6000    0.0000 C   0  0  0  0  0  0  0  0  0  0  0  0
    4.1569   -2.4000    0.0000 Cl  0  0  0  0  0  0  0  0  0  0  0  0
    2.7712   -0.0000    0.0000 C   0  0  0  0  0  0  0  0  0  0  0  0
    4.1569    0.8000    0.0000 H   0  0  0  0  0  0  0  0  0  0  0  0
    1.3856    0.8000    0.0000 C   0  0  0  0  0  0  0  0  0  0  0  0
    1.3856    2.4000    0.0000 Cl  0  0  0  0  0  0  0  0  0  0  0  0
  1  2  2  0  0  0  0
  1  3  1  0  0  0  0
  3  4  1  0  0  0  0
  1  5  1  0  0  0  0
  5  6  1  0  0  0  0
  6  7  1  0  0  0  0
  6  8  2  0  0  0  0
  8  9  1  0  0  0  0
  8 10  1  0  0  0  0
 10 11  1  0  0  0  0
 10 12  2  0  0  0  0
 12 13  1  0  0  0  0
 12 14  1  0  0  0  0
 14  5  2  0  0  0  0
 14 15  1  0  0  0  0
M  END
> <ChemID>
100010

> <source_casrn>
50-84-0

> <CAS>
50-84-0

> <SMILES>
OC(=O)c1ccc(Cl)cc1Cl

> <NAME>
2,4-DICHLOROBENZOIC ACID

> <preferred_name>
2,4-Dichlorobenzoic acid

> <iupac>
2,4-dichlorobenzoic acid

> <MPID>
100026

> <dsstox_substance_id>
DTXSID0024977

> <Canonical_QSARr>
OC(=O)c1ccc(Cl)cc1Cl

> <InChI_Code_QSARr>
InChI=1S/C7H4Cl2O2/c8-4-1-2-5(7(10)11)6(9)3-4/h1-3H,(H,10,11)

> <InChI Key_QSARr>
ATCRIUVQKHMXSH-UHFFFAOYSA-N

> <Salt_Solvent>
?

> <Ready_Biodeg>
0.0

$$$$
100011
  -INDIGO-08031722522D

 24 24  0  0  0  0  0  0  0  0999 V2000
    3.1035    0.5473    0.0000 O   0  0  0  0  0  0  0  0  0  0  0  0
    3.3813    2.1229    0.0000 H   0  0  0  0  0  0  0  0  0  0  0  0
    1.6000    0.0000    0.0000 C   0  0  0  0  0  0  0  0  0  0  0  0
    1.3222    1.5757    0.0000 H   0  0  0  0  0  0  0  0  0  0  0  0
    0.0001    0.0000    0.0000 C   0  0  0  0  0  0  0  0  0  0  0  0
    0.2779    1.5757    0.0000 H   0  0  0  0  0  0  0  0  0  0  0  0
   -1.5035    0.5473    0.0000 O   0  0  0  0  0  0  0  0  0  0  0  0
   -1.7813    2.1229    0.0000 H   0  0  0  0  0  0  0  0  0  0  0  0
   -0.8000   -1.3857    0.0000 C   0  0  0  0  0  0  0  0  0  0  0  0
   -2.0256   -0.3572    0.0000 H   0  0  0  0  0  0  0  0  0  0  0  0
   -2.0256   -2.4141    0.0000 C   0  0  0  0  0  0  0  0  0  0  0  0
   -1.1659   -3.7635    0.0000 H   0  0  0  0  0  0  0  0  0  0  0  0
   -2.3720   -3.9762    0.0000 H   0  0  0  0  0  0  0  0  0  0  0  0
   -3.5291   -1.8668    0.0000 O   0  0  0  0  0  0  0  0  0  0  0  0
   -4.7548   -2.8953    0.0000 H   0  0  0  0  0  0  0  0  0  0  0  0
    0.0001   -2.7713    0.0000 O   0  0  0  0  0  0  0  0  0  0  0  0
    1.6000   -2.7713    0.0000 C   0  0  0  0  0  0  0  0  0  0  0  0
    3.1035   -3.3185    0.0000 H   0  0  0  0  0  0  0  0  0  0  0  0
    1.3222   -4.3469    0.0000 O   0  0  0  0  0  0  0  0  0  0  0  0
    2.5479   -5.3754    0.0000 H   0  0  0  0  0  0  0  0  0  0  0  0
    2.3999   -1.3857    0.0000 C   0  0  0  0  0  0  0  0  0  0  0  0
    3.6256   -0.3572    0.0000 H   0  0  0  0  0  0  0  0  0  0  0  0
    3.6256   -2.4141    0.0000 O   0  0  0  0  0  0  0  0  0  0  0  0
    5.1292   -1.8668    0.0000 H   0  0  0  0  0  0  0  0  0  0  0  0
  1  2  1  0  0  0  0
  1  3  1  0  0  0  0
  3  4  1  0  0  0  0
  3  5  1  0  0  0  0
  5  6  1  0  0  0  0
  5  7  1  0  0  0  0
  7  8  1  0  0  0  0
  5  9  1  0  0  0  0
  9 10  1  0  0  0  0
  9 11  1  0  0  0  0
 11 12  1  0  0  0  0
 11 13  1  0  0  0  0
 11 14  1  0  0  0  0
 14 15  1  0  0  0  0
  9 16  1  0  0  0  0
 16 17  1  0  0  0  0
 17 18  1  0  0  0  0
 17 19  1  0  0  0  0
 19 20  1  0  0  0  0
 17 21  1  0  0  0  0
 21  3  1  0  0  0  0
 21 22  1  0  0  0  0
 21 23  1  0  0  0  0
 23 24  1  0  0  0  0
M  END
> <ChemID>
100011

> <source_casrn>
50-99-7

> <CAS>
50-99-7

> <SMILES>
OCC1C(O)C(O)C(O)C(O)O1

> <NAME>
Glucose

> <preferred_name>
D-Glucose

> <iupac>
D-glucopyranose

> <MPID>
100027

> <dsstox_substance_id>
DTXSID7022910

> <Canonical_QSARr>
OCC1OC(O)C(O)C(O)C1O

> <InChI_Code_QSARr>
InChI=1S/C6H12O6/c7-1-2-3(8)4(9)5(10)6(11)12-2/h2-11H,1H2

> <InChI Key_QSARr>
WQZGKKKJIJFFOK-UHFFFAOYSA-N

> <Salt_Solvent>
?

> <Ready_Biodeg>
1.0

$$$$
100013
  -INDIGO-08031722522D

 15 15  0  0  0  0  0  0  0  0999 V2000
   -1.3856    0.8000    0.0000 C   0  0  0  0  0  0  0  0  0  0  0  0
   -1.3856    2.4000    0.0000 O   0  0  0  0  0  0  0  0  0  0  0  0
   -2.7713   -0.0000    0.0000 O   0  0  0  0  0  0  0  0  0  0  0  0
   -4.1569    0.8000    0.0000 H   0  0  0  0  0  0  0  0  0  0  0  0
   -0.0001   -0.0000    0.0000 C   0  0  0  0  0  0  0  0  0  0  0  0
   -0.0001   -1.6000    0.0000 C   0  0  0  0  0  0  0  0  0  0  0  0
   -1.3856   -2.4000    0.0000 H   0  0  0  0  0  0  0  0  0  0  0  0
    1.3856   -2.4000    0.0000 C   0  0  0  0  0  0  0  0  0  0  0  0
    1.3856   -4.0000    0.0000 H   0  0  0  0  0  0  0  0  0  0  0  0
    2.7713   -1.6000    0.0000 C   0  0  0  0  0  0  0  0  0  0  0  0
    4.1569   -2.4000    0.0000 Cl  0  0  0  0  0  0  0  0  0  0  0  0
    2.7712   -0.0000    0.0000 C   0  0  0  0  0  0  0  0  0  0  0  0
    4.1569    0.8000    0.0000 Cl  0  0  0  0  0  0  0  0  0  0  0  0
    1.3856    0.8000    0.0000 C   0  0  0  0  0  0  0  0  0  0  0  0
    1.3856    2.4000    0.0000 H   0  0  0  0  0  0  0  0  0  0  0  0
  1  2  2  0  0  0  0
  1  3  1  0  0  0  0
  3  4  1  0  0  0  0
  1  5  1  0  0  0  0
  5  6  1  0  0  0  0
  6  7  1  0  0  0  0
  6  8  2  0  0  0  0
  8  9  1  0  0  0  0
  8 10  1  0  0  0  0
 10 11  1  0  0  0  0
 10 12  2  0  0  0  0
 12 13  1  0  0  0  0
 12 14  1  0  0  0  0
 14  5  2  0  0  0  0
 14 15  1  0  0  0  0
M  END
> <ChemID>
100013

> <source_casrn>
51-44-5

> <CAS>
51-44-5

> <SMILES>
OC(=O)c1cc(Cl)c(Cl)cc1

> <NAME>
3,4-Dichlorobenzoic acid

> <preferred_name>
3,4-Dichlorobenzoic acid

> <iupac>
3,4-dichlorobenzoic acid

> <MPID>
100029

> <dsstox_substance_id>
DTXSID9024980

> <Canonical_QSARr>
OC(=O)c1cc(Cl)c(Cl)cc1

> <InChI_Code_QSARr>
InChI=1S/C7H4Cl2O2/c8-5-2-1-4(7(10)11)3-6(5)9/h1-3H,(H,10,11)

> <InChI Key_QSARr>
VPHHJAOJUJHJKD-UHFFFAOYSA-N

> <Salt_Solvent>
?

> <Ready_Biodeg>
0.0

$$$$
100014
  -INDIGO-08031722522D

 20 19  0  0  0  0  0  0  0  0999 V2000
    0.0000    0.0000    0.0000 P   0  0  0  0  0  0  0  0  0  0  0  0
    1.6000    0.0000    0.0000 C   0  0  0  0  0  0  0  0  0  0  0  0
    1.6000    1.6000    0.0000 H   0  0  0  0  0  0  0  0  0  0  0  0
    3.2001    0.0000    0.0000 C   0  0  0  0  0  0  0  0  0  0  0  0
    4.8000    0.0000    0.0000 Cl  0  0  0  0  0  0  0  0  0  0  0  0
    4.0000    1.3856    0.0000 Cl  0  0  0  0  0  0  0  0  0  0  0  0
    4.0000   -1.3856    0.0000 Cl  0  0  0  0  0  0  0  0  0  0  0  0
    1.6000   -1.6000    0.0000 O   0  0  0  0  0  0  0  0  0  0  0  0
    2.9856   -2.4000    0.0000 H   0  0  0  0  0  0  0  0  0  0  0  0
   -0.8000   -1.3856    0.0000 O   0  0  0  0  0  0  0  0  0  0  0  0
   -1.6000    0.0000    0.0000 O   0  0  0  0  0  0  0  0  0  0  0  0
   -2.4001   -1.3856    0.0000 C   0  0  0  0  0  0  0  0  0  0  0  0
   -3.2000   -2.7713    0.0000 H   0  0  0  0  0  0  0  0  0  0  0  0
   -4.0000   -1.3856    0.0000 H   0  0  0  0  0  0  0  0  0  0  0  0
   -1.6000   -2.7713    0.0000 H   0  0  0  0  0  0  0  0  0  0  0  0
   -0.8000    1.3856    0.0000 O   0  0  0  0  0  0  0  0  0  0  0  0
    0.0000    2.7713    0.0000 C   0  0  0  0  0  0  0  0  0  0  0  0
   -0.8000    4.1569    0.0000 H   0  0  0  0  0  0  0  0  0  0  0  0
    0.8000    4.1569    0.0000 H   0  0  0  0  0  0  0  0  0  0  0  0
   -1.6000    2.7713    0.0000 H   0  0  0  0  0  0  0  0  0  0  0  0
  1  2  1  0  0  0  0
  2  3  1  0  0  0  0
  2  4  1  0  0  0  0
  4  5  1  0  0  0  0
  4  6  1  0  0  0  0
  4  7  1  0  0  0  0
  2  8  1  0  0  0  0
  8  9  1  0  0  0  0
  1 10  2  0  0  0  0
  1 11  1  0  0  0  0
 11 12  1  0  0  0  0
 12 13  1  0  0  0  0
 12 14  1  0  0  0  0
 12 15  1  0  0  0  0
  1 16  1  0  0  0  0
 16 17  1  0  0  0  0
 17 18  1  0  0  0  0
 17 19  1  0  0  0  0
 17 20  1  0  0  0  0
M  END
> <ChemID>
100014

> <source_casrn>
52-68-6

> <CAS>
52-68-6

> <SMILES>
COP(=O)(OC)C(O)C(Cl)(Cl)Cl

> <NAME>
Trichlorfon

> <preferred_name>
Trichlorfon

> <iupac>
dimethyl (2,2,2-trichloro-1-hydroxyethyl)phosphonate

> <MPID>
100030

> <dsstox_substance_id>
DTXSID0021389

> <Canonical_QSARr>
COP(=O)(OC)C(O)C(Cl)(Cl)Cl

> <InChI_Code_QSARr>
InChI=1S/C4H8Cl3O4P/c1-10-12(9,11-2)3(8)4(5,6)7/h3,8H,1-2H3

> <InChI Key_QSARr>
NFACJZMKEDPNKN-UHFFFAOYSA-N

> <Salt_Solvent>
?

> <Ready_Biodeg>
0.0

$$$$
100015
  -INDIGO-08031722522D

 35 35  0  0  0  0  0  0  0  0999 V2000
   -0.0000    0.0000    0.0000 S   0  0  0  0  0  0  0  0  0  0  0  0
    1.5999    0.0000    0.0000 C   0  0  0  0  0  0  0  0  0  0  0  0
    2.4001    1.3857    0.0000 C   0  0  0  0  0  0  0  0  0  0  0  0
    1.5999    2.7713    0.0000 H   0  0  0  0  0  0  0  0  0  0  0  0
    4.0000    1.3857    0.0000 C   0  0  0  0  0  0  0  0  0  0  0  0
    4.7999    2.7713    0.0000 H   0  0  0  0  0  0  0  0  0  0  0  0
    4.7999    0.0000    0.0000 C   0  0  0  0  0  0  0  0  0  0  0  0
    6.4001    0.0000    0.0000 O   0  0  0  0  0  0  0  0  0  0  0  0
    7.2000    1.3857    0.0000 P   0  0  0  0  0  0  0  0  0  0  0  0
    8.0000    0.0000    0.0000 S   0  0  0  0  0  0  0  0  0  0  0  0
    8.7999    1.3857    0.0000 O   0  0  0  0  0  0  0  0  0  0  0  0
    9.6001    2.7713    0.0000 C   0  0  0  0  0  0  0  0  0  0  0  0
   11.2000    2.7713    0.0000 H   0  0  0  0  0  0  0  0  0  0  0  0
   10.4000    4.1570    0.0000 H   0  0  0  0  0  0  0  0  0  0  0  0
   10.4000    1.3857    0.0000 H   0  0  0  0  0  0  0  0  0  0  0  0
    8.0000    2.7713    0.0000 O   0  0  0  0  0  0  0  0  0  0  0  0
    7.2000    4.1570    0.0000 C   0  0  0  0  0  0  0  0  0  0  0  0
    6.4001    5.5426    0.0000 H   0  0  0  0  0  0  0  0  0  0  0  0
    8.0000    5.5426    0.0000 H   0  0  0  0  0  0  0  0  0  0  0  0
    5.6001    4.1570    0.0000 H   0  0  0  0  0  0  0  0  0  0  0  0
    4.0000   -1.3856    0.0000 C   0  0  0  0  0  0  0  0  0  0  0  0
    4.7999   -2.7713    0.0000 H   0  0  0  0  0  0  0  0  0  0  0  0
    2.4001   -1.3856    0.0000 C   0  0  0  0  0  0  0  0  0  0  0  0
    1.5999   -2.7713    0.0000 H   0  0  0  0  0  0  0  0  0  0  0  0
   -1.5999    0.0000    0.0000 N   0  0  0  0  0  0  0  0  0  0  0  0
   -2.4001   -1.3856    0.0000 C   0  0  0  0  0  0  0  0  0  0  0  0
   -3.2000   -2.7713    0.0000 H   0  0  0  0  0  0  0  0  0  0  0  0
   -4.0000   -1.3857    0.0000 H   0  0  0  0  0  0  0  0  0  0  0  0
   -1.5999   -2.7713    0.0000 H   0  0  0  0  0  0  0  0  0  0  0  0
   -2.4001    1.3857    0.0000 C   0  0  0  0  0  0  0  0  0  0  0  0
   -3.2000    2.7713    0.0000 H   0  0  0  0  0  0  0  0  0  0  0  0
   -4.0000    1.3857    0.0000 H   0  0  0  0  0  0  0  0  0  0  0  0
   -1.5999    2.7713    0.0000 H   0  0  0  0  0  0  0  0  0  0  0  0
   -0.0000    1.6000    0.0000 O   0  0  0  0  0  0  0  0  0  0  0  0
   -0.0000   -1.6000    0.0000 O   0  0  0  0  0  0  0  0  0  0  0  0
  1  2  1  0  0  0  0
  2  3  1  0  0  0  0
  3  4  1  0  0  0  0
  3  5  2  0  0  0  0
  5  6  1  0  0  0  0
  5  7  1  0  0  0  0
  7  8  1  0  0  0  0
  8  9  1  0  0  0  0
  9 10  2  0  0  0  0
  9 11  1  0  0  0  0
 11 12  1  0  0  0  0
 12 13  1  0  0  0  0
 12 14  1  0  0  0  0
 12 15  1  0  0  0  0
  9 16  1  0  0  0  0
 16 17  1  0  0  0  0
 17 18  1  0  0  0  0
 17 19  1  0  0  0  0
 17 20  1  0  0  0  0
  7 21  2  0  0  0  0
 21 22  1  0  0  0  0
 21 23  1  0  0  0  0
 23  2  2  0  0  0  0
 23 24  1  0  0  0  0
  1 25  1  0  0  0  0
 25 26  1  0  0  0  0
 26 27  1  0  0  0  0
 26 28  1  0  0  0  0
 26 29  1  0  0  0  0
 25 30  1  0  0  0  0
 30 31  1  0  0  0  0
 30 32  1  0  0  0  0
 30 33  1  0  0  0  0
  1 34  2  0  0  0  0
  1 35  2  0  0  0  0
M  END
> <ChemID>
100015

> <source_casrn>
52-85-7

> <CAS>
52-85-7

> <SMILES>
CN(C)S(=O)(=O)c1ccc(cc1)OP(=S)(OC)OC

> <NAME>
Famphur

> <preferred_name>
Famphur

> <iupac>
O-[4-(dimethylsulfamoyl)phenyl] O,O-dimethyl phosphorothioate

> <MPID>
100031

> <dsstox_substance_id>
DTXSID7041966

> <Canonical_QSARr>
CN(C)S(=O)(=O)c1ccc(cc1)OP(=S)(OC)OC

> <InChI_Code_QSARr>
InChI=1S/C10H16NO5PS2/c1-11(2)19(12,13)10-7-5-9(6-8-10)16-17(18,14-3)15-4/h5-8H,1-4H3

> <InChI Key_QSARr>
JISACBWYRJHSMG-UHFFFAOYSA-N

> <Salt_Solvent>
?

> <Ready_Biodeg>
1.0

$$$$
100017
  -INDIGO-08031722522D

 17 16  0  0  0  0  0  0  0  0999 V2000
    1.3856    0.8000    0.0000 C   0  0  0  0  0  0  0  0  0  0  0  0
    2.7713    1.6000    0.0000 H   0  0  0  0  0  0  0  0  0  0  0  0
    2.7713    0.0000    0.0000 H   0  0  0  0  0  0  0  0  0  0  0  0
    1.3856    2.4000    0.0000 H   0  0  0  0  0  0  0  0  0  0  0  0
    0.0000    0.0000    0.0000 C   0  0  0  0  0  0  0  0  0  0  0  0
   -0.6122   -1.4782    0.0000 H   0  0  0  0  0  0  0  0  0  0  0  0
    0.6122   -1.4782    0.0000 H   0  0  0  0  0  0  0  0  0  0  0  0
   -1.3857    0.8000    0.0000 N   0  0  0  0  0  0  0  0  0  0  0  0
   -2.7713    0.0000    0.0000 C   0  0  0  0  0  0  0  0  0  0  0  0
   -3.3835   -1.4782    0.0000 H   0  0  0  0  0  0  0  0  0  0  0  0
   -2.1590   -1.4782    0.0000 H   0  0  0  0  0  0  0  0  0  0  0  0
   -4.1569    0.8000    0.0000 C   0  0  0  0  0  0  0  0  0  0  0  0
   -5.5426    0.0000    0.0000 H   0  0  0  0  0  0  0  0  0  0  0  0
   -5.5426    1.6000    0.0000 H   0  0  0  0  0  0  0  0  0  0  0  0
   -4.1569    2.4000    0.0000 H   0  0  0  0  0  0  0  0  0  0  0  0
   -1.3857    2.4000    0.0000 N   0  0  0  0  0  0  0  0  0  0  0  0
   -2.7713    3.2000    0.0000 O   0  0  0  0  0  0  0  0  0  0  0  0
  1  2  1  0  0  0  0
  1  3  1  0  0  0  0
  1  4  1  0  0  0  0
  1  5  1  0  0  0  0
  5  6  1  0  0  0  0
  5  7  1  0  0  0  0
  5  8  1  0  0  0  0
  8  9  1  0  0  0  0
  9 10  1  0  0  0  0
  9 11  1  0  0  0  0
  9 12  1  0  0  0  0
 12 13  1  0  0  0  0
 12 14  1  0  0  0  0
 12 15  1  0  0  0  0
  8 16  1  0  0  0  0
 16 17  2  0  0  0  0
M  END
> <ChemID>
100017

> <source_casrn>
55-18-5

> <CAS>
55-18-5

> <SMILES>
CCN(CC)N=O

> <NAME>
N-NITROSODIETHYLAMINE

> <preferred_name>
N-Nitrosodiethylamine

> <iupac>
N-ethyl-N-nitrosoethanamine

> <MPID>
100033

> <dsstox_substance_id>
DTXSID2021028

> <Canonical_QSARr>
CCN(CC)N=O

> <InChI_Code_QSARr>
InChI=1S/C4H10N2O/c1-3-6(4-2)5-7/h3-4H2,1-2H3

> <InChI Key_QSARr>
WBNQDOYYEUMPFS-UHFFFAOYSA-N

> <Salt_Solvent>
?

> <Ready_Biodeg>
0.0

$$$$
100018
  -INDIGO-08031722522D

  5  4  0  0  0  0  0  0  0  0999 V2000
   -0.8000   -1.3856    0.0000 Cl  0  0  0  0  0  0  0  0  0  0  0  0
    0.0000    0.0000    0.0000 C   0  0  0  0  0  0  0  0  0  0  0  0
    0.8000    1.3856    0.0000 Cl  0  0  0  0  0  0  0  0  0  0  0  0
   -1.3856    0.8000    0.0000 Cl  0  0  0  0  0  0  0  0  0  0  0  0
    1.3856   -0.8000    0.0000 Cl  0  0  0  0  0  0  0  0  0  0  0  0
  1  2  1  0  0  0  0
  2  3  1  0  0  0  0
  2  4  1  0  0  0  0
  2  5  1  0  0  0  0
M  END
> <ChemID>
100018

> <source_casrn>
56-23-5

> <CAS>
56-23-5

> <SMILES>
ClC(Cl)(Cl)Cl

> <NAME>
Methane, tetrachloro-

> <preferred_name>
Carbon tetrachloride

> <iupac>
tetrachloromethane

> <MPID>
100034

> <dsstox_substance_id>
DTXSID8020250

> <Canonical_QSARr>
ClC(Cl)(Cl)Cl

> <InChI_Code_QSARr>
InChI=1S/CCl4/c2-1(3,4)5

> <InChI Key_QSARr>
VZGDMQKNWNREIO-UHFFFAOYSA-N

> <Salt_Solvent>
?

> <Ready_Biodeg>
0.0

$$$$
100020
  -INDIGO-08031722522D

 37 41  0  0  0  0  0  0  0  0999 V2000
    4.8001    2.7713    0.0000 C   0  0  0  0  0  0  0  0  0  0  0  0
    6.4000    2.7713    0.0000 H   0  0  0  0  0  0  0  0  0  0  0  0
    5.6000    4.1570    0.0000 H   0  0  0  0  0  0  0  0  0  0  0  0
    5.6000    1.3857    0.0000 H   0  0  0  0  0  0  0  0  0  0  0  0
    3.2000    2.7713    0.0000 C   0  0  0  0  0  0  0  0  0  0  0  0
    2.4000    1.3857    0.0000 C   0  0  0  0  0  0  0  0  0  0  0  0
    0.8001    1.3856    0.0000 C   0  0  0  0  0  0  0  0  0  0  0  0
   -0.0001    0.0000    0.0000 C   0  0  0  0  0  0  0  0  0  0  0  0
    1.2517   -0.9966    0.0000 C   0  0  0  0  0  0  0  0  0  0  0  0
    0.1068   -2.1144    0.0000 H   0  0  0  0  0  0  0  0  0  0  0  0
    2.2182   -2.2718    0.0000 H   0  0  0  0  0  0  0  0  0  0  0  0
    2.6373   -0.1966    0.0000 C   0  0  0  0  0  0  0  0  0  0  0  0
    3.2584   -1.6711    0.0000 H   0  0  0  0  0  0  0  0  0  0  0  0
    4.1778    0.2360    0.0000 H   0  0  0  0  0  0  0  0  0  0  0  0
   -1.6000    0.0000    0.0000 C   0  0  0  0  0  0  0  0  0  0  0  0
   -2.3999    1.3856    0.0000 C   0  0  0  0  0  0  0  0  0  0  0  0
   -1.6000    2.7713    0.0000 C   0  0  0  0  0  0  0  0  0  0  0  0
   -2.3999    4.1570    0.0000 H   0  0  0  0  0  0  0  0  0  0  0  0
   -0.0001    2.7713    0.0000 C   0  0  0  0  0  0  0  0  0  0  0  0
    0.8001    4.1569    0.0000 C   0  0  0  0  0  0  0  0  0  0  0  0
   -0.0001    5.5426    0.0000 H   0  0  0  0  0  0  0  0  0  0  0  0
    2.4000    4.1569    0.0000 C   0  0  0  0  0  0  0  0  0  0  0  0
    3.2000    5.5426    0.0000 H   0  0  0  0  0  0  0  0  0  0  0  0
   -4.0001    1.3856    0.0000 C   0  0  0  0  0  0  0  0  0  0  0  0
   -4.8000    0.0000    0.0000 C   0  0  0  0  0  0  0  0  0  0  0  0
   -6.3999    0.0000    0.0000 C   0  0  0  0  0  0  0  0  0  0  0  0
   -7.2001   -1.3857    0.0000 H   0  0  0  0  0  0  0  0  0  0  0  0
   -7.2001    1.3856    0.0000 C   0  0  0  0  0  0  0  0  0  0  0  0
   -8.8000    1.3856    0.0000 H   0  0  0  0  0  0  0  0  0  0  0  0
   -6.3999    2.7713    0.0000 C   0  0  0  0  0  0  0  0  0  0  0  0
   -7.2001    4.1569    0.0000 H   0  0  0  0  0  0  0  0  0  0  0  0
   -4.8000    2.7713    0.0000 C   0  0  0  0  0  0  0  0  0  0  0  0
   -4.0001    4.1569    0.0000 H   0  0  0  0  0  0  0  0  0  0  0  0
   -4.0001   -1.3856    0.0000 C   0  0  0  0  0  0  0  0  0  0  0  0
   -4.8000   -2.7713    0.0000 H   0  0  0  0  0  0  0  0  0  0  0  0
   -2.3999   -1.3856    0.0000 C   0  0  0  0  0  0  0  0  0  0  0  0
   -1.6000   -2.7713    0.0000 H   0  0  0  0  0  0  0  0  0  0  0  0
  1  2  1  0  0  0  0
  1  3  1  0  0  0  0
  1  4  1  0  0  0  0
  1  5  1  0  0  0  0
  5  6  2  0  0  0  0
  6  7  1  0  0  0  0
  7  8  1  0  0  0  0
  8  9  1  0  0  0  0
  9 10  1  0  0  0  0
  9 11  1  0  0  0  0
  9 12  1  0  0  0  0
 12  6  1  0  0  0  0
 12 13  1  0  0  0  0
 12 14  1  0  0  0  0
  8 15  2  0  0  0  0
 15 16  1  0  0  0  0
 16 17  2  0  0  0  0
 17 18  1  0  0  0  0
 17 19  1  0  0  0  0
 19  7  2  0  0  0  0
 19 20  1  0  0  0  0
 20 21  1  0  0  0  0
 20 22  2  0  0  0  0
 22  5  1  0  0  0  0
 22 23  1  0  0  0  0
 16 24  1  0  0  0  0
 24 25  1  0  0  0  0
 25 26  2  0  0  0  0
 26 27  1  0  0  0  0
 26 28  1  0  0  0  0
 28 29  1  0  0  0  0
 28 30  2  0  0  0  0
 30 31  1  0  0  0  0
 30 32  1  0  0  0  0
 32 24  2  0  0  0  0
 32 33  1  0  0  0  0
 25 34  1  0  0  0  0
 34 35  1  0  0  0  0
 34 36  2  0  0  0  0
 36 15  1  0  0  0  0
 36 37  1  0  0  0  0
M  END
> <ChemID>
100020

> <source_casrn>
56-49-5

> <CAS>
56-49-5

> <SMILES>
Cc1ccc2cc3c(ccc4ccccc43)c3CCc1c32

> <NAME>
3-METHYLCHOLANTHRENE

> <preferred_name>
3-Methylcholanthrene

> <iupac>
3-methyl-1,2-dihydrocyclopenta[ij]tetraphene

> <MPID>
100035

> <dsstox_substance_id>
DTXSID0020862

> <Canonical_QSARr>
Cc1ccc2cc3c(ccc4ccccc43)c3CCc1c32

> <InChI_Code_QSARr>
InChI=1S/C21H16/c1-13-6-7-15-12-20-17-5-3-2-4-14(17)8-9-18(20)19-11-10-16(13)21(15)19/h2-9,12H,10-11H2,1H3

> <InChI Key_QSARr>
PPQNQXQZIWHJRB-UHFFFAOYSA-N

> <Salt_Solvent>
?

> <Ready_Biodeg>
0.0

$$$$
100022
  -INDIGO-08031722522D

 14 13  0  0  0  0  0  0  0  0999 V2000
    0.0001    0.0000    0.0000 C   0  0  0  0  0  0  0  0  0  0  0  0
    0.0001   -1.6000    0.0000 H   0  0  0  0  0  0  0  0  0  0  0  0
    0.0001    1.6000    0.0000 O   0  0  0  0  0  0  0  0  0  0  0  0
    1.3856    2.4000    0.0000 H   0  0  0  0  0  0  0  0  0  0  0  0
   -1.5999    0.0000    0.0000 C   0  0  0  0  0  0  0  0  0  0  0  0
   -1.8088   -1.5863    0.0000 H   0  0  0  0  0  0  0  0  0  0  0  0
   -2.8694   -0.9740    0.0000 H   0  0  0  0  0  0  0  0  0  0  0  0
   -2.4000    1.3856    0.0000 O   0  0  0  0  0  0  0  0  0  0  0  0
   -4.0000    1.3856    0.0000 H   0  0  0  0  0  0  0  0  0  0  0  0
    1.6001    0.0000    0.0000 C   0  0  0  0  0  0  0  0  0  0  0  0
    1.8088   -1.5863    0.0000 H   0  0  0  0  0  0  0  0  0  0  0  0
    2.8694   -0.9740    0.0000 H   0  0  0  0  0  0  0  0  0  0  0  0
    2.4000    1.3856    0.0000 O   0  0  0  0  0  0  0  0  0  0  0  0
    4.0000    1.3856    0.0000 H   0  0  0  0  0  0  0  0  0  0  0  0
  1  2  1  0  0  0  0
  1  3  1  0  0  0  0
  3  4  1  0  0  0  0
  1  5  1  0  0  0  0
  5  6  1  0  0  0  0
  5  7  1  0  0  0  0
  5  8  1  0  0  0  0
  8  9  1  0  0  0  0
  1 10  1  0  0  0  0
 10 11  1  0  0  0  0
 10 12  1  0  0  0  0
 10 13  1  0  0  0  0
 13 14  1  0  0  0  0
M  END
> <ChemID>
100022

> <source_casrn>
56-81-5

> <CAS>
56-81-5

> <SMILES>
OC(CO)CO

> <NAME>
1,2,3-Propanetriol

> <preferred_name>
Glycerol

> <iupac>
propane-1,2,3-triol

> <MPID>
100037

> <dsstox_substance_id>
DTXSID9020663

> <Canonical_QSARr>
OC(CO)CO

> <InChI_Code_QSARr>
InChI=1S/C3H8O3/c4-1-3(6)2-5/h3-6H,1-2H2

> <InChI Key_QSARr>
PEDCQBHIVMGVHV-UHFFFAOYSA-N

> <Salt_Solvent>
?

> <Ready_Biodeg>
1.0

$$$$
100023
  -INDIGO-08031722522D

 16 15  0  0  0  0  0  0  0  0999 V2000
    3.6986   -2.0592    0.0000 O   0  0  0  0  0  0  0  0  0  0  0  0
    4.2458   -3.5627    0.0000 H   0  0  0  0  0  0  0  0  0  0  0  0
    2.1230   -1.7814    0.0000 C   0  0  0  0  0  0  0  0  0  0  0  0
    1.0945   -3.0070    0.0000 O   0  0  0  0  0  0  0  0  0  0  0  0
    1.5757   -0.2779    0.0000 C   0  0  0  0  0  0  0  0  0  0  0  0
    2.0568    1.2481    0.0000 H   0  0  0  0  0  0  0  0  0  0  0  0
    2.9949    0.4609    0.0000 H   0  0  0  0  0  0  0  0  0  0  0  0
    0.0001    0.0000    0.0000 C   0  0  0  0  0  0  0  0  0  0  0  0
    0.0001   -1.6000    0.0000 H   0  0  0  0  0  0  0  0  0  0  0  0
    0.0001    1.6000    0.0000 N   0  0  0  0  0  0  0  0  0  0  0  0
    1.3856    2.4000    0.0000 H   0  0  0  0  0  0  0  0  0  0  0  0
   -1.3856    2.4000    0.0000 H   0  0  0  0  0  0  0  0  0  0  0  0
   -1.6000    0.0000    0.0000 C   0  0  0  0  0  0  0  0  0  0  0  0
   -2.4000   -1.3856    0.0000 O   0  0  0  0  0  0  0  0  0  0  0  0
   -4.0000   -1.3856    0.0000 H   0  0  0  0  0  0  0  0  0  0  0  0
   -2.4000    1.3856    0.0000 O   0  0  0  0  0  0  0  0  0  0  0  0
  1  2  1  0  0  0  0
  1  3  1  0  0  0  0
  3  4  2  0  0  0  0
  3  5  1  0  0  0  0
  5  6  1  0  0  0  0
  5  7  1  0  0  0  0
  5  8  1  0  0  0  0
  8  9  1  0  0  0  0
  8 10  1  0  0  0  0
 10 11  1  0  0  0  0
 10 12  1  0  0  0  0
  8 13  1  0  0  0  0
 13 14  1  0  0  0  0
 14 15  1  0  0  0  0
 13 16  2  0  0  0  0
M  END
> <ChemID>
100023

> <source_casrn>
56-84-8

> <CAS>
56-84-8

> <SMILES>
N[C@@H](CC(O)=O)C(O)=O

> <NAME>
ASPARTIC ACID

> <preferred_name>
L-Aspartic acid

> <iupac>
L-aspartic acid

> <MPID>
100038

> <dsstox_substance_id>
DTXSID7022621

> <Canonical_QSARr>
NC(CC(O)=O)C(O)=O

> <InChI_Code_QSARr>
InChI=1S/C4H7NO4/c5-2(4(8)9)1-3(6)7/h2H,1,5H2,(H,6,7)(H,8,9)

> <InChI Key_QSARr>
CKLJMWTZIZZHCS-UHFFFAOYSA-N

> <Salt_Solvent>
?

> <Ready_Biodeg>
1.0

$$$$
100024
  -INDIGO-08031722522D

 19 18  0  0  0  0  0  0  0  0999 V2000
    2.7712    1.6000    0.0000 C   0  0  0  0  0  0  0  0  0  0  0  0
    2.7712    3.2000    0.0000 O   0  0  0  0  0  0  0  0  0  0  0  0
    1.3856    0.8000    0.0000 C   0  0  0  0  0  0  0  0  0  0  0  0
    0.5857    2.1857    0.0000 H   0  0  0  0  0  0  0  0  0  0  0  0
   -0.0001    0.0000    0.0000 C   0  0  0  0  0  0  0  0  0  0  0  0
    0.6122   -1.4782    0.0000 H   0  0  0  0  0  0  0  0  0  0  0  0
   -0.6122   -1.4782    0.0000 H   0  0  0  0  0  0  0  0  0  0  0  0
   -1.3856    0.8000    0.0000 C   0  0  0  0  0  0  0  0  0  0  0  0
   -1.9979    2.2782    0.0000 H   0  0  0  0  0  0  0  0  0  0  0  0
   -0.7734    2.2782    0.0000 H   0  0  0  0  0  0  0  0  0  0  0  0
   -2.7712    0.0000    0.0000 C   0  0  0  0  0  0  0  0  0  0  0  0
   -2.7712   -1.6000    0.0000 O   0  0  0  0  0  0  0  0  0  0  0  0
   -4.1569    0.8000    0.0000 O   0  0  0  0  0  0  0  0  0  0  0  0
   -5.5426    0.0000    0.0000 H   0  0  0  0  0  0  0  0  0  0  0  0
    2.1856   -0.5857    0.0000 N   0  0  0  0  0  0  0  0  0  0  0  0
    1.6385   -2.0891    0.0000 H   0  0  0  0  0  0  0  0  0  0  0  0
    3.7856   -0.5857    0.0000 H   0  0  0  0  0  0  0  0  0  0  0  0
    4.1569    0.8000    0.0000 O   0  0  0  0  0  0  0  0  0  0  0  0
    5.5426    1.6000    0.0000 H   0  0  0  0  0  0  0  0  0  0  0  0
  1  2  2  0  0  0  0
  1  3  1  0  0  0  0
  3  4  1  0  0  0  0
  3  5  1  0  0  0  0
  5  6  1  0  0  0  0
  5  7  1  0  0  0  0
  5  8  1  0  0  0  0
  8  9  1  0  0  0  0
  8 10  1  0  0  0  0
  8 11  1  0  0  0  0
 11 12  2  0  0  0  0
 11 13  1  0  0  0  0
 13 14  1  0  0  0  0
  3 15  1  0  0  0  0
 15 16  1  0  0  0  0
 15 17  1  0  0  0  0
  1 18  1  0  0  0  0
 18 19  1  0  0  0  0
M  END
> <ChemID>
100024

> <source_casrn>
56-86-0

> <CAS>
56-86-0

> <SMILES>
N[C@@H](CCC(O)=O)C(O)=O

> <NAME>
Glutamic acid

> <preferred_name>
L-Glutamic acid

> <iupac>
L-glutamic acid

> <MPID>
100039

> <dsstox_substance_id>
DTXSID5020659

> <Canonical_QSARr>
NC(CCC(O)=O)C(O)=O

> <InChI_Code_QSARr>
InChI=1S/C5H9NO4/c6-3(5(9)10)1-2-4(7)8/h3H,1-2,6H2,(H,7,8)(H,9,10)

> <InChI Key_QSARr>
WHUUTDBJXJRKMK-UHFFFAOYSA-N

> <Salt_Solvent>
?

> <Ready_Biodeg>
1.0

$$$$
100028
  -INDIGO-08031722522D

 56 55  0  0  0  0  0  0  0  0999 V2000
    9.6994   -0.8000    0.0000 C   0  0  0  0  0  0  0  0  0  0  0  0
   11.0851   -1.6000    0.0000 H   0  0  0  0  0  0  0  0  0  0  0  0
   11.0851    0.0000    0.0000 H   0  0  0  0  0  0  0  0  0  0  0  0
    9.6994   -2.4000    0.0000 H   0  0  0  0  0  0  0  0  0  0  0  0
    8.3141    0.0000    0.0000 C   0  0  0  0  0  0  0  0  0  0  0  0
    8.9259    1.4782    0.0000 H   0  0  0  0  0  0  0  0  0  0  0  0
    7.7017    1.4782    0.0000 H   0  0  0  0  0  0  0  0  0  0  0  0
    6.9283   -0.8000    0.0000 C   0  0  0  0  0  0  0  0  0  0  0  0
    6.3160   -2.2782    0.0000 H   0  0  0  0  0  0  0  0  0  0  0  0
    7.5406   -2.2782    0.0000 H   0  0  0  0  0  0  0  0  0  0  0  0
    5.5426    0.0000    0.0000 C   0  0  0  0  0  0  0  0  0  0  0  0
    6.1549    1.4782    0.0000 H   0  0  0  0  0  0  0  0  0  0  0  0
    4.9302    1.4782    0.0000 H   0  0  0  0  0  0  0  0  0  0  0  0
    4.1568   -0.8000    0.0000 C   0  0  0  0  0  0  0  0  0  0  0  0
    3.5445   -2.2782    0.0000 H   0  0  0  0  0  0  0  0  0  0  0  0
    4.7691   -2.2782    0.0000 H   0  0  0  0  0  0  0  0  0  0  0  0
    2.7715    0.0000    0.0000 C   0  0  0  0  0  0  0  0  0  0  0  0
    3.3834    1.4782    0.0000 H   0  0  0  0  0  0  0  0  0  0  0  0
    2.1592    1.4782    0.0000 H   0  0  0  0  0  0  0  0  0  0  0  0
    1.3857   -0.8000    0.0000 C   0  0  0  0  0  0  0  0  0  0  0  0
    0.7734   -2.2782    0.0000 H   0  0  0  0  0  0  0  0  0  0  0  0
    1.9981   -2.2782    0.0000 H   0  0  0  0  0  0  0  0  0  0  0  0
    0.0000    0.0000    0.0000 C   0  0  0  0  0  0  0  0  0  0  0  0
    0.6123    1.4782    0.0000 H   0  0  0  0  0  0  0  0  0  0  0  0
   -0.6123    1.4782    0.0000 H   0  0  0  0  0  0  0  0  0  0  0  0
   -1.3857   -0.8000    0.0000 C   0  0  0  0  0  0  0  0  0  0  0  0
   -1.9981   -2.2782    0.0000 H   0  0  0  0  0  0  0  0  0  0  0  0
   -0.7734   -2.2782    0.0000 H   0  0  0  0  0  0  0  0  0  0  0  0
   -2.7711    0.0000    0.0000 C   0  0  0  0  0  0  0  0  0  0  0  0
   -2.1592    1.4782    0.0000 H   0  0  0  0  0  0  0  0  0  0  0  0
   -3.3834    1.4782    0.0000 H   0  0  0  0  0  0  0  0  0  0  0  0
   -4.1568   -0.8000    0.0000 C   0  0  0  0  0  0  0  0  0  0  0  0
   -4.7691   -2.2782    0.0000 H   0  0  0  0  0  0  0  0  0  0  0  0
   -3.5445   -2.2782    0.0000 H   0  0  0  0  0  0  0  0  0  0  0  0
   -5.5426    0.0000    0.0000 C   0  0  0  0  0  0  0  0  0  0  0  0
   -4.9302    1.4782    0.0000 H   0  0  0  0  0  0  0  0  0  0  0  0
   -6.1549    1.4782    0.0000 H   0  0  0  0  0  0  0  0  0  0  0  0
   -6.9283   -0.8000    0.0000 C   0  0  0  0  0  0  0  0  0  0  0  0
   -7.5406   -2.2782    0.0000 H   0  0  0  0  0  0  0  0  0  0  0  0
   -6.3160   -2.2782    0.0000 H   0  0  0  0  0  0  0  0  0  0  0  0
   -8.3136    0.0000    0.0000 C   0  0  0  0  0  0  0  0  0  0  0  0
   -7.7017    1.4782    0.0000 H   0  0  0  0  0  0  0  0  0  0  0  0
   -8.9260    1.4782    0.0000 H   0  0  0  0  0  0  0  0  0  0  0  0
   -9.6994   -0.8000    0.0000 C   0  0  0  0  0  0  0  0  0  0  0  0
  -10.3117   -2.2782    0.0000 H   0  0  0  0  0  0  0  0  0  0  0  0
   -9.0871   -2.2782    0.0000 H   0  0  0  0  0  0  0  0  0  0  0  0
  -11.0851    0.0000    0.0000 C   0  0  0  0  0  0  0  0  0  0  0  0
  -10.4728    1.4782    0.0000 H   0  0  0  0  0  0  0  0  0  0  0  0
  -11.6974    1.4782    0.0000 H   0  0  0  0  0  0  0  0  0  0  0  0
  -12.4709   -0.8000    0.0000 C   0  0  0  0  0  0  0  0  0  0  0  0
  -13.0832   -2.2782    0.0000 H   0  0  0  0  0  0  0  0  0  0  0  0
  -11.8586   -2.2782    0.0000 H   0  0  0  0  0  0  0  0  0  0  0  0
  -13.8562    0.0000    0.0000 C   0  0  0  0  0  0  0  0  0  0  0  0
  -15.2419   -0.8000    0.0000 O   0  0  0  0  0  0  0  0  0  0  0  0
  -16.6277    0.0000    0.0000 H   0  0  0  0  0  0  0  0  0  0  0  0
  -13.8566    1.6000    0.0000 O   0  0  0  0  0  0  0  0  0  0  0  0
  1  2  1  0  0  0  0
  1  3  1  0  0  0  0
  1  4  1  0  0  0  0
  1  5  1  0  0  0  0
  5  6  1  0  0  0  0
  5  7  1  0  0  0  0
  5  8  1  0  0  0  0
  8  9  1  0  0  0  0
  8 10  1  0  0  0  0
  8 11  1  0  0  0  0
 11 12  1  0  0  0  0
 11 13  1  0  0  0  0
 11 14  1  0  0  0  0
 14 15  1  0  0  0  0
 14 16  1  0  0  0  0
 14 17  1  0  0  0  0
 17 18  1  0  0  0  0
 17 19  1  0  0  0  0
 17 20  1  0  0  0  0
 20 21  1  0  0  0  0
 20 22  1  0  0  0  0
 20 23  1  0  0  0  0
 23 24  1  0  0  0  0
 23 25  1  0  0  0  0
 23 26  1  0  0  0  0
 26 27  1  0  0  0  0
 26 28  1  0  0  0  0
 26 29  1  0  0  0  0
 29 30  1  0  0  0  0
 29 31  1  0  0  0  0
 29 32  1  0  0  0  0
 32 33  1  0  0  0  0
 32 34  1  0  0  0  0
 32 35  1  0  0  0  0
 35 36  1  0  0  0  0
 35 37  1  0  0  0  0
 35 38  1  0  0  0  0
 38 39  1  0  0  0  0
 38 40  1  0  0  0  0
 38 41  1  0  0  0  0
 41 42  1  0  0  0  0
 41 43  1  0  0  0  0
 41 44  1  0  0  0  0
 44 45  1  0  0  0  0
 44 46  1  0  0  0  0
 44 47  1  0  0  0  0
 47 48  1  0  0  0  0
 47 49  1  0  0  0  0
 47 50  1  0  0  0  0
 50 51  1  0  0  0  0
 50 52  1  0  0  0  0
 50 53  1  0  0  0  0
 53 54  1  0  0  0  0
 54 55  1  0  0  0  0
 53 56  2  0  0  0  0
M  END
> <ChemID>
100028

> <source_casrn>
57-11-4

> <CAS>
57-11-4

> <SMILES>
CCCCCCCCCCCCCCCCCC(O)=O

> <NAME>
Stearic acid

> <preferred_name>
Octadecanoic acid

> <iupac>
octadecanoic acid

> <MPID>
100042

> <dsstox_substance_id>
DTXSID8021642

> <Canonical_QSARr>
CCCCCCCCCCCCCCCCCC(O)=O

> <InChI_Code_QSARr>
InChI=1S/C18H36O2/c1-2-3-4-5-6-7-8-9-10-11-12-13-14-15-16-17-18(19)20/h2-17H2,1H3,(H,19,20)

> <InChI Key_QSARr>
QIQXTHQIDYTFRH-UHFFFAOYSA-N

> <Salt_Solvent>
?

> <Ready_Biodeg>
1.0

$$$$
100029
  -INDIGO-08031722522D

  8  7  0  0  0  0  0  0  0  0999 V2000
    0.0000    0.0000    0.0000 C   0  0  0  0  0  0  0  0  0  0  0  0
    1.3856    0.8000    0.0000 N   0  0  0  0  0  0  0  0  0  0  0  0
    2.7713    0.0000    0.0000 H   0  0  0  0  0  0  0  0  0  0  0  0
    1.3856    2.4000    0.0000 H   0  0  0  0  0  0  0  0  0  0  0  0
   -1.3856    0.8000    0.0000 N   0  0  0  0  0  0  0  0  0  0  0  0
   -2.7713    0.0000    0.0000 H   0  0  0  0  0  0  0  0  0  0  0  0
   -1.3856    2.4000    0.0000 H   0  0  0  0  0  0  0  0  0  0  0  0
   -0.0000   -1.6000    0.0000 O   0  0  0  0  0  0  0  0  0  0  0  0
  1  2  1  0  0  0  0
  2  3  1  0  0  0  0
  2  4  1  0  0  0  0
  1  5  1  0  0  0  0
  5  6  1  0  0  0  0
  5  7  1  0  0  0  0
  1  8  2  0  0  0  0
M  END
> <ChemID>
100029

> <source_casrn>
57-13-6

> <CAS>
57-13-6

> <SMILES>
NC(N)=O

> <NAME>
UREA

> <preferred_name>
Urea

> <iupac>
urea

> <MPID>
100043

> <dsstox_substance_id>
DTXSID4021426

> <Canonical_QSARr>
NC(N)=O

> <InChI_Code_QSARr>
InChI=1S/CH4N2O/c2-1(3)4/h(H4,2,3,4)

> <InChI Key_QSARr>
XSQUKJJJFZCRTK-UHFFFAOYSA-N

> <Salt_Solvent>
?

> <Ready_Biodeg>
1.0

$$$$
100030
  -INDIGO-08031722522D

 12 11  0  0  0  0  0  0  0  0999 V2000
    1.3856    0.8000    0.0000 C   0  0  0  0  0  0  0  0  0  0  0  0
    2.7713    1.6000    0.0000 H   0  0  0  0  0  0  0  0  0  0  0  0
    2.7713    0.0000    0.0000 H   0  0  0  0  0  0  0  0  0  0  0  0
    1.3856    2.4000    0.0000 H   0  0  0  0  0  0  0  0  0  0  0  0
    0.0000    0.0000    0.0000 N   0  0  0  0  0  0  0  0  0  0  0  0
   -1.3856    0.8000    0.0000 C   0  0  0  0  0  0  0  0  0  0  0  0
   -2.7713    1.6000    0.0000 H   0  0  0  0  0  0  0  0  0  0  0  0
   -2.7713    0.0000    0.0000 H   0  0  0  0  0  0  0  0  0  0  0  0
   -1.3856    2.4000    0.0000 H   0  0  0  0  0  0  0  0  0  0  0  0
    0.0000   -1.6000    0.0000 N   0  0  0  0  0  0  0  0  0  0  0  0
   -1.3856   -2.4000    0.0000 H   0  0  0  0  0  0  0  0  0  0  0  0
    1.3856   -2.4000    0.0000 H   0  0  0  0  0  0  0  0  0  0  0  0
  1  2  1  0  0  0  0
  1  3  1  0  0  0  0
  1  4  1  0  0  0  0
  1  5  1  0  0  0  0
  5  6  1  0  0  0  0
  6  7  1  0  0  0  0
  6  8  1  0  0  0  0
  6  9  1  0  0  0  0
  5 10  1  0  0  0  0
 10 11  1  0  0  0  0
 10 12  1  0  0  0  0
M  END
> <ChemID>
100030

> <source_casrn>
57-14-7

> <CAS>
57-14-7

> <SMILES>
CN(C)N

> <NAME>
Hydrazine, 1,1-dimethyl-

> <preferred_name>
1,1-Dimethylhydrazine

> <iupac>
1,1-dimethylhydrazine

> <MPID>
100044

> <dsstox_substance_id>
DTXSID1020516

> <Canonical_QSARr>
CN(C)N

> <InChI_Code_QSARr>
InChI=1S/C2H8N2/c1-4(2)3/h3H2,1-2H3

> <InChI Key_QSARr>
RHUYHJGZWVXEHW-UHFFFAOYSA-N

> <Salt_Solvent>
?

> <Ready_Biodeg>
0.0

$$$$
100032
  -INDIGO-08031722522D

 13 12  0  0  0  0  0  0  0  0999 V2000
    1.6000    0.0000    0.0000 C   0  0  0  0  0  0  0  0  0  0  0  0
    3.2000    0.0000    0.0000 H   0  0  0  0  0  0  0  0  0  0  0  0
    2.4000    1.3856    0.0000 H   0  0  0  0  0  0  0  0  0  0  0  0
    2.4000   -1.3856    0.0000 H   0  0  0  0  0  0  0  0  0  0  0  0
   -0.0000    0.0000    0.0000 C   0  0  0  0  0  0  0  0  0  0  0  0
   -0.0000   -1.6000    0.0000 H   0  0  0  0  0  0  0  0  0  0  0  0
   -1.6000    0.0000    0.0000 C   0  0  0  0  0  0  0  0  0  0  0  0
   -1.8089    1.5863    0.0000 H   0  0  0  0  0  0  0  0  0  0  0  0
   -2.8694    0.9740    0.0000 H   0  0  0  0  0  0  0  0  0  0  0  0
   -2.4000   -1.3856    0.0000 O   0  0  0  0  0  0  0  0  0  0  0  0
   -4.0000   -1.3856    0.0000 H   0  0  0  0  0  0  0  0  0  0  0  0
   -0.0000    1.6000    0.0000 O   0  0  0  0  0  0  0  0  0  0  0  0
    1.3857    2.4000    0.0000 H   0  0  0  0  0  0  0  0  0  0  0  0
  1  2  1  0  0  0  0
  1  3  1  0  0  0  0
  1  4  1  0  0  0  0
  1  5  1  0  0  0  0
  5  6  1  0  0  0  0
  5  7  1  0  0  0  0
  7  8  1  0  0  0  0
  7  9  1  0  0  0  0
  7 10  1  0  0  0  0
 10 11  1  0  0  0  0
  5 12  1  0  0  0  0
 12 13  1  0  0  0  0
M  END
> <ChemID>
100032

> <source_casrn>
57-55-6

> <CAS>
57-55-6

> <SMILES>
CC(O)CO

> <NAME>
1,2-PROPANEDIOL

> <preferred_name>
1,2-Propylene glycol

> <iupac>
propane-1,2-diol

> <MPID>
100046

> <dsstox_substance_id>
DTXSID0021206

> <Canonical_QSARr>
CC(O)CO

> <InChI_Code_QSARr>
InChI=1S/C3H8O2/c1-3(5)2-4/h3-5H,2H2,1H3

> <InChI Key_QSARr>
DNIAPMSPPWPWGF-UHFFFAOYSA-N

> <Salt_Solvent>
?

> <Ready_Biodeg>
1.0

$$$$
100033
  -INDIGO-08031722522D

  9  9  0  0  0  0  0  0  0  0999 V2000
   -2.3455    1.7998    0.0000 O   0  0  0  0  0  0  0  0  0  0  0  0
   -0.8000    1.3857    0.0000 C   0  0  0  0  0  0  0  0  0  0  0  0
    0.0000   -0.0000    0.0000 C   0  0  0  0  0  0  0  0  0  0  0  0
   -1.3856   -0.8000    0.0000 H   0  0  0  0  0  0  0  0  0  0  0  0
    0.8000   -1.3856    0.0000 H   0  0  0  0  0  0  0  0  0  0  0  0
    1.3857    0.8000    0.0000 C   0  0  0  0  0  0  0  0  0  0  0  0
    2.1856   -0.5857    0.0000 H   0  0  0  0  0  0  0  0  0  0  0  0
    2.7713    1.6000    0.0000 H   0  0  0  0  0  0  0  0  0  0  0  0
    0.5857    2.1856    0.0000 O   0  0  0  0  0  0  0  0  0  0  0  0
  1  2  2  0  0  0  0
  2  3  1  0  0  0  0
  3  4  1  0  0  0  0
  3  5  1  0  0  0  0
  3  6  1  0  0  0  0
  6  7  1  0  0  0  0
  6  8  1  0  0  0  0
  6  9  1  0  0  0  0
  9  2  1  0  0  0  0
M  END
> <ChemID>
100033

> <source_casrn>
57-57-8

> <CAS>
57-57-8

> <SMILES>
O=C1CCO1

> <NAME>
2-Oxetanone

> <preferred_name>
beta-Propiolactone

> <iupac>
oxetan-2-one

> <MPID>
100047

> <dsstox_substance_id>
DTXSID8021197

> <Canonical_QSARr>
O=C1CCO1

> <InChI_Code_QSARr>
InChI=1S/C3H4O2/c4-3-1-2-5-3/h1-2H2

> <InChI Key_QSARr>
VEZXCJBBBCKRPI-UHFFFAOYSA-N

> <Salt_Solvent>
?

> <Ready_Biodeg>
1.0

$$$$
100034
  -INDIGO-08031722522D

 24 26  0  0  0  0  0  0  0  0999 V2000
    2.2420   -1.2944    0.0000 C   0  0  0  0  0  0  0  0  0  0  0  0
    3.6277   -0.4944    0.0000 H   0  0  0  0  0  0  0  0  0  0  0  0
    1.0530   -2.3650    0.0000 C   0  0  0  0  0  0  0  0  0  0  0  0
    2.2420   -3.4356    0.0000 H   0  0  0  0  0  0  0  0  0  0  0  0
    0.1125   -3.6595    0.0000 H   0  0  0  0  0  0  0  0  0  0  0  0
   -0.3327   -1.5651    0.0000 C   0  0  0  0  0  0  0  0  0  0  0  0
   -0.6653   -3.1301    0.0000 H   0  0  0  0  0  0  0  0  0  0  0  0
    0.0000    0.0000    0.0000 C   0  0  0  0  0  0  0  0  0  0  0  0
    0.3327    1.5651    0.0000 H   0  0  0  0  0  0  0  0  0  0  0  0
   -1.3856    0.8000    0.0000 C   0  0  0  0  0  0  0  0  0  0  0  0
   -2.9769    0.6327    0.0000 C   0  0  0  0  0  0  0  0  0  0  0  0
   -4.0475    1.8218    0.0000 Cl  0  0  0  0  0  0  0  0  0  0  0  0
   -3.3096   -0.9322    0.0000 C   0  0  0  0  0  0  0  0  0  0  0  0
   -4.7712   -1.5831    0.0000 Cl  0  0  0  0  0  0  0  0  0  0  0  0
   -1.9239   -1.7323    0.0000 C   0  0  0  0  0  0  0  0  0  0  0  0
   -2.2566   -3.2974    0.0000 Cl  0  0  0  0  0  0  0  0  0  0  0  0
   -2.5747   -0.2706    0.0000 C   0  0  0  0  0  0  0  0  0  0  0  0
   -4.1504   -0.5484    0.0000 Cl  0  0  0  0  0  0  0  0  0  0  0  0
   -3.9011    0.6241    0.0000 Cl  0  0  0  0  0  0  0  0  0  0  0  0
   -1.0529    2.3650    0.0000 Cl  0  0  0  0  0  0  0  0  0  0  0  0
    1.5912    0.1672    0.0000 C   0  0  0  0  0  0  0  0  0  0  0  0
    1.2585    1.7323    0.0000 H   0  0  0  0  0  0  0  0  0  0  0  0
    3.1130    0.6617    0.0000 Cl  0  0  0  0  0  0  0  0  0  0  0  0
    3.1824   -2.5889    0.0000 Cl  0  0  0  0  0  0  0  0  0  0  0  0
  1  2  1  0  0  0  0
  1  3  1  0  0  0  0
  3  4  1  0  0  0  0
  3  5  1  0  0  0  0
  3  6  1  0  0  0  0
  6  7  1  0  0  0  0
  6  8  1  0  0  0  0
  8  9  1  0  0  0  0
  8 10  1  0  0  0  0
 10 11  1  0  0  0  0
 11 12  1  0  0  0  0
 11 13  2  0  0  0  0
 13 14  1  0  0  0  0
 13 15  1  0  0  0  0
 15  6  1  0  0  0  0
 15 16  1  0  0  0  0
 15 17  1  0  0  0  0
 17 10  1  0  0  0  0
 17 18  1  0  0  0  0
 17 19  1  0  0  0  0
 10 20  1  0  0  0  0
  8 21  1  0  0  0  0
 21  1  1  0  0  0  0
 21 22  1  0  0  0  0
 21 23  1  0  0  0  0
  1 24  1  0  0  0  0
M  END
> <ChemID>
100034

> <source_casrn>
57-74-9|12789-03-6

> <CAS>
57-74-9

> <SMILES>
ClC1(Cl)C2(Cl)C3CC(Cl)C(Cl)C3C1(Cl)C(Cl)=C2Cl

> <NAME>
Chlordane

> <preferred_name>
Chlordane

> <iupac>
C10H6Cl8

> <MPID>
100048|101117

> <dsstox_substance_id>
DTXSID7020267

> <Canonical_QSARr>
ClC1(Cl)C2(Cl)C3CC(Cl)C(Cl)C3C1(Cl)C(Cl)=C2Cl

> <InChI_Code_QSARr>
InChI=1S/C10H6Cl8/c11-3-1-2-4(5(3)12)9(16)7(14)6(13)8(2,15)10(9,17)18/h2-5H,1H2

> <InChI Key_QSARr>
BIWJNBZANLAXMG-UHFFFAOYSA-N

> <Salt_Solvent>
?

> <Ready_Biodeg>
0.0

$$$$
100036
  -INDIGO-08031722522D

 16 16  0  0  0  0  0  0  0  0999 V2000
    3.2000    2.7713    0.0000 O   0  0  0  0  0  0  0  0  0  0  0  0
    4.8000    2.7713    0.0000 H   0  0  0  0  0  0  0  0  0  0  0  0
    2.4001    1.3856    0.0000 C   0  0  0  0  0  0  0  0  0  0  0  0
    0.7999    1.3856    0.0000 C   0  0  0  0  0  0  0  0  0  0  0  0
    0.0000    2.7713    0.0000 H   0  0  0  0  0  0  0  0  0  0  0  0
    0.0000    0.0000    0.0000 C   0  0  0  0  0  0  0  0  0  0  0  0
   -1.6000    0.0000    0.0000 C   0  0  0  0  0  0  0  0  0  0  0  0
   -3.2000    0.0000    0.0000 H   0  0  0  0  0  0  0  0  0  0  0  0
   -2.4001   -1.3856    0.0000 H   0  0  0  0  0  0  0  0  0  0  0  0
   -2.4001    1.3856    0.0000 H   0  0  0  0  0  0  0  0  0  0  0  0
    0.8001   -1.3856    0.0000 C   0  0  0  0  0  0  0  0  0  0  0  0
    0.0000   -2.7713    0.0000 Cl  0  0  0  0  0  0  0  0  0  0  0  0
    2.4001   -1.3856    0.0000 C   0  0  0  0  0  0  0  0  0  0  0  0
    3.2000   -2.7713    0.0000 H   0  0  0  0  0  0  0  0  0  0  0  0
    3.2000   -0.0000    0.0000 C   0  0  0  0  0  0  0  0  0  0  0  0
    4.8000    0.0000    0.0000 H   0  0  0  0  0  0  0  0  0  0  0  0
  1  2  1  0  0  0  0
  1  3  1  0  0  0  0
  3  4  1  0  0  0  0
  4  5  1  0  0  0  0
  4  6  2  0  0  0  0
  6  7  1  0  0  0  0
  7  8  1  0  0  0  0
  7  9  1  0  0  0  0
  7 10  1  0  0  0  0
  6 11  1  0  0  0  0
 11 12  1  0  0  0  0
 11 13  2  0  0  0  0
 13 14  1  0  0  0  0
 13 15  1  0  0  0  0
 15  3  2  0  0  0  0
 15 16  1  0  0  0  0
M  END
> <ChemID>
100036

> <source_casrn>
59-50-7

> <CAS>
59-50-7

> <SMILES>
Cc1cc(O)ccc1Cl

> <NAME>
3-Methyl-4-chlorophenol

> <preferred_name>
4-Chloro-3-methylphenol

> <iupac>
4-chloro-3-methylphenol

> <MPID>
100050

> <dsstox_substance_id>
DTXSID4021717

> <Canonical_QSARr>
Cc1cc(O)ccc1Cl

> <InChI_Code_QSARr>
InChI=1S/C7H7ClO/c1-5-4-6(9)2-3-7(5)8/h2-4,9H,1H3

> <InChI Key_QSARr>
CFKMVGJGLGKFKI-UHFFFAOYSA-N

> <Salt_Solvent>
?

> <Ready_Biodeg>
1.0

$$$$
100037
  -INDIGO-08031722522D

 14 14  0  0  0  0  0  0  0  0999 V2000
    2.7713   -0.0000    0.0000 O   0  0  0  0  0  0  0  0  0  0  0  0
    4.1569    0.8000    0.0000 H   0  0  0  0  0  0  0  0  0  0  0  0
    1.3856    0.8000    0.0000 C   0  0  0  0  0  0  0  0  0  0  0  0
    1.3856    2.4000    0.0000 O   0  0  0  0  0  0  0  0  0  0  0  0
    0.0001   -0.0000    0.0000 C   0  0  0  0  0  0  0  0  0  0  0  0
   -1.3856    0.8000    0.0000 C   0  0  0  0  0  0  0  0  0  0  0  0
   -1.3856    2.4000    0.0000 H   0  0  0  0  0  0  0  0  0  0  0  0
   -2.7713    0.0000    0.0000 C   0  0  0  0  0  0  0  0  0  0  0  0
   -4.1569    0.8000    0.0000 H   0  0  0  0  0  0  0  0  0  0  0  0
   -2.7712   -1.6000    0.0000 C   0  0  0  0  0  0  0  0  0  0  0  0
   -4.1569   -2.4000    0.0000 H   0  0  0  0  0  0  0  0  0  0  0  0
   -1.3856   -2.4000    0.0000 N   0  0  0  0  0  0  0  0  0  0  0  0
    0.0001   -1.6000    0.0000 C   0  0  0  0  0  0  0  0  0  0  0  0
    1.3856   -2.4000    0.0000 H   0  0  0  0  0  0  0  0  0  0  0  0
  1  2  1  0  0  0  0
  1  3  1  0  0  0  0
  3  4  2  0  0  0  0
  3  5  1  0  0  0  0
  5  6  1  0  0  0  0
  6  7  1  0  0  0  0
  6  8  2  0  0  0  0
  8  9  1  0  0  0  0
  8 10  1  0  0  0  0
 10 11  1  0  0  0  0
 10 12  2  0  0  0  0
 12 13  1  0  0  0  0
 13  5  2  0  0  0  0
 13 14  1  0  0  0  0
M  END
> <ChemID>
100037

> <source_casrn>
59-67-6

> <CAS>
59-67-6

> <SMILES>
OC(=O)c1ccc[n]c1

> <NAME>
NICOTINIC ACID

> <preferred_name>
Nicotinic acid

> <iupac>
C6H5NO2

> <MPID>
100051

> <dsstox_substance_id>
DTXSID1020932

> <Canonical_QSARr>
OC(=O)c1ccc[n]c1

> <InChI_Code_QSARr>
InChI=1S/C6H5NO2/c8-6(9)5-2-1-3-7-4-5/h1-4H,(H,8,9)

> <InChI Key_QSARr>
PVNIIMVLHYAWGP-UHFFFAOYSA-N

> <Salt_Solvent>
?

> <Ready_Biodeg>
1.0

$$$$
100038
  -INDIGO-08031722522D

 36 35  0  0  0  0  0  0  0  0999 V2000
   -0.5473    1.5035    0.0000 N   0  0  0  0  0  0  0  0  0  0  0  0
   -0.0000   -0.0001    0.0000 C   0  0  0  0  0  0  0  0  0  0  0  0
    1.4782    0.6122    0.0000 H   0  0  0  0  0  0  0  0  0  0  0  0
    1.4782   -0.6122    0.0000 H   0  0  0  0  0  0  0  0  0  0  0  0
   -0.8000   -1.3856    0.0000 C   0  0  0  0  0  0  0  0  0  0  0  0
   -2.2782   -1.9979    0.0000 H   0  0  0  0  0  0  0  0  0  0  0  0
   -2.2782   -0.7734    0.0000 H   0  0  0  0  0  0  0  0  0  0  0  0
   -0.2527   -2.8891    0.0000 N   0  0  0  0  0  0  0  0  0  0  0  0
   -1.2812   -4.1148    0.0000 C   0  0  0  0  0  0  0  0  0  0  0  0
   -1.3511   -5.7133    0.0000 H   0  0  0  0  0  0  0  0  0  0  0  0
   -0.2002   -5.2945    0.0000 H   0  0  0  0  0  0  0  0  0  0  0  0
   -2.8570   -3.8370    0.0000 C   0  0  0  0  0  0  0  0  0  0  0  0
   -3.8853   -5.0627    0.0000 O   0  0  0  0  0  0  0  0  0  0  0  0
   -5.4611   -4.7848    0.0000 H   0  0  0  0  0  0  0  0  0  0  0  0
   -3.4042   -2.3334    0.0000 O   0  0  0  0  0  0  0  0  0  0  0  0
    1.3229   -3.1670    0.0000 C   0  0  0  0  0  0  0  0  0  0  0  0
    1.8040   -1.6411    0.0000 H   0  0  0  0  0  0  0  0  0  0  0  0
    2.7421   -2.4281    0.0000 H   0  0  0  0  0  0  0  0  0  0  0  0
    1.8701   -4.6706    0.0000 C   0  0  0  0  0  0  0  0  0  0  0  0
    3.4458   -4.9483    0.0000 O   0  0  0  0  0  0  0  0  0  0  0  0
    3.9931   -6.4518    0.0000 H   0  0  0  0  0  0  0  0  0  0  0  0
    0.8417   -5.8961    0.0000 O   0  0  0  0  0  0  0  0  0  0  0  0
    0.4812    2.7292    0.0000 C   0  0  0  0  0  0  0  0  0  0  0  0
    0.5511    4.3277    0.0000 H   0  0  0  0  0  0  0  0  0  0  0  0
   -0.5998    3.9089    0.0000 H   0  0  0  0  0  0  0  0  0  0  0  0
    2.0570    2.4513    0.0000 C   0  0  0  0  0  0  0  0  0  0  0  0
    3.0853    3.6770    0.0000 O   0  0  0  0  0  0  0  0  0  0  0  0
    4.6611    3.3992    0.0000 H   0  0  0  0  0  0  0  0  0  0  0  0
    2.6042    0.9478    0.0000 O   0  0  0  0  0  0  0  0  0  0  0  0
   -2.1229    1.7814    0.0000 C   0  0  0  0  0  0  0  0  0  0  0  0
   -2.6040    0.2555    0.0000 H   0  0  0  0  0  0  0  0  0  0  0  0
   -3.5421    1.0425    0.0000 H   0  0  0  0  0  0  0  0  0  0  0  0
   -2.6701    3.2849    0.0000 C   0  0  0  0  0  0  0  0  0  0  0  0
   -4.2458    3.5626    0.0000 O   0  0  0  0  0  0  0  0  0  0  0  0
   -4.7931    5.0662    0.0000 H   0  0  0  0  0  0  0  0  0  0  0  0
   -1.6417    4.5105    0.0000 O   0  0  0  0  0  0  0  0  0  0  0  0
  1  2  1  0  0  0  0
  2  3  1  0  0  0  0
  2  4  1  0  0  0  0
  2  5  1  0  0  0  0
  5  6  1  0  0  0  0
  5  7  1  0  0  0  0
  5  8  1  0  0  0  0
  8  9  1  0  0  0  0
  9 10  1  0  0  0  0
  9 11  1  0  0  0  0
  9 12  1  0  0  0  0
 12 13  1  0  0  0  0
 13 14  1  0  0  0  0
 12 15  2  0  0  0  0
  8 16  1  0  0  0  0
 16 17  1  0  0  0  0
 16 18  1  0  0  0  0
 16 19  1  0  0  0  0
 19 20  1  0  0  0  0
 20 21  1  0  0  0  0
 19 22  2  0  0  0  0
  1 23  1  0  0  0  0
 23 24  1  0  0  0  0
 23 25  1  0  0  0  0
 23 26  1  0  0  0  0
 26 27  1  0  0  0  0
 27 28  1  0  0  0  0
 26 29  2  0  0  0  0
  1 30  1  0  0  0  0
 30 31  1  0  0  0  0
 30 32  1  0  0  0  0
 30 33  1  0  0  0  0
 33 34  1  0  0  0  0
 34 35  1  0  0  0  0
 33 36  2  0  0  0  0
M  END
> <ChemID>
100038

> <source_casrn>
60-00-4

> <CAS>
60-00-4

> <SMILES>
O=C(O)CN(CCN(CC(=O)O)CC(=O)O)CC(=O)O

> <NAME>
ETHLYLENEDIAMINETETRAACETIC ACID

> <preferred_name>
Ethylenediaminetetraacetic acid

> <iupac>
C10H16N2O8

> <MPID>
100052

> <dsstox_substance_id>
DTXSID6022977

> <Canonical_QSARr>
OC(=O)CN(CC(O)=O)CCN(CC(O)=O)CC(O)=O

> <InChI_Code_QSARr>
InChI=1S/C10H16N2O8/c13-7(14)3-11(4-8(15)16)1-2-12(5-9(17)18)6-10(19)20/h1-6H2,(H,13,14)(H,15,16)(H,17,18)(H,19,20)

> <InChI Key_QSARr>
KCXVZYZYPLLWCC-UHFFFAOYSA-N

> <Salt_Solvent>
?

> <Ready_Biodeg>
0.0

$$$$
100040
  -INDIGO-08031722522D

 19 19  0  0  0  0  0  0  0  0999 V2000
   -1.3857   -0.8000    0.0000 C   0  0  0  0  0  0  0  0  0  0  0  0
   -1.3857   -2.4000    0.0000 C   0  0  0  0  0  0  0  0  0  0  0  0
    0.0001   -3.2000    0.0000 H   0  0  0  0  0  0  0  0  0  0  0  0
   -2.7713   -3.2000    0.0000 C   0  0  0  0  0  0  0  0  0  0  0  0
   -2.7713   -4.8000    0.0000 H   0  0  0  0  0  0  0  0  0  0  0  0
   -4.1569   -2.4000    0.0000 C   0  0  0  0  0  0  0  0  0  0  0  0
   -5.5426   -3.2000    0.0000 H   0  0  0  0  0  0  0  0  0  0  0  0
   -4.1569   -0.8000    0.0000 C   0  0  0  0  0  0  0  0  0  0  0  0
   -5.5426   -0.0000    0.0000 H   0  0  0  0  0  0  0  0  0  0  0  0
   -2.7713   -0.0000    0.0000 C   0  0  0  0  0  0  0  0  0  0  0  0
   -2.7713    1.6000    0.0000 H   0  0  0  0  0  0  0  0  0  0  0  0
    0.0001   -0.0000    0.0000 C   0  0  0  0  0  0  0  0  0  0  0  0
    0.6124    1.4782    0.0000 H   0  0  0  0  0  0  0  0  0  0  0  0
   -0.6122    1.4782    0.0000 H   0  0  0  0  0  0  0  0  0  0  0  0
    1.3857   -0.8000    0.0000 C   0  0  0  0  0  0  0  0  0  0  0  0
    0.7734   -2.2782    0.0000 H   0  0  0  0  0  0  0  0  0  0  0  0
    1.9980   -2.2782    0.0000 H   0  0  0  0  0  0  0  0  0  0  0  0
    2.7713   -0.0000    0.0000 O   0  0  0  0  0  0  0  0  0  0  0  0
    4.1569   -0.8000    0.0000 H   0  0  0  0  0  0  0  0  0  0  0  0
  1  2  1  0  0  0  0
  2  3  1  0  0  0  0
  2  4  2  0  0  0  0
  4  5  1  0  0  0  0
  4  6  1  0  0  0  0
  6  7  1  0  0  0  0
  6  8  2  0  0  0  0
  8  9  1  0  0  0  0
  8 10  1  0  0  0  0
 10  1  2  0  0  0  0
 10 11  1  0  0  0  0
  1 12  1  0  0  0  0
 12 13  1  0  0  0  0
 12 14  1  0  0  0  0
 12 15  1  0  0  0  0
 15 16  1  0  0  0  0
 15 17  1  0  0  0  0
 15 18  1  0  0  0  0
 18 19  1  0  0  0  0
M  END
> <ChemID>
100040

> <source_casrn>
60-12-8

> <CAS>
60-12-8

> <SMILES>
OCCc1ccccc1

> <NAME>
Benzeneethanol

> <preferred_name>
2-Phenylethanol

> <iupac>
2-phenylethanol

> <MPID>
100054

> <dsstox_substance_id>
DTXSID9026342

> <Canonical_QSARr>
OCCc1ccccc1

> <InChI_Code_QSARr>
InChI=1S/C8H10O/c9-7-6-8-4-2-1-3-5-8/h1-5,9H,6-7H2

> <InChI Key_QSARr>
WRMNZCZEMHIOCP-UHFFFAOYSA-N

> <Salt_Solvent>
?

> <Ready_Biodeg>
1.0

$$$$
100041
  -INDIGO-08031722522D

 15 14  0  0  0  0  0  0  0  0999 V2000
    1.3857    0.8000    0.0000 O   0  0  0  0  0  0  0  0  0  0  0  0
    2.7713    0.0000    0.0000 C   0  0  0  0  0  0  0  0  0  0  0  0
    2.1590   -1.4782    0.0000 H   0  0  0  0  0  0  0  0  0  0  0  0
    3.3835   -1.4782    0.0000 H   0  0  0  0  0  0  0  0  0  0  0  0
    4.1569    0.8000    0.0000 C   0  0  0  0  0  0  0  0  0  0  0  0
    5.5426    1.6000    0.0000 H   0  0  0  0  0  0  0  0  0  0  0  0
    5.5426    0.0000    0.0000 H   0  0  0  0  0  0  0  0  0  0  0  0
    4.1569    2.4000    0.0000 H   0  0  0  0  0  0  0  0  0  0  0  0
    0.0000    0.0000    0.0000 C   0  0  0  0  0  0  0  0  0  0  0  0
   -0.6122   -1.4782    0.0000 H   0  0  0  0  0  0  0  0  0  0  0  0
    0.6122   -1.4782    0.0000 H   0  0  0  0  0  0  0  0  0  0  0  0
   -1.3856    0.8000    0.0000 C   0  0  0  0  0  0  0  0  0  0  0  0
   -2.7713    1.6000    0.0000 H   0  0  0  0  0  0  0  0  0  0  0  0
   -2.7713    0.0000    0.0000 H   0  0  0  0  0  0  0  0  0  0  0  0
   -1.3856    2.4000    0.0000 H   0  0  0  0  0  0  0  0  0  0  0  0
  1  2  1  0  0  0  0
  2  3  1  0  0  0  0
  2  4  1  0  0  0  0
  2  5  1  0  0  0  0
  5  6  1  0  0  0  0
  5  7  1  0  0  0  0
  5  8  1  0  0  0  0
  1  9  1  0  0  0  0
  9 10  1  0  0  0  0
  9 11  1  0  0  0  0
  9 12  1  0  0  0  0
 12 13  1  0  0  0  0
 12 14  1  0  0  0  0
 12 15  1  0  0  0  0
M  END
> <ChemID>
100041

> <source_casrn>
60-29-7

> <CAS>
60-29-7

> <SMILES>
CCOCC

> <NAME>
Ethane, 1,1'-oxybis-

> <preferred_name>
Diethyl ether

> <iupac>
diethyl ether

> <MPID>
100055

> <dsstox_substance_id>
DTXSID3021720

> <Canonical_QSARr>
CCOCC

> <InChI_Code_QSARr>
InChI=1S/C4H10O/c1-3-5-4-2/h3-4H2,1-2H3

> <InChI Key_QSARr>
RTZKZFJDLAIYFH-UHFFFAOYSA-N

> <Salt_Solvent>
?

> <Ready_Biodeg>
0.0

$$$$
100042
  -INDIGO-08031722522D

 52 51  0  0  0  0  0  0  0  0999 V2000
   -5.5428    0.0000    0.0000 C   0  0  0  0  0  0  0  0  0  0  0  0
   -5.5428   -1.6000    0.0000 O   0  0  0  0  0  0  0  0  0  0  0  0
   -6.9281    0.8000    0.0000 O   0  0  0  0  0  0  0  0  0  0  0  0
   -8.3138    0.0000    0.0000 H   0  0  0  0  0  0  0  0  0  0  0  0
   -4.1570    0.8000    0.0000 C   0  0  0  0  0  0  0  0  0  0  0  0
   -4.7693    2.2782    0.0000 H   0  0  0  0  0  0  0  0  0  0  0  0
   -3.5447    2.2782    0.0000 H   0  0  0  0  0  0  0  0  0  0  0  0
   -2.7713    0.0000    0.0000 C   0  0  0  0  0  0  0  0  0  0  0  0
   -2.1590   -1.4782    0.0000 H   0  0  0  0  0  0  0  0  0  0  0  0
   -3.3836   -1.4782    0.0000 H   0  0  0  0  0  0  0  0  0  0  0  0
   -1.3855    0.8000    0.0000 C   0  0  0  0  0  0  0  0  0  0  0  0
   -1.9979    2.2782    0.0000 H   0  0  0  0  0  0  0  0  0  0  0  0
   -0.7732    2.2782    0.0000 H   0  0  0  0  0  0  0  0  0  0  0  0
   -0.0002    0.0000    0.0000 C   0  0  0  0  0  0  0  0  0  0  0  0
    0.6121   -1.4782    0.0000 H   0  0  0  0  0  0  0  0  0  0  0  0
   -0.6121   -1.4782    0.0000 H   0  0  0  0  0  0  0  0  0  0  0  0
    1.3855    0.8000    0.0000 C   0  0  0  0  0  0  0  0  0  0  0  0
    0.7732    2.2782    0.0000 H   0  0  0  0  0  0  0  0  0  0  0  0
    1.9979    2.2782    0.0000 H   0  0  0  0  0  0  0  0  0  0  0  0
    2.7713    0.0000    0.0000 C   0  0  0  0  0  0  0  0  0  0  0  0
    3.3836   -1.4782    0.0000 H   0  0  0  0  0  0  0  0  0  0  0  0
    2.1590   -1.4782    0.0000 H   0  0  0  0  0  0  0  0  0  0  0  0
    4.1570    0.8000    0.0000 C   0  0  0  0  0  0  0  0  0  0  0  0
    3.5447    2.2782    0.0000 H   0  0  0  0  0  0  0  0  0  0  0  0
    4.7693    2.2782    0.0000 H   0  0  0  0  0  0  0  0  0  0  0  0
    5.5424    0.0000    0.0000 C   0  0  0  0  0  0  0  0  0  0  0  0
    5.5424   -1.6000    0.0000 H   0  0  0  0  0  0  0  0  0  0  0  0
    6.9281    0.8000    0.0000 C   0  0  0  0  0  0  0  0  0  0  0  0
    6.9281    2.4000    0.0000 H   0  0  0  0  0  0  0  0  0  0  0  0
    8.3138    0.0000    0.0000 C   0  0  0  0  0  0  0  0  0  0  0  0
    8.9262   -1.4782    0.0000 H   0  0  0  0  0  0  0  0  0  0  0  0
    7.7015   -1.4782    0.0000 H   0  0  0  0  0  0  0  0  0  0  0  0
    9.6996    0.8000    0.0000 C   0  0  0  0  0  0  0  0  0  0  0  0
    9.6996    2.4000    0.0000 H   0  0  0  0  0  0  0  0  0  0  0  0
   11.0853    0.0000    0.0000 C   0  0  0  0  0  0  0  0  0  0  0  0
   11.0853   -1.6000    0.0000 H   0  0  0  0  0  0  0  0  0  0  0  0
   12.4707    0.8000    0.0000 C   0  0  0  0  0  0  0  0  0  0  0  0
   11.8583    2.2782    0.0000 H   0  0  0  0  0  0  0  0  0  0  0  0
   13.0830    2.2782    0.0000 H   0  0  0  0  0  0  0  0  0  0  0  0
   13.8564    0.0000    0.0000 C   0  0  0  0  0  0  0  0  0  0  0  0
   14.4687   -1.4782    0.0000 H   0  0  0  0  0  0  0  0  0  0  0  0
   13.2441   -1.4782    0.0000 H   0  0  0  0  0  0  0  0  0  0  0  0
   15.2422    0.8000    0.0000 C   0  0  0  0  0  0  0  0  0  0  0  0
   14.6298    2.2782    0.0000 H   0  0  0  0  0  0  0  0  0  0  0  0
   15.8545    2.2782    0.0000 H   0  0  0  0  0  0  0  0  0  0  0  0
   16.6279    0.0000    0.0000 C   0  0  0  0  0  0  0  0  0  0  0  0
   17.2398   -1.4782    0.0000 H   0  0  0  0  0  0  0  0  0  0  0  0
   16.0156   -1.4782    0.0000 H   0  0  0  0  0  0  0  0  0  0  0  0
   18.0132    0.8000    0.0000 C   0  0  0  0  0  0  0  0  0  0  0  0
   19.3990    1.6000    0.0000 H   0  0  0  0  0  0  0  0  0  0  0  0
   19.3990    0.0000    0.0000 H   0  0  0  0  0  0  0  0  0  0  0  0
   18.0132    2.4000    0.0000 H   0  0  0  0  0  0  0  0  0  0  0  0
  1  2  2  0  0  0  0
  1  3  1  0  0  0  0
  3  4  1  0  0  0  0
  1  5  1  0  0  0  0
  5  6  1  0  0  0  0
  5  7  1  0  0  0  0
  5  8  1  0  0  0  0
  8  9  1  0  0  0  0
  8 10  1  0  0  0  0
  8 11  1  0  0  0  0
 11 12  1  0  0  0  0
 11 13  1  0  0  0  0
 11 14  1  0  0  0  0
 14 15  1  0  0  0  0
 14 16  1  0  0  0  0
 14 17  1  0  0  0  0
 17 18  1  0  0  0  0
 17 19  1  0  0  0  0
 17 20  1  0  0  0  0
 20 21  1  0  0  0  0
 20 22  1  0  0  0  0
 20 23  1  0  0  0  0
 23 24  1  0  0  0  0
 23 25  1  0  0  0  0
 23 26  1  0  0  0  0
 26 27  1  0  0  0  0
 26 28  2  0  0  0  0
 28 29  1  0  0  0  0
 28 30  1  0  0  0  0
 30 31  1  0  0  0  0
 30 32  1  0  0  0  0
 30 33  1  0  0  0  0
 33 34  1  0  0  0  0
 33 35  2  0  0  0  0
 35 36  1  0  0  0  0
 35 37  1  0  0  0  0
 37 38  1  0  0  0  0
 37 39  1  0  0  0  0
 37 40  1  0  0  0  0
 40 41  1  0  0  0  0
 40 42  1  0  0  0  0
 40 43  1  0  0  0  0
 43 44  1  0  0  0  0
 43 45  1  0  0  0  0
 43 46  1  0  0  0  0
 46 47  1  0  0  0  0
 46 48  1  0  0  0  0
 46 49  1  0  0  0  0
 49 50  1  0  0  0  0
 49 51  1  0  0  0  0
 49 52  1  0  0  0  0
M  END
> <ChemID>
100042

> <source_casrn>
60-33-3

> <CAS>
60-33-3

> <SMILES>
O=C(O)CCCCCCCC=CCC=CCCCCC

> <NAME>
LINOLEIC ACID

> <preferred_name>
Linoleic acid

> <iupac>
(9Z,12Z)-octadeca-9,12-dienoic acid

> <MPID>
100056

> <dsstox_substance_id>
DTXSID2025505

> <Canonical_QSARr>
CCCCCC=CCC=CCCCCCCCC(O)=O

> <InChI_Code_QSARr>
InChI=1S/C18H32O2/c1-2-3-4-5-6-7-8-9-10-11-12-13-14-15-16-17-18(19)20/h6-7,9-10H,2-5,8,11-17H2,1H3,(H,19,20)/b7-6+,10-9+

> <InChI Key_QSARr>
OYHQOLUKZRVURQ-AVQMFFATSA-N

> <Salt_Solvent>
?

> <Ready_Biodeg>
1.0

$$$$
100044
  -INDIGO-08031722522D

  9  8  0  0  0  0  0  0  0  0999 V2000
   -0.0000    0.0000    0.0000 C   0  0  0  0  0  0  0  0  0  0  0  0
    1.3856    0.8000    0.0000 H   0  0  0  0  0  0  0  0  0  0  0  0
   -0.0000    1.6000    0.0000 H   0  0  0  0  0  0  0  0  0  0  0  0
    1.3856   -0.8000    0.0000 H   0  0  0  0  0  0  0  0  0  0  0  0
   -1.3856   -0.8000    0.0000 C   0  0  0  0  0  0  0  0  0  0  0  0
   -1.3856   -2.4000    0.0000 O   0  0  0  0  0  0  0  0  0  0  0  0
   -2.7713    0.0000    0.0000 N   0  0  0  0  0  0  0  0  0  0  0  0
   -4.1569   -0.8000    0.0000 H   0  0  0  0  0  0  0  0  0  0  0  0
   -2.7713    1.6000    0.0000 H   0  0  0  0  0  0  0  0  0  0  0  0
  1  2  1  0  0  0  0
  1  3  1  0  0  0  0
  1  4  1  0  0  0  0
  1  5  1  0  0  0  0
  5  6  2  0  0  0  0
  5  7  1  0  0  0  0
  7  8  1  0  0  0  0
  7  9  1  0  0  0  0
M  END
> <ChemID>
100044

> <source_casrn>
60-35-5

> <CAS>
60-35-5

> <SMILES>
CC(N)=O

> <NAME>
ACETAMIDE

> <preferred_name>
Acetamide

> <iupac>
acetamide

> <MPID>
100058

> <dsstox_substance_id>
DTXSID7020005

> <Canonical_QSARr>
CC(N)=O

> <InChI_Code_QSARr>
InChI=1S/C2H5NO/c1-2(3)4/h1H3,(H2,3,4)

> <InChI Key_QSARr>
DLFVBJFMPXGRIB-UHFFFAOYSA-N

> <Salt_Solvent>
?

> <Ready_Biodeg>
1.0

$$$$
100045
  -INDIGO-08031722522D

 24 23  0  0  0  0  0  0  0  0999 V2000
    0.0000   -1.5999    0.0000 S   0  0  0  0  0  0  0  0  0  0  0  0
    0.0000    0.0001    0.0000 P   0  0  0  0  0  0  0  0  0  0  0  0
    1.3857    0.8000    0.0000 S   0  0  0  0  0  0  0  0  0  0  0  0
    2.7714    0.0001    0.0000 C   0  0  0  0  0  0  0  0  0  0  0  0
    3.3835   -1.4782    0.0000 H   0  0  0  0  0  0  0  0  0  0  0  0
    2.1590   -1.4782    0.0000 H   0  0  0  0  0  0  0  0  0  0  0  0
    4.1569    0.8000    0.0000 C   0  0  0  0  0  0  0  0  0  0  0  0
    4.1569    2.4000    0.0000 O   0  0  0  0  0  0  0  0  0  0  0  0
    5.5425    0.0001    0.0000 N   0  0  0  0  0  0  0  0  0  0  0  0
    5.5425   -1.5999    0.0000 H   0  0  0  0  0  0  0  0  0  0  0  0
    6.9282    0.8000    0.0000 C   0  0  0  0  0  0  0  0  0  0  0  0
    8.3138    1.6001    0.0000 H   0  0  0  0  0  0  0  0  0  0  0  0
    8.3138    0.0001    0.0000 H   0  0  0  0  0  0  0  0  0  0  0  0
    6.9282    2.4000    0.0000 H   0  0  0  0  0  0  0  0  0  0  0  0
   -1.3856   -0.8000    0.0000 O   0  0  0  0  0  0  0  0  0  0  0  0
   -1.3856   -2.4000    0.0000 C   0  0  0  0  0  0  0  0  0  0  0  0
   -1.3856   -4.0000    0.0000 H   0  0  0  0  0  0  0  0  0  0  0  0
   -2.7713   -3.2001    0.0000 H   0  0  0  0  0  0  0  0  0  0  0  0
    0.0000   -3.2001    0.0000 H   0  0  0  0  0  0  0  0  0  0  0  0
   -1.3856    0.8000    0.0000 O   0  0  0  0  0  0  0  0  0  0  0  0
   -1.3856    2.4000    0.0000 C   0  0  0  0  0  0  0  0  0  0  0  0
   -1.3856    4.0000    0.0000 H   0  0  0  0  0  0  0  0  0  0  0  0
   -2.7713    3.2001    0.0000 H   0  0  0  0  0  0  0  0  0  0  0  0
    0.0000    3.2001    0.0000 H   0  0  0  0  0  0  0  0  0  0  0  0
  1  2  2  0  0  0  0
  2  3  1  0  0  0  0
  3  4  1  0  0  0  0
  4  5  1  0  0  0  0
  4  6  1  0  0  0  0
  4  7  1  0  0  0  0
  7  8  2  0  0  0  0
  7  9  1  0  0  0  0
  9 10  1  0  0  0  0
  9 11  1  0  0  0  0
 11 12  1  0  0  0  0
 11 13  1  0  0  0  0
 11 14  1  0  0  0  0
  2 15  1  0  0  0  0
 15 16  1  0  0  0  0
 16 17  1  0  0  0  0
 16 18  1  0  0  0  0
 16 19  1  0  0  0  0
  2 20  1  0  0  0  0
 20 21  1  0  0  0  0
 21 22  1  0  0  0  0
 21 23  1  0  0  0  0
 21 24  1  0  0  0  0
M  END
> <ChemID>
100045

> <source_casrn>
60-51-5

> <CAS>
60-51-5

> <SMILES>
CNC(=O)CSP(=S)(OC)OC

> <NAME>
Dimethoate

> <preferred_name>
Dimethoate

> <iupac>
O,O-dimethyl S-[2-(methylamino)-2-oxoethyl] phosphorodithioate

> <MPID>
100059

> <dsstox_substance_id>
DTXSID7020479

> <Canonical_QSARr>
CNC(=O)CSP(=S)(OC)OC

> <InChI_Code_QSARr>
InChI=1S/C5H12NO3PS2/c1-6-5(7)4-12-10(11,8-2)9-3/h4H2,1-3H3,(H,6,7)

> <InChI Key_QSARr>
MCWXGJITAZMZEV-UHFFFAOYSA-N

> <Salt_Solvent>
?

> <Ready_Biodeg>
0.0

$$$$
100046
  -INDIGO-08031722522D

 27 31  0  0  0  0  0  0  0  0999 V2000
    3.1939    1.2731    0.0000 C   0  0  0  0  0  0  0  0  0  0  0  0
    3.9940    2.6588    0.0000 H   0  0  0  0  0  0  0  0  0  0  0  0
    4.4884    0.3326    0.0000 O   0  0  0  0  0  0  0  0  0  0  0  0
    3.0267   -0.3182    0.0000 C   0  0  0  0  0  0  0  0  0  0  0  0
    3.5211   -1.8398    0.0000 H   0  0  0  0  0  0  0  0  0  0  0  0
    1.4617   -0.6508    0.0000 C   0  0  0  0  0  0  0  0  0  0  0  0
    1.2944   -2.2420    0.0000 H   0  0  0  0  0  0  0  0  0  0  0  0
    0.0001    0.0000    0.0000 C   0  0  0  0  0  0  0  0  0  0  0  0
   -0.1673   -1.5912    0.0000 H   0  0  0  0  0  0  0  0  0  0  0  0
    0.1672    1.5912    0.0000 C   0  0  0  0  0  0  0  0  0  0  0  0
    0.3344    3.1825    0.0000 H   0  0  0  0  0  0  0  0  0  0  0  0
    1.7323    1.9239    0.0000 C   0  0  0  0  0  0  0  0  0  0  0  0
    1.8996    3.5151    0.0000 H   0  0  0  0  0  0  0  0  0  0  0  0
    2.5322    0.5382    0.0000 C   0  0  0  0  0  0  0  0  0  0  0  0
    3.7931   -0.4468    0.0000 H   0  0  0  0  0  0  0  0  0  0  0  0
    3.9704    1.2396    0.0000 H   0  0  0  0  0  0  0  0  0  0  0  0
   -1.2944    2.2420    0.0000 C   0  0  0  0  0  0  0  0  0  0  0  0
   -2.8594    1.9094    0.0000 C   0  0  0  0  0  0  0  0  0  0  0  0
   -3.0267    0.3182    0.0000 C   0  0  0  0  0  0  0  0  0  0  0  0
   -4.4123   -0.4819    0.0000 Cl  0  0  0  0  0  0  0  0  0  0  0  0
   -1.5651   -0.3326    0.0000 C   0  0  0  0  0  0  0  0  0  0  0  0
   -2.3651    1.0530    0.0000 C   0  0  0  0  0  0  0  0  0  0  0  0
   -3.7778    1.8042    0.0000 Cl  0  0  0  0  0  0  0  0  0  0  0  0
   -3.8031    0.3516    0.0000 Cl  0  0  0  0  0  0  0  0  0  0  0  0
   -1.7323   -1.9239    0.0000 Cl  0  0  0  0  0  0  0  0  0  0  0  0
   -4.0485    2.9799    0.0000 Cl  0  0  0  0  0  0  0  0  0  0  0  0
   -1.1272    3.8332    0.0000 Cl  0  0  0  0  0  0  0  0  0  0  0  0
  1  2  1  0  0  0  0
  1  3  1  0  0  0  0
  3  4  1  0  0  0  0
  4  1  1  0  0  0  0
  4  5  1  0  0  0  0
  4  6  1  0  0  0  0
  6  7  1  0  0  0  0
  6  8  1  0  0  0  0
  8  9  1  0  0  0  0
  8 10  1  0  0  0  0
 10 11  1  0  0  0  0
 10 12  1  0  0  0  0
 12  1  1  0  0  0  0
 12 13  1  0  0  0  0
 12 14  1  0  0  0  0
 14  6  1  0  0  0  0
 14 15  1  0  0  0  0
 14 16  1  0  0  0  0
 10 17  1  0  0  0  0
 17 18  1  0  0  0  0
 18 19  2  0  0  0  0
 19 20  1  0  0  0  0
 19 21  1  0  0  0  0
 21  8  1  0  0  0  0
 21 22  1  0  0  0  0
 22 17  1  0  0  0  0
 22 23  1  0  0  0  0
 22 24  1  0  0  0  0
 21 25  1  0  0  0  0
 18 26  1  0  0  0  0
 17 27  1  0  0  0  0
M  END
> <ChemID>
100046

> <source_casrn>
60-57-1|72-20-8

> <CAS>
60-57-1|72-20-8

> <SMILES>
ClC1(Cl)[C@@]2(Cl)[C@@H]3[C@@H]4C[C@@H]([C@H]5O[C@H]54)[C@@H]3[C@]1(Cl)C(Cl)=C2Cl |o1:3,5,6,8,9,11,12,13|

> <NAME>
Dieldrin, Endrin

> <preferred_name>
Dieldrin

> <iupac>


> <MPID>
100060|100094

> <dsstox_substance_id>
DTXSID9020453|DTXSID6020561

> <Canonical_QSARr>
ClC1(Cl)C2(Cl)C3C4CC(C5OC54)C3C1(Cl)C(Cl)=C2Cl

> <InChI_Code_QSARr>
InChI=1S/C12H8Cl6O/c13-8-9(14)11(16)5-3-1-2(6-7(3)19-6)4(5)10(8,15)12(11,17)18/h2-7H,1H2

> <InChI Key_QSARr>
DFBKLUNHFCTMDC-UHFFFAOYSA-N

> <Salt_Solvent>
?

> <Ready_Biodeg>
0.0

$$$$
100048
  -INDIGO-08031722522D

 17 17  0  0  0  0  0  0  0  0999 V2000
    2.4001    1.3856    0.0000 O   0  0  0  0  0  0  0  0  0  0  0  0
    4.0000    1.3856    0.0000 H   0  0  0  0  0  0  0  0  0  0  0  0
    1.6000   -0.0000    0.0000 C   0  0  0  0  0  0  0  0  0  0  0  0
    2.3999   -1.3856    0.0000 O   0  0  0  0  0  0  0  0  0  0  0  0
    0.0000   -0.0000    0.0000 C   0  0  0  0  0  0  0  0  0  0  0  0
   -0.7999    1.3856    0.0000 C   0  0  0  0  0  0  0  0  0  0  0  0
    0.0000    2.7713    0.0000 H   0  0  0  0  0  0  0  0  0  0  0  0
   -2.4000    1.3856    0.0000 C   0  0  0  0  0  0  0  0  0  0  0  0
   -3.2000    2.7713    0.0000 H   0  0  0  0  0  0  0  0  0  0  0  0
   -3.2000   -0.0000    0.0000 C   0  0  0  0  0  0  0  0  0  0  0  0
   -4.8000   -0.0000    0.0000 N   0  0  0  0  0  0  0  0  0  0  0  0
   -5.6000   -1.3856    0.0000 O   0  0  0  0  0  0  0  0  0  0  0  0
   -5.6000    1.3856    0.0000 O   0  0  0  0  0  0  0  0  0  0  0  0
   -2.4000   -1.3856    0.0000 C   0  0  0  0  0  0  0  0  0  0  0  0
   -3.2000   -2.7713    0.0000 H   0  0  0  0  0  0  0  0  0  0  0  0
   -0.8001   -1.3856    0.0000 C   0  0  0  0  0  0  0  0  0  0  0  0
    0.0000   -2.7713    0.0000 H   0  0  0  0  0  0  0  0  0  0  0  0
  1  2  1  0  0  0  0
  1  3  1  0  0  0  0
  3  4  2  0  0  0  0
  3  5  1  0  0  0  0
  5  6  1  0  0  0  0
  6  7  1  0  0  0  0
  6  8  2  0  0  0  0
  8  9  1  0  0  0  0
  8 10  1  0  0  0  0
 10 11  1  0  0  0  0
 11 12  2  0  0  0  0
 11 13  1  0  0  0  0
 10 14  2  0  0  0  0
 14 15  1  0  0  0  0
 14 16  1  0  0  0  0
 16  5  2  0  0  0  0
 16 17  1  0  0  0  0
M  CHG  2  11   1  13  -1
M  END
> <ChemID>
100048

> <source_casrn>
62-23-7

> <CAS>
62-23-7

> <SMILES>
[O-][N+](=O)c1ccc(cc1)C(O)=O

> <NAME>
Benzoic acid, 4-nitro-

> <preferred_name>
4-Nitrobenzoic acid

> <iupac>
4-nitrobenzoic acid

> <MPID>
100062

> <dsstox_substance_id>
DTXSID3020966

> <Canonical_QSARr>
[O-][N+](=O)c1ccc(cc1)C(O)=O

> <InChI_Code_QSARr>
InChI=1S/C7H5NO4/c9-7(10)5-1-3-6(4-2-5)8(11)12/h1-4H,(H,9,10)

> <InChI Key_QSARr>
OTLNPYWUJOZPPA-UHFFFAOYSA-N

> <Salt_Solvent>
?

> <Ready_Biodeg>
1.0

$$$$
100049
  -INDIGO-08031722522D

 26 26  0  0  0  0  0  0  0  0999 V2000
    4.1570    0.8000    0.0000 C   0  0  0  0  0  0  0  0  0  0  0  0
    5.5426    1.6000    0.0000 H   0  0  0  0  0  0  0  0  0  0  0  0
    5.5426   -0.0000    0.0000 H   0  0  0  0  0  0  0  0  0  0  0  0
    4.1570    2.4000    0.0000 H   0  0  0  0  0  0  0  0  0  0  0  0
    2.7713   -0.0000    0.0000 C   0  0  0  0  0  0  0  0  0  0  0  0
    2.7713   -1.6000    0.0000 O   0  0  0  0  0  0  0  0  0  0  0  0
    1.3857    0.8000    0.0000 N   0  0  0  0  0  0  0  0  0  0  0  0
    1.3857    2.4000    0.0000 H   0  0  0  0  0  0  0  0  0  0  0  0
    0.0000   -0.0000    0.0000 C   0  0  0  0  0  0  0  0  0  0  0  0
    0.0000   -1.6000    0.0000 C   0  0  0  0  0  0  0  0  0  0  0  0
    1.3857   -2.4000    0.0000 H   0  0  0  0  0  0  0  0  0  0  0  0
   -1.3855   -2.4000    0.0000 C   0  0  0  0  0  0  0  0  0  0  0  0
   -1.3855   -4.0000    0.0000 H   0  0  0  0  0  0  0  0  0  0  0  0
   -2.7713   -1.6000    0.0000 C   0  0  0  0  0  0  0  0  0  0  0  0
   -4.1568   -2.4000    0.0000 O   0  0  0  0  0  0  0  0  0  0  0  0
   -5.5426   -1.6000    0.0000 C   0  0  0  0  0  0  0  0  0  0  0  0
   -4.9302   -0.1218    0.0000 H   0  0  0  0  0  0  0  0  0  0  0  0
   -6.1549   -0.1218    0.0000 H   0  0  0  0  0  0  0  0  0  0  0  0
   -6.9281   -2.4000    0.0000 C   0  0  0  0  0  0  0  0  0  0  0  0
   -8.3138   -3.2000    0.0000 H   0  0  0  0  0  0  0  0  0  0  0  0
   -8.3138   -1.6000    0.0000 H   0  0  0  0  0  0  0  0  0  0  0  0
   -6.9281   -4.0000    0.0000 H   0  0  0  0  0  0  0  0  0  0  0  0
   -2.7713   -0.0000    0.0000 C   0  0  0  0  0  0  0  0  0  0  0  0
   -4.1568    0.8000    0.0000 H   0  0  0  0  0  0  0  0  0  0  0  0
   -1.3855    0.8000    0.0000 C   0  0  0  0  0  0  0  0  0  0  0  0
   -1.3855    2.4000    0.0000 H   0  0  0  0  0  0  0  0  0  0  0  0
  1  2  1  0  0  0  0
  1  3  1  0  0  0  0
  1  4  1  0  0  0  0
  1  5  1  0  0  0  0
  5  6  2  0  0  0  0
  5  7  1  0  0  0  0
  7  8  1  0  0  0  0
  7  9  1  0  0  0  0
  9 10  1  0  0  0  0
 10 11  1  0  0  0  0
 10 12  2  0  0  0  0
 12 13  1  0  0  0  0
 12 14  1  0  0  0  0
 14 15  1  0  0  0  0
 15 16  1  0  0  0  0
 16 17  1  0  0  0  0
 16 18  1  0  0  0  0
 16 19  1  0  0  0  0
 19 20  1  0  0  0  0
 19 21  1  0  0  0  0
 19 22  1  0  0  0  0
 14 23  2  0  0  0  0
 23 24  1  0  0  0  0
 23 25  1  0  0  0  0
 25  9  2  0  0  0  0
 25 26  1  0  0  0  0
M  END
> <ChemID>
100049

> <source_casrn>
62-44-2

> <CAS>
62-44-2

> <SMILES>
CC(=O)Nc1ccc(cc1)OCC

> <NAME>
4-Ethoxyacetanilide

> <preferred_name>
Phenacetin

> <iupac>
N-(4-ethoxyphenyl)acetamide

> <MPID>
100063

> <dsstox_substance_id>
DTXSID1021116

> <Canonical_QSARr>
CC(=O)Nc1ccc(cc1)OCC

> <InChI_Code_QSARr>
InChI=1S/C10H13NO2/c1-3-13-10-6-4-9(5-7-10)11-8(2)12/h4-7H,3H2,1-2H3,(H,11,12)

> <InChI Key_QSARr>
CPJSUEIXXCENMM-UHFFFAOYSA-N

> <Salt_Solvent>
?

> <Ready_Biodeg>
0.0

$$$$
100050
  -INDIGO-08031722522D

 14 14  0  0  0  0  0  0  0  0999 V2000
    1.6000   -0.0000    0.0000 N   0  0  0  0  0  0  0  0  0  0  0  0
    2.4000    1.3856    0.0000 H   0  0  0  0  0  0  0  0  0  0  0  0
    2.4000   -1.3856    0.0000 H   0  0  0  0  0  0  0  0  0  0  0  0
    0.0000   -0.0000    0.0000 C   0  0  0  0  0  0  0  0  0  0  0  0
   -0.8000    1.3856    0.0000 C   0  0  0  0  0  0  0  0  0  0  0  0
    0.0000    2.7713    0.0000 H   0  0  0  0  0  0  0  0  0  0  0  0
   -2.4000    1.3856    0.0000 C   0  0  0  0  0  0  0  0  0  0  0  0
   -3.2000    2.7713    0.0000 H   0  0  0  0  0  0  0  0  0  0  0  0
   -3.2000   -0.0000    0.0000 C   0  0  0  0  0  0  0  0  0  0  0  0
   -4.8000   -0.0000    0.0000 H   0  0  0  0  0  0  0  0  0  0  0  0
   -2.4000   -1.3856    0.0000 C   0  0  0  0  0  0  0  0  0  0  0  0
   -3.2000   -2.7713    0.0000 H   0  0  0  0  0  0  0  0  0  0  0  0
   -0.8000   -1.3856    0.0000 C   0  0  0  0  0  0  0  0  0  0  0  0
    0.0000   -2.7713    0.0000 H   0  0  0  0  0  0  0  0  0  0  0  0
  1  2  1  0  0  0  0
  1  3  1  0  0  0  0
  1  4  1  0  0  0  0
  4  5  1  0  0  0  0
  5  6  1  0  0  0  0
  5  7  2  0  0  0  0
  7  8  1  0  0  0  0
  7  9  1  0  0  0  0
  9 10  1  0  0  0  0
  9 11  2  0  0  0  0
 11 12  1  0  0  0  0
 11 13  1  0  0  0  0
 13  4  2  0  0  0  0
 13 14  1  0  0  0  0
M  END
> <ChemID>
100050

> <source_casrn>
62-53-3

> <CAS>
62-53-3

> <SMILES>
Nc1ccccc1

> <NAME>
Aniline

> <preferred_name>
Aniline

> <iupac>
aniline

> <MPID>
100064

> <dsstox_substance_id>
DTXSID8020090

> <Canonical_QSARr>
Nc1ccccc1

> <InChI_Code_QSARr>
InChI=1S/C6H7N/c7-6-4-2-1-3-5-6/h1-5H,7H2

> <InChI Key_QSARr>
PAYRUJLWNCNPSJ-UHFFFAOYSA-N

> <Salt_Solvent>
?

> <Ready_Biodeg>
1.0

$$$$
100052
  -INDIGO-08031722522D

 11 10  0  0  0  0  0  0  0  0999 V2000
    1.6000    0.0000    0.0000 C   0  0  0  0  0  0  0  0  0  0  0  0
    3.2000    0.0000    0.0000 H   0  0  0  0  0  0  0  0  0  0  0  0
    2.4000   -1.3856    0.0000 H   0  0  0  0  0  0  0  0  0  0  0  0
    2.4000    1.3856    0.0000 H   0  0  0  0  0  0  0  0  0  0  0  0
   -0.0000    0.0000    0.0000 N   0  0  0  0  0  0  0  0  0  0  0  0
   -0.8000   -1.3856    0.0000 N   0  0  0  0  0  0  0  0  0  0  0  0
   -2.4000   -1.3856    0.0000 O   0  0  0  0  0  0  0  0  0  0  0  0
   -0.8000    1.3856    0.0000 C   0  0  0  0  0  0  0  0  0  0  0  0
   -1.6000    2.7713    0.0000 H   0  0  0  0  0  0  0  0  0  0  0  0
   -2.4000    1.3856    0.0000 H   0  0  0  0  0  0  0  0  0  0  0  0
   -0.0000    2.7713    0.0000 H   0  0  0  0  0  0  0  0  0  0  0  0
  1  2  1  0  0  0  0
  1  3  1  0  0  0  0
  1  4  1  0  0  0  0
  1  5  1  0  0  0  0
  5  6  1  0  0  0  0
  6  7  2  0  0  0  0
  5  8  1  0  0  0  0
  8  9  1  0  0  0  0
  8 10  1  0  0  0  0
  8 11  1  0  0  0  0
M  END
> <ChemID>
100052

> <source_casrn>
62-75-9

> <CAS>
62-75-9

> <SMILES>
CN(C)N=O

> <NAME>
N-NITROSODIMETHYLAMINE

> <preferred_name>
N-Nitrosodimethylamine

> <iupac>
N-methyl-N-nitrosomethanamine

> <MPID>
100066

> <dsstox_substance_id>
DTXSID7021029

> <Canonical_QSARr>
CN(C)N=O

> <InChI_Code_QSARr>
InChI=1S/C2H6N2O/c1-4(2)3-5/h1-2H3

> <InChI Key_QSARr>
UMFJAHHVKNCGLG-UHFFFAOYSA-N

> <Salt_Solvent>
?

> <Ready_Biodeg>
0.0

$$$$
100053
  -INDIGO-08031722522D

 26 27  0  0  0  0  0  0  0  0999 V2000
   -4.8000    0.0001    0.0000 O   0  0  0  0  0  0  0  0  0  0  0  0
   -3.9999    1.3856    0.0000 C   0  0  0  0  0  0  0  0  0  0  0  0
   -2.3999    1.3856    0.0000 O   0  0  0  0  0  0  0  0  0  0  0  0
   -1.5999    0.0001    0.0000 C   0  0  0  0  0  0  0  0  0  0  0  0
   -0.0001    0.0001    0.0000 C   0  0  0  0  0  0  0  0  0  0  0  0
    0.7999   -1.3856    0.0000 C   0  0  0  0  0  0  0  0  0  0  0  0
    2.4000   -1.3856    0.0000 C   0  0  0  0  0  0  0  0  0  0  0  0
    3.2000   -2.7712    0.0000 H   0  0  0  0  0  0  0  0  0  0  0  0
    3.2000    0.0001    0.0000 C   0  0  0  0  0  0  0  0  0  0  0  0
    4.8000    0.0001    0.0000 H   0  0  0  0  0  0  0  0  0  0  0  0
    2.4000    1.3856    0.0000 C   0  0  0  0  0  0  0  0  0  0  0  0
    3.2000    2.7712    0.0000 H   0  0  0  0  0  0  0  0  0  0  0  0
    0.7999    1.3856    0.0000 C   0  0  0  0  0  0  0  0  0  0  0  0
   -0.0001    2.7713    0.0000 H   0  0  0  0  0  0  0  0  0  0  0  0
   -0.0001   -2.7712    0.0000 C   0  0  0  0  0  0  0  0  0  0  0  0
    0.7999   -4.1569    0.0000 H   0  0  0  0  0  0  0  0  0  0  0  0
   -1.5999   -2.7712    0.0000 C   0  0  0  0  0  0  0  0  0  0  0  0
   -2.3999   -4.1569    0.0000 H   0  0  0  0  0  0  0  0  0  0  0  0
   -2.3999   -1.3856    0.0000 C   0  0  0  0  0  0  0  0  0  0  0  0
   -3.9999   -1.3856    0.0000 H   0  0  0  0  0  0  0  0  0  0  0  0
   -4.8000    2.7713    0.0000 N   0  0  0  0  0  0  0  0  0  0  0  0
   -3.9999    4.1569    0.0000 H   0  0  0  0  0  0  0  0  0  0  0  0
   -6.4000    2.7713    0.0000 C   0  0  0  0  0  0  0  0  0  0  0  0
   -8.0000    2.7713    0.0000 H   0  0  0  0  0  0  0  0  0  0  0  0
   -7.2000    4.1569    0.0000 H   0  0  0  0  0  0  0  0  0  0  0  0
   -7.2000    1.3856    0.0000 H   0  0  0  0  0  0  0  0  0  0  0  0
  1  2  2  0  0  0  0
  2  3  1  0  0  0  0
  3  4  1  0  0  0  0
  4  5  1  0  0  0  0
  5  6  1  0  0  0  0
  6  7  2  0  0  0  0
  7  8  1  0  0  0  0
  7  9  1  0  0  0  0
  9 10  1  0  0  0  0
  9 11  2  0  0  0  0
 11 12  1  0  0  0  0
 11 13  1  0  0  0  0
 13  5  2  0  0  0  0
 13 14  1  0  0  0  0
  6 15  1  0  0  0  0
 15 16  1  0  0  0  0
 15 17  2  0  0  0  0
 17 18  1  0  0  0  0
 17 19  1  0  0  0  0
 19  4  2  0  0  0  0
 19 20  1  0  0  0  0
  2 21  1  0  0  0  0
 21 22  1  0  0  0  0
 21 23  1  0  0  0  0
 23 24  1  0  0  0  0
 23 25  1  0  0  0  0
 23 26  1  0  0  0  0
M  END
> <ChemID>
100053

> <source_casrn>
63-25-2

> <CAS>
63-25-2

> <SMILES>
CNC(=O)Oc1cccc2ccccc21

> <NAME>
1-Naphthalenol, methylcarbamate

> <preferred_name>
Carbaryl

> <iupac>
naphthalen-1-yl methylcarbamate

> <MPID>
100067

> <dsstox_substance_id>
DTXSID9020247

> <Canonical_QSARr>
CNC(=O)Oc1cccc2ccccc21

> <InChI_Code_QSARr>
InChI=1S/C12H11NO2/c1-13-12(14)15-11-8-4-6-9-5-2-3-7-10(9)11/h2-8H,1H3,(H,13,14)

> <InChI Key_QSARr>
CVXBEEMKQHEXEN-UHFFFAOYSA-N

> <Salt_Solvent>
?

> <Ready_Biodeg>
1.0

$$$$
100054
  -INDIGO-08031722522D

 23 23  0  0  0  0  0  0  0  0999 V2000
    4.1569   -0.8000    0.0000 C   0  0  0  0  0  0  0  0  0  0  0  0
    5.5426    0.0000    0.0000 H   0  0  0  0  0  0  0  0  0  0  0  0
    4.1569   -2.4000    0.0000 C   0  0  0  0  0  0  0  0  0  0  0  0
    5.5426   -3.2000    0.0000 H   0  0  0  0  0  0  0  0  0  0  0  0
    2.7713   -3.2000    0.0000 C   0  0  0  0  0  0  0  0  0  0  0  0
    2.7713   -4.8000    0.0000 H   0  0  0  0  0  0  0  0  0  0  0  0
    1.3856   -2.4000    0.0000 C   0  0  0  0  0  0  0  0  0  0  0  0
   -0.0000   -3.2000    0.0000 H   0  0  0  0  0  0  0  0  0  0  0  0
    1.3856   -0.8000    0.0000 C   0  0  0  0  0  0  0  0  0  0  0  0
   -0.0000    0.0000    0.0000 C   0  0  0  0  0  0  0  0  0  0  0  0
    0.6123    1.4782    0.0000 H   0  0  0  0  0  0  0  0  0  0  0  0
   -0.6123    1.4782    0.0000 H   0  0  0  0  0  0  0  0  0  0  0  0
   -1.3857   -0.8000    0.0000 C   0  0  0  0  0  0  0  0  0  0  0  0
   -0.3572   -2.0257    0.0000 H   0  0  0  0  0  0  0  0  0  0  0  0
   -2.4141    0.4256    0.0000 N   0  0  0  0  0  0  0  0  0  0  0  0
   -1.8669    1.9292    0.0000 H   0  0  0  0  0  0  0  0  0  0  0  0
   -3.9897    0.1479    0.0000 H   0  0  0  0  0  0  0  0  0  0  0  0
   -2.6114   -1.8284    0.0000 C   0  0  0  0  0  0  0  0  0  0  0  0
   -4.1148   -1.2812    0.0000 O   0  0  0  0  0  0  0  0  0  0  0  0
   -5.3405   -2.3097    0.0000 H   0  0  0  0  0  0  0  0  0  0  0  0
   -2.3334   -3.4042    0.0000 O   0  0  0  0  0  0  0  0  0  0  0  0
    2.7713    0.0000    0.0000 C   0  0  0  0  0  0  0  0  0  0  0  0
    2.7713    1.6000    0.0000 H   0  0  0  0  0  0  0  0  0  0  0  0
  1  2  1  0  0  0  0
  1  3  1  0  0  0  0
  3  4  1  0  0  0  0
  3  5  2  0  0  0  0
  5  6  1  0  0  0  0
  5  7  1  0  0  0  0
  7  8  1  0  0  0  0
  7  9  2  0  0  0  0
  9 10  1  0  0  0  0
 10 11  1  0  0  0  0
 10 12  1  0  0  0  0
 10 13  1  0  0  0  0
 13 14  1  0  0  0  0
 13 15  1  0  0  0  0
 15 16  1  0  0  0  0
 15 17  1  0  0  0  0
 13 18  1  0  0  0  0
 18 19  1  0  0  0  0
 19 20  1  0  0  0  0
 18 21  2  0  0  0  0
  9 22  1  0  0  0  0
 22  1  2  0  0  0  0
 22 23  1  0  0  0  0
M  END
> <ChemID>
100054

> <source_casrn>
63-91-2

> <CAS>
63-91-2

> <SMILES>
O=C(O)C(N)Cc(cccc1)c1

> <NAME>
Phenyl alanine

> <preferred_name>
L-Phenylalanine

> <iupac>
L-phenylalanine

> <MPID>
100068

> <dsstox_substance_id>
DTXSID4040763

> <Canonical_QSARr>
NC(Cc1ccccc1)C(O)=O

> <InChI_Code_QSARr>
InChI=1S/C9H11NO2/c10-8(9(11)12)6-7-4-2-1-3-5-7/h1-5,8H,6,10H2,(H,11,12)

> <InChI Key_QSARr>
COLNVLDHVKWLRT-UHFFFAOYSA-N

> <Salt_Solvent>
?

> <Ready_Biodeg>
1.0

$$$$
100056
  -INDIGO-08031722522D

  9  8  0  0  0  0  0  0  0  0999 V2000
    1.6000    0.0000    0.0000 C   0  0  0  0  0  0  0  0  0  0  0  0
    3.2000    0.0000    0.0000 H   0  0  0  0  0  0  0  0  0  0  0  0
    2.4000   -1.3856    0.0000 H   0  0  0  0  0  0  0  0  0  0  0  0
    2.4000    1.3856    0.0000 H   0  0  0  0  0  0  0  0  0  0  0  0
   -0.0000    0.0000    0.0000 C   0  0  0  0  0  0  0  0  0  0  0  0
   -0.2089   -1.5863    0.0000 H   0  0  0  0  0  0  0  0  0  0  0  0
   -1.2694   -0.9740    0.0000 H   0  0  0  0  0  0  0  0  0  0  0  0
   -0.8000    1.3856    0.0000 O   0  0  0  0  0  0  0  0  0  0  0  0
   -2.4000    1.3856    0.0000 H   0  0  0  0  0  0  0  0  0  0  0  0
  1  2  1  0  0  0  0
  1  3  1  0  0  0  0
  1  4  1  0  0  0  0
  1  5  1  0  0  0  0
  5  6  1  0  0  0  0
  5  7  1  0  0  0  0
  5  8  1  0  0  0  0
  8  9  1  0  0  0  0
M  END
> <ChemID>
100056

> <source_casrn>
64-17-5

> <CAS>
64-17-5

> <SMILES>
CCO

> <NAME>
Ethanol

> <preferred_name>
Ethanol

> <iupac>
ethanol

> <MPID>
100070

> <dsstox_substance_id>
DTXSID9020584

> <Canonical_QSARr>
CCO

> <InChI_Code_QSARr>
InChI=1S/C2H6O/c1-2-3/h3H,2H2,1H3

> <InChI Key_QSARr>
LFQSCWFLJHTTHZ-UHFFFAOYSA-N

> <Salt_Solvent>
?

> <Ready_Biodeg>
1.0

$$$$
100057
  -INDIGO-08031722522D

  5  4  0  0  0  0  0  0  0  0999 V2000
    0.0000    0.0000    0.0000 C   0  0  0  0  0  0  0  0  0  0  0  0
    0.0000    1.6000    0.0000 H   0  0  0  0  0  0  0  0  0  0  0  0
   -1.3856   -0.8000    0.0000 O   0  0  0  0  0  0  0  0  0  0  0  0
    1.3856   -0.8000    0.0000 O   0  0  0  0  0  0  0  0  0  0  0  0
    2.7713    0.0000    0.0000 H   0  0  0  0  0  0  0  0  0  0  0  0
  1  2  1  0  0  0  0
  1  3  2  0  0  0  0
  1  4  1  0  0  0  0
  4  5  1  0  0  0  0
M  END
> <ChemID>
100057

> <source_casrn>
64-18-6

> <CAS>
64-18-6

> <SMILES>
OC=O

> <NAME>
FORMIC ACID

> <preferred_name>
Formic acid

> <iupac>
formic acid

> <MPID>
100071

> <dsstox_substance_id>
DTXSID2024115

> <Canonical_QSARr>
OC=O

> <InChI_Code_QSARr>
InChI=1S/CH2O2/c2-1-3/h1H,(H,2,3)

> <InChI Key_QSARr>
BDAGIHXWWSANSR-UHFFFAOYSA-N

> <Salt_Solvent>
?

> <Ready_Biodeg>
1.0

$$$$
100058
  -INDIGO-08031722522D

  8  7  0  0  0  0  0  0  0  0999 V2000
   -1.6000    0.0000    0.0000 C   0  0  0  0  0  0  0  0  0  0  0  0
    0.0000    0.0000    0.0000 C   0  0  0  0  0  0  0  0  0  0  0  0
    1.6000    0.0000    0.0000 H   0  0  0  0  0  0  0  0  0  0  0  0
    0.8000    1.3856    0.0000 H   0  0  0  0  0  0  0  0  0  0  0  0
    0.8000   -1.3856    0.0000 H   0  0  0  0  0  0  0  0  0  0  0  0
   -2.4000   -1.3856    0.0000 O   0  0  0  0  0  0  0  0  0  0  0  0
   -2.4000    1.3856    0.0000 O   0  0  0  0  0  0  0  0  0  0  0  0
   -4.0000    1.3856    0.0000 H   0  0  0  0  0  0  0  0  0  0  0  0
  1  2  1  0  0  0  0
  2  3  1  0  0  0  0
  2  4  1  0  0  0  0
  2  5  1  0  0  0  0
  1  6  2  0  0  0  0
  1  7  1  0  0  0  0
  7  8  1  0  0  0  0
M  END
> <ChemID>
100058

> <source_casrn>
64-19-7

> <CAS>
64-19-7

> <SMILES>
CC(O)=O

> <NAME>
Acetic acid

> <preferred_name>
Acetic acid

> <iupac>
acetic acid

> <MPID>
100072

> <dsstox_substance_id>
DTXSID5024394

> <Canonical_QSARr>
CC(O)=O

> <InChI_Code_QSARr>
InChI=1S/C2H4O2/c1-2(3)4/h1H3,(H,3,4)

> <InChI Key_QSARr>
QTBSBXVTEAMEQO-UHFFFAOYSA-N

> <Salt_Solvent>
?

> <Ready_Biodeg>
1.0

$$$$
100060
  -INDIGO-08031722522D

 15 15  0  0  0  0  0  0  0  0999 V2000
    2.7713   -0.0000    0.0000 O   0  0  0  0  0  0  0  0  0  0  0  0
    4.1569    0.8000    0.0000 H   0  0  0  0  0  0  0  0  0  0  0  0
    1.3856    0.8000    0.0000 C   0  0  0  0  0  0  0  0  0  0  0  0
    1.3856    2.4000    0.0000 O   0  0  0  0  0  0  0  0  0  0  0  0
    0.0001   -0.0000    0.0000 C   0  0  0  0  0  0  0  0  0  0  0  0
    0.0001   -1.6000    0.0000 C   0  0  0  0  0  0  0  0  0  0  0  0
    1.3856   -2.4000    0.0000 H   0  0  0  0  0  0  0  0  0  0  0  0
   -1.3856   -2.4000    0.0000 C   0  0  0  0  0  0  0  0  0  0  0  0
   -1.3856   -4.0000    0.0000 H   0  0  0  0  0  0  0  0  0  0  0  0
   -2.7712   -1.6000    0.0000 C   0  0  0  0  0  0  0  0  0  0  0  0
   -4.1569   -2.4000    0.0000 H   0  0  0  0  0  0  0  0  0  0  0  0
   -2.7712   -0.0000    0.0000 C   0  0  0  0  0  0  0  0  0  0  0  0
   -4.1569    0.8000    0.0000 H   0  0  0  0  0  0  0  0  0  0  0  0
   -1.3856    0.8000    0.0000 C   0  0  0  0  0  0  0  0  0  0  0  0
   -1.3856    2.4000    0.0000 H   0  0  0  0  0  0  0  0  0  0  0  0
  1  2  1  0  0  0  0
  1  3  1  0  0  0  0
  3  4  2  0  0  0  0
  3  5  1  0  0  0  0
  5  6  1  0  0  0  0
  6  7  1  0  0  0  0
  6  8  2  0  0  0  0
  8  9  1  0  0  0  0
  8 10  1  0  0  0  0
 10 11  1  0  0  0  0
 10 12  2  0  0  0  0
 12 13  1  0  0  0  0
 12 14  1  0  0  0  0
 14  5  2  0  0  0  0
 14 15  1  0  0  0  0
M  END
> <ChemID>
100060

> <source_casrn>
65-85-0

> <CAS>
65-85-0

> <SMILES>
OC(=O)c1ccccc1

> <NAME>
Benzoic acid

> <preferred_name>
Benzoic acid

> <iupac>
benzoic acid

> <MPID>
100074

> <dsstox_substance_id>
DTXSID6020143

> <Canonical_QSARr>
OC(=O)c1ccccc1

> <InChI_Code_QSARr>
InChI=1S/C7H6O2/c8-7(9)6-4-2-1-3-5-6/h1-5H,(H,8,9)

> <InChI Key_QSARr>
WPYMKLBDIGXBTP-UHFFFAOYSA-N

> <Salt_Solvent>
?

> <Ready_Biodeg>
1.0

$$$$
100061
  -INDIGO-08031722522D

 19 18  0  0  0  0  0  0  0  0999 V2000
    2.7713    0.0000    0.0000 C   0  0  0  0  0  0  0  0  0  0  0  0
    4.1569   -0.8000    0.0000 H   0  0  0  0  0  0  0  0  0  0  0  0
    4.1569    0.8000    0.0000 H   0  0  0  0  0  0  0  0  0  0  0  0
    2.7713   -1.6000    0.0000 H   0  0  0  0  0  0  0  0  0  0  0  0
    1.3857    0.8000    0.0000 C   0  0  0  0  0  0  0  0  0  0  0  0
    1.9980    2.2782    0.0000 H   0  0  0  0  0  0  0  0  0  0  0  0
    0.7734    2.2782    0.0000 H   0  0  0  0  0  0  0  0  0  0  0  0
    0.0001    0.0000    0.0000 C   0  0  0  0  0  0  0  0  0  0  0  0
   -0.6122   -1.4782    0.0000 H   0  0  0  0  0  0  0  0  0  0  0  0
    0.6124   -1.4782    0.0000 H   0  0  0  0  0  0  0  0  0  0  0  0
   -1.3857    0.8000    0.0000 C   0  0  0  0  0  0  0  0  0  0  0  0
   -0.7734    2.2782    0.0000 H   0  0  0  0  0  0  0  0  0  0  0  0
   -1.9980    2.2782    0.0000 H   0  0  0  0  0  0  0  0  0  0  0  0
   -2.7713    0.0000    0.0000 C   0  0  0  0  0  0  0  0  0  0  0  0
   -3.3836   -1.4782    0.0000 H   0  0  0  0  0  0  0  0  0  0  0  0
   -2.1590   -1.4782    0.0000 H   0  0  0  0  0  0  0  0  0  0  0  0
   -4.1569    0.8000    0.0000 C   0  0  0  0  0  0  0  0  0  0  0  0
   -5.5426    0.0000    0.0000 H   0  0  0  0  0  0  0  0  0  0  0  0
   -4.1569    2.4000    0.0000 O   0  0  0  0  0  0  0  0  0  0  0  0
  1  2  1  0  0  0  0
  1  3  1  0  0  0  0
  1  4  1  0  0  0  0
  1  5  1  0  0  0  0
  5  6  1  0  0  0  0
  5  7  1  0  0  0  0
  5  8  1  0  0  0  0
  8  9  1  0  0  0  0
  8 10  1  0  0  0  0
  8 11  1  0  0  0  0
 11 12  1  0  0  0  0
 11 13  1  0  0  0  0
 11 14  1  0  0  0  0
 14 15  1  0  0  0  0
 14 16  1  0  0  0  0
 14 17  1  0  0  0  0
 17 18  1  0  0  0  0
 17 19  2  0  0  0  0
M  END
> <ChemID>
100061

> <source_casrn>
66-25-1

> <CAS>
66-25-1

> <SMILES>
O=CCCCCC

> <NAME>
n-Hexyl aldehyde

> <preferred_name>
Hexanal

> <iupac>
hexanal

> <MPID>
100075

> <dsstox_substance_id>
DTXSID2021604

> <Canonical_QSARr>
CCCCCC=O

> <InChI_Code_QSARr>
InChI=1S/C6H12O/c1-2-3-4-5-6-7/h6H,2-5H2,1H3

> <InChI Key_QSARr>
JARKCYVAAOWBJS-UHFFFAOYSA-N

> <Salt_Solvent>
?

> <Ready_Biodeg>
1.0

$$$$
100062
  -INDIGO-08031722522D

 21 21  0  0  0  0  0  0  0  0999 V2000
    0.8000    1.3856    0.0000 C   0  0  0  0  0  0  0  0  0  0  0  0
    2.4000    1.3856    0.0000 C   0  0  0  0  0  0  0  0  0  0  0  0
    3.1999    2.7713    0.0000 O   0  0  0  0  0  0  0  0  0  0  0  0
    2.4000    4.1569    0.0000 H   0  0  0  0  0  0  0  0  0  0  0  0
    3.1999    0.0000    0.0000 C   0  0  0  0  0  0  0  0  0  0  0  0
    4.8000    0.0000    0.0000 C   0  0  0  0  0  0  0  0  0  0  0  0
    6.4000    0.0000    0.0000 H   0  0  0  0  0  0  0  0  0  0  0  0
    5.6000   -1.3856    0.0000 H   0  0  0  0  0  0  0  0  0  0  0  0
    5.6000    1.3856    0.0000 H   0  0  0  0  0  0  0  0  0  0  0  0
    2.4000   -1.3856    0.0000 N   0  0  0  0  0  0  0  0  0  0  0  0
    0.8000   -1.3856    0.0000 C   0  0  0  0  0  0  0  0  0  0  0  0
    0.0000   -2.7713    0.0000 H   0  0  0  0  0  0  0  0  0  0  0  0
    0.0000    0.0000    0.0000 C   0  0  0  0  0  0  0  0  0  0  0  0
   -1.6001    0.0000    0.0000 C   0  0  0  0  0  0  0  0  0  0  0  0
   -1.8089    1.5863    0.0000 H   0  0  0  0  0  0  0  0  0  0  0  0
   -2.8693    0.9740    0.0000 H   0  0  0  0  0  0  0  0  0  0  0  0
   -2.4000   -1.3856    0.0000 O   0  0  0  0  0  0  0  0  0  0  0  0
   -4.0000   -1.3856    0.0000 H   0  0  0  0  0  0  0  0  0  0  0  0
    0.0000    2.7713    0.0000 C   0  0  0  0  0  0  0  0  0  0  0  0
    0.8000    4.1569    0.0000 H   0  0  0  0  0  0  0  0  0  0  0  0
   -1.6001    2.7713    0.0000 O   0  0  0  0  0  0  0  0  0  0  0  0
  1  2  1  0  0  0  0
  2  3  1  0  0  0  0
  3  4  1  0  0  0  0
  2  5  2  0  0  0  0
  5  6  1  0  0  0  0
  6  7  1  0  0  0  0
  6  8  1  0  0  0  0
  6  9  1  0  0  0  0
  5 10  1  0  0  0  0
 10 11  2  0  0  0  0
 11 12  1  0  0  0  0
 11 13  1  0  0  0  0
 13  1  2  0  0  0  0
 13 14  1  0  0  0  0
 14 15  1  0  0  0  0
 14 16  1  0  0  0  0
 14 17  1  0  0  0  0
 17 18  1  0  0  0  0
  1 19  1  0  0  0  0
 19 20  1  0  0  0  0
 19 21  2  0  0  0  0
M  END
> <ChemID>
100062

> <source_casrn>
66-72-8

> <CAS>
66-72-8

> <SMILES>
Cc1[n]cc(CO)c(C=O)c1O

> <NAME>
Pyridoxal

> <preferred_name>
Pyridoxal

> <iupac>
3-hydroxy-5-(hydroxymethyl)-2-methylpyridine-4-carbaldehyde

> <MPID>
100076

> <dsstox_substance_id>
DTXSID4046020

> <Canonical_QSARr>
Cc1[n]cc(CO)c(C=O)c1O

> <InChI_Code_QSARr>
InChI=1S/C8H9NO3/c1-5-8(12)7(4-11)6(3-10)2-9-5/h2,4,10,12H,3H2,1H3

> <InChI Key_QSARr>
RADKZDMFGJYCBB-UHFFFAOYSA-N

> <Salt_Solvent>
?

> <Ready_Biodeg>
1.0

$$$$
100065
  -INDIGO-08031722522D

 13 13  0  0  0  0  0  0  0  0999 V2000
    0.0000    2.7713    0.0000 O   0  0  0  0  0  0  0  0  0  0  0  0
   -0.8000    1.3856    0.0000 C   0  0  0  0  0  0  0  0  0  0  0  0
    0.0000   -0.0000    0.0000 C   0  0  0  0  0  0  0  0  0  0  0  0
    1.2257    1.0285    0.0000 H   0  0  0  0  0  0  0  0  0  0  0  0
    1.2257   -1.0285    0.0000 H   0  0  0  0  0  0  0  0  0  0  0  0
   -0.8000   -1.3856    0.0000 C   0  0  0  0  0  0  0  0  0  0  0  0
    0.0000   -2.7713    0.0000 O   0  0  0  0  0  0  0  0  0  0  0  0
   -2.4000   -1.3856    0.0000 N   0  0  0  0  0  0  0  0  0  0  0  0
   -3.2000   -2.7713    0.0000 H   0  0  0  0  0  0  0  0  0  0  0  0
   -3.2000   -0.0000    0.0000 C   0  0  0  0  0  0  0  0  0  0  0  0
   -4.8000   -0.0000    0.0000 O   0  0  0  0  0  0  0  0  0  0  0  0
   -2.4000    1.3856    0.0000 N   0  0  0  0  0  0  0  0  0  0  0  0
   -3.2000    2.7713    0.0000 H   0  0  0  0  0  0  0  0  0  0  0  0
  1  2  2  0  0  0  0
  2  3  1  0  0  0  0
  3  4  1  0  0  0  0
  3  5  1  0  0  0  0
  3  6  1  0  0  0  0
  6  7  2  0  0  0  0
  6  8  1  0  0  0  0
  8  9  1  0  0  0  0
  8 10  1  0  0  0  0
 10 11  2  0  0  0  0
 10 12  1  0  0  0  0
 12  2  1  0  0  0  0
 12 13  1  0  0  0  0
M  END
> <ChemID>
100065

> <source_casrn>
67-52-7

> <CAS>
67-52-7

> <SMILES>
O=C1NC(=O)CC(=O)N1

> <NAME>
2,4,6(1H,3H,5H)-Pyrimidinetrione

> <preferred_name>
Barbituric acid

> <iupac>
pyrimidine-2,4,6(1H,3H,5H)-trione

> <MPID>
100078

> <dsstox_substance_id>
DTXSID8020129

> <Canonical_QSARr>
O=C1NC(=O)CC(=O)N1

> <InChI_Code_QSARr>
InChI=1S/C4H4N2O3/c7-2-1-3(8)6-4(9)5-2/h1H2,(H2,5,6,7,8,9)

> <InChI Key_QSARr>
HNYOPLTXPVRDBG-UHFFFAOYSA-N

> <Salt_Solvent>
?

> <Ready_Biodeg>
1.0

$$$$
100066
  -INDIGO-08031722522D

  6  5  0  0  0  0  0  0  0  0999 V2000
    0.0000    0.0000    0.0000 C   0  0  0  0  0  0  0  0  0  0  0  0
    1.3856    0.8000    0.0000 H   0  0  0  0  0  0  0  0  0  0  0  0
    0.0000    1.6000    0.0000 H   0  0  0  0  0  0  0  0  0  0  0  0
    1.3856   -0.8000    0.0000 H   0  0  0  0  0  0  0  0  0  0  0  0
   -1.3856   -0.8000    0.0000 O   0  0  0  0  0  0  0  0  0  0  0  0
   -2.7713    0.0000    0.0000 H   0  0  0  0  0  0  0  0  0  0  0  0
  1  2  1  0  0  0  0
  1  3  1  0  0  0  0
  1  4  1  0  0  0  0
  1  5  1  0  0  0  0
  5  6  1  0  0  0  0
M  END
> <ChemID>
100066

> <source_casrn>
67-56-1

> <CAS>
67-56-1

> <SMILES>
CO

> <NAME>
METHANOL

> <preferred_name>
Methanol

> <iupac>
methanol

> <MPID>
100079

> <dsstox_substance_id>
DTXSID2021731

> <Canonical_QSARr>
CO

> <InChI_Code_QSARr>
InChI=1S/CH4O/c1-2/h2H,1H3

> <InChI Key_QSARr>
OKKJLVBELUTLKV-UHFFFAOYSA-N

> <Salt_Solvent>
?

> <Ready_Biodeg>
1.0

$$$$
100067
  -INDIGO-08031722522D

 12 11  0  0  0  0  0  0  0  0999 V2000
    0.0000    1.6000    0.0000 O   0  0  0  0  0  0  0  0  0  0  0  0
    1.3856    2.4000    0.0000 H   0  0  0  0  0  0  0  0  0  0  0  0
    0.0000    0.0000    0.0000 C   0  0  0  0  0  0  0  0  0  0  0  0
    0.0000   -1.6000    0.0000 H   0  0  0  0  0  0  0  0  0  0  0  0
   -1.6000    0.0000    0.0000 C   0  0  0  0  0  0  0  0  0  0  0  0
   -3.2000    0.0000    0.0000 H   0  0  0  0  0  0  0  0  0  0  0  0
   -2.4000   -1.3856    0.0000 H   0  0  0  0  0  0  0  0  0  0  0  0
   -2.4000    1.3856    0.0000 H   0  0  0  0  0  0  0  0  0  0  0  0
    1.6000    0.0000    0.0000 C   0  0  0  0  0  0  0  0  0  0  0  0
    3.2000    0.0000    0.0000 H   0  0  0  0  0  0  0  0  0  0  0  0
    2.4000   -1.3856    0.0000 H   0  0  0  0  0  0  0  0  0  0  0  0
    2.4000    1.3856    0.0000 H   0  0  0  0  0  0  0  0  0  0  0  0
  1  2  1  0  0  0  0
  1  3  1  0  0  0  0
  3  4  1  0  0  0  0
  3  5  1  0  0  0  0
  5  6  1  0  0  0  0
  5  7  1  0  0  0  0
  5  8  1  0  0  0  0
  3  9  1  0  0  0  0
  9 10  1  0  0  0  0
  9 11  1  0  0  0  0
  9 12  1  0  0  0  0
M  END
> <ChemID>
100067

> <source_casrn>
67-63-0

> <CAS>
67-63-0

> <SMILES>
CC(C)O

> <NAME>
2-Propanol

> <preferred_name>
Isopropanol

> <iupac>
propan-2-ol

> <MPID>
100080

> <dsstox_substance_id>
DTXSID7020762

> <Canonical_QSARr>
CC(C)O

> <InChI_Code_QSARr>
InChI=1S/C3H8O/c1-3(2)4/h3-4H,1-2H3

> <InChI Key_QSARr>
KFZMGEQAYNKOFK-UHFFFAOYSA-N

> <Salt_Solvent>
?

> <Ready_Biodeg>
1.0

$$$$
100069
  -INDIGO-08031722522D

  5  4  0  0  0  0  0  0  0  0999 V2000
   -0.8000   -1.3856    0.0000 Cl  0  0  0  0  0  0  0  0  0  0  0  0
    0.0000    0.0000    0.0000 C   0  0  0  0  0  0  0  0  0  0  0  0
    0.8000    1.3856    0.0000 H   0  0  0  0  0  0  0  0  0  0  0  0
   -1.3856    0.8000    0.0000 Cl  0  0  0  0  0  0  0  0  0  0  0  0
    1.3856   -0.8000    0.0000 Cl  0  0  0  0  0  0  0  0  0  0  0  0
  1  2  1  0  0  0  0
  2  3  1  0  0  0  0
  2  4  1  0  0  0  0
  2  5  1  0  0  0  0
M  END
> <ChemID>
100069

> <source_casrn>
67-66-3

> <CAS>
67-66-3

> <SMILES>
ClC(Cl)Cl

> <NAME>
Chloroform

> <preferred_name>
Chloroform

> <iupac>
trichloromethane

> <MPID>
100082

> <dsstox_substance_id>
DTXSID1020306

> <Canonical_QSARr>
ClC(Cl)Cl

> <InChI_Code_QSARr>
InChI=1S/CHCl3/c2-1(3)4/h1H

> <InChI Key_QSARr>
HEDRZPFGACZZDS-UHFFFAOYSA-N

> <Salt_Solvent>
?

> <Ready_Biodeg>
0.0

$$$$
100070
  -INDIGO-08031722522D

 10  9  0  0  0  0  0  0  0  0999 V2000
    1.3856    0.8000    0.0000 C   0  0  0  0  0  0  0  0  0  0  0  0
    2.7713    1.6000    0.0000 H   0  0  0  0  0  0  0  0  0  0  0  0
    2.7713    0.0000    0.0000 H   0  0  0  0  0  0  0  0  0  0  0  0
    1.3856    2.4000    0.0000 H   0  0  0  0  0  0  0  0  0  0  0  0
    0.0000    0.0000    0.0000 S   0  0  0  0  0  0  0  0  0  0  0  0
    0.0000   -1.6000    0.0000 O   0  0  0  0  0  0  0  0  0  0  0  0
   -1.3856    0.8000    0.0000 C   0  0  0  0  0  0  0  0  0  0  0  0
   -2.7713    1.6000    0.0000 H   0  0  0  0  0  0  0  0  0  0  0  0
   -2.7713    0.0000    0.0000 H   0  0  0  0  0  0  0  0  0  0  0  0
   -1.3856    2.4000    0.0000 H   0  0  0  0  0  0  0  0  0  0  0  0
  1  2  1  0  0  0  0
  1  3  1  0  0  0  0
  1  4  1  0  0  0  0
  1  5  1  0  0  0  0
  5  6  2  0  0  0  0
  5  7  1  0  0  0  0
  7  8  1  0  0  0  0
  7  9  1  0  0  0  0
  7 10  1  0  0  0  0
M  END
> <ChemID>
100070

> <source_casrn>
67-68-5

> <CAS>
67-68-5

> <SMILES>
CS(C)=O

> <NAME>
Methane, sulfinylbis-

> <preferred_name>
Dimethyl sulfoxide

> <iupac>
C2H6OS

> <MPID>
100083

> <dsstox_substance_id>
DTXSID2021735

> <Canonical_QSARr>
CS(C)=O

> <InChI_Code_QSARr>
InChI=1S/C2H6OS/c1-4(2)3/h1-2H3

> <InChI Key_QSARr>
IAZDPXIOMUYVGZ-UHFFFAOYSA-N

> <Salt_Solvent>
?

> <Ready_Biodeg>
0.0

$$$$
100071
  -INDIGO-08031722522D

  8  7  0  0  0  0  0  0  0  0999 V2000
   -0.8000    1.3856    0.0000 Cl  0  0  0  0  0  0  0  0  0  0  0  0
    0.0000    0.0000    0.0000 C   0  0  0  0  0  0  0  0  0  0  0  0
    1.6000    0.0000    0.0000 C   0  0  0  0  0  0  0  0  0  0  0  0
    3.2000    0.0000    0.0000 Cl  0  0  0  0  0  0  0  0  0  0  0  0
    2.4000   -1.3856    0.0000 Cl  0  0  0  0  0  0  0  0  0  0  0  0
    2.4000    1.3856    0.0000 Cl  0  0  0  0  0  0  0  0  0  0  0  0
   -1.6000   -0.0000    0.0000 Cl  0  0  0  0  0  0  0  0  0  0  0  0
   -0.8000   -1.3856    0.0000 Cl  0  0  0  0  0  0  0  0  0  0  0  0
  1  2  1  0  0  0  0
  2  3  1  0  0  0  0
  3  4  1  0  0  0  0
  3  5  1  0  0  0  0
  3  6  1  0  0  0  0
  2  7  1  0  0  0  0
  2  8  1  0  0  0  0
M  END
> <ChemID>
100071

> <source_casrn>
67-72-1

> <CAS>
67-72-1

> <SMILES>
ClC(Cl)(Cl)C(Cl)(Cl)Cl

> <NAME>
Ethane, hexachloro-

> <preferred_name>
Hexachloroethane

> <iupac>
hexachloroethane

> <MPID>
100084

> <dsstox_substance_id>
DTXSID7020689

> <Canonical_QSARr>
ClC(Cl)(Cl)C(Cl)(Cl)Cl

> <InChI_Code_QSARr>
InChI=1S/C2Cl6/c3-1(4,5)2(6,7)8

> <InChI Key_QSARr>
VHHHONWQHHHLTI-UHFFFAOYSA-N

> <Salt_Solvent>
?

> <Ready_Biodeg>
0.0

$$$$
100073
  -INDIGO-08031722522D

 12 11  0  0  0  0  0  0  0  0999 V2000
    1.3856    0.8000    0.0000 C   0  0  0  0  0  0  0  0  0  0  0  0
    2.7713    1.6000    0.0000 H   0  0  0  0  0  0  0  0  0  0  0  0
    2.7713    0.0000    0.0000 H   0  0  0  0  0  0  0  0  0  0  0  0
    1.3856    2.4000    0.0000 H   0  0  0  0  0  0  0  0  0  0  0  0
    0.0000    0.0000    0.0000 N   0  0  0  0  0  0  0  0  0  0  0  0
    0.0000   -1.6000    0.0000 C   0  0  0  0  0  0  0  0  0  0  0  0
   -1.3856   -2.4000    0.0000 H   0  0  0  0  0  0  0  0  0  0  0  0
    1.3856   -2.4000    0.0000 O   0  0  0  0  0  0  0  0  0  0  0  0
   -1.3856    0.8000    0.0000 C   0  0  0  0  0  0  0  0  0  0  0  0
   -2.7713    1.6000    0.0000 H   0  0  0  0  0  0  0  0  0  0  0  0
   -2.7713    0.0000    0.0000 H   0  0  0  0  0  0  0  0  0  0  0  0
   -1.3856    2.4000    0.0000 H   0  0  0  0  0  0  0  0  0  0  0  0
  1  2  1  0  0  0  0
  1  3  1  0  0  0  0
  1  4  1  0  0  0  0
  1  5  1  0  0  0  0
  5  6  1  0  0  0  0
  6  7  1  0  0  0  0
  6  8  2  0  0  0  0
  5  9  1  0  0  0  0
  9 10  1  0  0  0  0
  9 11  1  0  0  0  0
  9 12  1  0  0  0  0
M  END
> <ChemID>
100073

> <source_casrn>
68-12-2

> <CAS>
68-12-2

> <SMILES>
CN(C)C=O

> <NAME>
Dimethylformamide

> <preferred_name>
N,N-Dimethylformamide

> <iupac>
N,N-dimethylformamide

> <MPID>
100086

> <dsstox_substance_id>
DTXSID6020515

> <Canonical_QSARr>
CN(C)C=O

> <InChI_Code_QSARr>
InChI=1S/C3H7NO/c1-4(2)3-5/h3H,1-2H3

> <InChI Key_QSARr>
ZMXDDKWLCZADIW-UHFFFAOYSA-N

> <Salt_Solvent>
?

> <Ready_Biodeg>
1.0

$$$$
100074
  -INDIGO-08031722522D

 16 16  0  0  0  0  0  0  0  0999 V2000
   -0.0000    0.0000    0.0000 C   0  0  0  0  0  0  0  0  0  0  0  0
    1.6000    0.0000    0.0000 C   0  0  0  0  0  0  0  0  0  0  0  0
    2.4001    1.3856    0.0000 O   0  0  0  0  0  0  0  0  0  0  0  0
    2.4001   -1.3856    0.0000 O   0  0  0  0  0  0  0  0  0  0  0  0
    4.0000   -1.3856    0.0000 H   0  0  0  0  0  0  0  0  0  0  0  0
   -0.8000    1.3856    0.0000 C   0  0  0  0  0  0  0  0  0  0  0  0
   -0.0000    2.7713    0.0000 O   0  0  0  0  0  0  0  0  0  0  0  0
   -0.8000    4.1569    0.0000 H   0  0  0  0  0  0  0  0  0  0  0  0
   -2.4000    1.3856    0.0000 C   0  0  0  0  0  0  0  0  0  0  0  0
   -3.2001    2.7713    0.0000 H   0  0  0  0  0  0  0  0  0  0  0  0
   -3.2001    0.0000    0.0000 C   0  0  0  0  0  0  0  0  0  0  0  0
   -4.8000    0.0000    0.0000 H   0  0  0  0  0  0  0  0  0  0  0  0
   -2.4000   -1.3856    0.0000 C   0  0  0  0  0  0  0  0  0  0  0  0
   -3.2001   -2.7713    0.0000 H   0  0  0  0  0  0  0  0  0  0  0  0
   -0.8000   -1.3856    0.0000 C   0  0  0  0  0  0  0  0  0  0  0  0
   -0.0000   -2.7713    0.0000 H   0  0  0  0  0  0  0  0  0  0  0  0
  1  2  1  0  0  0  0
  2  3  2  0  0  0  0
  2  4  1  0  0  0  0
  4  5  1  0  0  0  0
  1  6  1  0  0  0  0
  6  7  1  0  0  0  0
  7  8  1  0  0  0  0
  6  9  2  0  0  0  0
  9 10  1  0  0  0  0
  9 11  1  0  0  0  0
 11 12  1  0  0  0  0
 11 13  2  0  0  0  0
 13 14  1  0  0  0  0
 13 15  1  0  0  0  0
 15  1  2  0  0  0  0
 15 16  1  0  0  0  0
M  END
> <ChemID>
100074

> <source_casrn>
69-72-7

> <CAS>
69-72-7

> <SMILES>
Oc1ccccc1C(O)=O

> <NAME>
o-Hydroxybenzoic acid

> <preferred_name>
Salicylic acid

> <iupac>
2-hydroxybenzoic acid

> <MPID>
100087

> <dsstox_substance_id>
DTXSID7026368

> <Canonical_QSARr>
Oc1ccccc1C(O)=O

> <InChI_Code_QSARr>
InChI=1S/C7H6O3/c8-6-4-2-1-3-5(6)7(9)10/h1-4,8H,(H,9,10)

> <InChI Key_QSARr>
YGSDEFSMJLZEOE-UHFFFAOYSA-N

> <Salt_Solvent>
?

> <Ready_Biodeg>
1.0

$$$$
100075
  -INDIGO-08031722522D

 27 28  0  0  0  0  0  0  0  0999 V2000
    2.0570    2.4513    0.0000 O   0  0  0  0  0  0  0  0  0  0  0  0
    3.0855    3.6770    0.0000 H   0  0  0  0  0  0  0  0  0  0  0  0
    2.6041    0.9478    0.0000 C   0  0  0  0  0  0  0  0  0  0  0  0
    4.1799    0.6700    0.0000 C   0  0  0  0  0  0  0  0  0  0  0  0
    5.2083    1.8957    0.0000 Cl  0  0  0  0  0  0  0  0  0  0  0  0
    4.7270   -0.8335    0.0000 C   0  0  0  0  0  0  0  0  0  0  0  0
    6.3028   -1.1113    0.0000 H   0  0  0  0  0  0  0  0  0  0  0  0
    3.6985   -2.0592    0.0000 C   0  0  0  0  0  0  0  0  0  0  0  0
    4.2459   -3.5626    0.0000 Cl  0  0  0  0  0  0  0  0  0  0  0  0
    2.1230   -1.7813    0.0000 C   0  0  0  0  0  0  0  0  0  0  0  0
    1.0945   -3.0071    0.0000 Cl  0  0  0  0  0  0  0  0  0  0  0  0
    1.5757   -0.2779    0.0000 C   0  0  0  0  0  0  0  0  0  0  0  0
    0.0001   -0.0000    0.0000 C   0  0  0  0  0  0  0  0  0  0  0  0
   -0.8597    1.3495    0.0000 H   0  0  0  0  0  0  0  0  0  0  0  0
    0.3464    1.5621    0.0000 H   0  0  0  0  0  0  0  0  0  0  0  0
   -1.3857   -0.8000    0.0000 C   0  0  0  0  0  0  0  0  0  0  0  0
   -2.7713   -0.0000    0.0000 C   0  0  0  0  0  0  0  0  0  0  0  0
   -2.7713    1.6000    0.0000 O   0  0  0  0  0  0  0  0  0  0  0  0
   -4.1569    2.4001    0.0000 H   0  0  0  0  0  0  0  0  0  0  0  0
   -4.1569   -0.8000    0.0000 C   0  0  0  0  0  0  0  0  0  0  0  0
   -5.5426   -0.0000    0.0000 Cl  0  0  0  0  0  0  0  0  0  0  0  0
   -4.1569   -2.4000    0.0000 C   0  0  0  0  0  0  0  0  0  0  0  0
   -5.5426   -3.2001    0.0000 H   0  0  0  0  0  0  0  0  0  0  0  0
   -2.7713   -3.2001    0.0000 C   0  0  0  0  0  0  0  0  0  0  0  0
   -2.7713   -4.8000    0.0000 Cl  0  0  0  0  0  0  0  0  0  0  0  0
   -1.3857   -2.4000    0.0000 C   0  0  0  0  0  0  0  0  0  0  0  0
    0.0001   -3.2001    0.0000 Cl  0  0  0  0  0  0  0  0  0  0  0  0
  1  2  1  0  0  0  0
  1  3  1  0  0  0  0
  3  4  1  0  0  0  0
  4  5  1  0  0  0  0
  4  6  2  0  0  0  0
  6  7  1  0  0  0  0
  6  8  1  0  0  0  0
  8  9  1  0  0  0  0
  8 10  2  0  0  0  0
 10 11  1  0  0  0  0
 10 12  1  0  0  0  0
 12  3  2  0  0  0  0
 12 13  1  0  0  0  0
 13 14  1  0  0  0  0
 13 15  1  0  0  0  0
 13 16  1  0  0  0  0
 16 17  1  0  0  0  0
 17 18  1  0  0  0  0
 18 19  1  0  0  0  0
 17 20  2  0  0  0  0
 20 21  1  0  0  0  0
 20 22  1  0  0  0  0
 22 23  1  0  0  0  0
 22 24  2  0  0  0  0
 24 25  1  0  0  0  0
 24 26  1  0  0  0  0
 26 16  2  0  0  0  0
 26 27  1  0  0  0  0
M  END
> <ChemID>
100075

> <source_casrn>
70-30-4

> <CAS>
70-30-4

> <SMILES>
Oc(c(c(c(c1)Cl)Cl)Cc(c(c(cc2Cl)Cl)Cl)c2O)c1Cl

> <NAME>
Phenol, 2,2'-methylenebis 3,4,6-trichloro-

> <preferred_name>
Hexachlorophene

> <iupac>
2,2'-methanediylbis(3,4,6-trichlorophenol)

> <MPID>
100088

> <dsstox_substance_id>
DTXSID6020690

> <Canonical_QSARr>
Oc1c(Cc2c(Cl)c(Cl)cc(Cl)c2O)c(Cl)c(Cl)cc1Cl

> <InChI_Code_QSARr>
InChI=1S/C13H6Cl6O2/c14-6-2-8(16)12(20)4(10(6)18)1-5-11(19)7(15)3-9(17)13(5)21/h2-3,20-21H,1H2

> <InChI Key_QSARr>
ACGUYXCXAPNIKK-UHFFFAOYSA-N

> <Salt_Solvent>
?

> <Ready_Biodeg>
0.0

$$$$
100077
  -INDIGO-08031722522D

 15 14  0  0  0  0  0  0  0  0999 V2000
    2.7713   -0.0000    0.0000 C   0  0  0  0  0  0  0  0  0  0  0  0
    4.1569   -0.8000    0.0000 H   0  0  0  0  0  0  0  0  0  0  0  0
    4.1569    0.8000    0.0000 H   0  0  0  0  0  0  0  0  0  0  0  0
    2.7713   -1.6000    0.0000 H   0  0  0  0  0  0  0  0  0  0  0  0
    1.3856    0.8000    0.0000 C   0  0  0  0  0  0  0  0  0  0  0  0
    0.7734    2.2782    0.0000 H   0  0  0  0  0  0  0  0  0  0  0  0
    1.9979    2.2782    0.0000 H   0  0  0  0  0  0  0  0  0  0  0  0
    0.0001   -0.0000    0.0000 C   0  0  0  0  0  0  0  0  0  0  0  0
    0.6123   -1.4782    0.0000 H   0  0  0  0  0  0  0  0  0  0  0  0
   -0.6123   -1.4782    0.0000 H   0  0  0  0  0  0  0  0  0  0  0  0
   -1.3856    0.8000    0.0000 C   0  0  0  0  0  0  0  0  0  0  0  0
   -1.9979    2.2782    0.0000 H   0  0  0  0  0  0  0  0  0  0  0  0
   -0.7734    2.2782    0.0000 H   0  0  0  0  0  0  0  0  0  0  0  0
   -2.7713   -0.0000    0.0000 O   0  0  0  0  0  0  0  0  0  0  0  0
   -4.1569    0.8000    0.0000 H   0  0  0  0  0  0  0  0  0  0  0  0
  1  2  1  0  0  0  0
  1  3  1  0  0  0  0
  1  4  1  0  0  0  0
  1  5  1  0  0  0  0
  5  6  1  0  0  0  0
  5  7  1  0  0  0  0
  5  8  1  0  0  0  0
  8  9  1  0  0  0  0
  8 10  1  0  0  0  0
  8 11  1  0  0  0  0
 11 12  1  0  0  0  0
 11 13  1  0  0  0  0
 11 14  1  0  0  0  0
 14 15  1  0  0  0  0
M  END
> <ChemID>
100077

> <source_casrn>
71-36-3

> <CAS>
71-36-3

> <SMILES>
CCCCO

> <NAME>
1-Butanol

> <preferred_name>
1-Butanol

> <iupac>
butan-1-ol

> <MPID>
100090

> <dsstox_substance_id>
DTXSID1021740

> <Canonical_QSARr>
CCCCO

> <InChI_Code_QSARr>
InChI=1S/C4H10O/c1-2-3-4-5/h5H,2-4H2,1H3

> <InChI Key_QSARr>
LRHPLDYGYMQRHN-UHFFFAOYSA-N

> <Salt_Solvent>
?

> <Ready_Biodeg>
1.0

$$$$
100078
  -INDIGO-08031722522D

 18 17  0  0  0  0  0  0  0  0999 V2000
    2.7713   -0.0000    0.0000 C   0  0  0  0  0  0  0  0  0  0  0  0
    4.1569   -0.8000    0.0000 H   0  0  0  0  0  0  0  0  0  0  0  0
    4.1569    0.8000    0.0000 H   0  0  0  0  0  0  0  0  0  0  0  0
    2.7713   -1.6000    0.0000 H   0  0  0  0  0  0  0  0  0  0  0  0
    1.3857    0.8000    0.0000 C   0  0  0  0  0  0  0  0  0  0  0  0
    1.9980    2.2782    0.0000 H   0  0  0  0  0  0  0  0  0  0  0  0
    0.7734    2.2782    0.0000 H   0  0  0  0  0  0  0  0  0  0  0  0
    0.0001   -0.0000    0.0000 C   0  0  0  0  0  0  0  0  0  0  0  0
   -0.6122   -1.4782    0.0000 H   0  0  0  0  0  0  0  0  0  0  0  0
    0.6124   -1.4782    0.0000 H   0  0  0  0  0  0  0  0  0  0  0  0
   -1.3857    0.8000    0.0000 C   0  0  0  0  0  0  0  0  0  0  0  0
   -0.7734    2.2782    0.0000 H   0  0  0  0  0  0  0  0  0  0  0  0
   -1.9980    2.2782    0.0000 H   0  0  0  0  0  0  0  0  0  0  0  0
   -2.7713   -0.0000    0.0000 C   0  0  0  0  0  0  0  0  0  0  0  0
   -3.3836   -1.4782    0.0000 H   0  0  0  0  0  0  0  0  0  0  0  0
   -2.1590   -1.4782    0.0000 H   0  0  0  0  0  0  0  0  0  0  0  0
   -4.1569    0.8000    0.0000 O   0  0  0  0  0  0  0  0  0  0  0  0
   -5.5426   -0.0000    0.0000 H   0  0  0  0  0  0  0  0  0  0  0  0
  1  2  1  0  0  0  0
  1  3  1  0  0  0  0
  1  4  1  0  0  0  0
  1  5  1  0  0  0  0
  5  6  1  0  0  0  0
  5  7  1  0  0  0  0
  5  8  1  0  0  0  0
  8  9  1  0  0  0  0
  8 10  1  0  0  0  0
  8 11  1  0  0  0  0
 11 12  1  0  0  0  0
 11 13  1  0  0  0  0
 11 14  1  0  0  0  0
 14 15  1  0  0  0  0
 14 16  1  0  0  0  0
 14 17  1  0  0  0  0
 17 18  1  0  0  0  0
M  END
> <ChemID>
100078

> <source_casrn>
71-41-0

> <CAS>
71-41-0

> <SMILES>
CCCCCO

> <NAME>
1-Pentanol

> <preferred_name>
1-Pentanol

> <iupac>
pentan-1-ol

> <MPID>
100091

> <dsstox_substance_id>
DTXSID6021741

> <Canonical_QSARr>
CCCCCO

> <InChI_Code_QSARr>
InChI=1S/C5H12O/c1-2-3-4-5-6/h6H,2-5H2,1H3

> <InChI Key_QSARr>
AMQJEAYHLZJPGS-UHFFFAOYSA-N

> <Salt_Solvent>
?

> <Ready_Biodeg>
1.0

$$$$
100079
  -INDIGO-08031722522D

 12 12  0  0  0  0  0  0  0  0999 V2000
   -0.0000   -0.0000    0.0000 C   0  0  0  0  0  0  0  0  0  0  0  0
    0.8000    1.3856    0.0000 H   0  0  0  0  0  0  0  0  0  0  0  0
    0.8000   -1.3857    0.0000 C   0  0  0  0  0  0  0  0  0  0  0  0
    2.4000   -1.3857    0.0000 H   0  0  0  0  0  0  0  0  0  0  0  0
   -0.0000   -2.7713    0.0000 C   0  0  0  0  0  0  0  0  0  0  0  0
    0.8000   -4.1569    0.0000 H   0  0  0  0  0  0  0  0  0  0  0  0
   -1.6000   -2.7713    0.0000 C   0  0  0  0  0  0  0  0  0  0  0  0
   -2.4000   -4.1569    0.0000 H   0  0  0  0  0  0  0  0  0  0  0  0
   -2.4000   -1.3856    0.0000 C   0  0  0  0  0  0  0  0  0  0  0  0
   -4.0000   -1.3856    0.0000 H   0  0  0  0  0  0  0  0  0  0  0  0
   -1.6000   -0.0000    0.0000 C   0  0  0  0  0  0  0  0  0  0  0  0
   -2.4000    1.3856    0.0000 H   0  0  0  0  0  0  0  0  0  0  0  0
  1  2  1  0  0  0  0
  1  3  1  0  0  0  0
  3  4  1  0  0  0  0
  3  5  2  0  0  0  0
  5  6  1  0  0  0  0
  5  7  1  0  0  0  0
  7  8  1  0  0  0  0
  7  9  2  0  0  0  0
  9 10  1  0  0  0  0
  9 11  1  0  0  0  0
 11  1  2  0  0  0  0
 11 12  1  0  0  0  0
M  END
> <ChemID>
100079

> <source_casrn>
71-43-2

> <CAS>
71-43-2

> <SMILES>
c1ccccc1

> <NAME>
Benzene

> <preferred_name>
Benzene

> <iupac>
benzene

> <MPID>
100092

> <dsstox_substance_id>
DTXSID3039242

> <Canonical_QSARr>
c1ccccc1

> <InChI_Code_QSARr>
InChI=1S/C6H6/c1-2-4-6-5-3-1/h1-6H

> <InChI Key_QSARr>
UHOVQNZJYSORNB-UHFFFAOYSA-N

> <Salt_Solvent>
?

> <Ready_Biodeg>
1.0

$$$$
100082
  -INDIGO-08031722522D

 15 15  0  0  0  0  0  0  0  0999 V2000
   -1.3856    0.8000    0.0000 C   0  0  0  0  0  0  0  0  0  0  0  0
   -1.3856    2.4000    0.0000 O   0  0  0  0  0  0  0  0  0  0  0  0
   -2.7713   -0.0000    0.0000 O   0  0  0  0  0  0  0  0  0  0  0  0
   -4.1569    0.8000    0.0000 H   0  0  0  0  0  0  0  0  0  0  0  0
   -0.0001   -0.0000    0.0000 C   0  0  0  0  0  0  0  0  0  0  0  0
   -0.0001   -1.6000    0.0000 C   0  0  0  0  0  0  0  0  0  0  0  0
   -1.3856   -2.4000    0.0000 H   0  0  0  0  0  0  0  0  0  0  0  0
    1.3856   -2.4000    0.0000 C   0  0  0  0  0  0  0  0  0  0  0  0
    1.3856   -4.0000    0.0000 H   0  0  0  0  0  0  0  0  0  0  0  0
    2.7713   -1.6000    0.0000 C   0  0  0  0  0  0  0  0  0  0  0  0
    4.1569   -2.4000    0.0000 Cl  0  0  0  0  0  0  0  0  0  0  0  0
    2.7712   -0.0000    0.0000 C   0  0  0  0  0  0  0  0  0  0  0  0
    4.1569    0.8000    0.0000 H   0  0  0  0  0  0  0  0  0  0  0  0
    1.3856    0.8000    0.0000 C   0  0  0  0  0  0  0  0  0  0  0  0
    1.3856    2.4000    0.0000 H   0  0  0  0  0  0  0  0  0  0  0  0
  1  2  2  0  0  0  0
  1  3  1  0  0  0  0
  3  4  1  0  0  0  0
  1  5  1  0  0  0  0
  5  6  1  0  0  0  0
  6  7  1  0  0  0  0
  6  8  2  0  0  0  0
  8  9  1  0  0  0  0
  8 10  1  0  0  0  0
 10 11  1  0  0  0  0
 10 12  2  0  0  0  0
 12 13  1  0  0  0  0
 12 14  1  0  0  0  0
 14  5  2  0  0  0  0
 14 15  1  0  0  0  0
M  END
> <ChemID>
100082

> <source_casrn>
74-11-3

> <CAS>
74-11-3

> <SMILES>
OC(=O)c1ccc(Cl)cc1

> <NAME>
4-Chlorobenzoic acid

> <preferred_name>
4-Chlorobenzoic acid

> <iupac>
4-chlorobenzoic acid

> <MPID>
100095

> <dsstox_substance_id>
DTXSID9024772

> <Canonical_QSARr>
OC(=O)c1ccc(Cl)cc1

> <InChI_Code_QSARr>
InChI=1S/C7H5ClO2/c8-6-3-1-5(2-4-6)7(9)10/h1-4H,(H,9,10)

> <InChI Key_QSARr>
XRHGYUZYPHTUJZ-UHFFFAOYSA-N

> <Salt_Solvent>
?

> <Ready_Biodeg>
0.0

$$$$
100083
  -INDIGO-08031722522D

 36 38  0  0  0  0  0  0  0  0999 V2000
   -1.3857    0.8000    0.0000 N   0  0  0  0  0  0  0  0  0  0  0  0
   -1.1079    2.3757    0.0000 H   0  0  0  0  0  0  0  0  0  0  0  0
    0.0001    0.0000    0.0000 C   0  0  0  0  0  0  0  0  0  0  0  0
    1.3855    0.8000    0.0000 C   0  0  0  0  0  0  0  0  0  0  0  0
    1.3855    2.4000    0.0000 H   0  0  0  0  0  0  0  0  0  0  0  0
    2.7712    0.0000    0.0000 C   0  0  0  0  0  0  0  0  0  0  0  0
    4.1569    0.8000    0.0000 H   0  0  0  0  0  0  0  0  0  0  0  0
    2.7712   -1.6000    0.0000 C   0  0  0  0  0  0  0  0  0  0  0  0
    4.1569   -2.4000    0.0000 N   0  0  0  0  0  0  0  0  0  0  0  0
    3.8792   -3.9757    0.0000 H   0  0  0  0  0  0  0  0  0  0  0  0
    5.7326   -2.1221    0.0000 C   0  0  0  0  0  0  0  0  0  0  0  0
    6.2798   -0.6187    0.0000 C   0  0  0  0  0  0  0  0  0  0  0  0
    5.2513    0.6071    0.0000 H   0  0  0  0  0  0  0  0  0  0  0  0
    7.8555   -0.3409    0.0000 C   0  0  0  0  0  0  0  0  0  0  0  0
    8.4027    1.1627    0.0000 H   0  0  0  0  0  0  0  0  0  0  0  0
    8.8840   -1.5665    0.0000 C   0  0  0  0  0  0  0  0  0  0  0  0
   10.4597   -1.2887    0.0000 H   0  0  0  0  0  0  0  0  0  0  0  0
    8.3368   -3.0700    0.0000 C   0  0  0  0  0  0  0  0  0  0  0  0
    9.3653   -4.2957    0.0000 H   0  0  0  0  0  0  0  0  0  0  0  0
    6.7611   -3.3479    0.0000 C   0  0  0  0  0  0  0  0  0  0  0  0
    6.2139   -4.8513    0.0000 H   0  0  0  0  0  0  0  0  0  0  0  0
    1.3855   -2.4000    0.0000 C   0  0  0  0  0  0  0  0  0  0  0  0
    1.3855   -4.0000    0.0000 H   0  0  0  0  0  0  0  0  0  0  0  0
    0.0001   -1.6000    0.0000 C   0  0  0  0  0  0  0  0  0  0  0  0
   -1.3857   -2.4000    0.0000 H   0  0  0  0  0  0  0  0  0  0  0  0
   -2.9613    0.5221    0.0000 C   0  0  0  0  0  0  0  0  0  0  0  0
   -3.5085   -0.9813    0.0000 C   0  0  0  0  0  0  0  0  0  0  0  0
   -2.4801   -2.2071    0.0000 H   0  0  0  0  0  0  0  0  0  0  0  0
   -5.0842   -1.2591    0.0000 C   0  0  0  0  0  0  0  0  0  0  0  0
   -5.6314   -2.7627    0.0000 H   0  0  0  0  0  0  0  0  0  0  0  0
   -6.1127   -0.0335    0.0000 C   0  0  0  0  0  0  0  0  0  0  0  0
   -7.6884   -0.3113    0.0000 H   0  0  0  0  0  0  0  0  0  0  0  0
   -5.5655    1.4700    0.0000 C   0  0  0  0  0  0  0  0  0  0  0  0
   -6.5940    2.6957    0.0000 H   0  0  0  0  0  0  0  0  0  0  0  0
   -3.9898    1.7479    0.0000 C   0  0  0  0  0  0  0  0  0  0  0  0
   -3.4426    3.2513    0.0000 H   0  0  0  0  0  0  0  0  0  0  0  0
  1  2  1  0  0  0  0
  1  3  1  0  0  0  0
  3  4  1  0  0  0  0
  4  5  1  0  0  0  0
  4  6  2  0  0  0  0
  6  7  1  0  0  0  0
  6  8  1  0  0  0  0
  8  9  1  0  0  0  0
  9 10  1  0  0  0  0
  9 11  1  0  0  0  0
 11 12  1  0  0  0  0
 12 13  1  0  0  0  0
 12 14  2  0  0  0  0
 14 15  1  0  0  0  0
 14 16  1  0  0  0  0
 16 17  1  0  0  0  0
 16 18  2  0  0  0  0
 18 19  1  0  0  0  0
 18 20  1  0  0  0  0
 20 11  2  0  0  0  0
 20 21  1  0  0  0  0
  8 22  2  0  0  0  0
 22 23  1  0  0  0  0
 22 24  1  0  0  0  0
 24  3  2  0  0  0  0
 24 25  1  0  0  0  0
  1 26  1  0  0  0  0
 26 27  1  0  0  0  0
 27 28  1  0  0  0  0
 27 29  2  0  0  0  0
 29 30  1  0  0  0  0
 29 31  1  0  0  0  0
 31 32  1  0  0  0  0
 31 33  2  0  0  0  0
 33 34  1  0  0  0  0
 33 35  1  0  0  0  0
 35 26  2  0  0  0  0
 35 36  1  0  0  0  0
M  END
> <ChemID>
100083

> <source_casrn>
74-31-7

> <CAS>
74-31-7

> <SMILES>
c1cc(ccc1Nc1ccccc1)Nc1ccccc1

> <NAME>
1,4-Benzenediamine, N,N'-diphenyl-

> <preferred_name>
N,N'-Diphenyl-p-phenylenediamine

> <iupac>
N,N'-diphenylbenzene-1,4-diamine

> <MPID>
100096

> <dsstox_substance_id>
DTXSID9020538

> <Canonical_QSARr>
c1cc(ccc1Nc1ccccc1)Nc1ccccc1

> <InChI_Code_QSARr>
InChI=1S/C18H16N2/c1-3-7-15(8-4-1)19-17-11-13-18(14-12-17)20-16-9-5-2-6-10-16/h1-14,19-20H

> <InChI Key_QSARr>
UTGQNNCQYDRXCH-UHFFFAOYSA-N

> <Salt_Solvent>
?

> <Ready_Biodeg>
0.0

$$$$
100084
  -INDIGO-08031722522D

 26 25  0  0  0  0  0  0  0  0999 V2000
    5.5426   -0.0000    0.0000 C   0  0  0  0  0  0  0  0  0  0  0  0
    5.5426   -1.6000    0.0000 N   0  0  0  0  0  0  0  0  0  0  0  0
    6.9283   -2.4000    0.0000 H   0  0  0  0  0  0  0  0  0  0  0  0
    4.1570    0.8000    0.0000 N   0  0  0  0  0  0  0  0  0  0  0  0
    4.1570    2.4000    0.0000 H   0  0  0  0  0  0  0  0  0  0  0  0
    2.7713   -0.0000    0.0000 C   0  0  0  0  0  0  0  0  0  0  0  0
    3.3836   -1.4782    0.0000 H   0  0  0  0  0  0  0  0  0  0  0  0
    2.1590   -1.4782    0.0000 H   0  0  0  0  0  0  0  0  0  0  0  0
    1.3857    0.8000    0.0000 C   0  0  0  0  0  0  0  0  0  0  0  0
    0.7734    2.2782    0.0000 H   0  0  0  0  0  0  0  0  0  0  0  0
    1.9979    2.2782    0.0000 H   0  0  0  0  0  0  0  0  0  0  0  0
    0.0000   -0.0000    0.0000 C   0  0  0  0  0  0  0  0  0  0  0  0
    0.6123   -1.4782    0.0000 H   0  0  0  0  0  0  0  0  0  0  0  0
   -0.6123   -1.4782    0.0000 H   0  0  0  0  0  0  0  0  0  0  0  0
   -1.3857    0.8000    0.0000 C   0  0  0  0  0  0  0  0  0  0  0  0
   -0.5857    2.1856    0.0000 H   0  0  0  0  0  0  0  0  0  0  0  0
   -2.7713    1.6000    0.0000 C   0  0  0  0  0  0  0  0  0  0  0  0
   -2.7713    3.2000    0.0000 O   0  0  0  0  0  0  0  0  0  0  0  0
   -4.1568    0.8000    0.0000 O   0  0  0  0  0  0  0  0  0  0  0  0
   -5.5426    1.6000    0.0000 H   0  0  0  0  0  0  0  0  0  0  0  0
   -2.1856   -0.5856    0.0000 N   0  0  0  0  0  0  0  0  0  0  0  0
   -1.6384   -2.0891    0.0000 H   0  0  0  0  0  0  0  0  0  0  0  0
   -3.7855   -0.5856    0.0000 H   0  0  0  0  0  0  0  0  0  0  0  0
    6.9283    0.8000    0.0000 N   0  0  0  0  0  0  0  0  0  0  0  0
    8.3138   -0.0000    0.0000 H   0  0  0  0  0  0  0  0  0  0  0  0
    6.9283    2.4000    0.0000 H   0  0  0  0  0  0  0  0  0  0  0  0
  1  2  2  0  0  0  0
  2  3  1  0  0  0  0
  1  4  1  0  0  0  0
  4  5  1  0  0  0  0
  4  6  1  0  0  0  0
  6  7  1  0  0  0  0
  6  8  1  0  0  0  0
  6  9  1  0  0  0  0
  9 10  1  0  0  0  0
  9 11  1  0  0  0  0
  9 12  1  0  0  0  0
 12 13  1  0  0  0  0
 12 14  1  0  0  0  0
 12 15  1  0  0  0  0
 15 16  1  0  0  0  0
 15 17  1  0  0  0  0
 17 18  2  0  0  0  0
 17 19  1  0  0  0  0
 19 20  1  0  0  0  0
 15 21  1  0  0  0  0
 21 22  1  0  0  0  0
 21 23  1  0  0  0  0
  1 24  1  0  0  0  0
 24 25  1  0  0  0  0
 24 26  1  0  0  0  0
M  END
> <ChemID>
100084

> <source_casrn>
74-79-3

> <CAS>
74-79-3

> <SMILES>
NC(=N)NCCC[C@H](N)C(O)=O

> <NAME>
ARGININE

> <preferred_name>
L-Arginine

> <iupac>
L-arginine

> <MPID>
100097

> <dsstox_substance_id>
DTXSID6041056

> <Canonical_QSARr>
NC(=N)NCCCC(N)C(O)=O

> <InChI_Code_QSARr>
InChI=1S/C6H14N4O2/c7-4(5(11)12)2-1-3-10-6(8)9/h4H,1-3,7H2,(H,11,12)(H4,8,9,10)

> <InChI Key_QSARr>
ODKSFYDXXFIFQN-UHFFFAOYSA-N

> <Salt_Solvent>
?

> <Ready_Biodeg>
1.0

$$$$
100086
  -INDIGO-08031722522D

  5  4  0  0  0  0  0  0  0  0999 V2000
   -0.8000   -1.3856    0.0000 Cl  0  0  0  0  0  0  0  0  0  0  0  0
    0.0000    0.0000    0.0000 C   0  0  0  0  0  0  0  0  0  0  0  0
    0.8000    1.3856    0.0000 H   0  0  0  0  0  0  0  0  0  0  0  0
   -1.3856    0.8000    0.0000 H   0  0  0  0  0  0  0  0  0  0  0  0
    1.3856   -0.8000    0.0000 H   0  0  0  0  0  0  0  0  0  0  0  0
  1  2  1  0  0  0  0
  2  3  1  0  0  0  0
  2  4  1  0  0  0  0
  2  5  1  0  0  0  0
M  END
> <ChemID>
100086

> <source_casrn>
74-87-3

> <CAS>
74-87-3

> <SMILES>
CCl

> <NAME>
Methane, chloro-

> <preferred_name>
Chloromethane

> <iupac>
chloromethane

> <MPID>
100099

> <dsstox_substance_id>
DTXSID0021541

> <Canonical_QSARr>
CCl

> <InChI_Code_QSARr>
InChI=1S/CH3Cl/c1-2/h1H3

> <InChI Key_QSARr>
NEHMKBQYUWJMIP-UHFFFAOYSA-N

> <Salt_Solvent>
?

> <Ready_Biodeg>
0.0

$$$$
100087
  -INDIGO-08031722522D

  7  6  0  0  0  0  0  0  0  0999 V2000
    1.6000    0.0000    0.0000 N   0  0  0  0  0  0  0  0  0  0  0  0
    2.4000    1.3856    0.0000 H   0  0  0  0  0  0  0  0  0  0  0  0
    2.4000   -1.3856    0.0000 H   0  0  0  0  0  0  0  0  0  0  0  0
    0.0000    0.0000    0.0000 C   0  0  0  0  0  0  0  0  0  0  0  0
   -1.6000    0.0000    0.0000 H   0  0  0  0  0  0  0  0  0  0  0  0
   -0.8000    1.3856    0.0000 H   0  0  0  0  0  0  0  0  0  0  0  0
   -0.8000   -1.3856    0.0000 H   0  0  0  0  0  0  0  0  0  0  0  0
  1  2  1  0  0  0  0
  1  3  1  0  0  0  0
  1  4  1  0  0  0  0
  4  5  1  0  0  0  0
  4  6  1  0  0  0  0
  4  7  1  0  0  0  0
M  END
> <ChemID>
100087

> <source_casrn>
74-89-5

> <CAS>
74-89-5

> <SMILES>
CN

> <NAME>
METHYLAMINE

> <preferred_name>
Methylamine

> <iupac>
methanamine

> <MPID>
100100

> <dsstox_substance_id>
DTXSID7025683

> <Canonical_QSARr>
CN

> <InChI_Code_QSARr>
InChI=1S/CH5N/c1-2/h2H2,1H3

> <InChI Key_QSARr>
BAVYZALUXZFZLV-UHFFFAOYSA-N

> <Salt_Solvent>
?

> <Ready_Biodeg>
1.0

$$$$
100088
  -INDIGO-08031722522D

  6  5  0  0  0  0  0  0  0  0999 V2000
    0.0000    0.0000    0.0000 C   0  0  0  0  0  0  0  0  0  0  0  0
    1.3856    0.8000    0.0000 H   0  0  0  0  0  0  0  0  0  0  0  0
    0.0000    1.6000    0.0000 H   0  0  0  0  0  0  0  0  0  0  0  0
    1.3856   -0.8000    0.0000 H   0  0  0  0  0  0  0  0  0  0  0  0
   -1.3856   -0.8000    0.0000 S   0  0  0  0  0  0  0  0  0  0  0  0
   -2.7713    0.0000    0.0000 H   0  0  0  0  0  0  0  0  0  0  0  0
  1  2  1  0  0  0  0
  1  3  1  0  0  0  0
  1  4  1  0  0  0  0
  1  5  1  0  0  0  0
  5  6  1  0  0  0  0
M  END
> <ChemID>
100088

> <source_casrn>
74-93-1

> <CAS>
74-93-1

> <SMILES>
CS

> <NAME>
Methyl mercaptan

> <preferred_name>
Methanethiol

> <iupac>
methanethiol

> <MPID>
100101

> <dsstox_substance_id>
DTXSID5026382

> <Canonical_QSARr>
CS

> <InChI_Code_QSARr>
InChI=1S/CH4S/c1-2/h2H,1H3

> <InChI Key_QSARr>
LSDPWZHWYPCBBB-UHFFFAOYSA-N

> <Salt_Solvent>
?

> <Ready_Biodeg>
1.0

$$$$
100090
  -INDIGO-08031722522D

  5  4  0  0  0  0  0  0  0  0999 V2000
   -0.8000   -1.3856    0.0000 Cl  0  0  0  0  0  0  0  0  0  0  0  0
    0.0000    0.0000    0.0000 C   0  0  0  0  0  0  0  0  0  0  0  0
    0.8000    1.3856    0.0000 H   0  0  0  0  0  0  0  0  0  0  0  0
   -1.3856    0.8000    0.0000 H   0  0  0  0  0  0  0  0  0  0  0  0
    1.3856   -0.8000    0.0000 Br  0  0  0  0  0  0  0  0  0  0  0  0
  1  2  1  0  0  0  0
  2  3  1  0  0  0  0
  2  4  1  0  0  0  0
  2  5  1  0  0  0  0
M  END
> <ChemID>
100090

> <source_casrn>
74-97-5

> <CAS>
74-97-5

> <SMILES>
ClCBr

> <NAME>
Methane, bromochloro-

> <preferred_name>
Bromochloromethane

> <iupac>
bromo(chloro)methane

> <MPID>
100103

> <dsstox_substance_id>
DTXSID4021503

> <Canonical_QSARr>
ClCBr

> <InChI_Code_QSARr>
InChI=1S/CH2BrCl/c2-1-3/h1H2

> <InChI Key_QSARr>
JPOXNPPZZKNXOV-UHFFFAOYSA-N

> <Salt_Solvent>
?

> <Ready_Biodeg>
0.0

$$$$
100091
  -INDIGO-08031722522D

 11 10  0  0  0  0  0  0  0  0999 V2000
    0.0000    0.0000    0.0000 C   0  0  0  0  0  0  0  0  0  0  0  0
    0.6123   -1.4782    0.0000 H   0  0  0  0  0  0  0  0  0  0  0  0
   -0.6123   -1.4782    0.0000 H   0  0  0  0  0  0  0  0  0  0  0  0
   -1.3856    0.8000    0.0000 C   0  0  0  0  0  0  0  0  0  0  0  0
   -2.7713    1.6000    0.0000 H   0  0  0  0  0  0  0  0  0  0  0  0
   -2.7713    0.0000    0.0000 H   0  0  0  0  0  0  0  0  0  0  0  0
   -1.3856    2.4000    0.0000 H   0  0  0  0  0  0  0  0  0  0  0  0
    1.3856    0.8000    0.0000 C   0  0  0  0  0  0  0  0  0  0  0  0
    2.7713    1.6000    0.0000 H   0  0  0  0  0  0  0  0  0  0  0  0
    2.7713    0.0000    0.0000 H   0  0  0  0  0  0  0  0  0  0  0  0
    1.3856    2.4000    0.0000 H   0  0  0  0  0  0  0  0  0  0  0  0
  1  2  1  0  0  0  0
  1  3  1  0  0  0  0
  1  4  1  0  0  0  0
  4  5  1  0  0  0  0
  4  6  1  0  0  0  0
  4  7  1  0  0  0  0
  1  8  1  0  0  0  0
  8  9  1  0  0  0  0
  8 10  1  0  0  0  0
  8 11  1  0  0  0  0
M  END
> <ChemID>
100091

> <source_casrn>
74-98-6

> <CAS>
74-98-6

> <SMILES>
CCC

> <NAME>
Propane

> <preferred_name>
Propane

> <iupac>
propane

> <MPID>
100104

> <dsstox_substance_id>
DTXSID5026386

> <Canonical_QSARr>
CCC

> <InChI_Code_QSARr>
InChI=1S/C3H8/c1-3-2/h3H2,1-2H3

> <InChI Key_QSARr>
ATUOYWHBWRKTHZ-UHFFFAOYSA-N

> <Salt_Solvent>
?

> <Ready_Biodeg>
1.0

$$$$
100092
  -INDIGO-08031722522D

  8  7  0  0  0  0  0  0  0  0999 V2000
    0.0000    0.0000    0.0000 C   0  0  0  0  0  0  0  0  0  0  0  0
    1.6000   -0.0000    0.0000 H   0  0  0  0  0  0  0  0  0  0  0  0
    0.8000   -1.3856    0.0000 H   0  0  0  0  0  0  0  0  0  0  0  0
    0.8000    1.3856    0.0000 H   0  0  0  0  0  0  0  0  0  0  0  0
   -1.6000    0.0000    0.0000 C   0  0  0  0  0  0  0  0  0  0  0  0
   -3.2000    0.0000    0.0000 H   0  0  0  0  0  0  0  0  0  0  0  0
   -2.4000   -1.3856    0.0000 H   0  0  0  0  0  0  0  0  0  0  0  0
   -2.4000    1.3856    0.0000 Cl  0  0  0  0  0  0  0  0  0  0  0  0
  1  2  1  0  0  0  0
  1  3  1  0  0  0  0
  1  4  1  0  0  0  0
  1  5  1  0  0  0  0
  5  6  1  0  0  0  0
  5  7  1  0  0  0  0
  5  8  1  0  0  0  0
M  END
> <ChemID>
100092

> <source_casrn>
75-00-3

> <CAS>
75-00-3

> <SMILES>
CCCl

> <NAME>
Ethane, chloro-

> <preferred_name>
Chloroethane

> <iupac>
chloroethane

> <MPID>
100105

> <dsstox_substance_id>
DTXSID1020302

> <Canonical_QSARr>
CCCl

> <InChI_Code_QSARr>
InChI=1S/C2H5Cl/c1-2-3/h2H2,1H3

> <InChI Key_QSARr>
HRYZWHHZPQKTII-UHFFFAOYSA-N

> <Salt_Solvent>
?

> <Ready_Biodeg>
0.0

$$$$
100094
  -INDIGO-08031722522D

  7  6  0  0  0  0  0  0  0  0999 V2000
    0.0000    0.0000    0.0000 C   0  0  0  0  0  0  0  0  0  0  0  0
    1.6000    0.0000    0.0000 H   0  0  0  0  0  0  0  0  0  0  0  0
    0.8000    1.3856    0.0000 H   0  0  0  0  0  0  0  0  0  0  0  0
    0.8000   -1.3856    0.0000 H   0  0  0  0  0  0  0  0  0  0  0  0
   -1.6000    0.0000    0.0000 C   0  0  0  0  0  0  0  0  0  0  0  0
   -2.4000    1.3856    0.0000 H   0  0  0  0  0  0  0  0  0  0  0  0
   -2.4000   -1.3856    0.0000 O   0  0  0  0  0  0  0  0  0  0  0  0
  1  2  1  0  0  0  0
  1  3  1  0  0  0  0
  1  4  1  0  0  0  0
  1  5  1  0  0  0  0
  5  6  1  0  0  0  0
  5  7  2  0  0  0  0
M  END
> <ChemID>
100094

> <source_casrn>
75-07-0

> <CAS>
75-07-0

> <SMILES>
CC=O

> <NAME>
Acetaldehyde

> <preferred_name>
Acetaldehyde

> <iupac>
acetaldehyde

> <MPID>
100107

> <dsstox_substance_id>
DTXSID5039224

> <Canonical_QSARr>
CC=O

> <InChI_Code_QSARr>
InChI=1S/C2H4O/c1-2-3/h2H,1H3

> <InChI Key_QSARr>
IKHGUXGNUITLKF-UHFFFAOYSA-N

> <Salt_Solvent>
?

> <Ready_Biodeg>
1.0

$$$$
100095
  -INDIGO-08031722522D

  5  4  0  0  0  0  0  0  0  0999 V2000
   -0.8000   -1.3856    0.0000 Cl  0  0  0  0  0  0  0  0  0  0  0  0
    0.0000    0.0000    0.0000 C   0  0  0  0  0  0  0  0  0  0  0  0
    0.8000    1.3856    0.0000 H   0  0  0  0  0  0  0  0  0  0  0  0
   -1.3856    0.8000    0.0000 H   0  0  0  0  0  0  0  0  0  0  0  0
    1.3856   -0.8000    0.0000 Cl  0  0  0  0  0  0  0  0  0  0  0  0
  1  2  1  0  0  0  0
  2  3  1  0  0  0  0
  2  4  1  0  0  0  0
  2  5  1  0  0  0  0
M  END
> <ChemID>
100095

> <source_casrn>
75-09-2

> <CAS>
75-09-2

> <SMILES>
ClCCl

> <NAME>
Methane, dichloro-

> <preferred_name>
Dichloromethane

> <iupac>
dichloromethane

> <MPID>
100108

> <dsstox_substance_id>
DTXSID0020868

> <Canonical_QSARr>
ClCCl

> <InChI_Code_QSARr>
InChI=1S/CH2Cl2/c2-1-3/h1H2

> <InChI Key_QSARr>
YMWUJEATGCHHMB-UHFFFAOYSA-N

> <Salt_Solvent>
?

> <Ready_Biodeg>
0.0

$$$$
100096
  -INDIGO-08031722522D

  6  5  0  0  0  0  0  0  0  0999 V2000
   -0.0000    0.0000    0.0000 C   0  0  0  0  0  0  0  0  0  0  0  0
    0.8000    1.3856    0.0000 H   0  0  0  0  0  0  0  0  0  0  0  0
   -1.6000    0.0000    0.0000 N   0  0  0  0  0  0  0  0  0  0  0  0
   -2.4000    1.3856    0.0000 H   0  0  0  0  0  0  0  0  0  0  0  0
   -2.4000   -1.3856    0.0000 H   0  0  0  0  0  0  0  0  0  0  0  0
    0.8000   -1.3856    0.0000 O   0  0  0  0  0  0  0  0  0  0  0  0
  1  2  1  0  0  0  0
  1  3  1  0  0  0  0
  3  4  1  0  0  0  0
  3  5  1  0  0  0  0
  1  6  2  0  0  0  0
M  END
> <ChemID>
100096

> <source_casrn>
75-12-7

> <CAS>
75-12-7

> <SMILES>
NC=O

> <NAME>
Formamide

> <preferred_name>
Formamide

> <iupac>
formamide

> <MPID>
100109

> <dsstox_substance_id>
DTXSID8025337

> <Canonical_QSARr>
NC=O

> <InChI_Code_QSARr>
InChI=1S/CH3NO/c2-1-3/h1H,(H2,2,3)

> <InChI Key_QSARr>
ZHNUHDYFZUAESO-UHFFFAOYSA-N

> <Salt_Solvent>
?

> <Ready_Biodeg>
1.0

$$$$
100098
  -INDIGO-08031722522D

 11 10  0  0  0  0  0  0  0  0999 V2000
    1.3856    0.8000    0.0000 C   0  0  0  0  0  0  0  0  0  0  0  0
    2.7713    1.6000    0.0000 H   0  0  0  0  0  0  0  0  0  0  0  0
    2.7713    0.0000    0.0000 H   0  0  0  0  0  0  0  0  0  0  0  0
    1.3856    2.4000    0.0000 H   0  0  0  0  0  0  0  0  0  0  0  0
    0.0000    0.0000    0.0000 C   0  0  0  0  0  0  0  0  0  0  0  0
    0.6123   -1.4782    0.0000 H   0  0  0  0  0  0  0  0  0  0  0  0
   -1.3856    0.8000    0.0000 C   0  0  0  0  0  0  0  0  0  0  0  0
   -2.7713    1.6000    0.0000 H   0  0  0  0  0  0  0  0  0  0  0  0
   -2.7713    0.0000    0.0000 H   0  0  0  0  0  0  0  0  0  0  0  0
   -1.3856    2.4000    0.0000 H   0  0  0  0  0  0  0  0  0  0  0  0
   -0.6123   -1.4782    0.0000 Br  0  0  0  0  0  0  0  0  0  0  0  0
  1  2  1  0  0  0  0
  1  3  1  0  0  0  0
  1  4  1  0  0  0  0
  1  5  1  0  0  0  0
  5  6  1  0  0  0  0
  5  7  1  0  0  0  0
  7  8  1  0  0  0  0
  7  9  1  0  0  0  0
  7 10  1  0  0  0  0
  5 11  1  0  0  0  0
M  END
> <ChemID>
100098

> <source_casrn>
75-26-3

> <CAS>
75-26-3

> <SMILES>
CC(C)Br

> <NAME>
Propane, 2-bromo-

> <preferred_name>
2-Bromopropane

> <iupac>
2-bromopropane

> <MPID>
100111

> <dsstox_substance_id>
DTXSID7030197

> <Canonical_QSARr>
CC(C)Br

> <InChI_Code_QSARr>
InChI=1S/C3H7Br/c1-3(2)4/h3H,1-2H3

> <InChI Key_QSARr>
NAMYKGVDVNBCFQ-UHFFFAOYSA-N

> <Salt_Solvent>
?

> <Ready_Biodeg>
1.0

$$$$
100099
  -INDIGO-08031722522D

  5  4  0  0  0  0  0  0  0  0999 V2000
   -0.8000   -1.3856    0.0000 Cl  0  0  0  0  0  0  0  0  0  0  0  0
    0.0000    0.0000    0.0000 C   0  0  0  0  0  0  0  0  0  0  0  0
    0.8000    1.3856    0.0000 H   0  0  0  0  0  0  0  0  0  0  0  0
   -1.3856    0.8000    0.0000 Cl  0  0  0  0  0  0  0  0  0  0  0  0
    1.3856   -0.8000    0.0000 Br  0  0  0  0  0  0  0  0  0  0  0  0
  1  2  1  0  0  0  0
  2  3  1  0  0  0  0
  2  4  1  0  0  0  0
  2  5  1  0  0  0  0
M  END
> <ChemID>
100099

> <source_casrn>
75-27-4

> <CAS>
75-27-4

> <SMILES>
ClC(Cl)Br

> <NAME>
Bromodichloromethane

> <preferred_name>
Bromodichloromethane

> <iupac>
bromo(dichloro)methane

> <MPID>
100112

> <dsstox_substance_id>
DTXSID1020198

> <Canonical_QSARr>
ClC(Cl)Br

> <InChI_Code_QSARr>
InChI=1S/CHBrCl2/c2-1(3)4/h1H

> <InChI Key_QSARr>
FMWLUWPQPKEARP-UHFFFAOYSA-N

> <Salt_Solvent>
?

> <Ready_Biodeg>
1.0

$$$$
100100
  -INDIGO-08031722522D

  8  7  0  0  0  0  0  0  0  0999 V2000
    0.0000    0.0000    0.0000 C   0  0  0  0  0  0  0  0  0  0  0  0
    1.6000   -0.0000    0.0000 H   0  0  0  0  0  0  0  0  0  0  0  0
    0.8000   -1.3856    0.0000 H   0  0  0  0  0  0  0  0  0  0  0  0
    0.8000    1.3856    0.0000 H   0  0  0  0  0  0  0  0  0  0  0  0
   -1.6000    0.0000    0.0000 C   0  0  0  0  0  0  0  0  0  0  0  0
   -3.2000    0.0000    0.0000 H   0  0  0  0  0  0  0  0  0  0  0  0
   -2.4000   -1.3856    0.0000 Cl  0  0  0  0  0  0  0  0  0  0  0  0
   -2.4000    1.3856    0.0000 Cl  0  0  0  0  0  0  0  0  0  0  0  0
  1  2  1  0  0  0  0
  1  3  1  0  0  0  0
  1  4  1  0  0  0  0
  1  5  1  0  0  0  0
  5  6  1  0  0  0  0
  5  7  1  0  0  0  0
  5  8  1  0  0  0  0
M  END
> <ChemID>
100100

> <source_casrn>
75-34-3

> <CAS>
75-34-3

> <SMILES>
CC(Cl)Cl

> <NAME>
1,1-DICHLOROETHANE

> <preferred_name>
1,1-Dichloroethane

> <iupac>
1,1-dichloroethane

> <MPID>
100113

> <dsstox_substance_id>
DTXSID1020437

> <Canonical_QSARr>
CC(Cl)Cl

> <InChI_Code_QSARr>
InChI=1S/C2H4Cl2/c1-2(3)4/h2H,1H3

> <InChI Key_QSARr>
SCYULBFZEHDVBN-UHFFFAOYSA-N

> <Salt_Solvent>
?

> <Ready_Biodeg>
0.0

$$$$
100102
  -INDIGO-08031722522D

  5  4  0  0  0  0  0  0  0  0999 V2000
   -0.8000   -1.3856    0.0000 F   0  0  0  0  0  0  0  0  0  0  0  0
    0.0000    0.0000    0.0000 C   0  0  0  0  0  0  0  0  0  0  0  0
    0.8000    1.3856    0.0000 H   0  0  0  0  0  0  0  0  0  0  0  0
   -1.3856    0.8000    0.0000 F   0  0  0  0  0  0  0  0  0  0  0  0
    1.3856   -0.8000    0.0000 Cl  0  0  0  0  0  0  0  0  0  0  0  0
  1  2  1  0  0  0  0
  2  3  1  0  0  0  0
  2  4  1  0  0  0  0
  2  5  1  0  0  0  0
M  END
> <ChemID>
100102

> <source_casrn>
75-45-6

> <CAS>
75-45-6

> <SMILES>
FC(F)Cl

> <NAME>
Methane, chlorodifluoro-

> <preferred_name>
Chlorodifluoromethane

> <iupac>
chloro(difluoro)methane

> <MPID>
100115

> <dsstox_substance_id>
DTXSID6020301

> <Canonical_QSARr>
FC(F)Cl

> <InChI_Code_QSARr>
InChI=1S/CHClF2/c2-1(3)4/h1H

> <InChI Key_QSARr>
VOPWNXZWBYDODV-UHFFFAOYSA-N

> <Salt_Solvent>
?

> <Ready_Biodeg>
0.0

$$$$
100103
  -INDIGO-08031722522D

 13 12  0  0  0  0  0  0  0  0999 V2000
    0.0000    0.0000    0.0000 N   0  0  0  0  0  0  0  0  0  0  0  0
    0.8000    1.3856    0.0000 C   0  0  0  0  0  0  0  0  0  0  0  0
    1.6000    2.7713    0.0000 H   0  0  0  0  0  0  0  0  0  0  0  0
    2.4000    1.3856    0.0000 H   0  0  0  0  0  0  0  0  0  0  0  0
    0.0000    2.7713    0.0000 H   0  0  0  0  0  0  0  0  0  0  0  0
    0.8000   -1.3856    0.0000 C   0  0  0  0  0  0  0  0  0  0  0  0
    1.6000   -2.7713    0.0000 H   0  0  0  0  0  0  0  0  0  0  0  0
    0.0000   -2.7713    0.0000 H   0  0  0  0  0  0  0  0  0  0  0  0
    2.4000   -1.3856    0.0000 H   0  0  0  0  0  0  0  0  0  0  0  0
   -1.6000    0.0000    0.0000 C   0  0  0  0  0  0  0  0  0  0  0  0
   -3.2000    0.0000    0.0000 H   0  0  0  0  0  0  0  0  0  0  0  0
   -2.4000   -1.3856    0.0000 H   0  0  0  0  0  0  0  0  0  0  0  0
   -2.4000    1.3856    0.0000 H   0  0  0  0  0  0  0  0  0  0  0  0
  1  2  1  0  0  0  0
  2  3  1  0  0  0  0
  2  4  1  0  0  0  0
  2  5  1  0  0  0  0
  1  6  1  0  0  0  0
  6  7  1  0  0  0  0
  6  8  1  0  0  0  0
  6  9  1  0  0  0  0
  1 10  1  0  0  0  0
 10 11  1  0  0  0  0
 10 12  1  0  0  0  0
 10 13  1  0  0  0  0
M  END
> <ChemID>
100103

> <source_casrn>
75-50-3

> <CAS>
75-50-3

> <SMILES>
CN(C)C

> <NAME>
Methanamine, N,N-dimethyl-

> <preferred_name>
Trimethylamine

> <iupac>
N,N-dimethylmethanamine

> <MPID>
100116

> <dsstox_substance_id>
DTXSID2026238

> <Canonical_QSARr>
CN(C)C

> <InChI_Code_QSARr>
InChI=1S/C3H9N/c1-4(2)3/h1-3H3

> <InChI Key_QSARr>
GETQZCLCWQTVFV-UHFFFAOYSA-N

> <Salt_Solvent>
?

> <Ready_Biodeg>
1.0

$$$$
100104
  -INDIGO-08031722522D

 10 10  0  0  0  0  0  0  0  0999 V2000
    1.5035   -0.5473    0.0000 C   0  0  0  0  0  0  0  0  0  0  0  0
    3.0070   -1.0945    0.0000 H   0  0  0  0  0  0  0  0  0  0  0  0
    2.7292    0.4812    0.0000 H   0  0  0  0  0  0  0  0  0  0  0  0
    1.7814   -2.1229    0.0000 H   0  0  0  0  0  0  0  0  0  0  0  0
    0.0000    0.0000    0.0000 C   0  0  0  0  0  0  0  0  0  0  0  0
    0.2779    1.5757    0.0000 H   0  0  0  0  0  0  0  0  0  0  0  0
   -1.6000    0.0000    0.0000 C   0  0  0  0  0  0  0  0  0  0  0  0
   -1.8779    1.5757    0.0000 H   0  0  0  0  0  0  0  0  0  0  0  0
   -3.1035   -0.5473    0.0000 H   0  0  0  0  0  0  0  0  0  0  0  0
   -0.8000   -1.3856    0.0000 O   0  0  0  0  0  0  0  0  0  0  0  0
  1  2  1  0  0  0  0
  1  3  1  0  0  0  0
  1  4  1  0  0  0  0
  1  5  1  0  0  0  0
  5  6  1  0  0  0  0
  5  7  1  0  0  0  0
  7  8  1  0  0  0  0
  7  9  1  0  0  0  0
  7 10  1  0  0  0  0
 10  5  1  0  0  0  0
M  END
> <ChemID>
100104

> <source_casrn>
75-56-9

> <CAS>
75-56-9

> <SMILES>
CC1CO1

> <NAME>
Oxirane, methyl-

> <preferred_name>
1,2-Propylene oxide

> <iupac>
2-methyloxirane

> <MPID>
100117

> <dsstox_substance_id>
DTXSID5021207

> <Canonical_QSARr>
CC1CO1

> <InChI_Code_QSARr>
InChI=1S/C3H6O/c1-3-2-4-3/h3H,2H2,1H3

> <InChI Key_QSARr>
GOOHAUXETOMSMM-UHFFFAOYSA-N

> <Salt_Solvent>
?

> <Ready_Biodeg>
1.0

$$$$
100106
  -INDIGO-08031722522D

  5  4  0  0  0  0  0  0  0  0999 V2000
   -0.8000   -1.3856    0.0000 F   0  0  0  0  0  0  0  0  0  0  0  0
    0.0000    0.0000    0.0000 C   0  0  0  0  0  0  0  0  0  0  0  0
    0.8000    1.3856    0.0000 F   0  0  0  0  0  0  0  0  0  0  0  0
   -1.3856    0.8000    0.0000 Cl  0  0  0  0  0  0  0  0  0  0  0  0
    1.3856   -0.8000    0.0000 Cl  0  0  0  0  0  0  0  0  0  0  0  0
  1  2  1  0  0  0  0
  2  3  1  0  0  0  0
  2  4  1  0  0  0  0
  2  5  1  0  0  0  0
M  END
> <ChemID>
100106

> <source_casrn>
75-71-8

> <CAS>
75-71-8

> <SMILES>
FC(F)(Cl)Cl

> <NAME>
Methane, dichlorodifluoro-

> <preferred_name>
Dichlorodifluoromethane

> <iupac>
dichloro(difluoro)methane

> <MPID>
100119

> <dsstox_substance_id>
DTXSID6020436

> <Canonical_QSARr>
FC(F)(Cl)Cl

> <InChI_Code_QSARr>
InChI=1S/CCl2F2/c2-1(3,4)5

> <InChI Key_QSARr>
PXBRQCKWGAHEHS-UHFFFAOYSA-N

> <Salt_Solvent>
?

> <Ready_Biodeg>
0.0

$$$$
100107
  -INDIGO-08031722522D

 18 17  0  0  0  0  0  0  0  0999 V2000
    0.8000    1.3856    0.0000 C   0  0  0  0  0  0  0  0  0  0  0  0
    1.6001    2.7713    0.0000 H   0  0  0  0  0  0  0  0  0  0  0  0
    0.0000    2.7713    0.0000 H   0  0  0  0  0  0  0  0  0  0  0  0
    2.4000    1.3856    0.0000 H   0  0  0  0  0  0  0  0  0  0  0  0
    0.0000    0.0000    0.0000 C   0  0  0  0  0  0  0  0  0  0  0  0
   -1.5036    0.5472    0.0000 C   0  0  0  0  0  0  0  0  0  0  0  0
   -1.1572    2.1093    0.0000 H   0  0  0  0  0  0  0  0  0  0  0  0
   -2.3631    1.8967    0.0000 H   0  0  0  0  0  0  0  0  0  0  0  0
   -2.7292   -0.4813    0.0000 C   0  0  0  0  0  0  0  0  0  0  0  0
   -3.9548   -1.5097    0.0000 H   0  0  0  0  0  0  0  0  0  0  0  0
   -4.2327    0.0660    0.0000 H   0  0  0  0  0  0  0  0  0  0  0  0
   -2.4513   -2.0569    0.0000 H   0  0  0  0  0  0  0  0  0  0  0  0
   -0.8000   -1.3856    0.0000 O   0  0  0  0  0  0  0  0  0  0  0  0
    0.0000   -2.7713    0.0000 H   0  0  0  0  0  0  0  0  0  0  0  0
    1.3857   -0.8000    0.0000 C   0  0  0  0  0  0  0  0  0  0  0  0
    2.7713   -1.6000    0.0000 H   0  0  0  0  0  0  0  0  0  0  0  0
    1.3857   -2.4000    0.0000 H   0  0  0  0  0  0  0  0  0  0  0  0
    2.7713    0.0000    0.0000 H   0  0  0  0  0  0  0  0  0  0  0  0
  1  2  1  0  0  0  0
  1  3  1  0  0  0  0
  1  4  1  0  0  0  0
  1  5  1  0  0  0  0
  5  6  1  0  0  0  0
  6  7  1  0  0  0  0
  6  8  1  0  0  0  0
  6  9  1  0  0  0  0
  9 10  1  0  0  0  0
  9 11  1  0  0  0  0
  9 12  1  0  0  0  0
  5 13  1  0  0  0  0
 13 14  1  0  0  0  0
  5 15  1  0  0  0  0
 15 16  1  0  0  0  0
 15 17  1  0  0  0  0
 15 18  1  0  0  0  0
M  END
> <ChemID>
100107

> <source_casrn>
75-85-4

> <CAS>
75-85-4

> <SMILES>
CCC(C)(C)O

> <NAME>
2-METHYL-2-BUTANOL

> <preferred_name>
2-Methyl-2-butanol

> <iupac>
2-methylbutan-2-ol

> <MPID>
100120

> <dsstox_substance_id>
DTXSID0041436

> <Canonical_QSARr>
CCC(C)(C)O

> <InChI_Code_QSARr>
InChI=1S/C5H12O/c1-4-5(2,3)6/h6H,4H2,1-3H3

> <InChI Key_QSARr>
MSXVEPNJUHWQHW-UHFFFAOYSA-N

> <Salt_Solvent>
?

> <Ready_Biodeg>
0.0

$$$$
100108
  -INDIGO-08031722522D

 13 12  0  0  0  0  0  0  0  0999 V2000
    0.0000    0.0000    0.0000 C   0  0  0  0  0  0  0  0  0  0  0  0
    1.3856    0.8000    0.0000 C   0  0  0  0  0  0  0  0  0  0  0  0
    2.7713    1.6000    0.0000 H   0  0  0  0  0  0  0  0  0  0  0  0
    2.7713    0.0000    0.0000 H   0  0  0  0  0  0  0  0  0  0  0  0
    1.3856    2.4000    0.0000 H   0  0  0  0  0  0  0  0  0  0  0  0
   -1.3856   -0.8000    0.0000 C   0  0  0  0  0  0  0  0  0  0  0  0
   -2.7713   -1.6000    0.0000 H   0  0  0  0  0  0  0  0  0  0  0  0
   -1.3856   -2.4000    0.0000 H   0  0  0  0  0  0  0  0  0  0  0  0
   -2.7713    0.0000    0.0000 H   0  0  0  0  0  0  0  0  0  0  0  0
   -0.8000    1.3856    0.0000 O   0  0  0  0  0  0  0  0  0  0  0  0
   -2.4000    1.3856    0.0000 H   0  0  0  0  0  0  0  0  0  0  0  0
    0.8000   -1.3856    0.0000 C   0  0  0  0  0  0  0  0  0  0  0  0
    1.6000   -2.7713    0.0000 N   0  0  0  0  0  0  0  0  0  0  0  0
  1  2  1  0  0  0  0
  2  3  1  0  0  0  0
  2  4  1  0  0  0  0
  2  5  1  0  0  0  0
  1  6  1  0  0  0  0
  6  7  1  0  0  0  0
  6  8  1  0  0  0  0
  6  9  1  0  0  0  0
  1 10  1  0  0  0  0
 10 11  1  0  0  0  0
  1 12  1  0  0  0  0
 12 13  3  0  0  0  0
M  END
> <ChemID>
100108

> <source_casrn>
75-86-5

> <CAS>
75-86-5

> <SMILES>
CC(C)(O)C#N

> <NAME>
Propanenitrile, 2-hydroxy-2-methyl-

> <preferred_name>
2-Hydroxy-2-methylpropanenitrile

> <iupac>
2-hydroxy-2-methylpropanenitrile

> <MPID>
100121

> <dsstox_substance_id>
DTXSID7025427

> <Canonical_QSARr>
CC(C)(O)C#N

> <InChI_Code_QSARr>
InChI=1S/C4H7NO/c1-4(2,6)3-5/h6H,1-2H3

> <InChI Key_QSARr>
MWFMGBPGAXYFAR-UHFFFAOYSA-N

> <Salt_Solvent>
?

> <Ready_Biodeg>
1.0

$$$$
100110
  -INDIGO-08031722522D

 17 16  0  0  0  0  0  0  0  0999 V2000
   -0.8000    1.3856    0.0000 C   0  0  0  0  0  0  0  0  0  0  0  0
    0.0000    0.0000    0.0000 C   0  0  0  0  0  0  0  0  0  0  0  0
    1.3857    0.8000    0.0000 C   0  0  0  0  0  0  0  0  0  0  0  0
    2.7713    1.6000    0.0000 H   0  0  0  0  0  0  0  0  0  0  0  0
    1.3857    2.4000    0.0000 H   0  0  0  0  0  0  0  0  0  0  0  0
    2.7713    0.0000    0.0000 H   0  0  0  0  0  0  0  0  0  0  0  0
    0.8000   -1.3856    0.0000 C   0  0  0  0  0  0  0  0  0  0  0  0
    1.6000   -2.7713    0.0000 H   0  0  0  0  0  0  0  0  0  0  0  0
    0.0000   -2.7713    0.0000 H   0  0  0  0  0  0  0  0  0  0  0  0
    2.4000   -1.3856    0.0000 H   0  0  0  0  0  0  0  0  0  0  0  0
   -1.3856   -0.8000    0.0000 C   0  0  0  0  0  0  0  0  0  0  0  0
   -2.7713   -1.6000    0.0000 H   0  0  0  0  0  0  0  0  0  0  0  0
   -2.7713    0.0000    0.0000 H   0  0  0  0  0  0  0  0  0  0  0  0
   -1.3856   -2.4000    0.0000 H   0  0  0  0  0  0  0  0  0  0  0  0
   -2.4000    1.3856    0.0000 O   0  0  0  0  0  0  0  0  0  0  0  0
   -3.2000    2.7713    0.0000 H   0  0  0  0  0  0  0  0  0  0  0  0
    0.0000    2.7713    0.0000 O   0  0  0  0  0  0  0  0  0  0  0  0
  1  2  1  0  0  0  0
  2  3  1  0  0  0  0
  3  4  1  0  0  0  0
  3  5  1  0  0  0  0
  3  6  1  0  0  0  0
  2  7  1  0  0  0  0
  7  8  1  0  0  0  0
  7  9  1  0  0  0  0
  7 10  1  0  0  0  0
  2 11  1  0  0  0  0
 11 12  1  0  0  0  0
 11 13  1  0  0  0  0
 11 14  1  0  0  0  0
  1 15  1  0  0  0  0
 15 16  1  0  0  0  0
  1 17  2  0  0  0  0
M  END
> <ChemID>
100110

> <source_casrn>
75-98-9

> <CAS>
75-98-9

> <SMILES>
CC(C)(C)C(O)=O

> <NAME>
Propanoic acid, 2,2-dimethyl-

> <preferred_name>
2,2-Dimethylpropanoic acid

> <iupac>
2,2-dimethylpropanoic acid

> <MPID>
100123

> <dsstox_substance_id>
DTXSID8026432

> <Canonical_QSARr>
CC(C)(C)C(O)=O

> <InChI_Code_QSARr>
InChI=1S/C5H10O2/c1-5(2,3)4(6)7/h1-3H3,(H,6,7)

> <InChI Key_QSARr>
IUGYQRQAERSCNH-UHFFFAOYSA-N

> <Salt_Solvent>
?

> <Ready_Biodeg>
0.0

$$$$
100111
  -INDIGO-08031722522D

  8  7  0  0  0  0  0  0  0  0999 V2000
   -0.8000   -1.3856    0.0000 Cl  0  0  0  0  0  0  0  0  0  0  0  0
   -0.0000    0.0000    0.0000 C   0  0  0  0  0  0  0  0  0  0  0  0
    1.6000    0.0000    0.0000 C   0  0  0  0  0  0  0  0  0  0  0  0
    2.4000   -1.3856    0.0000 O   0  0  0  0  0  0  0  0  0  0  0  0
    2.4000    1.3856    0.0000 O   0  0  0  0  0  0  0  0  0  0  0  0
    4.0000    1.3856    0.0000 H   0  0  0  0  0  0  0  0  0  0  0  0
   -1.6000    0.0000    0.0000 Cl  0  0  0  0  0  0  0  0  0  0  0  0
   -0.8000    1.3856    0.0000 Cl  0  0  0  0  0  0  0  0  0  0  0  0
  1  2  1  0  0  0  0
  2  3  1  0  0  0  0
  3  4  2  0  0  0  0
  3  5  1  0  0  0  0
  5  6  1  0  0  0  0
  2  7  1  0  0  0  0
  2  8  1  0  0  0  0
M  END
> <ChemID>
100111

> <source_casrn>
76-03-9

> <CAS>
76-03-9

> <SMILES>
OC(=O)C(Cl)(Cl)Cl

> <NAME>
Acetic acid, trichloro-

> <preferred_name>
Trichloroacetic acid

> <iupac>
trichloroacetic acid

> <MPID>
100124

> <dsstox_substance_id>
DTXSID1021378

> <Canonical_QSARr>
OC(=O)C(Cl)(Cl)Cl

> <InChI_Code_QSARr>
InChI=1S/C2HCl3O2/c3-2(4,5)1(6)7/h(H,6,7)

> <InChI Key_QSARr>
YNJBWRMUSHSURL-UHFFFAOYSA-N

> <Salt_Solvent>
?

> <Ready_Biodeg>
0.0

$$$$
100112
  -INDIGO-08031722522D

  7  6  0  0  0  0  0  0  0  0999 V2000
   -0.8000   -1.3856    0.0000 Cl  0  0  0  0  0  0  0  0  0  0  0  0
    0.0000    0.0000    0.0000 C   0  0  0  0  0  0  0  0  0  0  0  0
    1.6000    0.0000    0.0000 N   0  0  0  0  0  0  0  0  0  0  0  0
    2.4000    1.3856    0.0000 O   0  0  0  0  0  0  0  0  0  0  0  0
    2.4000   -1.3856    0.0000 O   0  0  0  0  0  0  0  0  0  0  0  0
   -1.6000    0.0000    0.0000 Cl  0  0  0  0  0  0  0  0  0  0  0  0
   -0.8000    1.3856    0.0000 Cl  0  0  0  0  0  0  0  0  0  0  0  0
  1  2  1  0  0  0  0
  2  3  1  0  0  0  0
  3  4  2  0  0  0  0
  3  5  1  0  0  0  0
  2  6  1  0  0  0  0
  2  7  1  0  0  0  0
M  CHG  2   3   1   5  -1
M  END
> <ChemID>
100112

> <source_casrn>
76-06-2

> <CAS>
76-06-2

> <SMILES>
[O-][N+](=O)C(Cl)(Cl)Cl

> <NAME>
Methane, trichloronitro-

> <preferred_name>
Chloropicrin

> <iupac>
trichloro(nitro)methane

> <MPID>
100125

> <dsstox_substance_id>
DTXSID0020315

> <Canonical_QSARr>
[O-][N+](=O)C(Cl)(Cl)Cl

> <InChI_Code_QSARr>
InChI=1S/CCl3NO2/c2-1(3,4)5(6)7

> <InChI Key_QSARr>
LFHISGNCFUNFFM-UHFFFAOYSA-N

> <Salt_Solvent>
?

> <Ready_Biodeg>
0.0

$$$$
100114
  -INDIGO-08031722522D

  8  7  0  0  0  0  0  0  0  0999 V2000
    0.0000    0.0000    0.0000 C   0  0  0  0  0  0  0  0  0  0  0  0
    1.6000    0.0000    0.0000 C   0  0  0  0  0  0  0  0  0  0  0  0
    3.2000    0.0000    0.0000 F   0  0  0  0  0  0  0  0  0  0  0  0
    2.4000   -1.3856    0.0000 Cl  0  0  0  0  0  0  0  0  0  0  0  0
    2.4000    1.3856    0.0000 Cl  0  0  0  0  0  0  0  0  0  0  0  0
   -1.6000   -0.0000    0.0000 F   0  0  0  0  0  0  0  0  0  0  0  0
   -0.8000   -1.3856    0.0000 F   0  0  0  0  0  0  0  0  0  0  0  0
   -0.8000    1.3856    0.0000 Cl  0  0  0  0  0  0  0  0  0  0  0  0
  1  2  1  0  0  0  0
  2  3  1  0  0  0  0
  2  4  1  0  0  0  0
  2  5  1  0  0  0  0
  1  6  1  0  0  0  0
  1  7  1  0  0  0  0
  1  8  1  0  0  0  0
M  END
> <ChemID>
100114

> <source_casrn>
76-13-1

> <CAS>
76-13-1

> <SMILES>
FC(F)(Cl)C(F)(Cl)Cl

> <NAME>
Ethane, 1,1,2-trichloro-1,2,2-trifluoro-

> <preferred_name>
1,1,2-Trichloro-1,2,2-trifluoroethane

> <iupac>
1,1,2-trichloro-1,2,2-trifluoroethane

> <MPID>
100127

> <dsstox_substance_id>
DTXSID6021377

> <Canonical_QSARr>
FC(F)(Cl)C(F)(Cl)Cl

> <InChI_Code_QSARr>
InChI=1S/C2Cl3F3/c3-1(4,6)2(5,7)8

> <InChI Key_QSARr>
AJDIZQLSFPQPEY-UHFFFAOYSA-N

> <Salt_Solvent>
?

> <Ready_Biodeg>
0.0

$$$$
100115
  -INDIGO-08031722522D

 22 24  0  0  0  0  0  0  0  0999 V2000
   -1.6000    0.0000    0.0000 C   0  0  0  0  0  0  0  0  0  0  0  0
   -2.0945   -1.5217    0.0000 C   0  0  0  0  0  0  0  0  0  0  0  0
   -3.6905   -1.4101    0.0000 Cl  0  0  0  0  0  0  0  0  0  0  0  0
   -3.3201   -2.5502    0.0000 Cl  0  0  0  0  0  0  0  0  0  0  0  0
   -0.8000   -2.4621    0.0000 C   0  0  0  0  0  0  0  0  0  0  0  0
   -0.3056   -3.9838    0.0000 Cl  0  0  0  0  0  0  0  0  0  0  0  0
   -2.4000   -2.4621    0.0000 C   0  0  0  0  0  0  0  0  0  0  0  0
   -2.8944   -0.9405    0.0000 C   0  0  0  0  0  0  0  0  0  0  0  0
   -4.4161   -0.4461    0.0000 Cl  0  0  0  0  0  0  0  0  0  0  0  0
   -3.3405   -3.7566    0.0000 Cl  0  0  0  0  0  0  0  0  0  0  0  0
    0.4944   -1.5217    0.0000 C   0  0  0  0  0  0  0  0  0  0  0  0
    0.9889   -3.0434    0.0000 H   0  0  0  0  0  0  0  0  0  0  0  0
    0.0000    0.0000    0.0000 C   0  0  0  0  0  0  0  0  0  0  0  0
   -0.4944    1.5217    0.0000 H   0  0  0  0  0  0  0  0  0  0  0  0
    1.2945    0.9405    0.0000 C   0  0  0  0  0  0  0  0  0  0  0  0
    2.3650    2.1295    0.0000 H   0  0  0  0  0  0  0  0  0  0  0  0
    2.5888    0.0000    0.0000 C   0  0  0  0  0  0  0  0  0  0  0  0
    4.1105    0.4944    0.0000 H   0  0  0  0  0  0  0  0  0  0  0  0
    2.0944   -1.5217    0.0000 C   0  0  0  0  0  0  0  0  0  0  0  0
    3.0349   -2.8161    0.0000 H   0  0  0  0  0  0  0  0  0  0  0  0
    0.2238    2.1295    0.0000 Cl  0  0  0  0  0  0  0  0  0  0  0  0
   -2.0945    1.5217    0.0000 Cl  0  0  0  0  0  0  0  0  0  0  0  0
  1  2  1  0  0  0  0
  2  3  1  0  0  0  0
  2  4  1  0  0  0  0
  2  5  1  0  0  0  0
  5  6  1  0  0  0  0
  5  7  1  0  0  0  0
  7  8  2  0  0  0  0
  8  1  1  0  0  0  0
  8  9  1  0  0  0  0
  7 10  1  0  0  0  0
  5 11  1  0  0  0  0
 11 12  1  0  0  0  0
 11 13  1  0  0  0  0
 13  1  1  0  0  0  0
 13 14  1  0  0  0  0
 13 15  1  0  0  0  0
 15 16  1  0  0  0  0
 15 17  1  0  0  0  0
 17 18  1  0  0  0  0
 17 19  2  0  0  0  0
 19 11  1  0  0  0  0
 19 20  1  0  0  0  0
 15 21  1  0  0  0  0
  1 22  1  0  0  0  0
M  END
> <ChemID>
100115

> <source_casrn>
76-44-8

> <CAS>
76-44-8

> <SMILES>
ClC1(Cl)C2(Cl)C3C=CC(Cl)C3C1(Cl)C(Cl)=C2Cl

> <NAME>
Heptachlor

> <preferred_name>
Heptachlor

> <iupac>
1,4,5,6,7,8,8-heptachloro-3a,4,7,7a-tetrahydro-1H-4,7-methanoindene

> <MPID>
100128

> <dsstox_substance_id>
DTXSID3020679

> <Canonical_QSARr>
ClC1(Cl)C2(Cl)C3C=CC(Cl)C3C1(Cl)C(Cl)=C2Cl

> <InChI_Code_QSARr>
InChI=1S/C10H5Cl7/c11-4-2-1-3-5(4)9(15)7(13)6(12)8(3,14)10(9,16)17/h1-5H

> <InChI Key_QSARr>
FRCCEHPWNOQAEU-UHFFFAOYSA-N

> <Salt_Solvent>
?

> <Ready_Biodeg>
0.0

$$$$
100116
  -INDIGO-08031722522D

 35 37  0  0  0  0  0  0  0  0999 V2000
   -0.0001   -0.0000    0.0000 C   0  0  0  0  0  0  0  0  0  0  0  0
    1.5999   -0.0000    0.0000 C   0  0  0  0  0  0  0  0  0  0  0  0
    2.3999    1.3856    0.0000 C   0  0  0  0  0  0  0  0  0  0  0  0
    1.5999    2.7712    0.0000 H   0  0  0  0  0  0  0  0  0  0  0  0
    4.0000    1.3856    0.0000 C   0  0  0  0  0  0  0  0  0  0  0  0
    4.8000    2.7712    0.0000 H   0  0  0  0  0  0  0  0  0  0  0  0
    4.8000   -0.0000    0.0000 C   0  0  0  0  0  0  0  0  0  0  0  0
    6.4000   -0.0000    0.0000 H   0  0  0  0  0  0  0  0  0  0  0  0
    4.0000   -1.3857    0.0000 C   0  0  0  0  0  0  0  0  0  0  0  0
    4.8000   -2.7713    0.0000 H   0  0  0  0  0  0  0  0  0  0  0  0
    2.3999   -1.3857    0.0000 C   0  0  0  0  0  0  0  0  0  0  0  0
    1.5999   -2.7713    0.0000 H   0  0  0  0  0  0  0  0  0  0  0  0
    0.2778    1.5756    0.0000 C   0  0  0  0  0  0  0  0  0  0  0  0
   -0.7507    2.8014    0.0000 C   0  0  0  0  0  0  0  0  0  0  0  0
   -1.5999    2.7712    0.0000 H   0  0  0  0  0  0  0  0  0  0  0  0
   -0.2034    4.3048    0.0000 C   0  0  0  0  0  0  0  0  0  0  0  0
   -1.2318    5.5306    0.0000 H   0  0  0  0  0  0  0  0  0  0  0  0
    1.3724    4.5827    0.0000 C   0  0  0  0  0  0  0  0  0  0  0  0
    1.9195    6.0862    0.0000 H   0  0  0  0  0  0  0  0  0  0  0  0
    2.4007    3.3570    0.0000 C   0  0  0  0  0  0  0  0  0  0  0  0
    3.9765    3.6349    0.0000 H   0  0  0  0  0  0  0  0  0  0  0  0
    1.8534    1.8535    0.0000 C   0  0  0  0  0  0  0  0  0  0  0  0
    2.8820    0.6279    0.0000 H   0  0  0  0  0  0  0  0  0  0  0  0
   -1.5999   -0.0000    0.0000 C   0  0  0  0  0  0  0  0  0  0  0  0
   -2.3999    1.3856    0.0000 C   0  0  0  0  0  0  0  0  0  0  0  0
   -2.3451    2.2338    0.0000 H   0  0  0  0  0  0  0  0  0  0  0  0
   -4.0000    1.3856    0.0000 C   0  0  0  0  0  0  0  0  0  0  0  0
   -4.8000    2.7712    0.0000 H   0  0  0  0  0  0  0  0  0  0  0  0
   -4.8000   -0.0000    0.0000 C   0  0  0  0  0  0  0  0  0  0  0  0
   -6.4000   -0.0000    0.0000 H   0  0  0  0  0  0  0  0  0  0  0  0
   -4.0000   -1.3857    0.0000 C   0  0  0  0  0  0  0  0  0  0  0  0
   -4.8000   -2.7713    0.0000 H   0  0  0  0  0  0  0  0  0  0  0  0
   -2.3999   -1.3857    0.0000 C   0  0  0  0  0  0  0  0  0  0  0  0
   -1.5999   -2.7713    0.0000 H   0  0  0  0  0  0  0  0  0  0  0  0
   -0.0001   -1.6000    0.0000 Cl  0  0  0  0  0  0  0  0  0  0  0  0
  1  2  1  0  0  0  0
  2  3  1  0  0  0  0
  3  4  1  0  0  0  0
  3  5  2  0  0  0  0
  5  6  1  0  0  0  0
  5  7  1  0  0  0  0
  7  8  1  0  0  0  0
  7  9  2  0  0  0  0
  9 10  1  0  0  0  0
  9 11  1  0  0  0  0
 11  2  2  0  0  0  0
 11 12  1  0  0  0  0
  1 13  1  0  0  0  0
 13 14  1  0  0  0  0
 14 15  1  0  0  0  0
 14 16  2  0  0  0  0
 16 17  1  0  0  0  0
 16 18  1  0  0  0  0
 18 19  1  0  0  0  0
 18 20  2  0  0  0  0
 20 21  1  0  0  0  0
 20 22  1  0  0  0  0
 22 13  2  0  0  0  0
 22 23  1  0  0  0  0
  1 24  1  0  0  0  0
 24 25  1  0  0  0  0
 25 26  1  0  0  0  0
 25 27  2  0  0  0  0
 27 28  1  0  0  0  0
 27 29  1  0  0  0  0
 29 30  1  0  0  0  0
 29 31  2  0  0  0  0
 31 32  1  0  0  0  0
 31 33  1  0  0  0  0
 33 24  2  0  0  0  0
 33 34  1  0  0  0  0
  1 35  1  0  0  0  0
M  END
> <ChemID>
100116

> <source_casrn>
76-83-5

> <CAS>
76-83-5

> <SMILES>
ClC(c1ccccc1)(c1ccccc1)c1ccccc1

> <NAME>
Benzene, 1,1',1''-(chloromethylidyne)tris-

> <preferred_name>
Trityl chloride

> <iupac>
1,1',1''-(chloromethanetriyl)tribenzene

> <MPID>
100129

> <dsstox_substance_id>
DTXSID3052511

> <Canonical_QSARr>
ClC(c1ccccc1)(c1ccccc1)c1ccccc1

> <InChI_Code_QSARr>
InChI=1S/C19H15Cl/c20-19(16-10-4-1-5-11-16,17-12-6-2-7-13-17)18-14-8-3-9-15-18/h1-15H

> <InChI Key_QSARr>
JBWKIWSBJXDJDT-UHFFFAOYSA-N

> <Salt_Solvent>
?

> <Ready_Biodeg>
0.0

$$$$
100119
  -INDIGO-08031722522D

 29 30  0  0  0  0  0  0  0  0999 V2000
    0.0000   -0.0001    0.0000 C   0  0  0  0  0  0  0  0  0  0  0  0
    1.5036   -0.5473    0.0000 C   0  0  0  0  0  0  0  0  0  0  0  0
    2.7292    0.4812    0.0000 C   0  0  0  0  0  0  0  0  0  0  0  0
    2.4513    2.0569    0.0000 H   0  0  0  0  0  0  0  0  0  0  0  0
    4.2328   -0.0660    0.0000 C   0  0  0  0  0  0  0  0  0  0  0  0
    5.4584    0.9625    0.0000 H   0  0  0  0  0  0  0  0  0  0  0  0
    4.5105   -1.6417    0.0000 C   0  0  0  0  0  0  0  0  0  0  0  0
    6.0140   -2.1889    0.0000 H   0  0  0  0  0  0  0  0  0  0  0  0
    3.2848   -2.6702    0.0000 C   0  0  0  0  0  0  0  0  0  0  0  0
    3.5627   -4.2459    0.0000 H   0  0  0  0  0  0  0  0  0  0  0  0
    1.7813   -2.1230    0.0000 C   0  0  0  0  0  0  0  0  0  0  0  0
    1.2342   -3.6264    0.0000 H   0  0  0  0  0  0  0  0  0  0  0  0
   -1.5758    0.2779    0.0000 C   0  0  0  0  0  0  0  0  0  0  0  0
   -2.3757    1.6635    0.0000 C   0  0  0  0  0  0  0  0  0  0  0  0
   -2.0979    3.2391    0.0000 H   0  0  0  0  0  0  0  0  0  0  0  0
   -3.9756    1.6635    0.0000 C   0  0  0  0  0  0  0  0  0  0  0  0
   -4.7757    3.0492    0.0000 H   0  0  0  0  0  0  0  0  0  0  0  0
   -4.7757    0.2779    0.0000 C   0  0  0  0  0  0  0  0  0  0  0  0
   -6.3757    0.2779    0.0000 H   0  0  0  0  0  0  0  0  0  0  0  0
   -3.9756   -1.1078    0.0000 C   0  0  0  0  0  0  0  0  0  0  0  0
   -4.7757   -2.4935    0.0000 H   0  0  0  0  0  0  0  0  0  0  0  0
   -2.3757   -1.1078    0.0000 C   0  0  0  0  0  0  0  0  0  0  0  0
   -1.5758   -2.4935    0.0000 H   0  0  0  0  0  0  0  0  0  0  0  0
    0.0000    1.6000    0.0000 C   0  0  0  0  0  0  0  0  0  0  0  0
   -1.3856    2.4000    0.0000 O   0  0  0  0  0  0  0  0  0  0  0  0
    1.3856    2.4000    0.0000 O   0  0  0  0  0  0  0  0  0  0  0  0
    1.3856    4.0000    0.0000 H   0  0  0  0  0  0  0  0  0  0  0  0
   -0.5473   -1.5035    0.0000 O   0  0  0  0  0  0  0  0  0  0  0  0
    0.4811   -2.7292    0.0000 H   0  0  0  0  0  0  0  0  0  0  0  0
  1  2  1  0  0  0  0
  2  3  1  0  0  0  0
  3  4  1  0  0  0  0
  3  5  2  0  0  0  0
  5  6  1  0  0  0  0
  5  7  1  0  0  0  0
  7  8  1  0  0  0  0
  7  9  2  0  0  0  0
  9 10  1  0  0  0  0
  9 11  1  0  0  0  0
 11  2  2  0  0  0  0
 11 12  1  0  0  0  0
  1 13  1  0  0  0  0
 13 14  1  0  0  0  0
 14 15  1  0  0  0  0
 14 16  2  0  0  0  0
 16 17  1  0  0  0  0
 16 18  1  0  0  0  0
 18 19  1  0  0  0  0
 18 20  2  0  0  0  0
 20 21  1  0  0  0  0
 20 22  1  0  0  0  0
 22 13  2  0  0  0  0
 22 23  1  0  0  0  0
  1 24  1  0  0  0  0
 24 25  2  0  0  0  0
 24 26  1  0  0  0  0
 26 27  1  0  0  0  0
  1 28  1  0  0  0  0
 28 29  1  0  0  0  0
M  END
> <ChemID>
100119

> <source_casrn>
76-93-7

> <CAS>
76-93-7

> <SMILES>
OC(=O)C(O)(c1ccccc1)c1ccccc1

> <NAME>
Benzeneacetic acid, .alpha.-hydroxy-.alpha.-phenyl-

> <preferred_name>
Benzilic acid

> <iupac>
2-hydroxy-2,2-di(phenyl)acetic acid

> <MPID>
100131

> <dsstox_substance_id>
DTXSID0058805

> <Canonical_QSARr>
OC(=O)C(O)(c1ccccc1)c1ccccc1

> <InChI_Code_QSARr>
InChI=1S/C14H12O3/c15-13(16)14(17,11-7-3-1-4-8-11)12-9-5-2-6-10-12/h1-10,17H,(H,15,16)

> <InChI Key_QSARr>
UKXSKSHDVLQNKG-UHFFFAOYSA-N

> <Salt_Solvent>
?

> <Ready_Biodeg>
0.0

$$$$
100120
  -INDIGO-08031722522D

 38 41  0  0  0  0  0  0  0  0999 V2000
    3.3126    2.4835    0.0000 O   0  0  0  0  0  0  0  0  0  0  0  0
    2.2420    1.2945    0.0000 C   0  0  0  0  0  0  0  0  0  0  0  0
    0.6508    1.4617    0.0000 O   0  0  0  0  0  0  0  0  0  0  0  0
   -0.0000    0.0000    0.0000 C   0  0  0  0  0  0  0  0  0  0  0  0
   -1.3857    0.8000    0.0000 C   0  0  0  0  0  0  0  0  0  0  0  0
   -1.3857    2.3999    0.0000 C   0  0  0  0  0  0  0  0  0  0  0  0
   -0.0000    3.2001    0.0000 H   0  0  0  0  0  0  0  0  0  0  0  0
   -2.7712    3.2001    0.0000 C   0  0  0  0  0  0  0  0  0  0  0  0
   -2.7712    4.8000    0.0000 H   0  0  0  0  0  0  0  0  0  0  0  0
   -4.1569    2.3999    0.0000 C   0  0  0  0  0  0  0  0  0  0  0  0
   -5.5426    3.2001    0.0000 O   0  0  0  0  0  0  0  0  0  0  0  0
   -5.5426    4.8000    0.0000 H   0  0  0  0  0  0  0  0  0  0  0  0
   -4.1569    0.8000    0.0000 C   0  0  0  0  0  0  0  0  0  0  0  0
   -5.5426    0.0000    0.0000 H   0  0  0  0  0  0  0  0  0  0  0  0
   -2.7712    0.0000    0.0000 C   0  0  0  0  0  0  0  0  0  0  0  0
   -3.0761    0.8821    0.0000 H   0  0  0  0  0  0  0  0  0  0  0  0
   -1.1509   -1.1115    0.0000 C   0  0  0  0  0  0  0  0  0  0  0  0
   -2.6890   -0.6704    0.0000 C   0  0  0  0  0  0  0  0  0  0  0  0
   -2.7712   -1.6000    0.0000 H   0  0  0  0  0  0  0  0  0  0  0  0
   -3.8399   -1.7820    0.0000 C   0  0  0  0  0  0  0  0  0  0  0  0
   -5.3779   -1.3409    0.0000 H   0  0  0  0  0  0  0  0  0  0  0  0
   -3.4528   -3.3344    0.0000 C   0  0  0  0  0  0  0  0  0  0  0  0
   -4.6038   -4.4458    0.0000 O   0  0  0  0  0  0  0  0  0  0  0  0
   -4.2167   -5.9983    0.0000 H   0  0  0  0  0  0  0  0  0  0  0  0
   -1.9149   -3.7754    0.0000 C   0  0  0  0  0  0  0  0  0  0  0  0
   -1.5278   -5.3278    0.0000 H   0  0  0  0  0  0  0  0  0  0  0  0
   -0.7638   -2.6640    0.0000 C   0  0  0  0  0  0  0  0  0  0  0  0
   -0.2665   -3.3712    0.0000 H   0  0  0  0  0  0  0  0  0  0  0  0
    1.1891   -1.0706    0.0000 C   0  0  0  0  0  0  0  0  0  0  0  0
    2.5746   -0.2707    0.0000 C   0  0  0  0  0  0  0  0  0  0  0  0
    3.9603   -1.0706    0.0000 C   0  0  0  0  0  0  0  0  0  0  0  0
    5.3460   -0.2707    0.0000 H   0  0  0  0  0  0  0  0  0  0  0  0
    3.9603   -2.6706    0.0000 C   0  0  0  0  0  0  0  0  0  0  0  0
    5.3460   -3.4705    0.0000 H   0  0  0  0  0  0  0  0  0  0  0  0
    2.5746   -3.4705    0.0000 C   0  0  0  0  0  0  0  0  0  0  0  0
    2.5746   -5.0706    0.0000 H   0  0  0  0  0  0  0  0  0  0  0  0
    1.1891   -2.6706    0.0000 C   0  0  0  0  0  0  0  0  0  0  0  0
    0.6742   -3.3652    0.0000 H   0  0  0  0  0  0  0  0  0  0  0  0
  1  2  2  0  0  0  0
  2  3  1  0  0  0  0
  3  4  1  0  0  0  0
  4  5  1  0  0  0  0
  5  6  1  0  0  0  0
  6  7  1  0  0  0  0
  6  8  2  0  0  0  0
  8  9  1  0  0  0  0
  8 10  1  0  0  0  0
 10 11  1  0  0  0  0
 11 12  1  0  0  0  0
 10 13  2  0  0  0  0
 13 14  1  0  0  0  0
 13 15  1  0  0  0  0
 15  5  2  0  0  0  0
 15 16  1  0  0  0  0
  4 17  1  0  0  0  0
 17 18  1  0  0  0  0
 18 19  1  0  0  0  0
 18 20  2  0  0  0  0
 20 21  1  0  0  0  0
 20 22  1  0  0  0  0
 22 23  1  0  0  0  0
 23 24  1  0  0  0  0
 22 25  2  0  0  0  0
 25 26  1  0  0  0  0
 25 27  1  0  0  0  0
 27 17  2  0  0  0  0
 27 28  1  0  0  0  0
  4 29  1  0  0  0  0
 29 30  1  0  0  0  0
 30  2  1  0  0  0  0
 30 31  2  0  0  0  0
 31 32  1  0  0  0  0
 31 33  1  0  0  0  0
 33 34  1  0  0  0  0
 33 35  2  0  0  0  0
 35 36  1  0  0  0  0
 35 37  1  0  0  0  0
 37 29  2  0  0  0  0
 37 38  1  0  0  0  0
M  END
> <ChemID>
100120

> <source_casrn>
77-09-8

> <CAS>
77-09-8

> <SMILES>
Oc1ccc(cc1)C1(OC(=O)c2ccccc12)c1ccc(O)cc1

> <NAME>
Phenolphthalein

> <preferred_name>
Phenolphthalein

> <iupac>
3,3-bis(4-hydroxyphenyl)-2-benzofuran-1(3H)-one

> <MPID>
100132

> <dsstox_substance_id>
DTXSID0021125

> <Canonical_QSARr>
Oc1ccc(cc1)C1(OC(=O)c2ccccc12)c1ccc(O)cc1

> <InChI_Code_QSARr>
InChI=1S/C20H14O4/c21-15-9-5-13(6-10-15)20(14-7-11-16(22)12-8-14)18-4-2-1-3-17(18)19(23)24-20/h1-12,21-22H

> <InChI Key_QSARr>
KJFMBFZCATUALV-UHFFFAOYSA-N

> <Salt_Solvent>
?

> <Ready_Biodeg>
0.0

$$$$
100121
  -INDIGO-08031722522D

 11 11  0  0  0  0  0  0  0  0999 V2000
    0.6508   -1.4617    0.0000 Cl  0  0  0  0  0  0  0  0  0  0  0  0
   -0.0000   -0.0000    0.0000 C   0  0  0  0  0  0  0  0  0  0  0  0
   -0.3327    1.5650    0.0000 C   0  0  0  0  0  0  0  0  0  0  0  0
    0.7380    2.7541    0.0000 Cl  0  0  0  0  0  0  0  0  0  0  0  0
   -1.9239    1.7323    0.0000 C   0  0  0  0  0  0  0  0  0  0  0  0
   -2.7239    3.1179    0.0000 Cl  0  0  0  0  0  0  0  0  0  0  0  0
   -2.5747    0.2706    0.0000 C   0  0  0  0  0  0  0  0  0  0  0  0
   -4.1397   -0.0621    0.0000 Cl  0  0  0  0  0  0  0  0  0  0  0  0
   -1.3857   -0.8000    0.0000 C   0  0  0  0  0  0  0  0  0  0  0  0
   -1.5529   -2.3912    0.0000 Cl  0  0  0  0  0  0  0  0  0  0  0  0
    1.5217    0.4944    0.0000 Cl  0  0  0  0  0  0  0  0  0  0  0  0
  1  2  1  0  0  0  0
  2  3  1  0  0  0  0
  3  4  1  0  0  0  0
  3  5  2  0  0  0  0
  5  6  1  0  0  0  0
  5  7  1  0  0  0  0
  7  8  1  0  0  0  0
  7  9  2  0  0  0  0
  9  2  1  0  0  0  0
  9 10  1  0  0  0  0
  2 11  1  0  0  0  0
M  END
> <ChemID>
100121

> <source_casrn>
77-47-4

> <CAS>
77-47-4

> <SMILES>
ClC1(Cl)C(Cl)=C(Cl)C(Cl)=C1Cl

> <NAME>
1,3-Cyclopentadiene, 1,2,3,4,5,5-hexachloro-

> <preferred_name>
Hexachlorocyclopentadiene

> <iupac>
1,2,3,4,5,5-hexachlorocyclopenta-1,3-diene

> <MPID>
100133

> <dsstox_substance_id>
DTXSID2020688

> <Canonical_QSARr>
ClC1(Cl)C(Cl)=C(Cl)C(Cl)=C1Cl

> <InChI_Code_QSARr>
InChI=1S/C5Cl6/c6-1-2(7)4(9)5(10,11)3(1)8

> <InChI Key_QSARr>
VUNCWTMEJYMOOR-UHFFFAOYSA-N

> <Salt_Solvent>
?

> <Ready_Biodeg>
0.0

$$$$
100124
  -INDIGO-08031722522D

 22 24  0  0  0  0  0  0  0  0999 V2000
    0.0000    1.6000    0.0000 C   0  0  0  0  0  0  0  0  0  0  0  0
    0.0000    3.2000    0.0000 H   0  0  0  0  0  0  0  0  0  0  0  0
   -1.5217    2.0945    0.0000 C   0  0  0  0  0  0  0  0  0  0  0  0
   -1.5217    3.6944    0.0000 H   0  0  0  0  0  0  0  0  0  0  0  0
   -2.4621    0.8000    0.0000 C   0  0  0  0  0  0  0  0  0  0  0  0
   -3.9456    1.3994    0.0000 H   0  0  0  0  0  0  0  0  0  0  0  0
   -3.9456    0.2006    0.0000 H   0  0  0  0  0  0  0  0  0  0  0  0
   -1.5217   -0.4945    0.0000 C   0  0  0  0  0  0  0  0  0  0  0  0
   -1.5217   -2.0944    0.0000 H   0  0  0  0  0  0  0  0  0  0  0  0
   -3.0434    0.0000    0.0000 C   0  0  0  0  0  0  0  0  0  0  0  0
   -4.3378   -0.9405    0.0000 H   0  0  0  0  0  0  0  0  0  0  0  0
   -3.0434    1.6000    0.0000 C   0  0  0  0  0  0  0  0  0  0  0  0
   -4.3378    2.5405    0.0000 H   0  0  0  0  0  0  0  0  0  0  0  0
    0.0000    0.0000    0.0000 C   0  0  0  0  0  0  0  0  0  0  0  0
    0.0000   -1.6000    0.0000 H   0  0  0  0  0  0  0  0  0  0  0  0
    1.5217   -0.4945    0.0000 C   0  0  0  0  0  0  0  0  0  0  0  0
    0.8710   -1.9561    0.0000 H   0  0  0  0  0  0  0  0  0  0  0  0
    2.9073   -1.2944    0.0000 H   0  0  0  0  0  0  0  0  0  0  0  0
    2.4621    0.8000    0.0000 C   0  0  0  0  0  0  0  0  0  0  0  0
    4.0621    0.8000    0.0000 H   0  0  0  0  0  0  0  0  0  0  0  0
    1.5217    2.0945    0.0000 C   0  0  0  0  0  0  0  0  0  0  0  0
    2.0161    3.6161    0.0000 H   0  0  0  0  0  0  0  0  0  0  0  0
  1  2  1  0  0  0  0
  1  3  1  0  0  0  0
  3  4  1  0  0  0  0
  3  5  1  0  0  0  0
  5  6  1  0  0  0  0
  5  7  1  0  0  0  0
  5  8  1  0  0  0  0
  8  9  1  0  0  0  0
  8 10  1  0  0  0  0
 10 11  1  0  0  0  0
 10 12  2  0  0  0  0
 12  3  1  0  0  0  0
 12 13  1  0  0  0  0
  8 14  1  0  0  0  0
 14  1  1  0  0  0  0
 14 15  1  0  0  0  0
 14 16  1  0  0  0  0
 16 17  1  0  0  0  0
 16 18  1  0  0  0  0
 16 19  1  0  0  0  0
 19 20  1  0  0  0  0
 19 21  2  0  0  0  0
 21  1  1  0  0  0  0
 21 22  1  0  0  0  0
M  END
> <ChemID>
100124

> <source_casrn>
77-73-6

> <CAS>
77-73-6

> <SMILES>
C1C=CC2C3CC(C=C3)C21

> <NAME>
4,7-Methano-1H-indene, 3a,4,7,7a-tetrahydro-

> <preferred_name>
Dicyclopentadiene

> <iupac>
3a,4,7,7a-tetrahydro-1H-4,7-methanoindene

> <MPID>
100135

> <dsstox_substance_id>
DTXSID5025023

> <Canonical_QSARr>
C1C=CC2C3CC(C=C3)C21

> <InChI_Code_QSARr>
InChI=1S/C10H12/c1-2-9-7-4-5-8(6-7)10(9)3-1/h1-2,4-5,7-10H,3,6H2

> <InChI Key_QSARr>
HECLRDQVFMWTQS-UHFFFAOYSA-N

> <Salt_Solvent>
?

> <Ready_Biodeg>
0.0

$$$$
100125
  -INDIGO-08031722522D

 62 61  0  0  0  0  0  0  0  0999 V2000
   -0.0001    0.0001    0.0000 C   0  0  0  0  0  0  0  0  0  0  0  0
   -0.0001    1.5999    0.0000 C   0  0  0  0  0  0  0  0  0  0  0  0
   -1.2258    2.6285    0.0000 O   0  0  0  0  0  0  0  0  0  0  0  0
   -0.9478    4.2042    0.0000 C   0  0  0  0  0  0  0  0  0  0  0  0
    0.6506    4.1344    0.0000 H   0  0  0  0  0  0  0  0  0  0  0  0
    0.2319    5.2851    0.0000 H   0  0  0  0  0  0  0  0  0  0  0  0
   -2.1734    5.2325    0.0000 C   0  0  0  0  0  0  0  0  0  0  0  0
   -3.7720    5.3023    0.0000 H   0  0  0  0  0  0  0  0  0  0  0  0
   -3.3530    4.1518    0.0000 H   0  0  0  0  0  0  0  0  0  0  0  0
   -1.8957    6.8082    0.0000 C   0  0  0  0  0  0  0  0  0  0  0  0
   -0.2970    6.7384    0.0000 H   0  0  0  0  0  0  0  0  0  0  0  0
   -0.7161    7.8892    0.0000 H   0  0  0  0  0  0  0  0  0  0  0  0
   -3.1213    7.8368    0.0000 C   0  0  0  0  0  0  0  0  0  0  0  0
   -4.3470    8.8651    0.0000 H   0  0  0  0  0  0  0  0  0  0  0  0
   -2.8436    9.4125    0.0000 H   0  0  0  0  0  0  0  0  0  0  0  0
   -4.6250    7.2895    0.0000 H   0  0  0  0  0  0  0  0  0  0  0  0
    1.3857    2.3999    0.0000 O   0  0  0  0  0  0  0  0  0  0  0  0
    1.6002    0.0001    0.0000 C   0  0  0  0  0  0  0  0  0  0  0  0
    1.8087   -1.5862    0.0000 H   0  0  0  0  0  0  0  0  0  0  0  0
    2.8695   -0.9740    0.0000 H   0  0  0  0  0  0  0  0  0  0  0  0
    2.8258    1.0285    0.0000 C   0  0  0  0  0  0  0  0  0  0  0  0
    4.3291    0.4811    0.0000 O   0  0  0  0  0  0  0  0  0  0  0  0
    5.5548    1.5097    0.0000 C   0  0  0  0  0  0  0  0  0  0  0  0
    5.9013    3.0717    0.0000 H   0  0  0  0  0  0  0  0  0  0  0  0
    4.6952    2.8591    0.0000 H   0  0  0  0  0  0  0  0  0  0  0  0
    7.0584    0.9624    0.0000 C   0  0  0  0  0  0  0  0  0  0  0  0
    6.7122   -0.5996    0.0000 H   0  0  0  0  0  0  0  0  0  0  0  0
    7.9180   -0.3870    0.0000 H   0  0  0  0  0  0  0  0  0  0  0  0
    8.2841    1.9910    0.0000 C   0  0  0  0  0  0  0  0  0  0  0  0
    8.6303    3.5530    0.0000 H   0  0  0  0  0  0  0  0  0  0  0  0
    7.4245    3.3404    0.0000 H   0  0  0  0  0  0  0  0  0  0  0  0
    9.7874    1.4437    0.0000 C   0  0  0  0  0  0  0  0  0  0  0  0
   11.2910    0.8966    0.0000 H   0  0  0  0  0  0  0  0  0  0  0  0
   11.0134    2.4722    0.0000 H   0  0  0  0  0  0  0  0  0  0  0  0
   10.0654   -0.1320    0.0000 H   0  0  0  0  0  0  0  0  0  0  0  0
    2.5478    2.6041    0.0000 O   0  0  0  0  0  0  0  0  0  0  0  0
   -0.0001   -1.5999    0.0000 O   0  0  0  0  0  0  0  0  0  0  0  0
    1.2258   -2.6285    0.0000 C   0  0  0  0  0  0  0  0  0  0  0  0
    0.9478   -4.2042    0.0000 C   0  0  0  0  0  0  0  0  0  0  0  0
    0.6701   -5.7798    0.0000 H   0  0  0  0  0  0  0  0  0  0  0  0
    2.1734   -5.2325    0.0000 H   0  0  0  0  0  0  0  0  0  0  0  0
   -0.5555   -4.7515    0.0000 H   0  0  0  0  0  0  0  0  0  0  0  0
    2.7291   -2.0812    0.0000 O   0  0  0  0  0  0  0  0  0  0  0  0
   -1.6001    0.0001    0.0000 C   0  0  0  0  0  0  0  0  0  0  0  0
   -1.8090    1.5862    0.0000 H   0  0  0  0  0  0  0  0  0  0  0  0
   -2.8694    0.9740    0.0000 H   0  0  0  0  0  0  0  0  0  0  0  0
   -2.4001   -1.3857    0.0000 C   0  0  0  0  0  0  0  0  0  0  0  0
   -1.6001   -2.7713    0.0000 O   0  0  0  0  0  0  0  0  0  0  0  0
   -4.0001   -1.3857    0.0000 O   0  0  0  0  0  0  0  0  0  0  0  0
   -4.8001   -2.7713    0.0000 C   0  0  0  0  0  0  0  0  0  0  0  0
   -4.5912   -4.3576    0.0000 H   0  0  0  0  0  0  0  0  0  0  0  0
   -3.5308   -3.7454    0.0000 H   0  0  0  0  0  0  0  0  0  0  0  0
   -6.4001   -2.7713    0.0000 C   0  0  0  0  0  0  0  0  0  0  0  0
   -6.6089   -1.1849    0.0000 H   0  0  0  0  0  0  0  0  0  0  0  0
   -7.6694   -1.7972    0.0000 H   0  0  0  0  0  0  0  0  0  0  0  0
   -7.2000   -4.1569    0.0000 C   0  0  0  0  0  0  0  0  0  0  0  0
   -6.9912   -5.7432    0.0000 H   0  0  0  0  0  0  0  0  0  0  0  0
   -5.9307   -5.1310    0.0000 H   0  0  0  0  0  0  0  0  0  0  0  0
   -8.8000   -4.1569    0.0000 C   0  0  0  0  0  0  0  0  0  0  0  0
  -10.4000   -4.1569    0.0000 H   0  0  0  0  0  0  0  0  0  0  0  0
   -9.6000   -5.5425    0.0000 H   0  0  0  0  0  0  0  0  0  0  0  0
   -9.6000   -2.7713    0.0000 H   0  0  0  0  0  0  0  0  0  0  0  0
  1  2  1  0  0  0  0
  2  3  1  0  0  0  0
  3  4  1  0  0  0  0
  4  5  1  0  0  0  0
  4  6  1  0  0  0  0
  4  7  1  0  0  0  0
  7  8  1  0  0  0  0
  7  9  1  0  0  0  0
  7 10  1  0  0  0  0
 10 11  1  0  0  0  0
 10 12  1  0  0  0  0
 10 13  1  0  0  0  0
 13 14  1  0  0  0  0
 13 15  1  0  0  0  0
 13 16  1  0  0  0  0
  2 17  2  0  0  0  0
  1 18  1  0  0  0  0
 18 19  1  0  0  0  0
 18 20  1  0  0  0  0
 18 21  1  0  0  0  0
 21 22  1  0  0  0  0
 22 23  1  0  0  0  0
 23 24  1  0  0  0  0
 23 25  1  0  0  0  0
 23 26  1  0  0  0  0
 26 27  1  0  0  0  0
 26 28  1  0  0  0  0
 26 29  1  0  0  0  0
 29 30  1  0  0  0  0
 29 31  1  0  0  0  0
 29 32  1  0  0  0  0
 32 33  1  0  0  0  0
 32 34  1  0  0  0  0
 32 35  1  0  0  0  0
 21 36  2  0  0  0  0
  1 37  1  0  0  0  0
 37 38  1  0  0  0  0
 38 39  1  0  0  0  0
 39 40  1  0  0  0  0
 39 41  1  0  0  0  0
 39 42  1  0  0  0  0
 38 43  2  0  0  0  0
  1 44  1  0  0  0  0
 44 45  1  0  0  0  0
 44 46  1  0  0  0  0
 44 47  1  0  0  0  0
 47 48  2  0  0  0  0
 47 49  1  0  0  0  0
 49 50  1  0  0  0  0
 50 51  1  0  0  0  0
 50 52  1  0  0  0  0
 50 53  1  0  0  0  0
 53 54  1  0  0  0  0
 53 55  1  0  0  0  0
 53 56  1  0  0  0  0
 56 57  1  0  0  0  0
 56 58  1  0  0  0  0
 56 59  1  0  0  0  0
 59 60  1  0  0  0  0
 59 61  1  0  0  0  0
 59 62  1  0  0  0  0
M  END
> <ChemID>
100125

> <source_casrn>
77-90-7

> <CAS>
77-90-7

> <SMILES>
CC(=O)OC(CC(=O)OCCCC)(CC(=O)OCCCC)C(=O)OCCCC

> <NAME>
1,2,3-Propanetricarboxylic acid, 2-(acetyloxy)-, tributyl ester

> <preferred_name>
Acetyl tributyl citrate

> <iupac>
tributyl 2-(acetyloxy)propane-1,2,3-tricarboxylate

> <MPID>
100136

> <dsstox_substance_id>
DTXSID2026446

> <Canonical_QSARr>
CC(=O)OC(CC(=O)OCCCC)(CC(=O)OCCCC)C(=O)OCCCC

> <InChI_Code_QSARr>
InChI=1S/C20H34O8/c1-5-8-11-25-17(22)14-20(28-16(4)21,19(24)27-13-10-7-3)15-18(23)26-12-9-6-2/h5-15H2,1-4H3

> <InChI Key_QSARr>
QZCLKYGREBVARF-UHFFFAOYSA-N

> <Salt_Solvent>
?

> <Ready_Biodeg>
1.0

$$$$
100126
  -INDIGO-08031722522D

 21 20  0  0  0  0  0  0  0  0999 V2000
    0.0000   -1.6000    0.0000 O   0  0  0  0  0  0  0  0  0  0  0  0
    1.3856   -2.4000    0.0000 H   0  0  0  0  0  0  0  0  0  0  0  0
    0.0000    0.0000    0.0000 C   0  0  0  0  0  0  0  0  0  0  0  0
    1.6000    0.0000    0.0000 C   0  0  0  0  0  0  0  0  0  0  0  0
    1.8088    1.5863    0.0000 H   0  0  0  0  0  0  0  0  0  0  0  0
    2.8694    0.9740    0.0000 H   0  0  0  0  0  0  0  0  0  0  0  0
    2.8257   -1.0284    0.0000 C   0  0  0  0  0  0  0  0  0  0  0  0
    2.5479   -2.6042    0.0000 O   0  0  0  0  0  0  0  0  0  0  0  0
    4.3291   -0.4812    0.0000 O   0  0  0  0  0  0  0  0  0  0  0  0
    5.5549   -1.5097    0.0000 H   0  0  0  0  0  0  0  0  0  0  0  0
   -1.5757   -0.2779    0.0000 C   0  0  0  0  0  0  0  0  0  0  0  0
   -2.0567    1.2481    0.0000 H   0  0  0  0  0  0  0  0  0  0  0  0
   -2.9949    0.4609    0.0000 H   0  0  0  0  0  0  0  0  0  0  0  0
   -2.1229   -1.7814    0.0000 C   0  0  0  0  0  0  0  0  0  0  0  0
   -1.0944   -3.0070    0.0000 O   0  0  0  0  0  0  0  0  0  0  0  0
   -3.6986   -2.0592    0.0000 O   0  0  0  0  0  0  0  0  0  0  0  0
   -4.2458   -3.5627    0.0000 H   0  0  0  0  0  0  0  0  0  0  0  0
    0.0000    1.6000    0.0000 C   0  0  0  0  0  0  0  0  0  0  0  0
    1.2257    2.6285    0.0000 O   0  0  0  0  0  0  0  0  0  0  0  0
   -1.3856    2.4000    0.0000 O   0  0  0  0  0  0  0  0  0  0  0  0
   -1.3856    4.0000    0.0000 H   0  0  0  0  0  0  0  0  0  0  0  0
  1  2  1  0  0  0  0
  1  3  1  0  0  0  0
  3  4  1  0  0  0  0
  4  5  1  0  0  0  0
  4  6  1  0  0  0  0
  4  7  1  0  0  0  0
  7  8  2  0  0  0  0
  7  9  1  0  0  0  0
  9 10  1  0  0  0  0
  3 11  1  0  0  0  0
 11 12  1  0  0  0  0
 11 13  1  0  0  0  0
 11 14  1  0  0  0  0
 14 15  2  0  0  0  0
 14 16  1  0  0  0  0
 16 17  1  0  0  0  0
  3 18  1  0  0  0  0
 18 19  2  0  0  0  0
 18 20  1  0  0  0  0
 20 21  1  0  0  0  0
M  END
> <ChemID>
100126

> <source_casrn>
77-92-9

> <CAS>
77-92-9

> <SMILES>
OC(=O)C(O)(CC(O)=O)CC(O)=O

> <NAME>
CITRIC ACID

> <preferred_name>
Citric acid

> <iupac>
2-hydroxypropane-1,2,3-tricarboxylic acid

> <MPID>
100137

> <dsstox_substance_id>
DTXSID3020332

> <Canonical_QSARr>
OC(=O)C(O)(CC(O)=O)CC(O)=O

> <InChI_Code_QSARr>
InChI=1S/C6H8O7/c7-3(8)1-6(13,5(11)12)2-4(9)10/h13H,1-2H2,(H,7,8)(H,9,10)(H,11,12)

> <InChI Key_QSARr>
KRKNYBCHXYNGOX-UHFFFAOYSA-N

> <Salt_Solvent>
?

> <Ready_Biodeg>
1.0

$$$$
100128
  -INDIGO-08031722522D

 47 49  0  0  0  0  0  0  0  0999 V2000
    4.0001    1.3857    0.0000 P   0  0  0  0  0  0  0  0  0  0  0  0
    5.6001    1.3857    0.0000 O   0  0  0  0  0  0  0  0  0  0  0  0
    6.8257    0.3572    0.0000 C   0  0  0  0  0  0  0  0  0  0  0  0
    8.3291    0.9045    0.0000 C   0  0  0  0  0  0  0  0  0  0  0  0
    8.6070    2.4801    0.0000 C   0  0  0  0  0  0  0  0  0  0  0  0
   10.1106    3.0274    0.0000 H   0  0  0  0  0  0  0  0  0  0  0  0
    9.8328    1.4517    0.0000 H   0  0  0  0  0  0  0  0  0  0  0  0
    7.1035    1.9328    0.0000 H   0  0  0  0  0  0  0  0  0  0  0  0
    9.5549   -0.1241    0.0000 C   0  0  0  0  0  0  0  0  0  0  0  0
   11.0584    0.4232    0.0000 H   0  0  0  0  0  0  0  0  0  0  0  0
    9.2771   -1.6997    0.0000 C   0  0  0  0  0  0  0  0  0  0  0  0
   10.5027   -2.7282    0.0000 H   0  0  0  0  0  0  0  0  0  0  0  0
    7.7736   -2.2470    0.0000 C   0  0  0  0  0  0  0  0  0  0  0  0
    7.4958   -3.8226    0.0000 H   0  0  0  0  0  0  0  0  0  0  0  0
    6.5478   -1.2184    0.0000 C   0  0  0  0  0  0  0  0  0  0  0  0
    5.0444   -1.7657    0.0000 H   0  0  0  0  0  0  0  0  0  0  0  0
    4.8000    2.7712    0.0000 O   0  0  0  0  0  0  0  0  0  0  0  0
    4.0001    4.1569    0.0000 C   0  0  0  0  0  0  0  0  0  0  0  0
    4.8000    5.5426    0.0000 C   0  0  0  0  0  0  0  0  0  0  0  0
    6.3999    5.5426    0.0000 C   0  0  0  0  0  0  0  0  0  0  0  0
    7.9999    5.5426    0.0000 H   0  0  0  0  0  0  0  0  0  0  0  0
    7.2000    6.9281    0.0000 H   0  0  0  0  0  0  0  0  0  0  0  0
    7.2000    4.1569    0.0000 H   0  0  0  0  0  0  0  0  0  0  0  0
    4.0001    6.9281    0.0000 C   0  0  0  0  0  0  0  0  0  0  0  0
    4.8000    8.3138    0.0000 H   0  0  0  0  0  0  0  0  0  0  0  0
    2.3999    6.9281    0.0000 C   0  0  0  0  0  0  0  0  0  0  0  0
    1.6000    8.3138    0.0000 H   0  0  0  0  0  0  0  0  0  0  0  0
    1.6000    5.5426    0.0000 C   0  0  0  0  0  0  0  0  0  0  0  0
    0.0001    5.5426    0.0000 H   0  0  0  0  0  0  0  0  0  0  0  0
    2.3999    4.1569    0.0000 C   0  0  0  0  0  0  0  0  0  0  0  0
    1.6000    2.7712    0.0000 H   0  0  0  0  0  0  0  0  0  0  0  0
    2.3999    1.3857    0.0000 O   0  0  0  0  0  0  0  0  0  0  0  0
    1.6000    0.0000    0.0000 C   0  0  0  0  0  0  0  0  0  0  0  0
    0.0001    0.0000    0.0000 C   0  0  0  0  0  0  0  0  0  0  0  0
   -0.8000    1.3857    0.0000 C   0  0  0  0  0  0  0  0  0  0  0  0
   -1.5999    2.7712    0.0000 H   0  0  0  0  0  0  0  0  0  0  0  0
   -2.4000    1.3857    0.0000 H   0  0  0  0  0  0  0  0  0  0  0  0
    0.0001    2.7712    0.0000 H   0  0  0  0  0  0  0  0  0  0  0  0
   -0.8000   -1.3857    0.0000 C   0  0  0  0  0  0  0  0  0  0  0  0
   -2.4000   -1.3857    0.0000 H   0  0  0  0  0  0  0  0  0  0  0  0
    0.0001   -2.7712    0.0000 C   0  0  0  0  0  0  0  0  0  0  0  0
   -0.8000   -4.1569    0.0000 H   0  0  0  0  0  0  0  0  0  0  0  0
    1.6000   -2.7712    0.0000 C   0  0  0  0  0  0  0  0  0  0  0  0
    2.3999   -4.1569    0.0000 H   0  0  0  0  0  0  0  0  0  0  0  0
    2.3999   -1.3857    0.0000 C   0  0  0  0  0  0  0  0  0  0  0  0
    4.0001   -1.3857    0.0000 H   0  0  0  0  0  0  0  0  0  0  0  0
    3.2000    2.7712    0.0000 O   0  0  0  0  0  0  0  0  0  0  0  0
  1  2  1  0  0  0  0
  2  3  1  0  0  0  0
  3  4  1  0  0  0  0
  4  5  1  0  0  0  0
  5  6  1  0  0  0  0
  5  7  1  0  0  0  0
  5  8  1  0  0  0  0
  4  9  2  0  0  0  0
  9 10  1  0  0  0  0
  9 11  1  0  0  0  0
 11 12  1  0  0  0  0
 11 13  2  0  0  0  0
 13 14  1  0  0  0  0
 13 15  1  0  0  0  0
 15  3  2  0  0  0  0
 15 16  1  0  0  0  0
  1 17  1  0  0  0  0
 17 18  1  0  0  0  0
 18 19  1  0  0  0  0
 19 20  1  0  0  0  0
 20 21  1  0  0  0  0
 20 22  1  0  0  0  0
 20 23  1  0  0  0  0
 19 24  2  0  0  0  0
 24 25  1  0  0  0  0
 24 26  1  0  0  0  0
 26 27  1  0  0  0  0
 26 28  2  0  0  0  0
 28 29  1  0  0  0  0
 28 30  1  0  0  0  0
 30 18  2  0  0  0  0
 30 31  1  0  0  0  0
  1 32  1  0  0  0  0
 32 33  1  0  0  0  0
 33 34  1  0  0  0  0
 34 35  1  0  0  0  0
 35 36  1  0  0  0  0
 35 37  1  0  0  0  0
 35 38  1  0  0  0  0
 34 39  2  0  0  0  0
 39 40  1  0  0  0  0
 39 41  1  0  0  0  0
 41 42  1  0  0  0  0
 41 43  2  0  0  0  0
 43 44  1  0  0  0  0
 43 45  1  0  0  0  0
 45 33  2  0  0  0  0
 45 46  1  0  0  0  0
  1 47  2  0  0  0  0
M  END
> <ChemID>
100128

> <source_casrn>
78-30-8

> <CAS>
78-30-8

> <SMILES>
O=P(Oc(c(ccc1)C)c1)(Oc(c(ccc2)C)c2)Oc(c(ccc3)C)c3

> <NAME>
Phosphoric acid, tris(2-methylphenyl) ester

> <preferred_name>
Tri-o-cresyl phosphate

> <iupac>
tris(2-methylphenyl) phosphate

> <MPID>
100139

> <dsstox_substance_id>
DTXSID6032192

> <Canonical_QSARr>
Cc1ccccc1OP(=O)(Oc1ccccc1C)Oc1ccccc1C

> <InChI_Code_QSARr>
InChI=1S/C21H21O4P/c1-16-10-4-7-13-19(16)23-26(22,24-20-14-8-5-11-17(20)2)25-21-15-9-6-12-18(21)3/h4-15H,1-3H3

> <InChI Key_QSARr>
YSMRWXYRXBRSND-UHFFFAOYSA-N

> <Salt_Solvent>
?

> <Ready_Biodeg>
1.0

$$$$
100129
  -INDIGO-08031722522D

 26 25  0  0  0  0  0  0  0  0999 V2000
    0.8001   -1.3856    0.0000 O   0  0  0  0  0  0  0  0  0  0  0  0
    0.0001    0.0000    0.0000 P   0  0  0  0  0  0  0  0  0  0  0  0
    1.6001    0.0000    0.0000 O   0  0  0  0  0  0  0  0  0  0  0  0
    2.4000   -1.3856    0.0000 C   0  0  0  0  0  0  0  0  0  0  0  0
    1.1306   -2.3596    0.0000 H   0  0  0  0  0  0  0  0  0  0  0  0
    2.1912   -2.9720    0.0000 H   0  0  0  0  0  0  0  0  0  0  0  0
    4.0000   -1.3856    0.0000 C   0  0  0  0  0  0  0  0  0  0  0  0
    5.6000   -1.3856    0.0000 H   0  0  0  0  0  0  0  0  0  0  0  0
    4.8000   -2.7712    0.0000 H   0  0  0  0  0  0  0  0  0  0  0  0
    4.8000    0.0000    0.0000 H   0  0  0  0  0  0  0  0  0  0  0  0
    0.8001    1.3857    0.0000 O   0  0  0  0  0  0  0  0  0  0  0  0
    0.0001    2.7713    0.0000 C   0  0  0  0  0  0  0  0  0  0  0  0
   -1.4782    3.3836    0.0000 H   0  0  0  0  0  0  0  0  0  0  0  0
   -1.4782    2.1590    0.0000 H   0  0  0  0  0  0  0  0  0  0  0  0
    0.8001    4.1569    0.0000 C   0  0  0  0  0  0  0  0  0  0  0  0
    1.6001    5.5426    0.0000 H   0  0  0  0  0  0  0  0  0  0  0  0
    0.0001    5.5426    0.0000 H   0  0  0  0  0  0  0  0  0  0  0  0
    2.4000    4.1569    0.0000 H   0  0  0  0  0  0  0  0  0  0  0  0
   -1.6001    0.0000    0.0000 O   0  0  0  0  0  0  0  0  0  0  0  0
   -2.4000   -1.3856    0.0000 C   0  0  0  0  0  0  0  0  0  0  0  0
   -2.1912   -2.9720    0.0000 H   0  0  0  0  0  0  0  0  0  0  0  0
   -1.1306   -2.3596    0.0000 H   0  0  0  0  0  0  0  0  0  0  0  0
   -4.0000   -1.3856    0.0000 C   0  0  0  0  0  0  0  0  0  0  0  0
   -5.6000   -1.3856    0.0000 H   0  0  0  0  0  0  0  0  0  0  0  0
   -4.8000   -2.7712    0.0000 H   0  0  0  0  0  0  0  0  0  0  0  0
   -4.8000    0.0000    0.0000 H   0  0  0  0  0  0  0  0  0  0  0  0
  1  2  2  0  0  0  0
  2  3  1  0  0  0  0
  3  4  1  0  0  0  0
  4  5  1  0  0  0  0
  4  6  1  0  0  0  0
  4  7  1  0  0  0  0
  7  8  1  0  0  0  0
  7  9  1  0  0  0  0
  7 10  1  0  0  0  0
  2 11  1  0  0  0  0
 11 12  1  0  0  0  0
 12 13  1  0  0  0  0
 12 14  1  0  0  0  0
 12 15  1  0  0  0  0
 15 16  1  0  0  0  0
 15 17  1  0  0  0  0
 15 18  1  0  0  0  0
  2 19  1  0  0  0  0
 19 20  1  0  0  0  0
 20 21  1  0  0  0  0
 20 22  1  0  0  0  0
 20 23  1  0  0  0  0
 23 24  1  0  0  0  0
 23 25  1  0  0  0  0
 23 26  1  0  0  0  0
M  END
> <ChemID>
100129

> <source_casrn>
78-40-0

> <CAS>
78-40-0

> <SMILES>
CCOP(=O)(OCC)OCC

> <NAME>
Phosphoric acid, triethyl ester

> <preferred_name>
Triethyl phosphate

> <iupac>
triethyl phosphate

> <MPID>
100140

> <dsstox_substance_id>
DTXSID8026228

> <Canonical_QSARr>
CCOP(=O)(OCC)OCC

> <InChI_Code_QSARr>
InChI=1S/C6H15O4P/c1-4-8-11(7,9-5-2)10-6-3/h4-6H2,1-3H3

> <InChI Key_QSARr>
DQWPFSLDHJDLRL-UHFFFAOYSA-N

> <Salt_Solvent>
?

> <Ready_Biodeg>
0.0

$$$$
100130
  -INDIGO-08031722522D

 80 79  0  0  0  0  0  0  0  0999 V2000
    4.7513   -0.5557    0.0000 O   0  0  0  0  0  0  0  0  0  0  0  0
    4.2043    0.9478    0.0000 P   0  0  0  0  0  0  0  0  0  0  0  0
    5.7798    0.6699    0.0000 O   0  0  0  0  0  0  0  0  0  0  0  0
    6.3272   -0.8336    0.0000 C   0  0  0  0  0  0  0  0  0  0  0  0
    5.8460   -2.3595    0.0000 H   0  0  0  0  0  0  0  0  0  0  0  0
    4.9078   -1.5722    0.0000 H   0  0  0  0  0  0  0  0  0  0  0  0
    7.9027   -1.1114    0.0000 C   0  0  0  0  0  0  0  0  0  0  0  0
    8.1805    0.4643    0.0000 H   0  0  0  0  0  0  0  0  0  0  0  0
    9.4785   -1.3891    0.0000 C   0  0  0  0  0  0  0  0  0  0  0  0
    9.4085    0.2094    0.0000 H   0  0  0  0  0  0  0  0  0  0  0  0
   10.5593   -0.2095    0.0000 H   0  0  0  0  0  0  0  0  0  0  0  0
   10.7041   -2.4176    0.0000 C   0  0  0  0  0  0  0  0  0  0  0  0
   11.0506   -3.9797    0.0000 H   0  0  0  0  0  0  0  0  0  0  0  0
    9.8444   -3.7672    0.0000 H   0  0  0  0  0  0  0  0  0  0  0  0
   12.2077   -1.8705    0.0000 C   0  0  0  0  0  0  0  0  0  0  0  0
   11.8615   -0.3084    0.0000 H   0  0  0  0  0  0  0  0  0  0  0  0
   13.0674   -0.5210    0.0000 H   0  0  0  0  0  0  0  0  0  0  0  0
   13.4332   -2.8988    0.0000 C   0  0  0  0  0  0  0  0  0  0  0  0
   14.6590   -3.9274    0.0000 H   0  0  0  0  0  0  0  0  0  0  0  0
   14.9368   -2.3517    0.0000 H   0  0  0  0  0  0  0  0  0  0  0  0
   13.1554   -4.4746    0.0000 H   0  0  0  0  0  0  0  0  0  0  0  0
    7.6249   -2.6869    0.0000 C   0  0  0  0  0  0  0  0  0  0  0  0
    9.2112   -2.8958    0.0000 H   0  0  0  0  0  0  0  0  0  0  0  0
    8.5989   -3.9563    0.0000 H   0  0  0  0  0  0  0  0  0  0  0  0
    6.2394   -3.4870    0.0000 C   0  0  0  0  0  0  0  0  0  0  0  0
    6.2394   -5.0870    0.0000 H   0  0  0  0  0  0  0  0  0  0  0  0
    4.8536   -4.2870    0.0000 H   0  0  0  0  0  0  0  0  0  0  0  0
    7.6249   -4.2870    0.0000 H   0  0  0  0  0  0  0  0  0  0  0  0
    5.2325    2.1734    0.0000 O   0  0  0  0  0  0  0  0  0  0  0  0
    4.6855    3.6769    0.0000 C   0  0  0  0  0  0  0  0  0  0  0  0
    3.1232    3.3308    0.0000 H   0  0  0  0  0  0  0  0  0  0  0  0
    3.3361    4.5367    0.0000 H   0  0  0  0  0  0  0  0  0  0  0  0
    5.7139    4.9026    0.0000 C   0  0  0  0  0  0  0  0  0  0  0  0
    6.7424    3.6769    0.0000 H   0  0  0  0  0  0  0  0  0  0  0  0
    6.9395    5.9312    0.0000 C   0  0  0  0  0  0  0  0  0  0  0  0
    8.4656    5.4500    0.0000 H   0  0  0  0  0  0  0  0  0  0  0  0
    7.6784    4.5119    0.0000 H   0  0  0  0  0  0  0  0  0  0  0  0
    7.7396    7.3168    0.0000 C   0  0  0  0  0  0  0  0  0  0  0  0
    6.4700    8.2907    0.0000 H   0  0  0  0  0  0  0  0  0  0  0  0
    7.5305    8.9032    0.0000 H   0  0  0  0  0  0  0  0  0  0  0  0
    9.3395    7.3168    0.0000 C   0  0  0  0  0  0  0  0  0  0  0  0
   10.6087    6.3429    0.0000 H   0  0  0  0  0  0  0  0  0  0  0  0
    9.5482    5.7304    0.0000 H   0  0  0  0  0  0  0  0  0  0  0  0
   10.1396    8.7024    0.0000 C   0  0  0  0  0  0  0  0  0  0  0  0
   10.9394   10.0881    0.0000 H   0  0  0  0  0  0  0  0  0  0  0  0
   11.7395    8.7024    0.0000 H   0  0  0  0  0  0  0  0  0  0  0  0
    9.3395   10.0881    0.0000 H   0  0  0  0  0  0  0  0  0  0  0  0
    4.6855    6.1284    0.0000 C   0  0  0  0  0  0  0  0  0  0  0  0
    4.6154    7.7269    0.0000 H   0  0  0  0  0  0  0  0  0  0  0  0
    5.7662    7.3080    0.0000 H   0  0  0  0  0  0  0  0  0  0  0  0
    3.1096    5.8506    0.0000 C   0  0  0  0  0  0  0  0  0  0  0  0
    2.0811    7.0762    0.0000 H   0  0  0  0  0  0  0  0  0  0  0  0
    3.6570    7.3541    0.0000 H   0  0  0  0  0  0  0  0  0  0  0  0
    1.5341    5.5727    0.0000 H   0  0  0  0  0  0  0  0  0  0  0  0
    2.6285    1.2257    0.0000 O   0  0  0  0  0  0  0  0  0  0  0  0
    1.6000    0.0000    0.0000 C   0  0  0  0  0  0  0  0  0  0  0  0
    2.8695   -0.9741    0.0000 H   0  0  0  0  0  0  0  0  0  0  0  0
    1.8087   -1.5864    0.0000 H   0  0  0  0  0  0  0  0  0  0  0  0
    0.0001    0.0000    0.0000 C   0  0  0  0  0  0  0  0  0  0  0  0
   -1.5999    0.0000    0.0000 H   0  0  0  0  0  0  0  0  0  0  0  0
   -0.5473   -1.5035    0.0000 C   0  0  0  0  0  0  0  0  0  0  0  0
    0.8721   -2.2424    0.0000 H   0  0  0  0  0  0  0  0  0  0  0  0
   -0.0662   -3.0294    0.0000 H   0  0  0  0  0  0  0  0  0  0  0  0
   -2.1228   -1.7813    0.0000 C   0  0  0  0  0  0  0  0  0  0  0  0
   -3.5422   -1.0427    0.0000 H   0  0  0  0  0  0  0  0  0  0  0  0
   -2.6040   -0.2554    0.0000 H   0  0  0  0  0  0  0  0  0  0  0  0
   -2.6702   -3.2848    0.0000 C   0  0  0  0  0  0  0  0  0  0  0  0
   -1.2508   -4.0237    0.0000 H   0  0  0  0  0  0  0  0  0  0  0  0
   -2.1890   -4.8108    0.0000 H   0  0  0  0  0  0  0  0  0  0  0  0
   -4.2457   -3.5627    0.0000 C   0  0  0  0  0  0  0  0  0  0  0  0
   -5.8215   -3.8406    0.0000 H   0  0  0  0  0  0  0  0  0  0  0  0
   -4.7930   -5.0662    0.0000 H   0  0  0  0  0  0  0  0  0  0  0  0
   -5.2742   -2.3371    0.0000 H   0  0  0  0  0  0  0  0  0  0  0  0
    0.0001    1.6001    0.0000 C   0  0  0  0  0  0  0  0  0  0  0  0
    0.9741    2.8693    0.0000 H   0  0  0  0  0  0  0  0  0  0  0  0
    1.5863    1.8087    0.0000 H   0  0  0  0  0  0  0  0  0  0  0  0
   -1.3857    2.3999    0.0000 C   0  0  0  0  0  0  0  0  0  0  0  0
   -2.7712    3.1999    0.0000 H   0  0  0  0  0  0  0  0  0  0  0  0
   -1.3857    4.0000    0.0000 H   0  0  0  0  0  0  0  0  0  0  0  0
   -2.7712    1.6001    0.0000 H   0  0  0  0  0  0  0  0  0  0  0  0
  1  2  2  0  0  0  0
  2  3  1  0  0  0  0
  3  4  1  0  0  0  0
  4  5  1  0  0  0  0
  4  6  1  0  0  0  0
  4  7  1  0  0  0  0
  7  8  1  0  0  0  0
  7  9  1  0  0  0  0
  9 10  1  0  0  0  0
  9 11  1  0  0  0  0
  9 12  1  0  0  0  0
 12 13  1  0  0  0  0
 12 14  1  0  0  0  0
 12 15  1  0  0  0  0
 15 16  1  0  0  0  0
 15 17  1  0  0  0  0
 15 18  1  0  0  0  0
 18 19  1  0  0  0  0
 18 20  1  0  0  0  0
 18 21  1  0  0  0  0
  7 22  1  0  0  0  0
 22 23  1  0  0  0  0
 22 24  1  0  0  0  0
 22 25  1  0  0  0  0
 25 26  1  0  0  0  0
 25 27  1  0  0  0  0
 25 28  1  0  0  0  0
  2 29  1  0  0  0  0
 29 30  1  0  0  0  0
 30 31  1  0  0  0  0
 30 32  1  0  0  0  0
 30 33  1  0  0  0  0
 33 34  1  0  0  0  0
 33 35  1  0  0  0  0
 35 36  1  0  0  0  0
 35 37  1  0  0  0  0
 35 38  1  0  0  0  0
 38 39  1  0  0  0  0
 38 40  1  0  0  0  0
 38 41  1  0  0  0  0
 41 42  1  0  0  0  0
 41 43  1  0  0  0  0
 41 44  1  0  0  0  0
 44 45  1  0  0  0  0
 44 46  1  0  0  0  0
 44 47  1  0  0  0  0
 33 48  1  0  0  0  0
 48 49  1  0  0  0  0
 48 50  1  0  0  0  0
 48 51  1  0  0  0  0
 51 52  1  0  0  0  0
 51 53  1  0  0  0  0
 51 54  1  0  0  0  0
  2 55  1  0  0  0  0
 55 56  1  0  0  0  0
 56 57  1  0  0  0  0
 56 58  1  0  0  0  0
 56 59  1  0  0  0  0
 59 60  1  0  0  0  0
 59 61  1  0  0  0  0
 61 62  1  0  0  0  0
 61 63  1  0  0  0  0
 61 64  1  0  0  0  0
 64 65  1  0  0  0  0
 64 66  1  0  0  0  0
 64 67  1  0  0  0  0
 67 68  1  0  0  0  0
 67 69  1  0  0  0  0
 67 70  1  0  0  0  0
 70 71  1  0  0  0  0
 70 72  1  0  0  0  0
 70 73  1  0  0  0  0
 59 74  1  0  0  0  0
 74 75  1  0  0  0  0
 74 76  1  0  0  0  0
 74 77  1  0  0  0  0
 77 78  1  0  0  0  0
 77 79  1  0  0  0  0
 77 80  1  0  0  0  0
M  END
> <ChemID>
100130

> <source_casrn>
78-42-2

> <CAS>
78-42-2

> <SMILES>
CCCCC(COP(=O)(OCC(CCCC)CC)OCC(CCCC)CC)CC

> <NAME>
Phosphoric acid, tris(2-ethylhexyl) ester

> <preferred_name>
Tris(2-ethylhexyl) phosphate

> <iupac>
tris(2-ethylhexyl) phosphate

> <MPID>
100141

> <dsstox_substance_id>
DTXSID0021414

> <Canonical_QSARr>
CCCCC(COP(=O)(OCC(CCCC)CC)OCC(CCCC)CC)CC

> <InChI_Code_QSARr>
InChI=1S/C24H51O4P/c1-7-13-16-22(10-4)19-26-29(25,27-20-23(11-5)17-14-8-2)28-21-24(12-6)18-15-9-3/h22-24H,7-21H2,1-6H3

> <InChI Key_QSARr>
GTVWRXDRKAHEAD-UHFFFAOYSA-N

> <Salt_Solvent>
?

> <Ready_Biodeg>
0.0

$$$$
100132
  -INDIGO-08031722522D

 65 64  0  0  0  0  0  0  0  0999 V2000
    2.4000   -1.3857    0.0000 C   0  0  0  0  0  0  0  0  0  0  0  0
    3.1998   -2.7713    0.0000 H   0  0  0  0  0  0  0  0  0  0  0  0
    4.0000   -1.3857    0.0000 H   0  0  0  0  0  0  0  0  0  0  0  0
    1.5999   -2.7713    0.0000 H   0  0  0  0  0  0  0  0  0  0  0  0
    1.5999   -0.0000    0.0000 C   0  0  0  0  0  0  0  0  0  0  0  0
    1.8087    1.5863    0.0000 H   0  0  0  0  0  0  0  0  0  0  0  0
    2.8693    0.9741    0.0000 H   0  0  0  0  0  0  0  0  0  0  0  0
   -0.0001   -0.0000    0.0000 C   0  0  0  0  0  0  0  0  0  0  0  0
   -0.2090   -1.5864    0.0000 H   0  0  0  0  0  0  0  0  0  0  0  0
   -1.2692   -0.9739    0.0000 H   0  0  0  0  0  0  0  0  0  0  0  0
   -0.7999    1.3856    0.0000 C   0  0  0  0  0  0  0  0  0  0  0  0
   -0.5911    2.9719    0.0000 H   0  0  0  0  0  0  0  0  0  0  0  0
    0.4695    2.3597    0.0000 H   0  0  0  0  0  0  0  0  0  0  0  0
   -2.3999    1.3856    0.0000 O   0  0  0  0  0  0  0  0  0  0  0  0
   -3.2001    2.7712    0.0000 C   0  0  0  0  0  0  0  0  0  0  0  0
   -2.9912    4.3575    0.0000 H   0  0  0  0  0  0  0  0  0  0  0  0
   -1.9306    3.7454    0.0000 H   0  0  0  0  0  0  0  0  0  0  0  0
   -4.8000    2.7712    0.0000 C   0  0  0  0  0  0  0  0  0  0  0  0
   -5.0089    1.1849    0.0000 H   0  0  0  0  0  0  0  0  0  0  0  0
   -6.0695    1.7973    0.0000 H   0  0  0  0  0  0  0  0  0  0  0  0
   -5.5999    4.1568    0.0000 O   0  0  0  0  0  0  0  0  0  0  0  0
   -7.2002    4.1568    0.0000 P   0  0  0  0  0  0  0  0  0  0  0  0
   -8.0000    2.7712    0.0000 O   0  0  0  0  0  0  0  0  0  0  0  0
   -8.8001    4.1568    0.0000 O   0  0  0  0  0  0  0  0  0  0  0  0
   -9.6000    2.7712    0.0000 C   0  0  0  0  0  0  0  0  0  0  0  0
   -8.3305    1.7973    0.0000 H   0  0  0  0  0  0  0  0  0  0  0  0
   -9.3911    1.1849    0.0000 H   0  0  0  0  0  0  0  0  0  0  0  0
  -11.1999    2.7712    0.0000 C   0  0  0  0  0  0  0  0  0  0  0  0
  -12.4694    3.7454    0.0000 H   0  0  0  0  0  0  0  0  0  0  0  0
  -11.4088    4.3575    0.0000 H   0  0  0  0  0  0  0  0  0  0  0  0
  -12.0001    1.3856    0.0000 O   0  0  0  0  0  0  0  0  0  0  0  0
  -13.6001    1.3856    0.0000 C   0  0  0  0  0  0  0  0  0  0  0  0
  -14.8695    2.3597    0.0000 H   0  0  0  0  0  0  0  0  0  0  0  0
  -13.8089    2.9719    0.0000 H   0  0  0  0  0  0  0  0  0  0  0  0
  -14.3999   -0.0000    0.0000 C   0  0  0  0  0  0  0  0  0  0  0  0
  -13.1308   -0.9739    0.0000 H   0  0  0  0  0  0  0  0  0  0  0  0
  -14.1910   -1.5864    0.0000 H   0  0  0  0  0  0  0  0  0  0  0  0
  -15.9999   -0.0000    0.0000 C   0  0  0  0  0  0  0  0  0  0  0  0
  -17.2693    0.9741    0.0000 H   0  0  0  0  0  0  0  0  0  0  0  0
  -16.2087    1.5863    0.0000 H   0  0  0  0  0  0  0  0  0  0  0  0
  -16.8000   -1.3857    0.0000 C   0  0  0  0  0  0  0  0  0  0  0  0
  -17.5998   -2.7713    0.0000 H   0  0  0  0  0  0  0  0  0  0  0  0
  -18.4000   -1.3857    0.0000 H   0  0  0  0  0  0  0  0  0  0  0  0
  -15.9999   -2.7713    0.0000 H   0  0  0  0  0  0  0  0  0  0  0  0
   -8.0000    5.5424    0.0000 O   0  0  0  0  0  0  0  0  0  0  0  0
   -7.2002    6.9281    0.0000 C   0  0  0  0  0  0  0  0  0  0  0  0
   -5.7219    7.5405    0.0000 H   0  0  0  0  0  0  0  0  0  0  0  0
   -5.7219    6.3159    0.0000 H   0  0  0  0  0  0  0  0  0  0  0  0
   -8.0000    8.3140    0.0000 C   0  0  0  0  0  0  0  0  0  0  0  0
   -9.4783    7.7015    0.0000 H   0  0  0  0  0  0  0  0  0  0  0  0
   -9.4783    8.9261    0.0000 H   0  0  0  0  0  0  0  0  0  0  0  0
   -7.2002    9.6996    0.0000 O   0  0  0  0  0  0  0  0  0  0  0  0
   -8.0000   11.0852    0.0000 C   0  0  0  0  0  0  0  0  0  0  0  0
   -9.4783   10.4728    0.0000 H   0  0  0  0  0  0  0  0  0  0  0  0
   -9.4783   11.6974    0.0000 H   0  0  0  0  0  0  0  0  0  0  0  0
   -7.2002   12.4708    0.0000 C   0  0  0  0  0  0  0  0  0  0  0  0
   -5.7219   13.0830    0.0000 H   0  0  0  0  0  0  0  0  0  0  0  0
   -5.7219   11.8584    0.0000 H   0  0  0  0  0  0  0  0  0  0  0  0
   -8.0000   13.8565    0.0000 C   0  0  0  0  0  0  0  0  0  0  0  0
   -9.4783   13.2440    0.0000 H   0  0  0  0  0  0  0  0  0  0  0  0
   -9.4783   14.4686    0.0000 H   0  0  0  0  0  0  0  0  0  0  0  0
   -7.2002   15.2421    0.0000 C   0  0  0  0  0  0  0  0  0  0  0  0
   -6.4000   16.6277    0.0000 H   0  0  0  0  0  0  0  0  0  0  0  0
   -8.0000   16.6277    0.0000 H   0  0  0  0  0  0  0  0  0  0  0  0
   -5.5999   15.2421    0.0000 H   0  0  0  0  0  0  0  0  0  0  0  0
  1  2  1  0  0  0  0
  1  3  1  0  0  0  0
  1  4  1  0  0  0  0
  1  5  1  0  0  0  0
  5  6  1  0  0  0  0
  5  7  1  0  0  0  0
  5  8  1  0  0  0  0
  8  9  1  0  0  0  0
  8 10  1  0  0  0  0
  8 11  1  0  0  0  0
 11 12  1  0  0  0  0
 11 13  1  0  0  0  0
 11 14  1  0  0  0  0
 14 15  1  0  0  0  0
 15 16  1  0  0  0  0
 15 17  1  0  0  0  0
 15 18  1  0  0  0  0
 18 19  1  0  0  0  0
 18 20  1  0  0  0  0
 18 21  1  0  0  0  0
 21 22  1  0  0  0  0
 22 23  2  0  0  0  0
 22 24  1  0  0  0  0
 24 25  1  0  0  0  0
 25 26  1  0  0  0  0
 25 27  1  0  0  0  0
 25 28  1  0  0  0  0
 28 29  1  0  0  0  0
 28 30  1  0  0  0  0
 28 31  1  0  0  0  0
 31 32  1  0  0  0  0
 32 33  1  0  0  0  0
 32 34  1  0  0  0  0
 32 35  1  0  0  0  0
 35 36  1  0  0  0  0
 35 37  1  0  0  0  0
 35 38  1  0  0  0  0
 38 39  1  0  0  0  0
 38 40  1  0  0  0  0
 38 41  1  0  0  0  0
 41 42  1  0  0  0  0
 41 43  1  0  0  0  0
 41 44  1  0  0  0  0
 22 45  1  0  0  0  0
 45 46  1  0  0  0  0
 46 47  1  0  0  0  0
 46 48  1  0  0  0  0
 46 49  1  0  0  0  0
 49 50  1  0  0  0  0
 49 51  1  0  0  0  0
 49 52  1  0  0  0  0
 52 53  1  0  0  0  0
 53 54  1  0  0  0  0
 53 55  1  0  0  0  0
 53 56  1  0  0  0  0
 56 57  1  0  0  0  0
 56 58  1  0  0  0  0
 56 59  1  0  0  0  0
 59 60  1  0  0  0  0
 59 61  1  0  0  0  0
 59 62  1  0  0  0  0
 62 63  1  0  0  0  0
 62 64  1  0  0  0  0
 62 65  1  0  0  0  0
M  END
> <ChemID>
100132

> <source_casrn>
78-51-3

> <CAS>
78-51-3

> <SMILES>
O=P(OCCOCCCC)(OCCOCCCC)OCCOCCCC

> <NAME>
Ethanol, 2-butoxy-, phosphate (3:1)

> <preferred_name>
Tris(2-butoxyethyl) phosphate

> <iupac>
tris(2-butoxyethyl) phosphate

> <MPID>
100143

> <dsstox_substance_id>
DTXSID5021758

> <Canonical_QSARr>
CCCCOCCOP(=O)(OCCOCCCC)OCCOCCCC

> <InChI_Code_QSARr>
InChI=1S/C18H39O7P/c1-4-7-10-20-13-16-23-26(19,24-17-14-21-11-8-5-2)25-18-15-22-12-9-6-3/h4-18H2,1-3H3

> <InChI Key_QSARr>
WTLBZVNBAKMVDP-UHFFFAOYSA-N

> <Salt_Solvent>
?

> <Ready_Biodeg>
0.0

$$$$
100133
  -INDIGO-08031722522D

 28 28  0  0  0  0  0  0  0  0999 V2000
    6.9283   -2.4000    0.0000 N   0  0  0  0  0  0  0  0  0  0  0  0
    6.9283   -0.7999    0.0000 C   0  0  0  0  0  0  0  0  0  0  0  0
    8.3138    0.0000    0.0000 N   0  0  0  0  0  0  0  0  0  0  0  0
    9.6995   -0.7999    0.0000 H   0  0  0  0  0  0  0  0  0  0  0  0
    8.3138    1.6000    0.0000 H   0  0  0  0  0  0  0  0  0  0  0  0
    5.5426    0.0000    0.0000 N   0  0  0  0  0  0  0  0  0  0  0  0
    4.1569   -0.7999    0.0000 C   0  0  0  0  0  0  0  0  0  0  0  0
    2.7713    0.0000    0.0000 C   0  0  0  0  0  0  0  0  0  0  0  0
    2.1590    1.4782    0.0000 H   0  0  0  0  0  0  0  0  0  0  0  0
    3.3835    1.4782    0.0000 H   0  0  0  0  0  0  0  0  0  0  0  0
    1.3856   -0.7999    0.0000 S   0  0  0  0  0  0  0  0  0  0  0  0
   -0.0001    0.0000    0.0000 P   0  0  0  0  0  0  0  0  0  0  0  0
   -0.0001    1.6000    0.0000 S   0  0  0  0  0  0  0  0  0  0  0  0
   -1.3856    0.8000    0.0000 O   0  0  0  0  0  0  0  0  0  0  0  0
   -1.3856    2.4001    0.0000 C   0  0  0  0  0  0  0  0  0  0  0  0
   -2.7713    3.2000    0.0000 H   0  0  0  0  0  0  0  0  0  0  0  0
   -1.3856    4.0000    0.0000 H   0  0  0  0  0  0  0  0  0  0  0  0
   -0.0001    3.2000    0.0000 H   0  0  0  0  0  0  0  0  0  0  0  0
   -1.3856   -0.7999    0.0000 O   0  0  0  0  0  0  0  0  0  0  0  0
   -1.3856   -2.4000    0.0000 C   0  0  0  0  0  0  0  0  0  0  0  0
   -2.7713   -3.2000    0.0000 H   0  0  0  0  0  0  0  0  0  0  0  0
   -1.3856   -3.9999    0.0000 H   0  0  0  0  0  0  0  0  0  0  0  0
   -0.0001   -3.2000    0.0000 H   0  0  0  0  0  0  0  0  0  0  0  0
    4.1569   -2.4000    0.0000 N   0  0  0  0  0  0  0  0  0  0  0  0
    5.5426   -3.2000    0.0000 C   0  0  0  0  0  0  0  0  0  0  0  0
    5.5426   -4.8000    0.0000 N   0  0  0  0  0  0  0  0  0  0  0  0
    6.9283   -5.6000    0.0000 H   0  0  0  0  0  0  0  0  0  0  0  0
    4.1569   -5.6000    0.0000 H   0  0  0  0  0  0  0  0  0  0  0  0
  1  2  1  0  0  0  0
  2  3  1  0  0  0  0
  3  4  1  0  0  0  0
  3  5  1  0  0  0  0
  2  6  2  0  0  0  0
  6  7  1  0  0  0  0
  7  8  1  0  0  0  0
  8  9  1  0  0  0  0
  8 10  1  0  0  0  0
  8 11  1  0  0  0  0
 11 12  1  0  0  0  0
 12 13  2  0  0  0  0
 12 14  1  0  0  0  0
 14 15  1  0  0  0  0
 15 16  1  0  0  0  0
 15 17  1  0  0  0  0
 15 18  1  0  0  0  0
 12 19  1  0  0  0  0
 19 20  1  0  0  0  0
 20 21  1  0  0  0  0
 20 22  1  0  0  0  0
 20 23  1  0  0  0  0
  7 24  2  0  0  0  0
 24 25  1  0  0  0  0
 25  1  2  0  0  0  0
 25 26  1  0  0  0  0
 26 27  1  0  0  0  0
 26 28  1  0  0  0  0
M  END
> <ChemID>
100133

> <source_casrn>
78-57-9

> <CAS>
78-57-9

> <SMILES>
COP(=S)(OC)SCc1[n]c(N)[n]c(N)[n]1

> <NAME>
Menazon

> <preferred_name>
Menazon

> <iupac>
S-[(4,6-diamino-1,3,5-triazin-2-yl)methyl] O,O-dimethyl phosphorodithioate

> <MPID>
100144

> <dsstox_substance_id>
DTXSID9042120

> <Canonical_QSARr>
COP(=S)(OC)SCc1[n]c(N)[n]c(N)[n]1

> <InChI_Code_QSARr>
InChI=1S/C6H12N5O2PS2/c1-12-14(15,13-2)16-3-4-9-5(7)11-6(8)10-4/h3H2,1-2H3,(H4,7,8,9,10,11)

> <InChI Key_QSARr>
SUYHYHLFUHHVJQ-UHFFFAOYSA-N

> <Salt_Solvent>
?

> <Ready_Biodeg>
0.0

$$$$
100134
  -INDIGO-08031722522D

 24 24  0  0  0  0  0  0  0  0999 V2000
    1.5756   -0.2778    0.0000 C   0  0  0  0  0  0  0  0  0  0  0  0
    3.1514   -0.5557    0.0000 H   0  0  0  0  0  0  0  0  0  0  0  0
    2.6042    0.9478    0.0000 H   0  0  0  0  0  0  0  0  0  0  0  0
    2.6042   -1.5035    0.0000 H   0  0  0  0  0  0  0  0  0  0  0  0
    0.0000    0.0000    0.0000 C   0  0  0  0  0  0  0  0  0  0  0  0
   -1.3856    0.8000    0.0000 C   0  0  0  0  0  0  0  0  0  0  0  0
   -0.3572    2.0257    0.0000 H   0  0  0  0  0  0  0  0  0  0  0  0
   -2.4141    2.0257    0.0000 H   0  0  0  0  0  0  0  0  0  0  0  0
   -2.7713    0.0000    0.0000 C   0  0  0  0  0  0  0  0  0  0  0  0
   -4.1569    0.8000    0.0000 C   0  0  0  0  0  0  0  0  0  0  0  0
   -5.5426    1.6001    0.0000 H   0  0  0  0  0  0  0  0  0  0  0  0
   -5.5426    0.0000    0.0000 H   0  0  0  0  0  0  0  0  0  0  0  0
   -4.1569    2.4000    0.0000 H   0  0  0  0  0  0  0  0  0  0  0  0
   -2.7713   -1.6000    0.0000 C   0  0  0  0  0  0  0  0  0  0  0  0
   -4.1569   -2.4000    0.0000 H   0  0  0  0  0  0  0  0  0  0  0  0
   -1.3856   -2.4000    0.0000 C   0  0  0  0  0  0  0  0  0  0  0  0
   -1.3856   -4.0000    0.0000 O   0  0  0  0  0  0  0  0  0  0  0  0
    0.0000   -1.6000    0.0000 C   0  0  0  0  0  0  0  0  0  0  0  0
    0.5472   -3.1035    0.0000 H   0  0  0  0  0  0  0  0  0  0  0  0
    1.5756   -1.3222    0.0000 H   0  0  0  0  0  0  0  0  0  0  0  0
    0.5472    1.5035    0.0000 C   0  0  0  0  0  0  0  0  0  0  0  0
    1.0945    3.0070    0.0000 H   0  0  0  0  0  0  0  0  0  0  0  0
    2.1229    1.7814    0.0000 H   0  0  0  0  0  0  0  0  0  0  0  0
    0.0000    3.0070    0.0000 H   0  0  0  0  0  0  0  0  0  0  0  0
  1  2  1  0  0  0  0
  1  3  1  0  0  0  0
  1  4  1  0  0  0  0
  1  5  1  0  0  0  0
  5  6  1  0  0  0  0
  6  7  1  0  0  0  0
  6  8  1  0  0  0  0
  6  9  1  0  0  0  0
  9 10  1  0  0  0  0
 10 11  1  0  0  0  0
 10 12  1  0  0  0  0
 10 13  1  0  0  0  0
  9 14  2  0  0  0  0
 14 15  1  0  0  0  0
 14 16  1  0  0  0  0
 16 17  2  0  0  0  0
 16 18  1  0  0  0  0
 18  5  1  0  0  0  0
 18 19  1  0  0  0  0
 18 20  1  0  0  0  0
  5 21  1  0  0  0  0
 21 22  1  0  0  0  0
 21 23  1  0  0  0  0
 21 24  1  0  0  0  0
M  END
> <ChemID>
100134

> <source_casrn>
78-59-1

> <CAS>
78-59-1

> <SMILES>
CC1CC(C)(C)CC(=O)C=1

> <NAME>
2-Cyclohexen-1-one, 3,5,5-trimethyl-

> <preferred_name>
Isophorone

> <iupac>
3,5,5-trimethylcyclohex-2-en-1-one

> <MPID>
100145

> <dsstox_substance_id>
DTXSID8020759

> <Canonical_QSARr>
CC1CC(C)(C)CC(=O)C=1

> <InChI_Code_QSARr>
InChI=1S/C9H14O/c1-7-4-8(10)6-9(2,3)5-7/h4H,5-6H2,1-3H3

> <InChI Key_QSARr>
HJOVHMDZYOCNQW-UHFFFAOYSA-N

> <Salt_Solvent>
?

> <Ready_Biodeg>
1.0

$$$$
100136
  -INDIGO-08031722522D

 13 12  0  0  0  0  0  0  0  0999 V2000
    1.3856    0.8000    0.0000 C   0  0  0  0  0  0  0  0  0  0  0  0
    2.7713    1.6000    0.0000 H   0  0  0  0  0  0  0  0  0  0  0  0
    2.7713    0.0000    0.0000 H   0  0  0  0  0  0  0  0  0  0  0  0
    1.3856    2.4000    0.0000 H   0  0  0  0  0  0  0  0  0  0  0  0
    0.0000    0.0000    0.0000 C   0  0  0  0  0  0  0  0  0  0  0  0
    0.0000   -1.6000    0.0000 C   0  0  0  0  0  0  0  0  0  0  0  0
   -1.3856   -2.4000    0.0000 H   0  0  0  0  0  0  0  0  0  0  0  0
    1.3856   -2.4000    0.0000 H   0  0  0  0  0  0  0  0  0  0  0  0
   -1.3856    0.8000    0.0000 C   0  0  0  0  0  0  0  0  0  0  0  0
   -1.3856    2.4000    0.0000 H   0  0  0  0  0  0  0  0  0  0  0  0
   -2.7713   -0.0000    0.0000 C   0  0  0  0  0  0  0  0  0  0  0  0
   -4.1569    0.8000    0.0000 H   0  0  0  0  0  0  0  0  0  0  0  0
   -2.7713   -1.6000    0.0000 H   0  0  0  0  0  0  0  0  0  0  0  0
  1  2  1  0  0  0  0
  1  3  1  0  0  0  0
  1  4  1  0  0  0  0
  1  5  1  0  0  0  0
  5  6  2  0  0  0  0
  6  7  1  0  0  0  0
  6  8  1  0  0  0  0
  5  9  1  0  0  0  0
  9 10  1  0  0  0  0
  9 11  2  0  0  0  0
 11 12  1  0  0  0  0
 11 13  1  0  0  0  0
M  END
> <ChemID>
100136

> <source_casrn>
78-79-5

> <CAS>
78-79-5

> <SMILES>
CC(=C)C=C

> <NAME>
1,3-Butadiene, 2-methyl-

> <preferred_name>
Isoprene

> <iupac>
2-methylbuta-1,3-diene

> <MPID>
100147

> <dsstox_substance_id>
DTXSID2020761

> <Canonical_QSARr>
CC(=C)C=C

> <InChI_Code_QSARr>
InChI=1S/C5H8/c1-4-5(2)3/h4H,1-2H2,3H3

> <InChI Key_QSARr>
RRHGJUQNOFWUDK-UHFFFAOYSA-N

> <Salt_Solvent>
?

> <Ready_Biodeg>
0.0

$$$$
100137
  -INDIGO-08031722522D

 16 15  0  0  0  0  0  0  0  0999 V2000
    2.7292   -0.4813    0.0000 N   0  0  0  0  0  0  0  0  0  0  0  0
    4.2327    0.0660    0.0000 H   0  0  0  0  0  0  0  0  0  0  0  0
    2.4513   -2.0569    0.0000 H   0  0  0  0  0  0  0  0  0  0  0  0
    1.5036    0.5472    0.0000 C   0  0  0  0  0  0  0  0  0  0  0  0
    1.1572    2.1093    0.0000 H   0  0  0  0  0  0  0  0  0  0  0  0
    2.3631    1.8967    0.0000 H   0  0  0  0  0  0  0  0  0  0  0  0
   -0.0000    0.0000    0.0000 C   0  0  0  0  0  0  0  0  0  0  0  0
    0.8000   -1.3856    0.0000 H   0  0  0  0  0  0  0  0  0  0  0  0
   -1.3857   -0.8000    0.0000 C   0  0  0  0  0  0  0  0  0  0  0  0
   -2.7713   -1.6000    0.0000 H   0  0  0  0  0  0  0  0  0  0  0  0
   -1.3857   -2.4000    0.0000 H   0  0  0  0  0  0  0  0  0  0  0  0
   -2.7713    0.0000    0.0000 H   0  0  0  0  0  0  0  0  0  0  0  0
   -0.8000    1.3856    0.0000 C   0  0  0  0  0  0  0  0  0  0  0  0
   -1.6001    2.7713    0.0000 H   0  0  0  0  0  0  0  0  0  0  0  0
   -0.0000    2.7713    0.0000 H   0  0  0  0  0  0  0  0  0  0  0  0
   -2.4000    1.3856    0.0000 H   0  0  0  0  0  0  0  0  0  0  0  0
  1  2  1  0  0  0  0
  1  3  1  0  0  0  0
  1  4  1  0  0  0  0
  4  5  1  0  0  0  0
  4  6  1  0  0  0  0
  4  7  1  0  0  0  0
  7  8  1  0  0  0  0
  7  9  1  0  0  0  0
  9 10  1  0  0  0  0
  9 11  1  0  0  0  0
  9 12  1  0  0  0  0
  7 13  1  0  0  0  0
 13 14  1  0  0  0  0
 13 15  1  0  0  0  0
 13 16  1  0  0  0  0
M  END
> <ChemID>
100137

> <source_casrn>
78-81-9

> <CAS>
78-81-9

> <SMILES>
CC(C)CN

> <NAME>
1-Propanamine, 2-methyl-

> <preferred_name>
Isobutylamine

> <iupac>
2-methylpropan-1-amine

> <MPID>
100148

> <dsstox_substance_id>
DTXSID9025459

> <Canonical_QSARr>
CC(C)CN

> <InChI_Code_QSARr>
InChI=1S/C4H11N/c1-4(2)3-5/h4H,3,5H2,1-2H3

> <InChI Key_QSARr>
KDSNLYIMUZNERS-UHFFFAOYSA-N

> <Salt_Solvent>
?

> <Ready_Biodeg>
1.0

$$$$
100138
  -INDIGO-08031722522D

 12 11  0  0  0  0  0  0  0  0999 V2000
    0.0000    1.6000    0.0000 C   0  0  0  0  0  0  0  0  0  0  0  0
    0.0000    0.0000    0.0000 C   0  0  0  0  0  0  0  0  0  0  0  0
    0.0000   -1.6000    0.0000 H   0  0  0  0  0  0  0  0  0  0  0  0
   -1.6000    0.0000    0.0000 C   0  0  0  0  0  0  0  0  0  0  0  0
   -3.2000    0.0000    0.0000 H   0  0  0  0  0  0  0  0  0  0  0  0
   -2.4000   -1.3856    0.0000 H   0  0  0  0  0  0  0  0  0  0  0  0
   -2.4000    1.3856    0.0000 H   0  0  0  0  0  0  0  0  0  0  0  0
    1.6000    0.0000    0.0000 C   0  0  0  0  0  0  0  0  0  0  0  0
    3.2000    0.0000    0.0000 H   0  0  0  0  0  0  0  0  0  0  0  0
    2.4000   -1.3856    0.0000 H   0  0  0  0  0  0  0  0  0  0  0  0
    2.4000    1.3856    0.0000 H   0  0  0  0  0  0  0  0  0  0  0  0
   -0.0000    3.2000    0.0000 N   0  0  0  0  0  0  0  0  0  0  0  0
  1  2  1  0  0  0  0
  2  3  1  0  0  0  0
  2  4  1  0  0  0  0
  4  5  1  0  0  0  0
  4  6  1  0  0  0  0
  4  7  1  0  0  0  0
  2  8  1  0  0  0  0
  8  9  1  0  0  0  0
  8 10  1  0  0  0  0
  8 11  1  0  0  0  0
  1 12  3  0  0  0  0
M  END
> <ChemID>
100138

> <source_casrn>
78-82-0

> <CAS>
78-82-0

> <SMILES>
CC(C)C#N

> <NAME>
Propanenitrile, 2-methyl-

> <preferred_name>
2-Methylpropanenitrile

> <iupac>
2-methylpropanenitrile

> <MPID>
100149

> <dsstox_substance_id>
DTXSID5026461

> <Canonical_QSARr>
CC(C)C#N

> <InChI_Code_QSARr>
InChI=1S/C4H7N/c1-4(2)3-5/h4H,1-2H3

> <InChI Key_QSARr>
LRDFRRGEGBBSRN-UHFFFAOYSA-N

> <Salt_Solvent>
?

> <Ready_Biodeg>
1.0

$$$$
100140
  -INDIGO-08031722522D

 13 12  0  0  0  0  0  0  0  0999 V2000
    1.6000    0.0000    0.0000 C   0  0  0  0  0  0  0  0  0  0  0  0
    3.2000    0.0000    0.0000 H   0  0  0  0  0  0  0  0  0  0  0  0
    2.4000   -1.3856    0.0000 H   0  0  0  0  0  0  0  0  0  0  0  0
    2.4000    1.3856    0.0000 H   0  0  0  0  0  0  0  0  0  0  0  0
    0.0000    0.0000    0.0000 C   0  0  0  0  0  0  0  0  0  0  0  0
    0.0000   -1.6000    0.0000 H   0  0  0  0  0  0  0  0  0  0  0  0
   -1.6000    0.0000    0.0000 C   0  0  0  0  0  0  0  0  0  0  0  0
   -3.2000    0.0000    0.0000 H   0  0  0  0  0  0  0  0  0  0  0  0
   -2.4000   -1.3856    0.0000 H   0  0  0  0  0  0  0  0  0  0  0  0
   -2.4000    1.3856    0.0000 H   0  0  0  0  0  0  0  0  0  0  0  0
    0.0000    1.6000    0.0000 C   0  0  0  0  0  0  0  0  0  0  0  0
    1.3856    2.4000    0.0000 H   0  0  0  0  0  0  0  0  0  0  0  0
   -1.3856    2.4000    0.0000 O   0  0  0  0  0  0  0  0  0  0  0  0
  1  2  1  0  0  0  0
  1  3  1  0  0  0  0
  1  4  1  0  0  0  0
  1  5  1  0  0  0  0
  5  6  1  0  0  0  0
  5  7  1  0  0  0  0
  7  8  1  0  0  0  0
  7  9  1  0  0  0  0
  7 10  1  0  0  0  0
  5 11  1  0  0  0  0
 11 12  1  0  0  0  0
 11 13  2  0  0  0  0
M  END
> <ChemID>
100140

> <source_casrn>
78-84-2

> <CAS>
78-84-2

> <SMILES>
CC(C)C=O

> <NAME>
Propanal, 2-methyl-

> <preferred_name>
2-Methylpropanal

> <iupac>
2-methylpropanal

> <MPID>
100151

> <dsstox_substance_id>
DTXSID9021635

> <Canonical_QSARr>
CC(C)C=O

> <InChI_Code_QSARr>
InChI=1S/C4H8O/c1-4(2)3-5/h3-4H,1-2H3

> <InChI Key_QSARr>
AMIMRNSIRUDHCM-UHFFFAOYSA-N

> <Salt_Solvent>
?

> <Ready_Biodeg>
1.0

$$$$
100141
  -INDIGO-08031722522D

 11 10  0  0  0  0  0  0  0  0999 V2000
    1.3856    0.8000    0.0000 C   0  0  0  0  0  0  0  0  0  0  0  0
    2.7713    1.6000    0.0000 H   0  0  0  0  0  0  0  0  0  0  0  0
    2.7713    0.0000    0.0000 H   0  0  0  0  0  0  0  0  0  0  0  0
    1.3856    2.4000    0.0000 H   0  0  0  0  0  0  0  0  0  0  0  0
    0.0000    0.0000    0.0000 C   0  0  0  0  0  0  0  0  0  0  0  0
    0.6123   -1.4782    0.0000 H   0  0  0  0  0  0  0  0  0  0  0  0
   -1.3856    0.8000    0.0000 C   0  0  0  0  0  0  0  0  0  0  0  0
   -2.7713    1.6000    0.0000 H   0  0  0  0  0  0  0  0  0  0  0  0
   -2.7713    0.0000    0.0000 H   0  0  0  0  0  0  0  0  0  0  0  0
   -1.3856    2.4000    0.0000 Cl  0  0  0  0  0  0  0  0  0  0  0  0
   -0.6123   -1.4782    0.0000 Cl  0  0  0  0  0  0  0  0  0  0  0  0
  1  2  1  0  0  0  0
  1  3  1  0  0  0  0
  1  4  1  0  0  0  0
  1  5  1  0  0  0  0
  5  6  1  0  0  0  0
  5  7  1  0  0  0  0
  7  8  1  0  0  0  0
  7  9  1  0  0  0  0
  7 10  1  0  0  0  0
  5 11  1  0  0  0  0
M  END
> <ChemID>
100141

> <source_casrn>
78-87-5

> <CAS>
78-87-5

> <SMILES>
CC(Cl)CCl

> <NAME>
Propane, 1,2-dichloro-

> <preferred_name>
1,2-Dichloropropane

> <iupac>
1,2-dichloropropane

> <MPID>
100152

> <dsstox_substance_id>
DTXSID0020448

> <Canonical_QSARr>
CC(Cl)CCl

> <InChI_Code_QSARr>
InChI=1S/C3H6Cl2/c1-3(5)2-4/h3H,2H2,1H3

> <InChI Key_QSARr>
KNKRKFALVUDBJE-UHFFFAOYSA-N

> <Salt_Solvent>
?

> <Ready_Biodeg>
0.0

$$$$
100142
  -INDIGO-08031722522D

 15 14  0  0  0  0  0  0  0  0999 V2000
    1.3856   -0.8000    0.0000 C   0  0  0  0  0  0  0  0  0  0  0  0
    2.7713   -1.6000    0.0000 H   0  0  0  0  0  0  0  0  0  0  0  0
    2.7713    0.0000    0.0000 H   0  0  0  0  0  0  0  0  0  0  0  0
    1.3856   -2.4000    0.0000 H   0  0  0  0  0  0  0  0  0  0  0  0
    0.0000    0.0000    0.0000 C   0  0  0  0  0  0  0  0  0  0  0  0
   -0.8000   -1.3856    0.0000 H   0  0  0  0  0  0  0  0  0  0  0  0
    0.8000    1.3856    0.0000 O   0  0  0  0  0  0  0  0  0  0  0  0
    2.4000    1.3856    0.0000 H   0  0  0  0  0  0  0  0  0  0  0  0
   -1.3856    0.8000    0.0000 C   0  0  0  0  0  0  0  0  0  0  0  0
   -0.7733    2.2782    0.0000 H   0  0  0  0  0  0  0  0  0  0  0  0
   -1.9980    2.2782    0.0000 H   0  0  0  0  0  0  0  0  0  0  0  0
   -2.7713    0.0000    0.0000 C   0  0  0  0  0  0  0  0  0  0  0  0
   -4.1569   -0.8000    0.0000 H   0  0  0  0  0  0  0  0  0  0  0  0
   -4.1569    0.8000    0.0000 H   0  0  0  0  0  0  0  0  0  0  0  0
   -2.7713   -1.6000    0.0000 H   0  0  0  0  0  0  0  0  0  0  0  0
  1  2  1  0  0  0  0
  1  3  1  0  0  0  0
  1  4  1  0  0  0  0
  1  5  1  0  0  0  0
  5  6  1  0  0  0  0
  5  7  1  0  0  0  0
  7  8  1  0  0  0  0
  5  9  1  0  0  0  0
  9 10  1  0  0  0  0
  9 11  1  0  0  0  0
  9 12  1  0  0  0  0
 12 13  1  0  0  0  0
 12 14  1  0  0  0  0
 12 15  1  0  0  0  0
M  END
> <ChemID>
100142

> <source_casrn>
78-92-2

> <CAS>
78-92-2

> <SMILES>
CCC(C)O

> <NAME>
2-Butanol

> <preferred_name>
2-Butanol

> <iupac>
butan-2-ol

> <MPID>
100153

> <dsstox_substance_id>
DTXSID9021762

> <Canonical_QSARr>
CCC(C)O

> <InChI_Code_QSARr>
InChI=1S/C4H10O/c1-3-4(2)5/h4-5H,3H2,1-2H3

> <InChI Key_QSARr>
BTANRVKWQNVYAZ-UHFFFAOYSA-N

> <Salt_Solvent>
?

> <Ready_Biodeg>
1.0

$$$$
100144
  -INDIGO-08031722522D

 11 10  0  0  0  0  0  0  0  0999 V2000
    0.0000   -1.6000    0.0000 O   0  0  0  0  0  0  0  0  0  0  0  0
    0.0000    0.0000    0.0000 C   0  0  0  0  0  0  0  0  0  0  0  0
    1.3856    0.8000    0.0000 C   0  0  0  0  0  0  0  0  0  0  0  0
    1.3856    2.4000    0.0000 H   0  0  0  0  0  0  0  0  0  0  0  0
    2.7713    0.0000    0.0000 C   0  0  0  0  0  0  0  0  0  0  0  0
    4.1569    0.8000    0.0000 H   0  0  0  0  0  0  0  0  0  0  0  0
    2.7713   -1.6000    0.0000 H   0  0  0  0  0  0  0  0  0  0  0  0
   -1.3856    0.8000    0.0000 C   0  0  0  0  0  0  0  0  0  0  0  0
   -2.7713    1.6000    0.0000 H   0  0  0  0  0  0  0  0  0  0  0  0
   -2.7713    0.0000    0.0000 H   0  0  0  0  0  0  0  0  0  0  0  0
   -1.3856    2.4000    0.0000 H   0  0  0  0  0  0  0  0  0  0  0  0
  1  2  2  0  0  0  0
  2  3  1  0  0  0  0
  3  4  1  0  0  0  0
  3  5  2  0  0  0  0
  5  6  1  0  0  0  0
  5  7  1  0  0  0  0
  2  8  1  0  0  0  0
  8  9  1  0  0  0  0
  8 10  1  0  0  0  0
  8 11  1  0  0  0  0
M  END
> <ChemID>
100144

> <source_casrn>
78-94-4

> <CAS>
78-94-4

> <SMILES>
CC(=O)C=C

> <NAME>
3-BUTEN-2-ONE

> <preferred_name>
Methyl vinyl ketone

> <iupac>
but-3-en-2-one

> <MPID>
100155

> <dsstox_substance_id>
DTXSID3025671

> <Canonical_QSARr>
CC(=O)C=C

> <InChI_Code_QSARr>
InChI=1S/C4H6O/c1-3-4(2)5/h3H,1H2,2H3

> <InChI Key_QSARr>
FUSUHKVFWTUUBE-UHFFFAOYSA-N

> <Salt_Solvent>
?

> <Ready_Biodeg>
0.0

$$$$
100145
  -INDIGO-08031722522D

  8  7  0  0  0  0  0  0  0  0999 V2000
    0.8000    1.3856    0.0000 Cl  0  0  0  0  0  0  0  0  0  0  0  0
    0.0000    0.0000    0.0000 C   0  0  0  0  0  0  0  0  0  0  0  0
    1.6000   -0.0000    0.0000 H   0  0  0  0  0  0  0  0  0  0  0  0
   -1.6000    0.0000    0.0000 C   0  0  0  0  0  0  0  0  0  0  0  0
   -3.2000    0.0000    0.0000 H   0  0  0  0  0  0  0  0  0  0  0  0
   -2.4000   -1.3856    0.0000 H   0  0  0  0  0  0  0  0  0  0  0  0
   -2.4000    1.3856    0.0000 Cl  0  0  0  0  0  0  0  0  0  0  0  0
    0.8000   -1.3856    0.0000 Cl  0  0  0  0  0  0  0  0  0  0  0  0
  1  2  1  0  0  0  0
  2  3  1  0  0  0  0
  2  4  1  0  0  0  0
  4  5  1  0  0  0  0
  4  6  1  0  0  0  0
  4  7  1  0  0  0  0
  2  8  1  0  0  0  0
M  END
> <ChemID>
100145

> <source_casrn>
79-00-5

> <CAS>
79-00-5

> <SMILES>
ClCC(Cl)Cl

> <NAME>
Ethane, 1,1,2-trichloro-

> <preferred_name>
1,1,2-Trichloroethane

> <iupac>
1,1,2-trichloroethane

> <MPID>
100156

> <dsstox_substance_id>
DTXSID5021380

> <Canonical_QSARr>
ClCC(Cl)Cl

> <InChI_Code_QSARr>
InChI=1S/C2H3Cl3/c3-1-2(4)5/h2H,1H2

> <InChI Key_QSARr>
UBOXGVDOUJQMTN-UHFFFAOYSA-N

> <Salt_Solvent>
?

> <Ready_Biodeg>
0.0

$$$$
100146
  -INDIGO-08031722522D

  6  5  0  0  0  0  0  0  0  0999 V2000
   -0.8000   -1.3856    0.0000 Cl  0  0  0  0  0  0  0  0  0  0  0  0
    0.0000    0.0000    0.0000 C   0  0  0  0  0  0  0  0  0  0  0  0
    1.6000    0.0000    0.0000 C   0  0  0  0  0  0  0  0  0  0  0  0
    2.4000    1.3856    0.0000 H   0  0  0  0  0  0  0  0  0  0  0  0
    2.4000   -1.3856    0.0000 Cl  0  0  0  0  0  0  0  0  0  0  0  0
   -0.8000    1.3856    0.0000 Cl  0  0  0  0  0  0  0  0  0  0  0  0
  1  2  1  0  0  0  0
  2  3  2  0  0  0  0
  3  4  1  0  0  0  0
  3  5  1  0  0  0  0
  2  6  1  0  0  0  0
M  END
> <ChemID>
100146

> <source_casrn>
79-01-6

> <CAS>
79-01-6

> <SMILES>
ClC=C(Cl)Cl

> <NAME>
Ethene, trichloro-

> <preferred_name>
Trichloroethylene

> <iupac>
1,1,2-trichloroethene

> <MPID>
100157

> <dsstox_substance_id>
DTXSID0021383

> <Canonical_QSARr>
ClC=C(Cl)Cl

> <InChI_Code_QSARr>
InChI=1S/C2HCl3/c3-1-2(4)5/h1H

> <InChI Key_QSARr>
XSTXAVWGXDQKEL-UHFFFAOYSA-N

> <Salt_Solvent>
?

> <Ready_Biodeg>
0.0

$$$$
100148
  -INDIGO-08031722522D

 11 10  0  0  0  0  0  0  0  0999 V2000
    1.3856    2.4000    0.0000 O   0  0  0  0  0  0  0  0  0  0  0  0
    1.3856    0.8000    0.0000 C   0  0  0  0  0  0  0  0  0  0  0  0
    2.7713    0.0000    0.0000 O   0  0  0  0  0  0  0  0  0  0  0  0
    4.1569    0.8000    0.0000 H   0  0  0  0  0  0  0  0  0  0  0  0
    0.0000    0.0000    0.0000 C   0  0  0  0  0  0  0  0  0  0  0  0
   -0.6123   -1.4782    0.0000 H   0  0  0  0  0  0  0  0  0  0  0  0
    0.6123   -1.4782    0.0000 H   0  0  0  0  0  0  0  0  0  0  0  0
   -1.3856    0.8000    0.0000 C   0  0  0  0  0  0  0  0  0  0  0  0
   -2.7713    1.6000    0.0000 H   0  0  0  0  0  0  0  0  0  0  0  0
   -2.7713    0.0000    0.0000 H   0  0  0  0  0  0  0  0  0  0  0  0
   -1.3856    2.4000    0.0000 H   0  0  0  0  0  0  0  0  0  0  0  0
  1  2  2  0  0  0  0
  2  3  1  0  0  0  0
  3  4  1  0  0  0  0
  2  5  1  0  0  0  0
  5  6  1  0  0  0  0
  5  7  1  0  0  0  0
  5  8  1  0  0  0  0
  8  9  1  0  0  0  0
  8 10  1  0  0  0  0
  8 11  1  0  0  0  0
M  END
> <ChemID>
100148

> <source_casrn>
79-09-4

> <CAS>
79-09-4

> <SMILES>
CCC(O)=O

> <NAME>
Propionic acid

> <preferred_name>
Propionic acid

> <iupac>
propanoic acid

> <MPID>
100159

> <dsstox_substance_id>
DTXSID8025961

> <Canonical_QSARr>
CCC(O)=O

> <InChI_Code_QSARr>
InChI=1S/C3H6O2/c1-2-3(4)5/h2H2,1H3,(H,4,5)

> <InChI Key_QSARr>
XBDQKXXYIPTUBI-UHFFFAOYSA-N

> <Salt_Solvent>
?

> <Ready_Biodeg>
1.0

$$$$
100149
  -INDIGO-08031722522D

  9  8  0  0  0  0  0  0  0  0999 V2000
    2.7713    0.0000    0.0000 O   0  0  0  0  0  0  0  0  0  0  0  0
    4.1569    0.8000    0.0000 H   0  0  0  0  0  0  0  0  0  0  0  0
    1.3856    0.8000    0.0000 C   0  0  0  0  0  0  0  0  0  0  0  0
    1.3856    2.4000    0.0000 O   0  0  0  0  0  0  0  0  0  0  0  0
    0.0000    0.0000    0.0000 C   0  0  0  0  0  0  0  0  0  0  0  0
    0.0000   -1.6000    0.0000 H   0  0  0  0  0  0  0  0  0  0  0  0
   -1.3856    0.8000    0.0000 C   0  0  0  0  0  0  0  0  0  0  0  0
   -2.7713    0.0000    0.0000 H   0  0  0  0  0  0  0  0  0  0  0  0
   -1.3856    2.4000    0.0000 H   0  0  0  0  0  0  0  0  0  0  0  0
  1  2  1  0  0  0  0
  1  3  1  0  0  0  0
  3  4  2  0  0  0  0
  3  5  1  0  0  0  0
  5  6  1  0  0  0  0
  5  7  2  0  0  0  0
  7  8  1  0  0  0  0
  7  9  1  0  0  0  0
M  END
> <ChemID>
100149

> <source_casrn>
79-10-7

> <CAS>
79-10-7

> <SMILES>
C=CC(O)=O

> <NAME>
Acrylic acid

> <preferred_name>
Acrylic acid

> <iupac>
prop-2-enoic acid

> <MPID>
100160

> <dsstox_substance_id>
DTXSID0039229

> <Canonical_QSARr>
C=CC(O)=O

> <InChI_Code_QSARr>
InChI=1S/C3H4O2/c1-2-3(4)5/h2H,1H2,(H,4,5)

> <InChI Key_QSARr>
NIXOWILDQLNWCW-UHFFFAOYSA-N

> <Salt_Solvent>
?

> <Ready_Biodeg>
1.0

$$$$
100150
  -INDIGO-08031722522D

  8  7  0  0  0  0  0  0  0  0999 V2000
    2.4000    1.3856    0.0000 O   0  0  0  0  0  0  0  0  0  0  0  0
    4.0000    1.3856    0.0000 H   0  0  0  0  0  0  0  0  0  0  0  0
    1.6000    0.0000    0.0000 C   0  0  0  0  0  0  0  0  0  0  0  0
    2.4000   -1.3856    0.0000 O   0  0  0  0  0  0  0  0  0  0  0  0
   -0.0000    0.0000    0.0000 C   0  0  0  0  0  0  0  0  0  0  0  0
   -1.6000    0.0000    0.0000 H   0  0  0  0  0  0  0  0  0  0  0  0
   -0.8000    1.3856    0.0000 H   0  0  0  0  0  0  0  0  0  0  0  0
   -0.8000   -1.3856    0.0000 Cl  0  0  0  0  0  0  0  0  0  0  0  0
  1  2  1  0  0  0  0
  1  3  1  0  0  0  0
  3  4  2  0  0  0  0
  3  5  1  0  0  0  0
  5  6  1  0  0  0  0
  5  7  1  0  0  0  0
  5  8  1  0  0  0  0
M  END
> <ChemID>
100150

> <source_casrn>
79-11-8

> <CAS>
79-11-8

> <SMILES>
OC(=O)CCl

> <NAME>
Acetic acid, chloro-

> <preferred_name>
Chloroacetic acid

> <iupac>
chloroacetic acid

> <MPID>
100161

> <dsstox_substance_id>
DTXSID4020901

> <Canonical_QSARr>
OC(=O)CCl

> <InChI_Code_QSARr>
InChI=1S/C2H3ClO2/c3-1-2(4)5/h1H2,(H,4,5)

> <InChI Key_QSARr>
FOCAUTSVDIKZOP-UHFFFAOYSA-N

> <Salt_Solvent>
?

> <Ready_Biodeg>
1.0

$$$$
100152
  -INDIGO-08031722522D

 12 11  0  0  0  0  0  0  0  0999 V2000
    0.0000    0.0000    0.0000 C   0  0  0  0  0  0  0  0  0  0  0  0
    0.0000    1.6000    0.0000 O   0  0  0  0  0  0  0  0  0  0  0  0
    1.3856   -0.8000    0.0000 N   0  0  0  0  0  0  0  0  0  0  0  0
    1.3856   -2.4000    0.0000 H   0  0  0  0  0  0  0  0  0  0  0  0
    2.7713    0.0000    0.0000 C   0  0  0  0  0  0  0  0  0  0  0  0
    4.1569    0.8000    0.0000 H   0  0  0  0  0  0  0  0  0  0  0  0
    4.1569   -0.8000    0.0000 H   0  0  0  0  0  0  0  0  0  0  0  0
    2.7713    1.6000    0.0000 H   0  0  0  0  0  0  0  0  0  0  0  0
   -1.3856   -0.8000    0.0000 C   0  0  0  0  0  0  0  0  0  0  0  0
   -2.7713   -1.6000    0.0000 H   0  0  0  0  0  0  0  0  0  0  0  0
   -2.7713    0.0000    0.0000 H   0  0  0  0  0  0  0  0  0  0  0  0
   -1.3856   -2.4000    0.0000 H   0  0  0  0  0  0  0  0  0  0  0  0
  1  2  2  0  0  0  0
  1  3  1  0  0  0  0
  3  4  1  0  0  0  0
  3  5  1  0  0  0  0
  5  6  1  0  0  0  0
  5  7  1  0  0  0  0
  5  8  1  0  0  0  0
  1  9  1  0  0  0  0
  9 10  1  0  0  0  0
  9 11  1  0  0  0  0
  9 12  1  0  0  0  0
M  END
> <ChemID>
100152

> <source_casrn>
79-16-3

> <CAS>
79-16-3

> <SMILES>
CNC(C)=O

> <NAME>
Acetamide, N-methyl-

> <preferred_name>
N-Methylacetamide

> <iupac>
N-methylacetamide

> <MPID>
100163

> <dsstox_substance_id>
DTXSID0047167

> <Canonical_QSARr>
CNC(C)=O

> <InChI_Code_QSARr>
InChI=1S/C3H7NO/c1-3(5)4-2/h1-2H3,(H,4,5)

> <InChI Key_QSARr>
OHLUUHNLEMFGTQ-UHFFFAOYSA-N

> <Salt_Solvent>
?

> <Ready_Biodeg>
1.0

$$$$
100153
  -INDIGO-08031722522D

 10  9  0  0  0  0  0  0  0  0999 V2000
    1.3856   -0.8000    0.0000 N   0  0  0  0  0  0  0  0  0  0  0  0
    2.7713    0.0000    0.0000 H   0  0  0  0  0  0  0  0  0  0  0  0
    1.3856   -2.4000    0.0000 H   0  0  0  0  0  0  0  0  0  0  0  0
    0.0000    0.0000    0.0000 C   0  0  0  0  0  0  0  0  0  0  0  0
    0.0000    1.6000    0.0000 S   0  0  0  0  0  0  0  0  0  0  0  0
   -1.3856   -0.8000    0.0000 N   0  0  0  0  0  0  0  0  0  0  0  0
   -1.3856   -2.4000    0.0000 H   0  0  0  0  0  0  0  0  0  0  0  0
   -2.7713    0.0000    0.0000 N   0  0  0  0  0  0  0  0  0  0  0  0
   -4.1569   -0.8000    0.0000 H   0  0  0  0  0  0  0  0  0  0  0  0
   -2.7713    1.6000    0.0000 H   0  0  0  0  0  0  0  0  0  0  0  0
  1  2  1  0  0  0  0
  1  3  1  0  0  0  0
  1  4  1  0  0  0  0
  4  5  2  0  0  0  0
  4  6  1  0  0  0  0
  6  7  1  0  0  0  0
  6  8  1  0  0  0  0
  8  9  1  0  0  0  0
  8 10  1  0  0  0  0
M  END
> <ChemID>
100153

> <source_casrn>
79-19-6

> <CAS>
79-19-6

> <SMILES>
NNC(N)=S

> <NAME>
Hydrazinecarbothioamide

> <preferred_name>
Thiosemicarbazide

> <iupac>
hydrazinecarbothioamide

> <MPID>
100164

> <dsstox_substance_id>
DTXSID9021346

> <Canonical_QSARr>
NNC(N)=S

> <InChI_Code_QSARr>
InChI=1S/CH5N3S/c2-1(5)4-3/h3H2,(H3,2,4,5)

> <InChI Key_QSARr>
BRWIZMBXBAOCCF-UHFFFAOYSA-N

> <Salt_Solvent>
?

> <Ready_Biodeg>
0.0

$$$$
100154
  -INDIGO-08031722522D

  8  7  0  0  0  0  0  0  0  0999 V2000
    0.0000    0.0000    0.0000 C   0  0  0  0  0  0  0  0  0  0  0  0
    1.6000   -0.0000    0.0000 H   0  0  0  0  0  0  0  0  0  0  0  0
    0.8000   -1.3856    0.0000 Br  0  0  0  0  0  0  0  0  0  0  0  0
    0.8000    1.3856    0.0000 Br  0  0  0  0  0  0  0  0  0  0  0  0
   -1.6000    0.0000    0.0000 C   0  0  0  0  0  0  0  0  0  0  0  0
   -3.2000    0.0000    0.0000 H   0  0  0  0  0  0  0  0  0  0  0  0
   -2.4000   -1.3856    0.0000 Br  0  0  0  0  0  0  0  0  0  0  0  0
   -2.4000    1.3856    0.0000 Br  0  0  0  0  0  0  0  0  0  0  0  0
  1  2  1  0  0  0  0
  1  3  1  0  0  0  0
  1  4  1  0  0  0  0
  1  5  1  0  0  0  0
  5  6  1  0  0  0  0
  5  7  1  0  0  0  0
  5  8  1  0  0  0  0
M  END
> <ChemID>
100154

> <source_casrn>
79-27-6

> <CAS>
79-27-6

> <SMILES>
BrC(Br)C(Br)Br

> <NAME>
Ethane, 1,1,2,2-tetrabromo-

> <preferred_name>
1,1,2,2-Tetrabromoethane

> <iupac>
1,1,2,2-tetrabromoethane

> <MPID>
100165

> <dsstox_substance_id>
DTXSID1026083

> <Canonical_QSARr>
BrC(Br)C(Br)Br

> <InChI_Code_QSARr>
InChI=1S/C2H2Br4/c3-1(4)2(5)6/h1-2H

> <InChI Key_QSARr>
QXSZNDIIPUOQMB-UHFFFAOYSA-N

> <Salt_Solvent>
?

> <Ready_Biodeg>
0.0

$$$$
100156
  -INDIGO-08031722522D

  8  7  0  0  0  0  0  0  0  0999 V2000
    0.8000    1.3856    0.0000 Cl  0  0  0  0  0  0  0  0  0  0  0  0
    0.0000    0.0000    0.0000 C   0  0  0  0  0  0  0  0  0  0  0  0
    1.6000   -0.0000    0.0000 H   0  0  0  0  0  0  0  0  0  0  0  0
   -1.6000    0.0000    0.0000 C   0  0  0  0  0  0  0  0  0  0  0  0
   -3.2000    0.0000    0.0000 H   0  0  0  0  0  0  0  0  0  0  0  0
   -2.4000   -1.3856    0.0000 Cl  0  0  0  0  0  0  0  0  0  0  0  0
   -2.4000    1.3856    0.0000 Cl  0  0  0  0  0  0  0  0  0  0  0  0
    0.8000   -1.3856    0.0000 Cl  0  0  0  0  0  0  0  0  0  0  0  0
  1  2  1  0  0  0  0
  2  3  1  0  0  0  0
  2  4  1  0  0  0  0
  4  5  1  0  0  0  0
  4  6  1  0  0  0  0
  4  7  1  0  0  0  0
  2  8  1  0  0  0  0
M  END
> <ChemID>
100156

> <source_casrn>
79-34-5

> <CAS>
79-34-5

> <SMILES>
ClC(Cl)C(Cl)Cl

> <NAME>
Ethane, 1,1,2,2-tetrachloro-

> <preferred_name>
1,1,2,2-Tetrachloroethane

> <iupac>
1,1,2,2-tetrachloroethane

> <MPID>
100167

> <dsstox_substance_id>
DTXSID7021318

> <Canonical_QSARr>
ClC(Cl)C(Cl)Cl

> <InChI_Code_QSARr>
InChI=1S/C2H2Cl4/c3-1(4)2(5)6/h1-2H

> <InChI Key_QSARr>
QPFMBZIOSGYJDE-UHFFFAOYSA-N

> <Salt_Solvent>
?

> <Ready_Biodeg>
0.0

$$$$
100157
  -INDIGO-08031722522D

 12 11  0  0  0  0  0  0  0  0999 V2000
    1.3856    0.8000    0.0000 C   0  0  0  0  0  0  0  0  0  0  0  0
    2.7713    1.6000    0.0000 H   0  0  0  0  0  0  0  0  0  0  0  0
    2.7713    0.0000    0.0000 H   0  0  0  0  0  0  0  0  0  0  0  0
    1.3856    2.4000    0.0000 H   0  0  0  0  0  0  0  0  0  0  0  0
    0.0000    0.0000    0.0000 C   0  0  0  0  0  0  0  0  0  0  0  0
    0.0000   -1.6000    0.0000 C   0  0  0  0  0  0  0  0  0  0  0  0
   -1.3856   -2.4000    0.0000 H   0  0  0  0  0  0  0  0  0  0  0  0
    1.3856   -2.4000    0.0000 H   0  0  0  0  0  0  0  0  0  0  0  0
   -1.3856    0.8000    0.0000 C   0  0  0  0  0  0  0  0  0  0  0  0
   -2.7713   -0.0000    0.0000 O   0  0  0  0  0  0  0  0  0  0  0  0
   -4.1569    0.8000    0.0000 H   0  0  0  0  0  0  0  0  0  0  0  0
   -1.3856    2.4000    0.0000 O   0  0  0  0  0  0  0  0  0  0  0  0
  1  2  1  0  0  0  0
  1  3  1  0  0  0  0
  1  4  1  0  0  0  0
  1  5  1  0  0  0  0
  5  6  2  0  0  0  0
  6  7  1  0  0  0  0
  6  8  1  0  0  0  0
  5  9  1  0  0  0  0
  9 10  1  0  0  0  0
 10 11  1  0  0  0  0
  9 12  2  0  0  0  0
M  END
> <ChemID>
100157

> <source_casrn>
79-41-4

> <CAS>
79-41-4

> <SMILES>
CC(=C)C(O)=O

> <NAME>
METHACRYLIC ACID

> <preferred_name>
Methacrylic acid

> <iupac>
2-methylprop-2-enoic acid

> <MPID>
100168

> <dsstox_substance_id>
DTXSID3025542

> <Canonical_QSARr>
CC(=C)C(O)=O

> <InChI_Code_QSARr>
InChI=1S/C4H6O2/c1-3(2)4(5)6/h1H2,2H3,(H,5,6)

> <InChI Key_QSARr>
CERQOIWHTDAKMF-UHFFFAOYSA-N

> <Salt_Solvent>
?

> <Ready_Biodeg>
1.0

$$$$
100158
  -INDIGO-08031722522D

  8  7  0  0  0  0  0  0  0  0999 V2000
    2.4000    1.3856    0.0000 O   0  0  0  0  0  0  0  0  0  0  0  0
    4.0000    1.3856    0.0000 H   0  0  0  0  0  0  0  0  0  0  0  0
    1.6000    0.0000    0.0000 C   0  0  0  0  0  0  0  0  0  0  0  0
    2.4000   -1.3856    0.0000 O   0  0  0  0  0  0  0  0  0  0  0  0
   -0.0000    0.0000    0.0000 C   0  0  0  0  0  0  0  0  0  0  0  0
   -1.6000    0.0000    0.0000 H   0  0  0  0  0  0  0  0  0  0  0  0
   -0.8000    1.3856    0.0000 Cl  0  0  0  0  0  0  0  0  0  0  0  0
   -0.8000   -1.3856    0.0000 Cl  0  0  0  0  0  0  0  0  0  0  0  0
  1  2  1  0  0  0  0
  1  3  1  0  0  0  0
  3  4  2  0  0  0  0
  3  5  1  0  0  0  0
  5  6  1  0  0  0  0
  5  7  1  0  0  0  0
  5  8  1  0  0  0  0
M  END
> <ChemID>
100158

> <source_casrn>
79-43-6

> <CAS>
79-43-6

> <SMILES>
OC(=O)C(Cl)Cl

> <NAME>
Acetic acid, dichloro-

> <preferred_name>
Dichloroacetic acid

> <iupac>
dichloroacetic acid

> <MPID>
100169

> <dsstox_substance_id>
DTXSID2020428

> <Canonical_QSARr>
OC(=O)C(Cl)Cl

> <InChI_Code_QSARr>
InChI=1S/C2H2Cl2O2/c3-1(4)2(5)6/h1H,(H,5,6)

> <InChI Key_QSARr>
JXTHNDFMNIQAHM-UHFFFAOYSA-N

> <Salt_Solvent>
?

> <Ready_Biodeg>
1.0

$$$$
100160
  -INDIGO-08031722522D

 33 34  0  0  0  0  0  0  0  0999 V2000
    0.0001    0.0000    0.0000 C   0  0  0  0  0  0  0  0  0  0  0  0
    0.2778    1.5757    0.0000 C   0  0  0  0  0  0  0  0  0  0  0  0
    0.5556    3.1514    0.0000 H   0  0  0  0  0  0  0  0  0  0  0  0
   -0.9478    2.6042    0.0000 H   0  0  0  0  0  0  0  0  0  0  0  0
   -1.2258    1.0284    0.0000 H   0  0  0  0  0  0  0  0  0  0  0  0
   -0.2779   -1.5757    0.0000 C   0  0  0  0  0  0  0  0  0  0  0  0
   -0.5556   -3.1514    0.0000 H   0  0  0  0  0  0  0  0  0  0  0  0
   -1.7812   -2.1229    0.0000 H   0  0  0  0  0  0  0  0  0  0  0  0
    1.2258   -1.0284    0.0000 H   0  0  0  0  0  0  0  0  0  0  0  0
   -1.6000   -0.0000    0.0000 C   0  0  0  0  0  0  0  0  0  0  0  0
   -2.4000    1.3856    0.0000 C   0  0  0  0  0  0  0  0  0  0  0  0
   -2.1223    2.9613    0.0000 H   0  0  0  0  0  0  0  0  0  0  0  0
   -4.0001    1.3856    0.0000 C   0  0  0  0  0  0  0  0  0  0  0  0
   -4.7999    2.7713    0.0000 Br  0  0  0  0  0  0  0  0  0  0  0  0
   -4.7999   -0.0000    0.0000 C   0  0  0  0  0  0  0  0  0  0  0  0
   -6.4000   -0.0000    0.0000 O   0  0  0  0  0  0  0  0  0  0  0  0
   -7.2000    1.3856    0.0000 H   0  0  0  0  0  0  0  0  0  0  0  0
   -4.0001   -1.3856    0.0000 C   0  0  0  0  0  0  0  0  0  0  0  0
   -4.7999   -2.7713    0.0000 Br  0  0  0  0  0  0  0  0  0  0  0  0
   -2.4000   -1.3856    0.0000 C   0  0  0  0  0  0  0  0  0  0  0  0
   -2.4000   -2.9857    0.0000 H   0  0  0  0  0  0  0  0  0  0  0  0
    1.6000    0.0000    0.0000 C   0  0  0  0  0  0  0  0  0  0  0  0
    2.4000    1.3856    0.0000 C   0  0  0  0  0  0  0  0  0  0  0  0
    1.6000    2.7713    0.0000 H   0  0  0  0  0  0  0  0  0  0  0  0
    4.0001    1.3856    0.0000 C   0  0  0  0  0  0  0  0  0  0  0  0
    4.8001    2.7713    0.0000 Br  0  0  0  0  0  0  0  0  0  0  0  0
    4.8001    0.0000    0.0000 C   0  0  0  0  0  0  0  0  0  0  0  0
    6.4000    0.0000    0.0000 O   0  0  0  0  0  0  0  0  0  0  0  0
    7.2000    1.3856    0.0000 H   0  0  0  0  0  0  0  0  0  0  0  0
    4.0001   -1.3856    0.0000 C   0  0  0  0  0  0  0  0  0  0  0  0
    4.8001   -2.7713    0.0000 Br  0  0  0  0  0  0  0  0  0  0  0  0
    2.4000   -1.3856    0.0000 C   0  0  0  0  0  0  0  0  0  0  0  0
    1.6000   -2.7713    0.0000 H   0  0  0  0  0  0  0  0  0  0  0  0
  1  2  1  0  0  0  0
  2  3  1  0  0  0  0
  2  4  1  0  0  0  0
  2  5  1  0  0  0  0
  1  6  1  0  0  0  0
  6  7  1  0  0  0  0
  6  8  1  0  0  0  0
  6  9  1  0  0  0  0
  1 10  1  0  0  0  0
 10 11  1  0  0  0  0
 11 12  1  0  0  0  0
 11 13  2  0  0  0  0
 13 14  1  0  0  0  0
 13 15  1  0  0  0  0
 15 16  1  0  0  0  0
 16 17  1  0  0  0  0
 15 18  2  0  0  0  0
 18 19  1  0  0  0  0
 18 20  1  0  0  0  0
 20 10  2  0  0  0  0
 20 21  1  0  0  0  0
  1 22  1  0  0  0  0
 22 23  1  0  0  0  0
 23 24  1  0  0  0  0
 23 25  2  0  0  0  0
 25 26  1  0  0  0  0
 25 27  1  0  0  0  0
 27 28  1  0  0  0  0
 28 29  1  0  0  0  0
 27 30  2  0  0  0  0
 30 31  1  0  0  0  0
 30 32  1  0  0  0  0
 32 22  2  0  0  0  0
 32 33  1  0  0  0  0
M  END
> <ChemID>
100160

> <source_casrn>
79-94-7

> <CAS>
79-94-7

> <SMILES>
Oc(c(cc(c1)C(c(cc(c(O)c2Br)Br)c2)(C)C)Br)c1Br

> <NAME>
Phenol, 4,4'-(1-methylethylidene)bis 2,6-dibromo-

> <preferred_name>
3,3',5,5'-Tetrabromobisphenol A

> <iupac>
4,4'-propane-2,2-diylbis(2,6-dibromophenol)

> <MPID>
100171

> <dsstox_substance_id>
DTXSID1026081

> <Canonical_QSARr>
CC(C)(c1cc(Br)c(O)c(Br)c1)c1cc(Br)c(O)c(Br)c1

> <InChI_Code_QSARr>
InChI=1S/C15H12Br4O2/c1-15(2,7-3-9(16)13(20)10(17)4-7)8-5-11(18)14(21)12(19)6-8/h3-6,20-21H,1-2H3

> <InChI Key_QSARr>
VEORPZCZECFIRK-UHFFFAOYSA-N

> <Salt_Solvent>
?

> <Ready_Biodeg>
0.0

$$$$
100161
  -INDIGO-08031722522D

 33 34  0  0  0  0  0  0  0  0999 V2000
    0.0001   -1.6000    0.0000 C   0  0  0  0  0  0  0  0  0  0  0  0
    0.0001   -3.2000    0.0000 H   0  0  0  0  0  0  0  0  0  0  0  0
    1.3857   -2.4000    0.0000 H   0  0  0  0  0  0  0  0  0  0  0  0
   -1.5035   -1.0528    0.0000 H   0  0  0  0  0  0  0  0  0  0  0  0
    0.0001    0.0000    0.0000 C   0  0  0  0  0  0  0  0  0  0  0  0
    1.5757   -0.2778    0.0000 C   0  0  0  0  0  0  0  0  0  0  0  0
    2.6041    0.9479    0.0000 C   0  0  0  0  0  0  0  0  0  0  0  0
    2.0569    2.4513    0.0000 H   0  0  0  0  0  0  0  0  0  0  0  0
    4.1797    0.6700    0.0000 C   0  0  0  0  0  0  0  0  0  0  0  0
    5.2084    1.8957    0.0000 H   0  0  0  0  0  0  0  0  0  0  0  0
    4.7270   -0.8335    0.0000 C   0  0  0  0  0  0  0  0  0  0  0  0
    6.3028   -1.1114    0.0000 O   0  0  0  0  0  0  0  0  0  0  0  0
    7.3312    0.1143    0.0000 H   0  0  0  0  0  0  0  0  0  0  0  0
    3.6986   -2.0591    0.0000 C   0  0  0  0  0  0  0  0  0  0  0  0
    4.2458   -3.5627    0.0000 H   0  0  0  0  0  0  0  0  0  0  0  0
    2.1230   -1.7814    0.0000 C   0  0  0  0  0  0  0  0  0  0  0  0
    1.8451   -3.3571    0.0000 H   0  0  0  0  0  0  0  0  0  0  0  0
   -1.5999    0.0000    0.0000 C   0  0  0  0  0  0  0  0  0  0  0  0
   -2.3999    1.3857    0.0000 C   0  0  0  0  0  0  0  0  0  0  0  0
   -1.5999    2.7713    0.0000 H   0  0  0  0  0  0  0  0  0  0  0  0
   -4.0000    1.3857    0.0000 C   0  0  0  0  0  0  0  0  0  0  0  0
   -4.8000    2.7713    0.0000 H   0  0  0  0  0  0  0  0  0  0  0  0
   -4.8000    0.0000    0.0000 C   0  0  0  0  0  0  0  0  0  0  0  0
   -6.4000    0.0000    0.0000 O   0  0  0  0  0  0  0  0  0  0  0  0
   -7.2000    1.3857    0.0000 H   0  0  0  0  0  0  0  0  0  0  0  0
   -4.0000   -1.3856    0.0000 C   0  0  0  0  0  0  0  0  0  0  0  0
   -4.8000   -2.7713    0.0000 H   0  0  0  0  0  0  0  0  0  0  0  0
   -2.3999   -1.3856    0.0000 C   0  0  0  0  0  0  0  0  0  0  0  0
   -1.5999   -2.7713    0.0000 H   0  0  0  0  0  0  0  0  0  0  0  0
   -0.2777    1.5757    0.0000 C   0  0  0  0  0  0  0  0  0  0  0  0
   -0.5556    3.1514    0.0000 H   0  0  0  0  0  0  0  0  0  0  0  0
    0.9478    2.6042    0.0000 H   0  0  0  0  0  0  0  0  0  0  0  0
    1.2256    1.0284    0.0000 H   0  0  0  0  0  0  0  0  0  0  0  0
  1  2  1  0  0  0  0
  1  3  1  0  0  0  0
  1  4  1  0  0  0  0
  1  5  1  0  0  0  0
  5  6  1  0  0  0  0
  6  7  1  0  0  0  0
  7  8  1  0  0  0  0
  7  9  2  0  0  0  0
  9 10  1  0  0  0  0
  9 11  1  0  0  0  0
 11 12  1  0  0  0  0
 12 13  1  0  0  0  0
 11 14  2  0  0  0  0
 14 15  1  0  0  0  0
 14 16  1  0  0  0  0
 16  6  2  0  0  0  0
 16 17  1  0  0  0  0
  5 18  1  0  0  0  0
 18 19  1  0  0  0  0
 19 20  1  0  0  0  0
 19 21  2  0  0  0  0
 21 22  1  0  0  0  0
 21 23  1  0  0  0  0
 23 24  1  0  0  0  0
 24 25  1  0  0  0  0
 23 26  2  0  0  0  0
 26 27  1  0  0  0  0
 26 28  1  0  0  0  0
 28 18  2  0  0  0  0
 28 29  1  0  0  0  0
  5 30  1  0  0  0  0
 30 31  1  0  0  0  0
 30 32  1  0  0  0  0
 30 33  1  0  0  0  0
M  END
> <ChemID>
100161

> <source_casrn>
80-05-7

> <CAS>
80-05-7

> <SMILES>
CC(C)(c1ccc(O)cc1)c1ccc(O)cc1

> <NAME>
Phenol, 4,4'-(1-methylethylidene)bis-

> <preferred_name>
Bisphenol A

> <iupac>
4,4'-propane-2,2-diyldiphenol

> <MPID>
100172

> <dsstox_substance_id>
DTXSID7020182

> <Canonical_QSARr>
CC(C)(c1ccc(O)cc1)c1ccc(O)cc1

> <InChI_Code_QSARr>
InChI=1S/C15H16O2/c1-15(2,11-3-7-13(16)8-4-11)12-5-9-14(17)10-6-12/h3-10,16-17H,1-2H3

> <InChI Key_QSARr>
IISBACLAFKSPIT-UHFFFAOYSA-N

> <Salt_Solvent>
?

> <Ready_Biodeg>
0.0

$$$$
100162
  -INDIGO-08031722522D

 26 27  0  0  0  0  0  0  0  0999 V2000
    0.5857    2.1856    0.0000 O   0  0  0  0  0  0  0  0  0  0  0  0
    1.3857    0.8000    0.0000 S   0  0  0  0  0  0  0  0  0  0  0  0
    2.1857   -0.5856    0.0000 O   0  0  0  0  0  0  0  0  0  0  0  0
    0.0000   -0.0000    0.0000 C   0  0  0  0  0  0  0  0  0  0  0  0
    0.0000   -1.6000    0.0000 C   0  0  0  0  0  0  0  0  0  0  0  0
    1.3857   -2.4000    0.0000 H   0  0  0  0  0  0  0  0  0  0  0  0
   -1.3857   -2.4000    0.0000 C   0  0  0  0  0  0  0  0  0  0  0  0
   -1.3857   -4.0000    0.0000 H   0  0  0  0  0  0  0  0  0  0  0  0
   -2.7712   -1.6000    0.0000 C   0  0  0  0  0  0  0  0  0  0  0  0
   -4.1569   -2.4000    0.0000 Cl  0  0  0  0  0  0  0  0  0  0  0  0
   -2.7712   -0.0000    0.0000 C   0  0  0  0  0  0  0  0  0  0  0  0
   -4.1569    0.8000    0.0000 H   0  0  0  0  0  0  0  0  0  0  0  0
   -1.3857    0.8000    0.0000 C   0  0  0  0  0  0  0  0  0  0  0  0
   -1.3857    2.4000    0.0000 H   0  0  0  0  0  0  0  0  0  0  0  0
    2.7712    1.6000    0.0000 O   0  0  0  0  0  0  0  0  0  0  0  0
    4.1569    0.8000    0.0000 C   0  0  0  0  0  0  0  0  0  0  0  0
    5.5426    1.6000    0.0000 C   0  0  0  0  0  0  0  0  0  0  0  0
    5.5426    3.2000    0.0000 H   0  0  0  0  0  0  0  0  0  0  0  0
    6.9281    0.8000    0.0000 C   0  0  0  0  0  0  0  0  0  0  0  0
    8.3138    1.6000    0.0000 H   0  0  0  0  0  0  0  0  0  0  0  0
    6.9281   -0.8000    0.0000 C   0  0  0  0  0  0  0  0  0  0  0  0
    8.3138   -1.6000    0.0000 Cl  0  0  0  0  0  0  0  0  0  0  0  0
    5.5426   -1.6000    0.0000 C   0  0  0  0  0  0  0  0  0  0  0  0
    5.5426   -3.2000    0.0000 H   0  0  0  0  0  0  0  0  0  0  0  0
    4.1569   -0.8000    0.0000 C   0  0  0  0  0  0  0  0  0  0  0  0
    2.7712   -1.6000    0.0000 H   0  0  0  0  0  0  0  0  0  0  0  0
  1  2  2  0  0  0  0
  2  3  2  0  0  0  0
  2  4  1  0  0  0  0
  4  5  1  0  0  0  0
  5  6  1  0  0  0  0
  5  7  2  0  0  0  0
  7  8  1  0  0  0  0
  7  9  1  0  0  0  0
  9 10  1  0  0  0  0
  9 11  2  0  0  0  0
 11 12  1  0  0  0  0
 11 13  1  0  0  0  0
 13  4  2  0  0  0  0
 13 14  1  0  0  0  0
  2 15  1  0  0  0  0
 15 16  1  0  0  0  0
 16 17  1  0  0  0  0
 17 18  1  0  0  0  0
 17 19  2  0  0  0  0
 19 20  1  0  0  0  0
 19 21  1  0  0  0  0
 21 22  1  0  0  0  0
 21 23  2  0  0  0  0
 23 24  1  0  0  0  0
 23 25  1  0  0  0  0
 25 16  2  0  0  0  0
 25 26  1  0  0  0  0
M  END
> <ChemID>
100162

> <source_casrn>
80-33-1

> <CAS>
80-33-1

> <SMILES>
O=S(=O)(Oc1ccc(Cl)cc1)c1ccc(Cl)cc1

> <NAME>
Ovex

> <preferred_name>
Chlorfenson

> <iupac>
4-chlorophenyl 4-chlorobenzenesulfonate

> <MPID>
100173

> <dsstox_substance_id>
DTXSID5020310

> <Canonical_QSARr>
O=S(=O)(Oc1ccc(Cl)cc1)c1ccc(Cl)cc1

> <InChI_Code_QSARr>
InChI=1S/C12H8Cl2O3S/c13-9-1-5-11(6-2-9)17-18(15,16)12-7-3-10(14)4-8-12/h1-8H

> <InChI Key_QSARr>
RZXLPPRPEOUENN-UHFFFAOYSA-N

> <Salt_Solvent>
?

> <Ready_Biodeg>
0.0

$$$$
100164
  -INDIGO-08031722522D

 37 38  0  0  0  0  0  0  0  0999 V2000
   -0.0001   -0.0001    0.0000 C   0  0  0  0  0  0  0  0  0  0  0  0
    1.0285   -1.2257    0.0000 C   0  0  0  0  0  0  0  0  0  0  0  0
    0.4813   -2.7292    0.0000 H   0  0  0  0  0  0  0  0  0  0  0  0
    2.6040   -0.9479    0.0000 C   0  0  0  0  0  0  0  0  0  0  0  0
    3.6326   -2.1735    0.0000 H   0  0  0  0  0  0  0  0  0  0  0  0
    3.1513    0.5556    0.0000 C   0  0  0  0  0  0  0  0  0  0  0  0
    4.7271    0.8335    0.0000 O   0  0  0  0  0  0  0  0  0  0  0  0
    6.1126    0.0335    0.0000 C   0  0  0  0  0  0  0  0  0  0  0  0
    6.1126   -1.5665    0.0000 C   0  0  0  0  0  0  0  0  0  0  0  0
    4.7271   -2.3665    0.0000 H   0  0  0  0  0  0  0  0  0  0  0  0
    7.4984   -2.3665    0.0000 C   0  0  0  0  0  0  0  0  0  0  0  0
    7.4984   -3.9665    0.0000 H   0  0  0  0  0  0  0  0  0  0  0  0
    8.8839   -1.5665    0.0000 C   0  0  0  0  0  0  0  0  0  0  0  0
   10.2697   -2.3665    0.0000 S   0  0  0  0  0  0  0  0  0  0  0  0
    9.4697   -3.7521    0.0000 O   0  0  0  0  0  0  0  0  0  0  0  0
   11.0695   -0.9808    0.0000 O   0  0  0  0  0  0  0  0  0  0  0  0
   11.6552   -3.1665    0.0000 N   0  0  0  0  0  0  0  0  0  0  0  0
   11.6552   -4.7665    0.0000 H   0  0  0  0  0  0  0  0  0  0  0  0
   13.0411   -2.3665    0.0000 N   0  0  0  0  0  0  0  0  0  0  0  0
   14.4266   -3.1665    0.0000 H   0  0  0  0  0  0  0  0  0  0  0  0
   13.0411   -0.7664    0.0000 H   0  0  0  0  0  0  0  0  0  0  0  0
    8.8839    0.0335    0.0000 C   0  0  0  0  0  0  0  0  0  0  0  0
   10.2697    0.8335    0.0000 H   0  0  0  0  0  0  0  0  0  0  0  0
    7.4984    0.8335    0.0000 C   0  0  0  0  0  0  0  0  0  0  0  0
    7.4984    2.4335    0.0000 H   0  0  0  0  0  0  0  0  0  0  0  0
    2.1230    1.7813    0.0000 C   0  0  0  0  0  0  0  0  0  0  0  0
    2.6702    3.2849    0.0000 H   0  0  0  0  0  0  0  0  0  0  0  0
    0.5472    1.5034    0.0000 C   0  0  0  0  0  0  0  0  0  0  0  0
   -0.4811    2.7292    0.0000 H   0  0  0  0  0  0  0  0  0  0  0  0
   -1.5756   -0.2778    0.0000 S   0  0  0  0  0  0  0  0  0  0  0  0
   -1.8534    1.2979    0.0000 O   0  0  0  0  0  0  0  0  0  0  0  0
   -1.2978   -1.8536    0.0000 O   0  0  0  0  0  0  0  0  0  0  0  0
   -3.1514   -0.5557    0.0000 N   0  0  0  0  0  0  0  0  0  0  0  0
   -3.6987   -2.0592    0.0000 H   0  0  0  0  0  0  0  0  0  0  0  0
   -4.1797    0.6700    0.0000 N   0  0  0  0  0  0  0  0  0  0  0  0
   -5.7555    0.3922    0.0000 H   0  0  0  0  0  0  0  0  0  0  0  0
   -3.6325    2.1735    0.0000 H   0  0  0  0  0  0  0  0  0  0  0  0
  1  2  1  0  0  0  0
  2  3  1  0  0  0  0
  2  4  2  0  0  0  0
  4  5  1  0  0  0  0
  4  6  1  0  0  0  0
  6  7  1  0  0  0  0
  7  8  1  0  0  0  0
  8  9  1  0  0  0  0
  9 10  1  0  0  0  0
  9 11  2  0  0  0  0
 11 12  1  0  0  0  0
 11 13  1  0  0  0  0
 13 14  1  0  0  0  0
 14 15  2  0  0  0  0
 14 16  2  0  0  0  0
 14 17  1  0  0  0  0
 17 18  1  0  0  0  0
 17 19  1  0  0  0  0
 19 20  1  0  0  0  0
 19 21  1  0  0  0  0
 13 22  2  0  0  0  0
 22 23  1  0  0  0  0
 22 24  1  0  0  0  0
 24  8  2  0  0  0  0
 24 25  1  0  0  0  0
  6 26  2  0  0  0  0
 26 27  1  0  0  0  0
 26 28  1  0  0  0  0
 28  1  2  0  0  0  0
 28 29  1  0  0  0  0
  1 30  1  0  0  0  0
 30 31  2  0  0  0  0
 30 32  2  0  0  0  0
 30 33  1  0  0  0  0
 33 34  1  0  0  0  0
 33 35  1  0  0  0  0
 35 36  1  0  0  0  0
 35 37  1  0  0  0  0
M  END
> <ChemID>
100164

> <source_casrn>
80-51-3

> <CAS>
80-51-3

> <SMILES>
NNS(=O)(=O)c1ccc(cc1)Oc1ccc(cc1)S(=O)(=O)NN

> <NAME>
Benzenesulfonic acid, 4,4'-oxybis-, dihydrazide

> <preferred_name>
4,4'-Oxybis(benzenesulfonhydrazide)

> <iupac>
C12H14N4O5S2

> <MPID>
100175

> <dsstox_substance_id>
DTXSID7026499

> <Canonical_QSARr>
NNS(=O)(=O)c1ccc(cc1)Oc1ccc(cc1)S(=O)(=O)NN

> <InChI_Code_QSARr>
InChI=1S/C12H14N4O5S2/c13-15-22(17,18)11-5-1-9(2-6-11)21-10-3-7-12(8-4-10)23(19,20)16-14/h1-8,15-16H,13-14H2

> <InChI Key_QSARr>
NBOCQTNZUPTTEI-UHFFFAOYSA-N

> <Salt_Solvent>
?

> <Ready_Biodeg>
0.0

$$$$
100165
  -INDIGO-08031722522D

 35 35  0  0  0  0  0  0  0  0999 V2000
    4.7999    0.0000    0.0000 C   0  0  0  0  0  0  0  0  0  0  0  0
    4.0000    1.3856    0.0000 C   0  0  0  0  0  0  0  0  0  0  0  0
    4.7999    2.7712    0.0000 H   0  0  0  0  0  0  0  0  0  0  0  0
    2.4001    1.3856    0.0000 C   0  0  0  0  0  0  0  0  0  0  0  0
    1.5999    2.7712    0.0000 H   0  0  0  0  0  0  0  0  0  0  0  0
    1.5999    0.0000    0.0000 C   0  0  0  0  0  0  0  0  0  0  0  0
    0.0000    0.0000    0.0000 C   0  0  0  0  0  0  0  0  0  0  0  0
   -1.6001    0.0000    0.0000 C   0  0  0  0  0  0  0  0  0  0  0  0
   -3.2000    0.0000    0.0000 H   0  0  0  0  0  0  0  0  0  0  0  0
   -2.6284    1.2257    0.0000 H   0  0  0  0  0  0  0  0  0  0  0  0
   -2.6284   -1.2257    0.0000 H   0  0  0  0  0  0  0  0  0  0  0  0
    0.0000    1.6000    0.0000 C   0  0  0  0  0  0  0  0  0  0  0  0
    0.2779    3.1757    0.0000 H   0  0  0  0  0  0  0  0  0  0  0  0
   -1.2257    2.6285    0.0000 H   0  0  0  0  0  0  0  0  0  0  0  0
   -1.5035    1.0528    0.0000 H   0  0  0  0  0  0  0  0  0  0  0  0
    0.0000   -1.6000    0.0000 C   0  0  0  0  0  0  0  0  0  0  0  0
    0.2779   -3.1757    0.0000 H   0  0  0  0  0  0  0  0  0  0  0  0
   -1.2257   -2.6284    0.0000 H   0  0  0  0  0  0  0  0  0  0  0  0
   -1.5035   -1.0527    0.0000 H   0  0  0  0  0  0  0  0  0  0  0  0
    2.4001   -1.3857    0.0000 C   0  0  0  0  0  0  0  0  0  0  0  0
    1.5999   -2.7713    0.0000 H   0  0  0  0  0  0  0  0  0  0  0  0
    4.0000   -1.3857    0.0000 C   0  0  0  0  0  0  0  0  0  0  0  0
    4.7999   -2.7713    0.0000 H   0  0  0  0  0  0  0  0  0  0  0  0
    6.4000    0.0000    0.0000 C   0  0  0  0  0  0  0  0  0  0  0  0
    7.6694   -0.9741    0.0000 H   0  0  0  0  0  0  0  0  0  0  0  0
    6.6088   -1.5863    0.0000 H   0  0  0  0  0  0  0  0  0  0  0  0
    7.2000    1.3856    0.0000 C   0  0  0  0  0  0  0  0  0  0  0  0
    5.6964    1.9329    0.0000 H   0  0  0  0  0  0  0  0  0  0  0  0
    8.7035    0.8384    0.0000 C   0  0  0  0  0  0  0  0  0  0  0  0
    8.9814   -0.7373    0.0000 H   0  0  0  0  0  0  0  0  0  0  0  0
    9.9292    1.8669    0.0000 O   0  0  0  0  0  0  0  0  0  0  0  0
    7.7473    2.8892    0.0000 C   0  0  0  0  0  0  0  0  0  0  0  0
    8.2944    4.3927    0.0000 H   0  0  0  0  0  0  0  0  0  0  0  0
    9.3230    3.1670    0.0000 H   0  0  0  0  0  0  0  0  0  0  0  0
    6.7188    4.1148    0.0000 H   0  0  0  0  0  0  0  0  0  0  0  0
  1  2  1  0  0  0  0
  2  3  1  0  0  0  0
  2  4  2  0  0  0  0
  4  5  1  0  0  0  0
  4  6  1  0  0  0  0
  6  7  1  0  0  0  0
  7  8  1  0  0  0  0
  8  9  1  0  0  0  0
  8 10  1  0  0  0  0
  8 11  1  0  0  0  0
  7 12  1  0  0  0  0
 12 13  1  0  0  0  0
 12 14  1  0  0  0  0
 12 15  1  0  0  0  0
  7 16  1  0  0  0  0
 16 17  1  0  0  0  0
 16 18  1  0  0  0  0
 16 19  1  0  0  0  0
  6 20  2  0  0  0  0
 20 21  1  0  0  0  0
 20 22  1  0  0  0  0
 22  1  2  0  0  0  0
 22 23  1  0  0  0  0
  1 24  1  0  0  0  0
 24 25  1  0  0  0  0
 24 26  1  0  0  0  0
 24 27  1  0  0  0  0
 27 28  1  0  0  0  0
 27 29  1  0  0  0  0
 29 30  1  0  0  0  0
 29 31  2  0  0  0  0
 27 32  1  0  0  0  0
 32 33  1  0  0  0  0
 32 34  1  0  0  0  0
 32 35  1  0  0  0  0
M  END
> <ChemID>
100165

> <source_casrn>
80-54-6

> <CAS>
80-54-6

> <SMILES>
CC(C)(C)c1ccc(CC(C)C=O)cc1

> <NAME>
Benzenepropanal, 4-(1,1-dimethylethyl)-.alpha.-methyl-

> <preferred_name>
3-(4-tert-Butylphenyl)-2-methylpropanal

> <iupac>
3-(4-tert-butylphenyl)-2-methylpropanal

> <MPID>
100176

> <dsstox_substance_id>
DTXSID9026500

> <Canonical_QSARr>
CC(C)(C)c1ccc(CC(C)C=O)cc1

> <InChI_Code_QSARr>
InChI=1S/C14H20O/c1-11(10-15)9-12-5-7-13(8-6-12)14(2,3)4/h5-8,10-11H,9H2,1-4H3

> <InChI Key_QSARr>
SDQFDHOLCGWZPU-UHFFFAOYSA-N

> <Salt_Solvent>
?

> <Ready_Biodeg>
0.0

$$$$
100166
  -INDIGO-08031722522D

 15 14  0  0  0  0  0  0  0  0999 V2000
   -1.3857    2.4000    0.0000 O   0  0  0  0  0  0  0  0  0  0  0  0
   -1.3857    0.8000    0.0000 C   0  0  0  0  0  0  0  0  0  0  0  0
    0.0000    0.0000    0.0000 C   0  0  0  0  0  0  0  0  0  0  0  0
    0.0000   -1.6000    0.0000 C   0  0  0  0  0  0  0  0  0  0  0  0
   -1.3856   -2.4000    0.0000 H   0  0  0  0  0  0  0  0  0  0  0  0
    1.3856   -2.4000    0.0000 H   0  0  0  0  0  0  0  0  0  0  0  0
    1.3856    0.8000    0.0000 C   0  0  0  0  0  0  0  0  0  0  0  0
    2.7713    1.6000    0.0000 H   0  0  0  0  0  0  0  0  0  0  0  0
    2.7713    0.0000    0.0000 H   0  0  0  0  0  0  0  0  0  0  0  0
    1.3856    2.4000    0.0000 H   0  0  0  0  0  0  0  0  0  0  0  0
   -2.7713   -0.0000    0.0000 O   0  0  0  0  0  0  0  0  0  0  0  0
   -4.1569    0.8000    0.0000 C   0  0  0  0  0  0  0  0  0  0  0  0
   -5.5426    1.6000    0.0000 H   0  0  0  0  0  0  0  0  0  0  0  0
   -5.5426   -0.0000    0.0000 H   0  0  0  0  0  0  0  0  0  0  0  0
   -4.1569    2.4000    0.0000 H   0  0  0  0  0  0  0  0  0  0  0  0
  1  2  2  0  0  0  0
  2  3  1  0  0  0  0
  3  4  2  0  0  0  0
  4  5  1  0  0  0  0
  4  6  1  0  0  0  0
  3  7  1  0  0  0  0
  7  8  1  0  0  0  0
  7  9  1  0  0  0  0
  7 10  1  0  0  0  0
  2 11  1  0  0  0  0
 11 12  1  0  0  0  0
 12 13  1  0  0  0  0
 12 14  1  0  0  0  0
 12 15  1  0  0  0  0
M  END
> <ChemID>
100166

> <source_casrn>
80-62-6

> <CAS>
80-62-6

> <SMILES>
CC(=C)C(=O)OC

> <NAME>
2-Propenoic acid, 2-methyl-, methyl ester

> <preferred_name>
Methyl methacrylate

> <iupac>
methyl 2-methylprop-2-enoate

> <MPID>
100177

> <dsstox_substance_id>
DTXSID2020844

> <Canonical_QSARr>
CC(=C)C(=O)OC

> <InChI_Code_QSARr>
InChI=1S/C5H8O2/c1-4(2)5(6)7-3/h1H2,2-3H3

> <InChI Key_QSARr>
VVQNEPGJFQJSBK-UHFFFAOYSA-N

> <Salt_Solvent>
?

> <Ready_Biodeg>
1.0

$$$$
100168
  -INDIGO-08031722522D

 36 36  0  0  0  0  0  0  0  0999 V2000
   -0.0001   -1.6000    0.0000 C   0  0  0  0  0  0  0  0  0  0  0  0
    1.3857   -2.4000    0.0000 H   0  0  0  0  0  0  0  0  0  0  0  0
    1.5036   -1.0528    0.0000 H   0  0  0  0  0  0  0  0  0  0  0  0
   -1.5035   -1.0528    0.0000 H   0  0  0  0  0  0  0  0  0  0  0  0
   -0.0001   -0.0001    0.0000 C   0  0  0  0  0  0  0  0  0  0  0  0
   -1.6000   -0.0001    0.0000 C   0  0  0  0  0  0  0  0  0  0  0  0
   -2.4000    1.3856    0.0000 C   0  0  0  0  0  0  0  0  0  0  0  0
   -1.6000    2.7713    0.0000 N   0  0  0  0  0  0  0  0  0  0  0  0
   -2.4000    4.1569    0.0000 O   0  0  0  0  0  0  0  0  0  0  0  0
   -0.0001    2.7713    0.0000 O   0  0  0  0  0  0  0  0  0  0  0  0
   -3.9999    1.3856    0.0000 C   0  0  0  0  0  0  0  0  0  0  0  0
   -4.8001    2.7713    0.0000 C   0  0  0  0  0  0  0  0  0  0  0  0
   -5.6000    4.1569    0.0000 H   0  0  0  0  0  0  0  0  0  0  0  0
   -6.4000    2.7713    0.0000 H   0  0  0  0  0  0  0  0  0  0  0  0
   -3.9999    4.1569    0.0000 H   0  0  0  0  0  0  0  0  0  0  0  0
   -4.8001   -0.0001    0.0000 C   0  0  0  0  0  0  0  0  0  0  0  0
   -6.4000   -0.0001    0.0000 N   0  0  0  0  0  0  0  0  0  0  0  0
   -7.2000    1.3856    0.0000 O   0  0  0  0  0  0  0  0  0  0  0  0
   -7.2000   -1.3856    0.0000 O   0  0  0  0  0  0  0  0  0  0  0  0
   -3.9999   -1.3856    0.0000 C   0  0  0  0  0  0  0  0  0  0  0  0
   -4.8001   -2.7712    0.0000 C   0  0  0  0  0  0  0  0  0  0  0  0
   -5.6000   -4.1569    0.0000 H   0  0  0  0  0  0  0  0  0  0  0  0
   -6.4000   -2.7713    0.0000 H   0  0  0  0  0  0  0  0  0  0  0  0
   -3.9999   -4.1569    0.0000 H   0  0  0  0  0  0  0  0  0  0  0  0
   -2.4000   -1.3856    0.0000 C   0  0  0  0  0  0  0  0  0  0  0  0
   -1.6000   -2.7713    0.0000 N   0  0  0  0  0  0  0  0  0  0  0  0
   -2.4000   -4.1569    0.0000 O   0  0  0  0  0  0  0  0  0  0  0  0
   -0.0001   -2.7713    0.0000 O   0  0  0  0  0  0  0  0  0  0  0  0
    1.6000   -0.0001    0.0000 C   0  0  0  0  0  0  0  0  0  0  0  0
    3.2000   -0.0001    0.0000 H   0  0  0  0  0  0  0  0  0  0  0  0
    2.4000   -1.3856    0.0000 H   0  0  0  0  0  0  0  0  0  0  0  0
    2.4000    1.3856    0.0000 H   0  0  0  0  0  0  0  0  0  0  0  0
   -0.0001    1.6000    0.0000 C   0  0  0  0  0  0  0  0  0  0  0  0
    1.3857    2.4000    0.0000 H   0  0  0  0  0  0  0  0  0  0  0  0
    1.5036    1.0528    0.0000 H   0  0  0  0  0  0  0  0  0  0  0  0
   -1.5035    1.0528    0.0000 H   0  0  0  0  0  0  0  0  0  0  0  0
  1  2  1  0  0  0  0
  1  3  1  0  0  0  0
  1  4  1  0  0  0  0
  1  5  1  0  0  0  0
  5  6  1  0  0  0  0
  6  7  1  0  0  0  0
  7  8  1  0  0  0  0
  8  9  2  0  0  0  0
  8 10  1  0  0  0  0
  7 11  2  0  0  0  0
 11 12  1  0  0  0  0
 12 13  1  0  0  0  0
 12 14  1  0  0  0  0
 12 15  1  0  0  0  0
 11 16  1  0  0  0  0
 16 17  1  0  0  0  0
 17 18  2  0  0  0  0
 17 19  1  0  0  0  0
 16 20  2  0  0  0  0
 20 21  1  0  0  0  0
 21 22  1  0  0  0  0
 21 23  1  0  0  0  0
 21 24  1  0  0  0  0
 20 25  1  0  0  0  0
 25  6  2  0  0  0  0
 25 26  1  0  0  0  0
 26 27  2  0  0  0  0
 26 28  1  0  0  0  0
  5 29  1  0  0  0  0
 29 30  1  0  0  0  0
 29 31  1  0  0  0  0
 29 32  1  0  0  0  0
  5 33  1  0  0  0  0
 33 34  1  0  0  0  0
 33 35  1  0  0  0  0
 33 36  1  0  0  0  0
M  CHG  6   8   1  10  -1  17   1  19  -1  26   1  28  -1
M  END
> <ChemID>
100168

> <source_casrn>
81-15-2

> <CAS>
81-15-2

> <SMILES>
CC(C)(C)c1c(c(C)c(c(C)c1[N+]([O-])=O)[N+]([O-])=O)[N+]([O-])=O

> <NAME>
Benzene, 1-(1,1-dimethylethyl)-3,5-dimethyl-2,4,6-trinitro-

> <preferred_name>
2,4,6-Trinitro-1,3-dimethyl-5-tert-butylbenzene

> <iupac>
1-tert-butyl-3,5-dimethyl-2,4,6-trinitrobenzene

> <MPID>
100179

> <dsstox_substance_id>
DTXSID1021405

> <Canonical_QSARr>
CC(C)(C)c1c(c(C)c(c(C)c1[N+]([O-])=O)[N+]([O-])=O)[N+]([O-])=O

> <InChI_Code_QSARr>
InChI=1S/C12H15N3O6/c1-6-9(13(16)17)7(2)11(15(20)21)8(12(3,4)5)10(6)14(18)19/h1-5H3

> <InChI Key_QSARr>
XMWRWTSZNLOZFN-UHFFFAOYSA-N

> <Salt_Solvent>
?

> <Ready_Biodeg>
0.0

$$$$
100169
  -INDIGO-08031722522D

 24 25  0  0  0  0  0  0  0  0999 V2000
    0.0000    0.0000    0.0000 C   0  0  0  0  0  0  0  0  0  0  0  0
    1.6001    0.0000    0.0000 C   0  0  0  0  0  0  0  0  0  0  0  0
    2.4000   -1.3856    0.0000 C   0  0  0  0  0  0  0  0  0  0  0  0
    4.0000   -1.3856    0.0000 C   0  0  0  0  0  0  0  0  0  0  0  0
    4.8001   -2.7713    0.0000 H   0  0  0  0  0  0  0  0  0  0  0  0
    4.8001    0.0000    0.0000 C   0  0  0  0  0  0  0  0  0  0  0  0
    6.4000    0.0000    0.0000 H   0  0  0  0  0  0  0  0  0  0  0  0
    4.0000    1.3856    0.0000 C   0  0  0  0  0  0  0  0  0  0  0  0
    4.8001    2.7713    0.0000 H   0  0  0  0  0  0  0  0  0  0  0  0
    2.4000    1.3856    0.0000 C   0  0  0  0  0  0  0  0  0  0  0  0
    1.6001    2.7713    0.0000 H   0  0  0  0  0  0  0  0  0  0  0  0
    1.6001   -2.7713    0.0000 C   0  0  0  0  0  0  0  0  0  0  0  0
    2.4000   -4.1569    0.0000 H   0  0  0  0  0  0  0  0  0  0  0  0
    0.0000   -2.7713    0.0000 C   0  0  0  0  0  0  0  0  0  0  0  0
   -0.8000   -4.1569    0.0000 H   0  0  0  0  0  0  0  0  0  0  0  0
   -0.8000   -1.3856    0.0000 C   0  0  0  0  0  0  0  0  0  0  0  0
   -2.4000   -1.3856    0.0000 N   0  0  0  0  0  0  0  0  0  0  0  0
   -3.2000   -2.7713    0.0000 H   0  0  0  0  0  0  0  0  0  0  0  0
   -3.2000    0.0000    0.0000 H   0  0  0  0  0  0  0  0  0  0  0  0
   -0.8000    1.3856    0.0000 S   0  0  0  0  0  0  0  0  0  0  0  0
   -2.1856    0.5857    0.0000 O   0  0  0  0  0  0  0  0  0  0  0  0
   -1.5999    2.7713    0.0000 O   0  0  0  0  0  0  0  0  0  0  0  0
   -3.2000    2.7713    0.0000 H   0  0  0  0  0  0  0  0  0  0  0  0
    0.5857    2.1856    0.0000 O   0  0  0  0  0  0  0  0  0  0  0  0
  1  2  1  0  0  0  0
  2  3  1  0  0  0  0
  3  4  2  0  0  0  0
  4  5  1  0  0  0  0
  4  6  1  0  0  0  0
  6  7  1  0  0  0  0
  6  8  2  0  0  0  0
  8  9  1  0  0  0  0
  8 10  1  0  0  0  0
 10  2  2  0  0  0  0
 10 11  1  0  0  0  0
  3 12  1  0  0  0  0
 12 13  1  0  0  0  0
 12 14  2  0  0  0  0
 14 15  1  0  0  0  0
 14 16  1  0  0  0  0
 16  1  2  0  0  0  0
 16 17  1  0  0  0  0
 17 18  1  0  0  0  0
 17 19  1  0  0  0  0
  1 20  1  0  0  0  0
 20 21  2  0  0  0  0
 20 22  1  0  0  0  0
 22 23  1  0  0  0  0
 20 24  2  0  0  0  0
M  END
> <ChemID>
100169

> <source_casrn>
81-16-3

> <CAS>
81-16-3

> <SMILES>
Nc1ccc2ccccc2c1S(O)(=O)=O

> <NAME>
1-Naphthalenesulfonic acid, 2-amino-

> <preferred_name>
2-Amino-1-naphthalenesulfonic acid

> <iupac>
2-aminonaphthalene-1-sulfonic acid

> <MPID>
100180

> <dsstox_substance_id>
DTXSID7020922

> <Canonical_QSARr>
Nc1ccc2ccccc2c1S(O)(=O)=O

> <InChI_Code_QSARr>
InChI=1S/C10H9NO3S/c11-9-6-5-7-3-1-2-4-8(7)10(9)15(12,13)14/h1-6H,11H2,(H,12,13,14)

> <InChI Key_QSARr>
GWIAAIUASRVOIA-UHFFFAOYSA-N

> <Salt_Solvent>
?

> <Ready_Biodeg>
0.0

$$$$
100170
  -INDIGO-08031722522D

 48 54  0  0  0  0  0  0  0  0999 V2000
    4.8000   -2.7713    0.0000 O   0  0  0  0  0  0  0  0  0  0  0  0
    4.0001   -1.3856    0.0000 C   0  0  0  0  0  0  0  0  0  0  0  0
    2.3999   -1.3856    0.0000 C   0  0  0  0  0  0  0  0  0  0  0  0
    1.6001   -0.0001    0.0000 C   0  0  0  0  0  0  0  0  0  0  0  0
    0.0001    0.0001    0.0000 C   0  0  0  0  0  0  0  0  0  0  0  0
   -0.8000    1.3856    0.0000 N   0  0  0  0  0  0  0  0  0  0  0  0
    0.0001    2.7713    0.0000 H   0  0  0  0  0  0  0  0  0  0  0  0
   -2.4000    1.3856    0.0000 C   0  0  0  0  0  0  0  0  0  0  0  0
   -3.2001    0.0001    0.0000 C   0  0  0  0  0  0  0  0  0  0  0  0
   -4.8001    0.0001    0.0000 C   0  0  0  0  0  0  0  0  0  0  0  0
   -5.5999    1.3856    0.0000 C   0  0  0  0  0  0  0  0  0  0  0  0
   -4.8001    2.7713    0.0000 C   0  0  0  0  0  0  0  0  0  0  0  0
   -5.5999    4.1569    0.0000 H   0  0  0  0  0  0  0  0  0  0  0  0
   -3.2001    2.7713    0.0000 C   0  0  0  0  0  0  0  0  0  0  0  0
   -2.4000    4.1569    0.0000 H   0  0  0  0  0  0  0  0  0  0  0  0
   -7.2001    1.3856    0.0000 C   0  0  0  0  0  0  0  0  0  0  0  0
   -8.0000    2.7713    0.0000 O   0  0  0  0  0  0  0  0  0  0  0  0
   -8.0000    0.0001    0.0000 C   0  0  0  0  0  0  0  0  0  0  0  0
   -7.2001   -1.3856    0.0000 C   0  0  0  0  0  0  0  0  0  0  0  0
   -8.0000   -2.7712    0.0000 C   0  0  0  0  0  0  0  0  0  0  0  0
   -7.2001   -4.1569    0.0000 H   0  0  0  0  0  0  0  0  0  0  0  0
   -9.5999   -2.7712    0.0000 C   0  0  0  0  0  0  0  0  0  0  0  0
  -10.4001   -4.1569    0.0000 H   0  0  0  0  0  0  0  0  0  0  0  0
  -10.4001   -1.3856    0.0000 C   0  0  0  0  0  0  0  0  0  0  0  0
  -12.0000   -1.3856    0.0000 H   0  0  0  0  0  0  0  0  0  0  0  0
   -9.5999    0.0001    0.0000 C   0  0  0  0  0  0  0  0  0  0  0  0
  -10.4001    1.3856    0.0000 H   0  0  0  0  0  0  0  0  0  0  0  0
   -5.5999   -1.3856    0.0000 C   0  0  0  0  0  0  0  0  0  0  0  0
   -4.8001   -2.7712    0.0000 O   0  0  0  0  0  0  0  0  0  0  0  0
   -2.4000   -1.3856    0.0000 N   0  0  0  0  0  0  0  0  0  0  0  0
   -3.2001   -2.7712    0.0000 H   0  0  0  0  0  0  0  0  0  0  0  0
   -0.8000   -1.3856    0.0000 C   0  0  0  0  0  0  0  0  0  0  0  0
    0.0001   -2.7712    0.0000 C   0  0  0  0  0  0  0  0  0  0  0  0
   -0.8000   -4.1569    0.0000 H   0  0  0  0  0  0  0  0  0  0  0  0
    1.6001   -2.7712    0.0000 C   0  0  0  0  0  0  0  0  0  0  0  0
    2.3999   -4.1569    0.0000 H   0  0  0  0  0  0  0  0  0  0  0  0
    2.3999    1.3856    0.0000 C   0  0  0  0  0  0  0  0  0  0  0  0
    1.6001    2.7712    0.0000 O   0  0  0  0  0  0  0  0  0  0  0  0
    4.0001    1.3856    0.0000 C   0  0  0  0  0  0  0  0  0  0  0  0
    4.8000   -0.0001    0.0000 C   0  0  0  0  0  0  0  0  0  0  0  0
    6.3999    0.0001    0.0000 C   0  0  0  0  0  0  0  0  0  0  0  0
    7.2000   -1.3856    0.0000 H   0  0  0  0  0  0  0  0  0  0  0  0
    7.2000    1.3856    0.0000 C   0  0  0  0  0  0  0  0  0  0  0  0
    8.8000    1.3856    0.0000 H   0  0  0  0  0  0  0  0  0  0  0  0
    6.3999    2.7712    0.0000 C   0  0  0  0  0  0  0  0  0  0  0  0
    7.2000    4.1569    0.0000 H   0  0  0  0  0  0  0  0  0  0  0  0
    4.8000    2.7712    0.0000 C   0  0  0  0  0  0  0  0  0  0  0  0
    4.0001    4.1569    0.0000 H   0  0  0  0  0  0  0  0  0  0  0  0
  1  2  2  0  0  0  0
  2  3  1  0  0  0  0
  3  4  1  0  0  0  0
  4  5  2  0  0  0  0
  5  6  1  0  0  0  0
  6  7  1  0  0  0  0
  6  8  1  0  0  0  0
  8  9  1  0  0  0  0
  9 10  2  0  0  0  0
 10 11  1  0  0  0  0
 11 12  2  0  0  0  0
 12 13  1  0  0  0  0
 12 14  1  0  0  0  0
 14  8  2  0  0  0  0
 14 15  1  0  0  0  0
 11 16  1  0  0  0  0
 16 17  2  0  0  0  0
 16 18  1  0  0  0  0
 18 19  1  0  0  0  0
 19 20  2  0  0  0  0
 20 21  1  0  0  0  0
 20 22  1  0  0  0  0
 22 23  1  0  0  0  0
 22 24  2  0  0  0  0
 24 25  1  0  0  0  0
 24 26  1  0  0  0  0
 26 18  2  0  0  0  0
 26 27  1  0  0  0  0
 19 28  1  0  0  0  0
 28 10  1  0  0  0  0
 28 29  2  0  0  0  0
  9 30  1  0  0  0  0
 30 31  1  0  0  0  0
 30 32  1  0  0  0  0
 32  5  1  0  0  0  0
 32 33  2  0  0  0  0
 33 34  1  0  0  0  0
 33 35  1  0  0  0  0
 35  3  2  0  0  0  0
 35 36  1  0  0  0  0
  4 37  1  0  0  0  0
 37 38  2  0  0  0  0
 37 39  1  0  0  0  0
 39 40  1  0  0  0  0
 40  2  1  0  0  0  0
 40 41  2  0  0  0  0
 41 42  1  0  0  0  0
 41 43  1  0  0  0  0
 43 44  1  0  0  0  0
 43 45  2  0  0  0  0
 45 46  1  0  0  0  0
 45 47  1  0  0  0  0
 47 39  2  0  0  0  0
 47 48  1  0  0  0  0
M  END
> <ChemID>
100170

> <source_casrn>
81-77-6

> <CAS>
81-77-6

> <SMILES>
O=C(c(c(c(Nc(c(N1)c(c(C(=O)c(c2ccc3)c3)c4)C2=O)c4)c1c5)C(=O)c6cccc7)c5)c67

> <NAME>
Vat Blue 4

> <preferred_name>
Vat Blue 4

> <iupac>
6,15-dihydrodinaphtho[2,3-a:2',3'-h]phenazine-5,9,14,18-tetrone

> <MPID>
100181

> <dsstox_substance_id>
DTXSID2026280

> <Canonical_QSARr>
O=C1c2c3Nc4ccc5c(c4Nc3ccc2C(=O)c2ccccc12)C(=O)c1ccccc1C5=O

> <InChI_Code_QSARr>
InChI=1S/C28H14N2O4/c31-25-13-5-1-3-7-15(13)27(33)21-17(25)9-11-19-23(21)29-20-12-10-18-22(24(20)30-19)28(34)16-8-4-2-6-14(16)26(18)32/h1-12,29-30H

> <InChI Key_QSARr>
UHOKSCJSTAHBSO-UHFFFAOYSA-N

> <Salt_Solvent>
?

> <Ready_Biodeg>
0.0

$$$$
100172
  -INDIGO-08031722522D

 24 26  0  0  0  0  0  0  0  0999 V2000
    0.0001   -0.0000    0.0000 C   0  0  0  0  0  0  0  0  0  0  0  0
   -1.3856    0.8000    0.0000 C   0  0  0  0  0  0  0  0  0  0  0  0
   -1.3856    2.4000    0.0000 Cl  0  0  0  0  0  0  0  0  0  0  0  0
   -2.7713   -0.0000    0.0000 C   0  0  0  0  0  0  0  0  0  0  0  0
   -4.1569    0.8000    0.0000 H   0  0  0  0  0  0  0  0  0  0  0  0
   -2.7713   -1.6000    0.0000 C   0  0  0  0  0  0  0  0  0  0  0  0
   -4.1569   -2.4000    0.0000 H   0  0  0  0  0  0  0  0  0  0  0  0
   -1.3856   -2.4000    0.0000 C   0  0  0  0  0  0  0  0  0  0  0  0
   -1.3856   -4.0000    0.0000 H   0  0  0  0  0  0  0  0  0  0  0  0
    0.0001   -1.6000    0.0000 C   0  0  0  0  0  0  0  0  0  0  0  0
    1.3857   -2.4000    0.0000 C   0  0  0  0  0  0  0  0  0  0  0  0
    1.3857   -4.0000    0.0000 O   0  0  0  0  0  0  0  0  0  0  0  0
    2.7712   -1.6000    0.0000 C   0  0  0  0  0  0  0  0  0  0  0  0
    2.7712   -0.0000    0.0000 C   0  0  0  0  0  0  0  0  0  0  0  0
    4.1569    0.8000    0.0000 C   0  0  0  0  0  0  0  0  0  0  0  0
    4.1569    2.4000    0.0000 H   0  0  0  0  0  0  0  0  0  0  0  0
    5.5425   -0.0000    0.0000 C   0  0  0  0  0  0  0  0  0  0  0  0
    6.9282    0.8000    0.0000 H   0  0  0  0  0  0  0  0  0  0  0  0
    5.5425   -1.6000    0.0000 C   0  0  0  0  0  0  0  0  0  0  0  0
    6.9282   -2.4000    0.0000 H   0  0  0  0  0  0  0  0  0  0  0  0
    4.1569   -2.4000    0.0000 C   0  0  0  0  0  0  0  0  0  0  0  0
    4.1569   -4.0000    0.0000 H   0  0  0  0  0  0  0  0  0  0  0  0
    1.3857    0.8000    0.0000 C   0  0  0  0  0  0  0  0  0  0  0  0
    1.3856    2.4000    0.0000 O   0  0  0  0  0  0  0  0  0  0  0  0
  1  2  1  0  0  0  0
  2  3  1  0  0  0  0
  2  4  2  0  0  0  0
  4  5  1  0  0  0  0
  4  6  1  0  0  0  0
  6  7  1  0  0  0  0
  6  8  2  0  0  0  0
  8  9  1  0  0  0  0
  8 10  1  0  0  0  0
 10  1  2  0  0  0  0
 10 11  1  0  0  0  0
 11 12  2  0  0  0  0
 11 13  1  0  0  0  0
 13 14  1  0  0  0  0
 14 15  2  0  0  0  0
 15 16  1  0  0  0  0
 15 17  1  0  0  0  0
 17 18  1  0  0  0  0
 17 19  2  0  0  0  0
 19 20  1  0  0  0  0
 19 21  1  0  0  0  0
 21 13  2  0  0  0  0
 21 22  1  0  0  0  0
 14 23  1  0  0  0  0
 23  1  1  0  0  0  0
 23 24  2  0  0  0  0
M  END
> <ChemID>
100172

> <source_casrn>
82-44-0

> <CAS>
82-44-0

> <SMILES>
O=C1c2cccc(Cl)c2C(=O)c2ccccc12

> <NAME>
9,10-Anthracenedione, 1-chloro-

> <preferred_name>
1-Chloroanthraquinone

> <iupac>
1-chloro-9,10-anthraquinone

> <MPID>
100183

> <dsstox_substance_id>
DTXSID7052571

> <Canonical_QSARr>
O=C1c2cccc(Cl)c2C(=O)c2ccccc12

> <InChI_Code_QSARr>
InChI=1S/C14H7ClO2/c15-11-7-3-6-10-12(11)14(17)9-5-2-1-4-8(9)13(10)16/h1-7H

> <InChI Key_QSARr>
BOCJQSFSGAZAPQ-UHFFFAOYSA-N

> <Salt_Solvent>
?

> <Ready_Biodeg>
0.0

$$$$
100173
  -INDIGO-08031722522D

 26 28  0  0  0  0  0  0  0  0999 V2000
    0.0001   -0.0000    0.0000 C   0  0  0  0  0  0  0  0  0  0  0  0
   -1.3856    0.8000    0.0000 C   0  0  0  0  0  0  0  0  0  0  0  0
   -1.3856    2.4000    0.0000 N   0  0  0  0  0  0  0  0  0  0  0  0
   -2.7713    3.2000    0.0000 H   0  0  0  0  0  0  0  0  0  0  0  0
    0.0001    3.2000    0.0000 H   0  0  0  0  0  0  0  0  0  0  0  0
   -2.7713   -0.0000    0.0000 C   0  0  0  0  0  0  0  0  0  0  0  0
   -4.1569    0.8000    0.0000 H   0  0  0  0  0  0  0  0  0  0  0  0
   -2.7713   -1.6000    0.0000 C   0  0  0  0  0  0  0  0  0  0  0  0
   -4.1569   -2.4000    0.0000 H   0  0  0  0  0  0  0  0  0  0  0  0
   -1.3856   -2.4000    0.0000 C   0  0  0  0  0  0  0  0  0  0  0  0
   -1.3856   -4.0000    0.0000 H   0  0  0  0  0  0  0  0  0  0  0  0
    0.0001   -1.6000    0.0000 C   0  0  0  0  0  0  0  0  0  0  0  0
    1.3857   -2.4000    0.0000 C   0  0  0  0  0  0  0  0  0  0  0  0
    1.3857   -4.0000    0.0000 O   0  0  0  0  0  0  0  0  0  0  0  0
    2.7712   -1.6000    0.0000 C   0  0  0  0  0  0  0  0  0  0  0  0
    2.7712   -0.0000    0.0000 C   0  0  0  0  0  0  0  0  0  0  0  0
    4.1569    0.8000    0.0000 C   0  0  0  0  0  0  0  0  0  0  0  0
    4.1569    2.4000    0.0000 H   0  0  0  0  0  0  0  0  0  0  0  0
    5.5425   -0.0000    0.0000 C   0  0  0  0  0  0  0  0  0  0  0  0
    6.9282    0.8000    0.0000 H   0  0  0  0  0  0  0  0  0  0  0  0
    5.5425   -1.6000    0.0000 C   0  0  0  0  0  0  0  0  0  0  0  0
    6.9282   -2.4000    0.0000 H   0  0  0  0  0  0  0  0  0  0  0  0
    4.1569   -2.4000    0.0000 C   0  0  0  0  0  0  0  0  0  0  0  0
    4.1569   -4.0000    0.0000 H   0  0  0  0  0  0  0  0  0  0  0  0
    1.3857    0.8000    0.0000 C   0  0  0  0  0  0  0  0  0  0  0  0
    1.3856    2.4000    0.0000 O   0  0  0  0  0  0  0  0  0  0  0  0
  1  2  1  0  0  0  0
  2  3  1  0  0  0  0
  3  4  1  0  0  0  0
  3  5  1  0  0  0  0
  2  6  2  0  0  0  0
  6  7  1  0  0  0  0
  6  8  1  0  0  0  0
  8  9  1  0  0  0  0
  8 10  2  0  0  0  0
 10 11  1  0  0  0  0
 10 12  1  0  0  0  0
 12  1  2  0  0  0  0
 12 13  1  0  0  0  0
 13 14  2  0  0  0  0
 13 15  1  0  0  0  0
 15 16  1  0  0  0  0
 16 17  2  0  0  0  0
 17 18  1  0  0  0  0
 17 19  1  0  0  0  0
 19 20  1  0  0  0  0
 19 21  2  0  0  0  0
 21 22  1  0  0  0  0
 21 23  1  0  0  0  0
 23 15  2  0  0  0  0
 23 24  1  0  0  0  0
 16 25  1  0  0  0  0
 25  1  1  0  0  0  0
 25 26  2  0  0  0  0
M  END
> <ChemID>
100173

> <source_casrn>
82-45-1

> <CAS>
82-45-1

> <SMILES>
Nc1cccc2c1C(=O)c1ccccc1C2=O

> <NAME>
9,10-Anthracenedione, 1-amino-

> <preferred_name>
1-Aminoanthraquinone

> <iupac>
1-amino-9,10-anthraquinone

> <MPID>
100184

> <dsstox_substance_id>
DTXSID2052572

> <Canonical_QSARr>
Nc1cccc2c1C(=O)c1ccccc1C2=O

> <InChI_Code_QSARr>
InChI=1S/C14H9NO2/c15-11-7-3-6-10-12(11)14(17)9-5-2-1-4-8(9)13(10)16/h1-7H,15H2

> <InChI Key_QSARr>
KHUFHLFHOQVFGB-UHFFFAOYSA-N

> <Salt_Solvent>
?

> <Ready_Biodeg>
0.0

$$$$
100174
  -INDIGO-08031722522D

 28 30  0  0  0  0  0  0  0  0999 V2000
    0.0000   -0.0001    0.0000 C   0  0  0  0  0  0  0  0  0  0  0  0
   -0.8000    1.3856    0.0000 C   0  0  0  0  0  0  0  0  0  0  0  0
    0.0000    2.7713    0.0000 O   0  0  0  0  0  0  0  0  0  0  0  0
   -2.4000    1.3856    0.0000 C   0  0  0  0  0  0  0  0  0  0  0  0
   -3.2000    2.7712    0.0000 C   0  0  0  0  0  0  0  0  0  0  0  0
   -2.4000    4.1569    0.0000 H   0  0  0  0  0  0  0  0  0  0  0  0
   -4.8000    2.7712    0.0000 C   0  0  0  0  0  0  0  0  0  0  0  0
   -5.6000    4.1569    0.0000 H   0  0  0  0  0  0  0  0  0  0  0  0
   -5.6000    1.3856    0.0000 C   0  0  0  0  0  0  0  0  0  0  0  0
   -7.2000    1.3856    0.0000 H   0  0  0  0  0  0  0  0  0  0  0  0
   -4.8000    0.0001    0.0000 C   0  0  0  0  0  0  0  0  0  0  0  0
   -5.6000   -1.3856    0.0000 H   0  0  0  0  0  0  0  0  0  0  0  0
   -3.2000   -0.0001    0.0000 C   0  0  0  0  0  0  0  0  0  0  0  0
   -2.4000   -1.3856    0.0000 C   0  0  0  0  0  0  0  0  0  0  0  0
   -3.2000   -2.7712    0.0000 O   0  0  0  0  0  0  0  0  0  0  0  0
   -0.8000   -1.3856    0.0000 C   0  0  0  0  0  0  0  0  0  0  0  0
    0.0000   -2.7712    0.0000 C   0  0  0  0  0  0  0  0  0  0  0  0
   -0.8000   -4.1569    0.0000 H   0  0  0  0  0  0  0  0  0  0  0  0
    1.6000   -2.7712    0.0000 C   0  0  0  0  0  0  0  0  0  0  0  0
    2.4000   -4.1569    0.0000 H   0  0  0  0  0  0  0  0  0  0  0  0
    2.4000   -1.3856    0.0000 C   0  0  0  0  0  0  0  0  0  0  0  0
    4.0000   -1.3856    0.0000 H   0  0  0  0  0  0  0  0  0  0  0  0
    1.6000   -0.0001    0.0000 C   0  0  0  0  0  0  0  0  0  0  0  0
    2.4000    1.3856    0.0000 S   0  0  0  0  0  0  0  0  0  0  0  0
    3.2000    2.7712    0.0000 O   0  0  0  0  0  0  0  0  0  0  0  0
    4.8000    2.7712    0.0000 H   0  0  0  0  0  0  0  0  0  0  0  0
    3.7856    0.5857    0.0000 O   0  0  0  0  0  0  0  0  0  0  0  0
    1.0144    2.1856    0.0000 O   0  0  0  0  0  0  0  0  0  0  0  0
  1  2  1  0  0  0  0
  2  3  2  0  0  0  0
  2  4  1  0  0  0  0
  4  5  1  0  0  0  0
  5  6  1  0  0  0  0
  5  7  2  0  0  0  0
  7  8  1  0  0  0  0
  7  9  1  0  0  0  0
  9 10  1  0  0  0  0
  9 11  2  0  0  0  0
 11 12  1  0  0  0  0
 11 13  1  0  0  0  0
 13  4  2  0  0  0  0
 13 14  1  0  0  0  0
 14 15  2  0  0  0  0
 14 16  1  0  0  0  0
 16  1  1  0  0  0  0
 16 17  2  0  0  0  0
 17 18  1  0  0  0  0
 17 19  1  0  0  0  0
 19 20  1  0  0  0  0
 19 21  2  0  0  0  0
 21 22  1  0  0  0  0
 21 23  1  0  0  0  0
 23  1  2  0  0  0  0
 23 24  1  0  0  0  0
 24 25  1  0  0  0  0
 25 26  1  0  0  0  0
 24 27  2  0  0  0  0
 24 28  2  0  0  0  0
M  END
> <ChemID>
100174

> <source_casrn>
82-49-5

> <CAS>
82-49-5

> <SMILES>
OS(=O)(=O)c1cccc2c1C(=O)c1ccccc1C2=O

> <NAME>
ANTHRAQUINONE-1-SULFONIC ACID

> <preferred_name>
1-Anthracenesulfonic acid, 9,10-dihydro-9,10-dioxo-

> <iupac>
9,10-dioxoanthracene-1-sulfonic acid

> <MPID>
100185

> <dsstox_substance_id>
DTXSID8058877

> <Canonical_QSARr>
OS(=O)(=O)c1cccc2c1C(=O)c1ccccc1C2=O

> <InChI_Code_QSARr>
InChI=1S/C14H8O5S/c15-13-8-4-1-2-5-9(8)14(16)12-10(13)6-3-7-11(12)20(17,18)19/h1-7H,(H,17,18,19)

> <InChI Key_QSARr>
JAJIPIAHCFBEPI-UHFFFAOYSA-N

> <Salt_Solvent>
?

> <Ready_Biodeg>
0.0

$$$$
100176
  -INDIGO-08031722522D

 24 25  0  0  0  0  0  0  0  0999 V2000
    0.0001   -0.0000    0.0000 C   0  0  0  0  0  0  0  0  0  0  0  0
    1.6000   -0.0000    0.0000 C   0  0  0  0  0  0  0  0  0  0  0  0
    2.4000    1.3856    0.0000 S   0  0  0  0  0  0  0  0  0  0  0  0
    3.2001    2.7712    0.0000 O   0  0  0  0  0  0  0  0  0  0  0  0
    4.8000    2.7712    0.0000 H   0  0  0  0  0  0  0  0  0  0  0  0
    3.7856    0.5856    0.0000 O   0  0  0  0  0  0  0  0  0  0  0  0
    1.0143    2.1857    0.0000 O   0  0  0  0  0  0  0  0  0  0  0  0
    2.4000   -1.3857    0.0000 C   0  0  0  0  0  0  0  0  0  0  0  0
    4.0000   -1.3857    0.0000 H   0  0  0  0  0  0  0  0  0  0  0  0
    1.6000   -2.7713    0.0000 C   0  0  0  0  0  0  0  0  0  0  0  0
    2.4000   -4.1569    0.0000 H   0  0  0  0  0  0  0  0  0  0  0  0
    0.0001   -2.7713    0.0000 C   0  0  0  0  0  0  0  0  0  0  0  0
   -0.8000   -4.1569    0.0000 H   0  0  0  0  0  0  0  0  0  0  0  0
   -0.8000   -1.3857    0.0000 C   0  0  0  0  0  0  0  0  0  0  0  0
   -2.4000   -1.3857    0.0000 C   0  0  0  0  0  0  0  0  0  0  0  0
   -3.2001   -2.7713    0.0000 H   0  0  0  0  0  0  0  0  0  0  0  0
   -3.1999   -0.0000    0.0000 C   0  0  0  0  0  0  0  0  0  0  0  0
   -4.8000   -0.0000    0.0000 H   0  0  0  0  0  0  0  0  0  0  0  0
   -2.4000    1.3856    0.0000 C   0  0  0  0  0  0  0  0  0  0  0  0
   -3.2001    2.7712    0.0000 H   0  0  0  0  0  0  0  0  0  0  0  0
   -0.8000    1.3856    0.0000 C   0  0  0  0  0  0  0  0  0  0  0  0
   -0.2528    2.8891    0.0000 N   0  0  0  0  0  0  0  0  0  0  0  0
    1.3230    3.1670    0.0000 H   0  0  0  0  0  0  0  0  0  0  0  0
   -1.2812    4.1148    0.0000 H   0  0  0  0  0  0  0  0  0  0  0  0
  1  2  1  0  0  0  0
  2  3  1  0  0  0  0
  3  4  1  0  0  0  0
  4  5  1  0  0  0  0
  3  6  2  0  0  0  0
  3  7  2  0  0  0  0
  2  8  2  0  0  0  0
  8  9  1  0  0  0  0
  8 10  1  0  0  0  0
 10 11  1  0  0  0  0
 10 12  2  0  0  0  0
 12 13  1  0  0  0  0
 12 14  1  0  0  0  0
 14  1  1  0  0  0  0
 14 15  2  0  0  0  0
 15 16  1  0  0  0  0
 15 17  1  0  0  0  0
 17 18  1  0  0  0  0
 17 19  2  0  0  0  0
 19 20  1  0  0  0  0
 19 21  1  0  0  0  0
 21  1  2  0  0  0  0
 21 22  1  0  0  0  0
 22 23  1  0  0  0  0
 22 24  1  0  0  0  0
M  END
> <ChemID>
100176

> <source_casrn>
82-75-7

> <CAS>
82-75-7

> <SMILES>
Nc1cccc2cccc(c21)S(O)(=O)=O

> <NAME>
1-Naphthalenesulfonic acid, 8-amino-

> <preferred_name>
1-Naphthalenesulfonic acid, 8-amino-

> <iupac>
8-aminonaphthalene-1-sulfonic acid

> <MPID>
100187

> <dsstox_substance_id>
DTXSID2058881

> <Canonical_QSARr>
Nc1cccc2cccc(c21)S(O)(=O)=O

> <InChI_Code_QSARr>
InChI=1S/C10H9NO3S/c11-8-5-1-3-7-4-2-6-9(10(7)8)15(12,13)14/h1-6H,11H2,(H,12,13,14)

> <InChI Key_QSARr>
CYJJLCDCWVZEDZ-UHFFFAOYSA-N

> <Salt_Solvent>
?

> <Ready_Biodeg>
0.0

$$$$
100177
  -INDIGO-08031722522D

 22 24  0  0  0  0  0  0  0  0999 V2000
    2.4000    1.3856    0.0000 C   0  0  0  0  0  0  0  0  0  0  0  0
    3.2001    2.7713    0.0000 H   0  0  0  0  0  0  0  0  0  0  0  0
    3.2001    0.0000    0.0000 C   0  0  0  0  0  0  0  0  0  0  0  0
    4.8000    0.0000    0.0000 H   0  0  0  0  0  0  0  0  0  0  0  0
    2.4000   -1.3857    0.0000 C   0  0  0  0  0  0  0  0  0  0  0  0
    3.2001   -2.7712    0.0000 H   0  0  0  0  0  0  0  0  0  0  0  0
    0.8000   -1.3857    0.0000 C   0  0  0  0  0  0  0  0  0  0  0  0
    0.0000   -2.7712    0.0000 C   0  0  0  0  0  0  0  0  0  0  0  0
    0.8000   -4.1569    0.0000 H   0  0  0  0  0  0  0  0  0  0  0  0
   -1.6000   -2.7712    0.0000 C   0  0  0  0  0  0  0  0  0  0  0  0
   -2.4001   -4.1569    0.0000 H   0  0  0  0  0  0  0  0  0  0  0  0
   -2.4001   -1.3857    0.0000 C   0  0  0  0  0  0  0  0  0  0  0  0
   -4.0000   -1.3857    0.0000 H   0  0  0  0  0  0  0  0  0  0  0  0
   -1.6000    0.0000    0.0000 C   0  0  0  0  0  0  0  0  0  0  0  0
    0.0000    0.0000    0.0000 C   0  0  0  0  0  0  0  0  0  0  0  0
    0.8000    1.3856    0.0000 C   0  0  0  0  0  0  0  0  0  0  0  0
   -0.4517    2.3823    0.0000 C   0  0  0  0  0  0  0  0  0  0  0  0
   -1.4181    3.6575    0.0000 H   0  0  0  0  0  0  0  0  0  0  0  0
    0.6932    3.5001    0.0000 H   0  0  0  0  0  0  0  0  0  0  0  0
   -1.8373    1.5823    0.0000 C   0  0  0  0  0  0  0  0  0  0  0  0
   -3.3777    1.1497    0.0000 H   0  0  0  0  0  0  0  0  0  0  0  0
   -2.4585    3.0569    0.0000 H   0  0  0  0  0  0  0  0  0  0  0  0
  1  2  1  0  0  0  0
  1  3  1  0  0  0  0
  3  4  1  0  0  0  0
  3  5  2  0  0  0  0
  5  6  1  0  0  0  0
  5  7  1  0  0  0  0
  7  8  2  0  0  0  0
  8  9  1  0  0  0  0
  8 10  1  0  0  0  0
 10 11  1  0  0  0  0
 10 12  2  0  0  0  0
 12 13  1  0  0  0  0
 12 14  1  0  0  0  0
 14 15  2  0  0  0  0
 15  7  1  0  0  0  0
 15 16  1  0  0  0  0
 16  1  2  0  0  0  0
 16 17  1  0  0  0  0
 17 18  1  0  0  0  0
 17 19  1  0  0  0  0
 17 20  1  0  0  0  0
 20 14  1  0  0  0  0
 20 21  1  0  0  0  0
 20 22  1  0  0  0  0
M  END
> <ChemID>
100177

> <source_casrn>
83-32-9

> <CAS>
83-32-9

> <SMILES>
C1Cc2cccc3cccc1c23

> <NAME>
Acenaphthylene, 1,2-dihydro-, Acenaphthene

> <preferred_name>
Acenaphthene

> <iupac>
1,2-dihydroacenaphthylene

> <MPID>
100188

> <dsstox_substance_id>
DTXSID3021774

> <Canonical_QSARr>
C1Cc2cccc3cccc1c23

> <InChI_Code_QSARr>
InChI=1S/C12H10/c1-3-9-4-2-6-11-8-7-10(5-1)12(9)11/h1-6H,7-8H2

> <InChI Key_QSARr>
CWRYPZZKDGJXCA-UHFFFAOYSA-N

> <Salt_Solvent>
?

> <Ready_Biodeg>
0.0

$$$$
100178
  -INDIGO-08031722522D

 14 14  0  0  0  0  0  0  0  0999 V2000
    0.0000    2.7713    0.0000 Cl  0  0  0  0  0  0  0  0  0  0  0  0
    0.8000    1.3856    0.0000 C   0  0  0  0  0  0  0  0  0  0  0  0
    2.4000    1.3856    0.0000 C   0  0  0  0  0  0  0  0  0  0  0  0
    3.2000    2.7713    0.0000 H   0  0  0  0  0  0  0  0  0  0  0  0
    3.2000   -0.0000    0.0000 C   0  0  0  0  0  0  0  0  0  0  0  0
    4.8000    0.0000    0.0000 H   0  0  0  0  0  0  0  0  0  0  0  0
    2.4000   -1.3856    0.0000 C   0  0  0  0  0  0  0  0  0  0  0  0
    3.2000   -2.7713    0.0000 H   0  0  0  0  0  0  0  0  0  0  0  0
    0.8000   -1.3856    0.0000 C   0  0  0  0  0  0  0  0  0  0  0  0
    0.0000   -2.7713    0.0000 Cl  0  0  0  0  0  0  0  0  0  0  0  0
    0.0000   -0.0000    0.0000 C   0  0  0  0  0  0  0  0  0  0  0  0
   -1.6000    0.0000    0.0000 C   0  0  0  0  0  0  0  0  0  0  0  0
   -2.4000   -1.3856    0.0000 H   0  0  0  0  0  0  0  0  0  0  0  0
   -2.4000    1.3856    0.0000 O   0  0  0  0  0  0  0  0  0  0  0  0
  1  2  1  0  0  0  0
  2  3  1  0  0  0  0
  3  4  1  0  0  0  0
  3  5  2  0  0  0  0
  5  6  1  0  0  0  0
  5  7  1  0  0  0  0
  7  8  1  0  0  0  0
  7  9  2  0  0  0  0
  9 10  1  0  0  0  0
  9 11  1  0  0  0  0
 11  2  2  0  0  0  0
 11 12  1  0  0  0  0
 12 13  1  0  0  0  0
 12 14  2  0  0  0  0
M  END
> <ChemID>
100178

> <source_casrn>
83-38-5

> <CAS>
83-38-5

> <SMILES>
O=Cc1c(Cl)cccc1Cl

> <NAME>
Benzaldehyde, 2,6-dichloro-

> <preferred_name>
2,6-Dichlorobenzaldehyde

> <iupac>
2,6-dichlorobenzaldehyde

> <MPID>
100189

> <dsstox_substance_id>
DTXSID5024970

> <Canonical_QSARr>
O=Cc1c(Cl)cccc1Cl

> <InChI_Code_QSARr>
InChI=1S/C7H4Cl2O/c8-6-2-1-3-7(9)5(6)4-10/h1-4H

> <InChI Key_QSARr>
DMIYKWPEFRFTPY-UHFFFAOYSA-N

> <Salt_Solvent>
?

> <Ready_Biodeg>
0.0

$$$$
100180
  -INDIGO-08031722522D

 30 32  0  0  0  0  0  0  0  0999 V2000
    1.3856    2.4000    0.0000 C   0  0  0  0  0  0  0  0  0  0  0  0
    0.0001    1.6000    0.0000 C   0  0  0  0  0  0  0  0  0  0  0  0
    0.0001    0.0000    0.0000 C   0  0  0  0  0  0  0  0  0  0  0  0
   -1.3856   -0.8000    0.0000 C   0  0  0  0  0  0  0  0  0  0  0  0
   -1.3856   -2.4000    0.0000 H   0  0  0  0  0  0  0  0  0  0  0  0
   -2.7714    0.0000    0.0000 C   0  0  0  0  0  0  0  0  0  0  0  0
   -2.7714    1.6000    0.0000 C   0  0  0  0  0  0  0  0  0  0  0  0
   -4.1569    2.4000    0.0000 H   0  0  0  0  0  0  0  0  0  0  0  0
   -1.3856    2.4000    0.0000 C   0  0  0  0  0  0  0  0  0  0  0  0
   -1.3856    4.0000    0.0000 H   0  0  0  0  0  0  0  0  0  0  0  0
   -4.1569   -0.8000    0.0000 C   0  0  0  0  0  0  0  0  0  0  0  0
   -3.5446   -2.2782    0.0000 H   0  0  0  0  0  0  0  0  0  0  0  0
   -4.7692   -2.2782    0.0000 H   0  0  0  0  0  0  0  0  0  0  0  0
   -5.5427    0.0000    0.0000 C   0  0  0  0  0  0  0  0  0  0  0  0
   -6.9282   -0.8000    0.0000 H   0  0  0  0  0  0  0  0  0  0  0  0
   -6.9282    0.8000    0.0000 H   0  0  0  0  0  0  0  0  0  0  0  0
   -5.5425   -1.6000    0.0000 H   0  0  0  0  0  0  0  0  0  0  0  0
    1.3856   -0.8000    0.0000 C   0  0  0  0  0  0  0  0  0  0  0  0
    1.3856   -2.4000    0.0000 O   0  0  0  0  0  0  0  0  0  0  0  0
    2.7714    0.0000    0.0000 C   0  0  0  0  0  0  0  0  0  0  0  0
    2.7714    1.6000    0.0000 C   0  0  0  0  0  0  0  0  0  0  0  0
    4.1569    2.4000    0.0000 C   0  0  0  0  0  0  0  0  0  0  0  0
    4.1569    4.0000    0.0000 H   0  0  0  0  0  0  0  0  0  0  0  0
    5.5427    1.6000    0.0000 C   0  0  0  0  0  0  0  0  0  0  0  0
    6.9282    2.4000    0.0000 H   0  0  0  0  0  0  0  0  0  0  0  0
    5.5427    0.0000    0.0000 C   0  0  0  0  0  0  0  0  0  0  0  0
    6.9282   -0.8000    0.0000 H   0  0  0  0  0  0  0  0  0  0  0  0
    4.1569   -0.8000    0.0000 C   0  0  0  0  0  0  0  0  0  0  0  0
    4.1569   -2.4000    0.0000 H   0  0  0  0  0  0  0  0  0  0  0  0
    1.3856    4.0000    0.0000 O   0  0  0  0  0  0  0  0  0  0  0  0
  1  2  1  0  0  0  0
  2  3  1  0  0  0  0
  3  4  2  0  0  0  0
  4  5  1  0  0  0  0
  4  6  1  0  0  0  0
  6  7  2  0  0  0  0
  7  8  1  0  0  0  0
  7  9  1  0  0  0  0
  9  2  2  0  0  0  0
  9 10  1  0  0  0  0
  6 11  1  0  0  0  0
 11 12  1  0  0  0  0
 11 13  1  0  0  0  0
 11 14  1  0  0  0  0
 14 15  1  0  0  0  0
 14 16  1  0  0  0  0
 14 17  1  0  0  0  0
  3 18  1  0  0  0  0
 18 19  2  0  0  0  0
 18 20  1  0  0  0  0
 20 21  1  0  0  0  0
 21  1  1  0  0  0  0
 21 22  2  0  0  0  0
 22 23  1  0  0  0  0
 22 24  1  0  0  0  0
 24 25  1  0  0  0  0
 24 26  2  0  0  0  0
 26 27  1  0  0  0  0
 26 28  1  0  0  0  0
 28 20  2  0  0  0  0
 28 29  1  0  0  0  0
  1 30  2  0  0  0  0
M  END
> <ChemID>
100180

> <source_casrn>
84-51-5

> <CAS>
84-51-5

> <SMILES>
CCc1cc2c(cc1)C(=O)c1ccccc1C2=O

> <NAME>
9,10-Anthracenedione, 2-ethyl-

> <preferred_name>
2-Ethylanthracene-9,10-dione

> <iupac>
2-ethylanthracene-9,10-dione

> <MPID>
100191

> <dsstox_substance_id>
DTXSID5044994

> <Canonical_QSARr>
CCc1cc2c(cc1)C(=O)c1ccccc1C2=O

> <InChI_Code_QSARr>
InChI=1S/C16H12O2/c1-2-10-7-8-13-14(9-10)16(18)12-6-4-3-5-11(12)15(13)17/h3-9H,2H2,1H3

> <InChI Key_QSARr>
SJEBAWHUJDUKQK-UHFFFAOYSA-N

> <Salt_Solvent>
?

> <Ready_Biodeg>
0.0

$$$$
100181
  -INDIGO-08031722522D

 50 52  0  0  0  0  0  0  0  0999 V2000
    4.7270    0.8335    0.0000 O   0  0  0  0  0  0  0  0  0  0  0  0
    5.2744    2.3369    0.0000 C   0  0  0  0  0  0  0  0  0  0  0  0
    6.8500    2.6149    0.0000 O   0  0  0  0  0  0  0  0  0  0  0  0
    7.8785    1.3892    0.0000 C   0  0  0  0  0  0  0  0  0  0  0  0
    6.4929    0.5891    0.0000 H   0  0  0  0  0  0  0  0  0  0  0  0
    8.9070    2.6149    0.0000 C   0  0  0  0  0  0  0  0  0  0  0  0
    7.5212    3.4148    0.0000 H   0  0  0  0  0  0  0  0  0  0  0  0
    9.4541    4.1184    0.0000 H   0  0  0  0  0  0  0  0  0  0  0  0
   10.4826    2.3369    0.0000 C   0  0  0  0  0  0  0  0  0  0  0  0
   10.4826    3.9370    0.0000 H   0  0  0  0  0  0  0  0  0  0  0  0
   12.0584    2.6149    0.0000 H   0  0  0  0  0  0  0  0  0  0  0  0
   11.0299    0.8335    0.0000 C   0  0  0  0  0  0  0  0  0  0  0  0
   12.4155    1.6336    0.0000 H   0  0  0  0  0  0  0  0  0  0  0  0
   12.0584   -0.3922    0.0000 H   0  0  0  0  0  0  0  0  0  0  0  0
   10.0014   -0.3922    0.0000 C   0  0  0  0  0  0  0  0  0  0  0  0
   11.3870   -1.1921    0.0000 H   0  0  0  0  0  0  0  0  0  0  0  0
    9.4541   -1.8957    0.0000 H   0  0  0  0  0  0  0  0  0  0  0  0
    8.4256   -0.1144    0.0000 C   0  0  0  0  0  0  0  0  0  0  0  0
    8.4256   -1.7142    0.0000 H   0  0  0  0  0  0  0  0  0  0  0  0
    6.8500   -0.3922    0.0000 H   0  0  0  0  0  0  0  0  0  0  0  0
    4.2459    3.5626    0.0000 C   0  0  0  0  0  0  0  0  0  0  0  0
    2.6701    3.2848    0.0000 C   0  0  0  0  0  0  0  0  0  0  0  0
    2.1230    1.7814    0.0000 C   0  0  0  0  0  0  0  0  0  0  0  0
    3.1514    0.5557    0.0000 O   0  0  0  0  0  0  0  0  0  0  0  0
    0.5474    1.5036    0.0000 O   0  0  0  0  0  0  0  0  0  0  0  0
   -0.0000   -0.0001    0.0000 C   0  0  0  0  0  0  0  0  0  0  0  0
    1.5756   -0.2779    0.0000 H   0  0  0  0  0  0  0  0  0  0  0  0
   -1.3856    0.8000    0.0000 C   0  0  0  0  0  0  0  0  0  0  0  0
   -0.3571    2.0257    0.0000 H   0  0  0  0  0  0  0  0  0  0  0  0
   -2.4141    2.0257    0.0000 H   0  0  0  0  0  0  0  0  0  0  0  0
   -2.7714   -0.0001    0.0000 C   0  0  0  0  0  0  0  0  0  0  0  0
   -3.3185    1.5036    0.0000 H   0  0  0  0  0  0  0  0  0  0  0  0
   -4.3470   -0.2779    0.0000 H   0  0  0  0  0  0  0  0  0  0  0  0
   -2.7714   -1.6001    0.0000 C   0  0  0  0  0  0  0  0  0  0  0  0
   -4.3470   -1.3221    0.0000 H   0  0  0  0  0  0  0  0  0  0  0  0
   -3.3185   -3.1035    0.0000 H   0  0  0  0  0  0  0  0  0  0  0  0
   -1.3856   -2.4000    0.0000 C   0  0  0  0  0  0  0  0  0  0  0  0
   -2.4141   -3.6257    0.0000 H   0  0  0  0  0  0  0  0  0  0  0  0
   -0.3571   -3.6257    0.0000 H   0  0  0  0  0  0  0  0  0  0  0  0
   -0.0000   -1.6001    0.0000 C   0  0  0  0  0  0  0  0  0  0  0  0
    0.5474   -3.1035    0.0000 H   0  0  0  0  0  0  0  0  0  0  0  0
    1.5756   -1.3221    0.0000 H   0  0  0  0  0  0  0  0  0  0  0  0
    1.6416    4.5105    0.0000 C   0  0  0  0  0  0  0  0  0  0  0  0
    0.0660    4.2327    0.0000 H   0  0  0  0  0  0  0  0  0  0  0  0
    2.1889    6.0140    0.0000 C   0  0  0  0  0  0  0  0  0  0  0  0
    1.1605    7.2396    0.0000 H   0  0  0  0  0  0  0  0  0  0  0  0
    3.7645    6.2919    0.0000 C   0  0  0  0  0  0  0  0  0  0  0  0
    4.3119    7.7954    0.0000 H   0  0  0  0  0  0  0  0  0  0  0  0
    4.7930    5.0662    0.0000 C   0  0  0  0  0  0  0  0  0  0  0  0
    6.3689    5.3440    0.0000 H   0  0  0  0  0  0  0  0  0  0  0  0
  1  2  2  0  0  0  0
  2  3  1  0  0  0  0
  3  4  1  0  0  0  0
  4  5  1  0  0  0  0
  4  6  1  0  0  0  0
  6  7  1  0  0  0  0
  6  8  1  0  0  0  0
  6  9  1  0  0  0  0
  9 10  1  0  0  0  0
  9 11  1  0  0  0  0
  9 12  1  0  0  0  0
 12 13  1  0  0  0  0
 12 14  1  0  0  0  0
 12 15  1  0  0  0  0
 15 16  1  0  0  0  0
 15 17  1  0  0  0  0
 15 18  1  0  0  0  0
 18  4  1  0  0  0  0
 18 19  1  0  0  0  0
 18 20  1  0  0  0  0
  2 21  1  0  0  0  0
 21 22  1  0  0  0  0
 22 23  1  0  0  0  0
 23 24  2  0  0  0  0
 23 25  1  0  0  0  0
 25 26  1  0  0  0  0
 26 27  1  0  0  0  0
 26 28  1  0  0  0  0
 28 29  1  0  0  0  0
 28 30  1  0  0  0  0
 28 31  1  0  0  0  0
 31 32  1  0  0  0  0
 31 33  1  0  0  0  0
 31 34  1  0  0  0  0
 34 35  1  0  0  0  0
 34 36  1  0  0  0  0
 34 37  1  0  0  0  0
 37 38  1  0  0  0  0
 37 39  1  0  0  0  0
 37 40  1  0  0  0  0
 40 26  1  0  0  0  0
 40 41  1  0  0  0  0
 40 42  1  0  0  0  0
 22 43  2  0  0  0  0
 43 44  1  0  0  0  0
 43 45  1  0  0  0  0
 45 46  1  0  0  0  0
 45 47  2  0  0  0  0
 47 48  1  0  0  0  0
 47 49  1  0  0  0  0
 49 21  2  0  0  0  0
 49 50  1  0  0  0  0
M  END
> <ChemID>
100181

> <source_casrn>
84-61-7

> <CAS>
84-61-7

> <SMILES>
O=C(OC1CCCCC1)c1ccccc1C(=O)OC1CCCCC1

> <NAME>
1,2-Benzenedicarboxylic acid, dicyclohexyl ester

> <preferred_name>
Dicyclohexyl phthalate

> <iupac>
dicyclohexyl benzene-1,2-dicarboxylate

> <MPID>
100192

> <dsstox_substance_id>
DTXSID5025021

> <Canonical_QSARr>
O=C(OC1CCCCC1)c1ccccc1C(=O)OC1CCCCC1

> <InChI_Code_QSARr>
InChI=1S/C20H26O4/c21-19(23-15-9-3-1-4-10-15)17-13-7-8-14-18(17)20(22)24-16-11-5-2-6-12-16/h7-8,13-16H,1-6,9-12H2

> <InChI Key_QSARr>
VOWAEIGWURALJQ-UHFFFAOYSA-N

> <Salt_Solvent>
?

> <Ready_Biodeg>
1.0

$$$$
100182
  -INDIGO-08031722522D

 24 26  0  0  0  0  0  0  0  0999 V2000
   -1.3856    2.4000    0.0000 O   0  0  0  0  0  0  0  0  0  0  0  0
   -1.3856    0.8000    0.0000 C   0  0  0  0  0  0  0  0  0  0  0  0
   -2.7712   -0.0000    0.0000 C   0  0  0  0  0  0  0  0  0  0  0  0
   -2.7712   -1.6000    0.0000 C   0  0  0  0  0  0  0  0  0  0  0  0
   -4.1569   -2.4000    0.0000 C   0  0  0  0  0  0  0  0  0  0  0  0
   -4.1569   -4.0000    0.0000 H   0  0  0  0  0  0  0  0  0  0  0  0
   -5.5425   -1.6000    0.0000 C   0  0  0  0  0  0  0  0  0  0  0  0
   -6.9282   -2.4000    0.0000 H   0  0  0  0  0  0  0  0  0  0  0  0
   -5.5425   -0.0000    0.0000 C   0  0  0  0  0  0  0  0  0  0  0  0
   -6.9282    0.8000    0.0000 H   0  0  0  0  0  0  0  0  0  0  0  0
   -4.1569    0.8000    0.0000 C   0  0  0  0  0  0  0  0  0  0  0  0
   -4.1569    2.4000    0.0000 H   0  0  0  0  0  0  0  0  0  0  0  0
   -1.3856   -2.4000    0.0000 C   0  0  0  0  0  0  0  0  0  0  0  0
   -1.3856   -4.0000    0.0000 O   0  0  0  0  0  0  0  0  0  0  0  0
   -0.0001   -1.6000    0.0000 C   0  0  0  0  0  0  0  0  0  0  0  0
   -0.0001   -0.0000    0.0000 C   0  0  0  0  0  0  0  0  0  0  0  0
    1.3856    0.8000    0.0000 C   0  0  0  0  0  0  0  0  0  0  0  0
    1.3856    2.4000    0.0000 H   0  0  0  0  0  0  0  0  0  0  0  0
    2.7713   -0.0000    0.0000 C   0  0  0  0  0  0  0  0  0  0  0  0
    4.1569    0.8000    0.0000 H   0  0  0  0  0  0  0  0  0  0  0  0
    2.7713   -1.6000    0.0000 C   0  0  0  0  0  0  0  0  0  0  0  0
    4.1569   -2.4000    0.0000 H   0  0  0  0  0  0  0  0  0  0  0  0
    1.3856   -2.4000    0.0000 C   0  0  0  0  0  0  0  0  0  0  0  0
    1.3856   -4.0000    0.0000 H   0  0  0  0  0  0  0  0  0  0  0  0
  1  2  2  0  0  0  0
  2  3  1  0  0  0  0
  3  4  1  0  0  0  0
  4  5  2  0  0  0  0
  5  6  1  0  0  0  0
  5  7  1  0  0  0  0
  7  8  1  0  0  0  0
  7  9  2  0  0  0  0
  9 10  1  0  0  0  0
  9 11  1  0  0  0  0
 11  3  2  0  0  0  0
 11 12  1  0  0  0  0
  4 13  1  0  0  0  0
 13 14  2  0  0  0  0
 13 15  1  0  0  0  0
 15 16  1  0  0  0  0
 16  2  1  0  0  0  0
 16 17  2  0  0  0  0
 17 18  1  0  0  0  0
 17 19  1  0  0  0  0
 19 20  1  0  0  0  0
 19 21  2  0  0  0  0
 21 22  1  0  0  0  0
 21 23  1  0  0  0  0
 23 15  2  0  0  0  0
 23 24  1  0  0  0  0
M  END
> <ChemID>
100182

> <source_casrn>
84-65-1

> <CAS>
84-65-1

> <SMILES>
O=C1c2ccccc2C(=O)c2ccccc12

> <NAME>
9,10-Anthracenedione

> <preferred_name>
Anthraquinone

> <iupac>
anthracene-9,10-dione

> <MPID>
100193

> <dsstox_substance_id>
DTXSID3020095

> <Canonical_QSARr>
O=C1c2ccccc2C(=O)c2ccccc12

> <InChI_Code_QSARr>
InChI=1S/C14H8O2/c15-13-9-5-1-2-6-10(9)14(16)12-8-4-3-7-11(12)13/h1-8H

> <InChI Key_QSARr>
RZVHIXYEVGDQDX-UHFFFAOYSA-N

> <Salt_Solvent>
?

> <Ready_Biodeg>
1.0

$$$$
100184
  -INDIGO-08031722522D

 42 42  0  0  0  0  0  0  0  0999 V2000
    4.8000   -2.7713    0.0000 C   0  0  0  0  0  0  0  0  0  0  0  0
    6.4000   -2.7713    0.0000 C   0  0  0  0  0  0  0  0  0  0  0  0
    7.1999   -1.3857    0.0000 C   0  0  0  0  0  0  0  0  0  0  0  0
    8.8000   -1.3857    0.0000 O   0  0  0  0  0  0  0  0  0  0  0  0
    9.6001   -0.0001    0.0000 C   0  0  0  0  0  0  0  0  0  0  0  0
    9.3913    1.5863    0.0000 H   0  0  0  0  0  0  0  0  0  0  0  0
    8.3307    0.9740    0.0000 H   0  0  0  0  0  0  0  0  0  0  0  0
   11.1999   -0.0001    0.0000 C   0  0  0  0  0  0  0  0  0  0  0  0
   10.9221   -1.5756    0.0000 H   0  0  0  0  0  0  0  0  0  0  0  0
   12.7756   -0.2778    0.0000 C   0  0  0  0  0  0  0  0  0  0  0  0
   14.3514   -0.5556    0.0000 H   0  0  0  0  0  0  0  0  0  0  0  0
   13.8041    0.9478    0.0000 H   0  0  0  0  0  0  0  0  0  0  0  0
   13.3229   -1.7813    0.0000 H   0  0  0  0  0  0  0  0  0  0  0  0
   11.4779    1.5757    0.0000 C   0  0  0  0  0  0  0  0  0  0  0  0
   11.7557    3.1514    0.0000 H   0  0  0  0  0  0  0  0  0  0  0  0
   10.2520    2.6041    0.0000 H   0  0  0  0  0  0  0  0  0  0  0  0
   12.9813    2.1229    0.0000 H   0  0  0  0  0  0  0  0  0  0  0  0
    6.4000   -0.0001    0.0000 O   0  0  0  0  0  0  0  0  0  0  0  0
    7.1999   -4.1570    0.0000 C   0  0  0  0  0  0  0  0  0  0  0  0
    8.8000   -4.1570    0.0000 H   0  0  0  0  0  0  0  0  0  0  0  0
    6.4000   -5.5426    0.0000 C   0  0  0  0  0  0  0  0  0  0  0  0
    7.1999   -6.9282    0.0000 H   0  0  0  0  0  0  0  0  0  0  0  0
    4.8000   -5.5426    0.0000 C   0  0  0  0  0  0  0  0  0  0  0  0
    4.0001   -6.9282    0.0000 H   0  0  0  0  0  0  0  0  0  0  0  0
    4.0001   -4.1570    0.0000 C   0  0  0  0  0  0  0  0  0  0  0  0
    2.4000   -4.1570    0.0000 H   0  0  0  0  0  0  0  0  0  0  0  0
    4.0001   -1.3857    0.0000 C   0  0  0  0  0  0  0  0  0  0  0  0
    2.4000   -1.3857    0.0000 O   0  0  0  0  0  0  0  0  0  0  0  0
    1.5999   -0.0001    0.0000 C   0  0  0  0  0  0  0  0  0  0  0  0
    2.8693    0.9740    0.0000 H   0  0  0  0  0  0  0  0  0  0  0  0
    1.8087    1.5863    0.0000 H   0  0  0  0  0  0  0  0  0  0  0  0
    0.0001   -0.0001    0.0000 C   0  0  0  0  0  0  0  0  0  0  0  0
    0.2779   -1.5756    0.0000 H   0  0  0  0  0  0  0  0  0  0  0  0
   -1.5756   -0.2778    0.0000 C   0  0  0  0  0  0  0  0  0  0  0  0
   -3.1514   -0.5556    0.0000 H   0  0  0  0  0  0  0  0  0  0  0  0
   -2.6041    0.9478    0.0000 H   0  0  0  0  0  0  0  0  0  0  0  0
   -2.1229   -1.7813    0.0000 H   0  0  0  0  0  0  0  0  0  0  0  0
   -0.2779    1.5757    0.0000 C   0  0  0  0  0  0  0  0  0  0  0  0
   -0.5557    3.1514    0.0000 H   0  0  0  0  0  0  0  0  0  0  0  0
    0.9480    2.6041    0.0000 H   0  0  0  0  0  0  0  0  0  0  0  0
   -1.7813    2.1229    0.0000 H   0  0  0  0  0  0  0  0  0  0  0  0
    4.8000   -0.0001    0.0000 O   0  0  0  0  0  0  0  0  0  0  0  0
  1  2  1  0  0  0  0
  2  3  1  0  0  0  0
  3  4  1  0  0  0  0
  4  5  1  0  0  0  0
  5  6  1  0  0  0  0
  5  7  1  0  0  0  0
  5  8  1  0  0  0  0
  8  9  1  0  0  0  0
  8 10  1  0  0  0  0
 10 11  1  0  0  0  0
 10 12  1  0  0  0  0
 10 13  1  0  0  0  0
  8 14  1  0  0  0  0
 14 15  1  0  0  0  0
 14 16  1  0  0  0  0
 14 17  1  0  0  0  0
  3 18  2  0  0  0  0
  2 19  2  0  0  0  0
 19 20  1  0  0  0  0
 19 21  1  0  0  0  0
 21 22  1  0  0  0  0
 21 23  2  0  0  0  0
 23 24  1  0  0  0  0
 23 25  1  0  0  0  0
 25  1  2  0  0  0  0
 25 26  1  0  0  0  0
  1 27  1  0  0  0  0
 27 28  1  0  0  0  0
 28 29  1  0  0  0  0
 29 30  1  0  0  0  0
 29 31  1  0  0  0  0
 29 32  1  0  0  0  0
 32 33  1  0  0  0  0
 32 34  1  0  0  0  0
 34 35  1  0  0  0  0
 34 36  1  0  0  0  0
 34 37  1  0  0  0  0
 32 38  1  0  0  0  0
 38 39  1  0  0  0  0
 38 40  1  0  0  0  0
 38 41  1  0  0  0  0
 27 42  2  0  0  0  0
M  END
> <ChemID>
100184

> <source_casrn>
84-69-5

> <CAS>
84-69-5

> <SMILES>
CC(C)COC(=O)c1ccccc1C(=O)OCC(C)C

> <NAME>
Diisobutyl phthalate

> <preferred_name>
Diisobutyl phthalate

> <iupac>
bis(2-methylpropyl) benzene-1,2-dicarboxylate

> <MPID>
100195

> <dsstox_substance_id>
DTXSID9022522

> <Canonical_QSARr>
CC(C)COC(=O)c1ccccc1C(=O)OCC(C)C

> <InChI_Code_QSARr>
InChI=1S/C16H22O4/c1-11(2)9-19-15(17)13-7-5-6-8-14(13)16(18)20-10-12(3)4/h5-8,11-12H,9-10H2,1-4H3

> <InChI Key_QSARr>
MGWAVDBGNNKXQV-UHFFFAOYSA-N

> <Salt_Solvent>
?

> <Ready_Biodeg>
0.0

$$$$
100185
  -INDIGO-08031722522D

 42 42  0  0  0  0  0  0  0  0999 V2000
   -4.8000    5.5426    0.0000 C   0  0  0  0  0  0  0  0  0  0  0  0
   -3.9999    6.9282    0.0000 H   0  0  0  0  0  0  0  0  0  0  0  0
   -6.4000    5.5426    0.0000 C   0  0  0  0  0  0  0  0  0  0  0  0
   -7.2001    6.9282    0.0000 H   0  0  0  0  0  0  0  0  0  0  0  0
   -7.2001    4.1569    0.0000 C   0  0  0  0  0  0  0  0  0  0  0  0
   -8.8000    4.1569    0.0000 H   0  0  0  0  0  0  0  0  0  0  0  0
   -6.4000    2.7713    0.0000 C   0  0  0  0  0  0  0  0  0  0  0  0
   -7.2001    1.3856    0.0000 C   0  0  0  0  0  0  0  0  0  0  0  0
   -6.4000   -0.0000    0.0000 O   0  0  0  0  0  0  0  0  0  0  0  0
   -8.8000    1.3856    0.0000 O   0  0  0  0  0  0  0  0  0  0  0  0
   -9.6001   -0.0000    0.0000 C   0  0  0  0  0  0  0  0  0  0  0  0
   -8.3307   -0.9739    0.0000 H   0  0  0  0  0  0  0  0  0  0  0  0
   -9.3912   -1.5864    0.0000 H   0  0  0  0  0  0  0  0  0  0  0  0
  -11.2000   -0.0000    0.0000 C   0  0  0  0  0  0  0  0  0  0  0  0
  -12.4695    0.9741    0.0000 H   0  0  0  0  0  0  0  0  0  0  0  0
  -11.4089    1.5863    0.0000 H   0  0  0  0  0  0  0  0  0  0  0  0
  -12.0001   -1.3856    0.0000 C   0  0  0  0  0  0  0  0  0  0  0  0
  -10.7307   -2.3597    0.0000 H   0  0  0  0  0  0  0  0  0  0  0  0
  -11.7913   -2.9720    0.0000 H   0  0  0  0  0  0  0  0  0  0  0  0
  -13.6001   -1.3856    0.0000 C   0  0  0  0  0  0  0  0  0  0  0  0
  -15.2000   -1.3856    0.0000 H   0  0  0  0  0  0  0  0  0  0  0  0
  -14.3999   -2.7713    0.0000 H   0  0  0  0  0  0  0  0  0  0  0  0
  -14.3999   -0.0000    0.0000 H   0  0  0  0  0  0  0  0  0  0  0  0
   -4.8000    2.7713    0.0000 C   0  0  0  0  0  0  0  0  0  0  0  0
   -3.9999    1.3856    0.0000 C   0  0  0  0  0  0  0  0  0  0  0  0
   -4.8000   -0.0000    0.0000 O   0  0  0  0  0  0  0  0  0  0  0  0
   -2.4000    1.3856    0.0000 O   0  0  0  0  0  0  0  0  0  0  0  0
   -1.5999   -0.0000    0.0000 C   0  0  0  0  0  0  0  0  0  0  0  0
   -1.8088   -1.5864    0.0000 H   0  0  0  0  0  0  0  0  0  0  0  0
   -2.8693   -0.9739    0.0000 H   0  0  0  0  0  0  0  0  0  0  0  0
    0.0000   -0.0000    0.0000 C   0  0  0  0  0  0  0  0  0  0  0  0
    0.2089    1.5863    0.0000 H   0  0  0  0  0  0  0  0  0  0  0  0
    1.2695    0.9741    0.0000 H   0  0  0  0  0  0  0  0  0  0  0  0
    0.8001   -1.3856    0.0000 C   0  0  0  0  0  0  0  0  0  0  0  0
    0.5913   -2.9720    0.0000 H   0  0  0  0  0  0  0  0  0  0  0  0
   -0.4693   -2.3597    0.0000 H   0  0  0  0  0  0  0  0  0  0  0  0
    2.4001   -1.3856    0.0000 C   0  0  0  0  0  0  0  0  0  0  0  0
    4.0000   -1.3856    0.0000 H   0  0  0  0  0  0  0  0  0  0  0  0
    3.1999   -2.7713    0.0000 H   0  0  0  0  0  0  0  0  0  0  0  0
    3.1999   -0.0000    0.0000 H   0  0  0  0  0  0  0  0  0  0  0  0
   -3.9999    4.1569    0.0000 C   0  0  0  0  0  0  0  0  0  0  0  0
   -2.4000    4.1569    0.0000 H   0  0  0  0  0  0  0  0  0  0  0  0
  1  2  1  0  0  0  0
  1  3  1  0  0  0  0
  3  4  1  0  0  0  0
  3  5  2  0  0  0  0
  5  6  1  0  0  0  0
  5  7  1  0  0  0  0
  7  8  1  0  0  0  0
  8  9  2  0  0  0  0
  8 10  1  0  0  0  0
 10 11  1  0  0  0  0
 11 12  1  0  0  0  0
 11 13  1  0  0  0  0
 11 14  1  0  0  0  0
 14 15  1  0  0  0  0
 14 16  1  0  0  0  0
 14 17  1  0  0  0  0
 17 18  1  0  0  0  0
 17 19  1  0  0  0  0
 17 20  1  0  0  0  0
 20 21  1  0  0  0  0
 20 22  1  0  0  0  0
 20 23  1  0  0  0  0
  7 24  2  0  0  0  0
 24 25  1  0  0  0  0
 25 26  2  0  0  0  0
 25 27  1  0  0  0  0
 27 28  1  0  0  0  0
 28 29  1  0  0  0  0
 28 30  1  0  0  0  0
 28 31  1  0  0  0  0
 31 32  1  0  0  0  0
 31 33  1  0  0  0  0
 31 34  1  0  0  0  0
 34 35  1  0  0  0  0
 34 36  1  0  0  0  0
 34 37  1  0  0  0  0
 37 38  1  0  0  0  0
 37 39  1  0  0  0  0
 37 40  1  0  0  0  0
 24 41  1  0  0  0  0
 41  1  2  0  0  0  0
 41 42  1  0  0  0  0
M  END
> <ChemID>
100185

> <source_casrn>
84-74-2

> <CAS>
84-74-2

> <SMILES>
CCCCOC(=O)c1ccccc1C(=O)OCCCC

> <NAME>
1,2-Benzenedicarboxylic acid, dibutyl ester

> <preferred_name>
Dibutyl phthalate

> <iupac>
dibutyl benzene-1,2-dicarboxylate

> <MPID>
100196

> <dsstox_substance_id>
DTXSID2021781

> <Canonical_QSARr>
CCCCOC(=O)c1ccccc1C(=O)OCCCC

> <InChI_Code_QSARr>
InChI=1S/C16H22O4/c1-3-5-11-19-15(17)13-9-7-8-10-14(13)16(18)20-12-6-4-2/h7-10H,3-6,11-12H2,1-2H3

> <InChI Key_QSARr>
DOIRQSBPFJWKBE-UHFFFAOYSA-N

> <Salt_Solvent>
?

> <Ready_Biodeg>
1.0

$$$$
100187
  -INDIGO-08031722522D

 24 26  0  0  0  0  0  0  0  0999 V2000
   -0.0001    0.0000    0.0000 C   0  0  0  0  0  0  0  0  0  0  0  0
    1.6001    0.0000    0.0000 C   0  0  0  0  0  0  0  0  0  0  0  0
    2.4001   -1.3856    0.0000 C   0  0  0  0  0  0  0  0  0  0  0  0
    4.0000   -1.3856    0.0000 C   0  0  0  0  0  0  0  0  0  0  0  0
    4.8000   -2.7713    0.0000 H   0  0  0  0  0  0  0  0  0  0  0  0
    4.8000    0.0000    0.0000 C   0  0  0  0  0  0  0  0  0  0  0  0
    6.4000    0.0000    0.0000 H   0  0  0  0  0  0  0  0  0  0  0  0
    4.0000    1.3856    0.0000 C   0  0  0  0  0  0  0  0  0  0  0  0
    4.8000    2.7713    0.0000 H   0  0  0  0  0  0  0  0  0  0  0  0
    2.4001    1.3856    0.0000 C   0  0  0  0  0  0  0  0  0  0  0  0
    1.6001    2.7713    0.0000 H   0  0  0  0  0  0  0  0  0  0  0  0
    1.6001   -2.7713    0.0000 C   0  0  0  0  0  0  0  0  0  0  0  0
    2.4001   -4.1569    0.0000 H   0  0  0  0  0  0  0  0  0  0  0  0
   -0.0001   -2.7713    0.0000 C   0  0  0  0  0  0  0  0  0  0  0  0
   -0.8001   -4.1569    0.0000 H   0  0  0  0  0  0  0  0  0  0  0  0
   -0.8001   -1.3856    0.0000 C   0  0  0  0  0  0  0  0  0  0  0  0
   -2.4000   -1.3856    0.0000 C   0  0  0  0  0  0  0  0  0  0  0  0
   -3.2000   -2.7713    0.0000 H   0  0  0  0  0  0  0  0  0  0  0  0
   -3.2000    0.0000    0.0000 C   0  0  0  0  0  0  0  0  0  0  0  0
   -4.8000    0.0000    0.0000 H   0  0  0  0  0  0  0  0  0  0  0  0
   -2.4000    1.3856    0.0000 C   0  0  0  0  0  0  0  0  0  0  0  0
   -3.2000    2.7713    0.0000 H   0  0  0  0  0  0  0  0  0  0  0  0
   -0.8001    1.3856    0.0000 C   0  0  0  0  0  0  0  0  0  0  0  0
   -0.0001    2.7713    0.0000 H   0  0  0  0  0  0  0  0  0  0  0  0
  1  2  1  0  0  0  0
  2  3  1  0  0  0  0
  3  4  2  0  0  0  0
  4  5  1  0  0  0  0
  4  6  1  0  0  0  0
  6  7  1  0  0  0  0
  6  8  2  0  0  0  0
  8  9  1  0  0  0  0
  8 10  1  0  0  0  0
 10  2  2  0  0  0  0
 10 11  1  0  0  0  0
  3 12  1  0  0  0  0
 12 13  1  0  0  0  0
 12 14  2  0  0  0  0
 14 15  1  0  0  0  0
 14 16  1  0  0  0  0
 16  1  1  0  0  0  0
 16 17  2  0  0  0  0
 17 18  1  0  0  0  0
 17 19  1  0  0  0  0
 19 20  1  0  0  0  0
 19 21  2  0  0  0  0
 21 22  1  0  0  0  0
 21 23  1  0  0  0  0
 23  1  2  0  0  0  0
 23 24  1  0  0  0  0
M  END
> <ChemID>
100187

> <source_casrn>
85-01-8

> <CAS>
85-01-8

> <SMILES>
c1cc2ccccc2c2ccccc21

> <NAME>
Phenanthrene

> <preferred_name>
Phenanthrene

> <iupac>
phenanthrenato

> <MPID>
100197

> <dsstox_substance_id>
DTXSID6024254

> <Canonical_QSARr>
c1cc2ccccc2c2ccccc21

> <InChI_Code_QSARr>
InChI=1S/C14H10/c1-3-7-13-11(5-1)9-10-12-6-2-4-8-14(12)13/h1-10H

> <InChI Key_QSARr>
YNPNZTXNASCQKK-UHFFFAOYSA-N

> <Salt_Solvent>
?

> <Ready_Biodeg>
1.0

$$$$
100189
  -INDIGO-08031722522D

 20 21  0  0  0  0  0  0  0  0999 V2000
   -0.0000    0.0000    0.0000 C   0  0  0  0  0  0  0  0  0  0  0  0
    0.1673    1.5913    0.0000 H   0  0  0  0  0  0  0  0  0  0  0  0
    1.5217    0.4944    0.0000 C   0  0  0  0  0  0  0  0  0  0  0  0
    2.0161    2.0161    0.0000 O   0  0  0  0  0  0  0  0  0  0  0  0
    2.4621   -0.8000    0.0000 N   0  0  0  0  0  0  0  0  0  0  0  0
    4.0621   -0.8000    0.0000 H   0  0  0  0  0  0  0  0  0  0  0  0
    1.5217   -2.0944    0.0000 C   0  0  0  0  0  0  0  0  0  0  0  0
    2.0161   -3.6161    0.0000 O   0  0  0  0  0  0  0  0  0  0  0  0
   -0.0000   -1.6000    0.0000 C   0  0  0  0  0  0  0  0  0  0  0  0
    0.1673   -3.1913    0.0000 H   0  0  0  0  0  0  0  0  0  0  0  0
   -1.3856   -2.4000    0.0000 C   0  0  0  0  0  0  0  0  0  0  0  0
   -0.8384   -3.9035    0.0000 H   0  0  0  0  0  0  0  0  0  0  0  0
   -2.4142   -3.6257    0.0000 H   0  0  0  0  0  0  0  0  0  0  0  0
   -2.7713   -1.6000    0.0000 C   0  0  0  0  0  0  0  0  0  0  0  0
   -4.1569   -2.4000    0.0000 H   0  0  0  0  0  0  0  0  0  0  0  0
   -2.7713    0.0000    0.0000 C   0  0  0  0  0  0  0  0  0  0  0  0
   -4.1569    0.8000    0.0000 H   0  0  0  0  0  0  0  0  0  0  0  0
   -1.3856    0.8000    0.0000 C   0  0  0  0  0  0  0  0  0  0  0  0
   -2.4142    2.0257    0.0000 H   0  0  0  0  0  0  0  0  0  0  0  0
   -0.8384    2.3035    0.0000 H   0  0  0  0  0  0  0  0  0  0  0  0
  1  2  1  0  0  0  0
  1  3  1  0  0  0  0
  3  4  2  0  0  0  0
  3  5  1  0  0  0  0
  5  6  1  0  0  0  0
  5  7  1  0  0  0  0
  7  8  2  0  0  0  0
  7  9  1  0  0  0  0
  9  1  1  0  0  0  0
  9 10  1  0  0  0  0
  9 11  1  0  0  0  0
 11 12  1  0  0  0  0
 11 13  1  0  0  0  0
 11 14  1  0  0  0  0
 14 15  1  0  0  0  0
 14 16  2  0  0  0  0
 16 17  1  0  0  0  0
 16 18  1  0  0  0  0
 18  1  1  0  0  0  0
 18 19  1  0  0  0  0
 18 20  1  0  0  0  0
M  END
> <ChemID>
100189

> <source_casrn>
85-40-5

> <CAS>
85-40-5

> <SMILES>
O=C1NC(=O)C2CC=CCC12

> <NAME>
1H-Isoindole-1,3(2H)-dione, 3a,4,7,7a-tetrahydro-

> <preferred_name>
1,2,3,6-Tetrahydrophthalimide

> <iupac>
3a,4,7,7a-tetrahydro-1H-isoindole-1,3(2H)-dione

> <MPID>
100199

> <dsstox_substance_id>
DTXSID8026513

> <Canonical_QSARr>
O=C1NC(=O)C2CC=CCC12

> <InChI_Code_QSARr>
InChI=1S/C8H9NO2/c10-7-5-3-1-2-4-6(5)8(11)9-7/h1-2,5-6H,3-4H2,(H,9,10,11)

> <InChI Key_QSARr>
CIFFBTOJCKSRJY-UHFFFAOYSA-N

> <Salt_Solvent>
?

> <Ready_Biodeg>
0.0

$$$$
100190
  -INDIGO-08031722522D

 21 22  0  0  0  0  0  0  0  0999 V2000
    0.0000    0.0000    0.0000 C   0  0  0  0  0  0  0  0  0  0  0  0
    1.5913    0.1673    0.0000 H   0  0  0  0  0  0  0  0  0  0  0  0
    0.4944    1.5216    0.0000 C   0  0  0  0  0  0  0  0  0  0  0  0
    2.0161    2.0161    0.0000 O   0  0  0  0  0  0  0  0  0  0  0  0
   -0.8000    2.4621    0.0000 O   0  0  0  0  0  0  0  0  0  0  0  0
   -2.0944    1.5216    0.0000 C   0  0  0  0  0  0  0  0  0  0  0  0
   -3.6161    2.0161    0.0000 O   0  0  0  0  0  0  0  0  0  0  0  0
   -1.6000    0.0000    0.0000 C   0  0  0  0  0  0  0  0  0  0  0  0
   -3.1913    0.1673    0.0000 H   0  0  0  0  0  0  0  0  0  0  0  0
   -2.4000   -1.3856    0.0000 C   0  0  0  0  0  0  0  0  0  0  0  0
   -3.9035   -0.8384    0.0000 H   0  0  0  0  0  0  0  0  0  0  0  0
   -3.6257   -2.4141    0.0000 H   0  0  0  0  0  0  0  0  0  0  0  0
   -1.6000   -2.7713    0.0000 C   0  0  0  0  0  0  0  0  0  0  0  0
   -3.1035   -3.3185    0.0000 H   0  0  0  0  0  0  0  0  0  0  0  0
   -1.3222   -4.3470    0.0000 H   0  0  0  0  0  0  0  0  0  0  0  0
    0.0000   -2.7713    0.0000 C   0  0  0  0  0  0  0  0  0  0  0  0
   -0.2778   -4.3470    0.0000 H   0  0  0  0  0  0  0  0  0  0  0  0
    1.5035   -3.3185    0.0000 H   0  0  0  0  0  0  0  0  0  0  0  0
    0.8000   -1.3856    0.0000 C   0  0  0  0  0  0  0  0  0  0  0  0
    2.0257   -2.4141    0.0000 H   0  0  0  0  0  0  0  0  0  0  0  0
    2.3035   -0.8384    0.0000 H   0  0  0  0  0  0  0  0  0  0  0  0
  1  2  1  0  0  0  0
  1  3  1  0  0  0  0
  3  4  2  0  0  0  0
  3  5  1  0  0  0  0
  5  6  1  0  0  0  0
  6  7  2  0  0  0  0
  6  8  1  0  0  0  0
  8  1  1  0  0  0  0
  8  9  1  0  0  0  0
  8 10  1  0  0  0  0
 10 11  1  0  0  0  0
 10 12  1  0  0  0  0
 10 13  1  0  0  0  0
 13 14  1  0  0  0  0
 13 15  1  0  0  0  0
 13 16  1  0  0  0  0
 16 17  1  0  0  0  0
 16 18  1  0  0  0  0
 16 19  1  0  0  0  0
 19  1  1  0  0  0  0
 19 20  1  0  0  0  0
 19 21  1  0  0  0  0
M  END
> <ChemID>
100190

> <source_casrn>
85-42-7

> <CAS>
85-42-7

> <SMILES>
O=C1OC(=O)C2CCCCC12

> <NAME>
1,3-Isobenzofurandione, hexahydro-

> <preferred_name>
Hexahydrophthalic anhydride

> <iupac>
hexahydro-2-benzofuran-1,3-dione

> <MPID>
100200

> <dsstox_substance_id>
DTXSID8026515

> <Canonical_QSARr>
O=C1OC(=O)C2CCCCC12

> <InChI_Code_QSARr>
InChI=1S/C8H10O3/c9-7-5-3-1-2-4-6(5)8(10)11-7/h5-6H,1-4H2

> <InChI Key_QSARr>
MUTGBJKUEZFXGO-UHFFFAOYSA-N

> <Salt_Solvent>
?

> <Ready_Biodeg>
0.0

$$$$
100191
  -INDIGO-08031722522D

 15 16  0  0  0  0  0  0  0  0999 V2000
   -3.6161    2.0161    0.0000 O   0  0  0  0  0  0  0  0  0  0  0  0
   -2.0944    1.5217    0.0000 C   0  0  0  0  0  0  0  0  0  0  0  0
   -1.6000   -0.0000    0.0000 C   0  0  0  0  0  0  0  0  0  0  0  0
   -0.0000   -0.0000    0.0000 C   0  0  0  0  0  0  0  0  0  0  0  0
    0.8000   -1.3857    0.0000 C   0  0  0  0  0  0  0  0  0  0  0  0
    2.4000   -1.3857    0.0000 H   0  0  0  0  0  0  0  0  0  0  0  0
   -0.0000   -2.7713    0.0000 C   0  0  0  0  0  0  0  0  0  0  0  0
    0.8000   -4.1569    0.0000 H   0  0  0  0  0  0  0  0  0  0  0  0
   -1.6000   -2.7713    0.0000 C   0  0  0  0  0  0  0  0  0  0  0  0
   -2.4000   -4.1569    0.0000 H   0  0  0  0  0  0  0  0  0  0  0  0
   -2.4000   -1.3857    0.0000 C   0  0  0  0  0  0  0  0  0  0  0  0
   -4.0000   -1.3857    0.0000 H   0  0  0  0  0  0  0  0  0  0  0  0
    0.4944    1.5217    0.0000 C   0  0  0  0  0  0  0  0  0  0  0  0
    2.0161    2.0161    0.0000 O   0  0  0  0  0  0  0  0  0  0  0  0
   -0.8000    2.4621    0.0000 O   0  0  0  0  0  0  0  0  0  0  0  0
  1  2  2  0  0  0  0
  2  3  1  0  0  0  0
  3  4  1  0  0  0  0
  4  5  2  0  0  0  0
  5  6  1  0  0  0  0
  5  7  1  0  0  0  0
  7  8  1  0  0  0  0
  7  9  2  0  0  0  0
  9 10  1  0  0  0  0
  9 11  1  0  0  0  0
 11  3  2  0  0  0  0
 11 12  1  0  0  0  0
  4 13  1  0  0  0  0
 13 14  2  0  0  0  0
 13 15  1  0  0  0  0
 15  2  1  0  0  0  0
M  END
> <ChemID>
100191

> <source_casrn>
85-44-9

> <CAS>
85-44-9

> <SMILES>
O=C1OC(=O)c2ccccc12

> <NAME>
1,3-Isobenzofurandione

> <preferred_name>
Phthalic anhydride

> <iupac>
2-benzofuran-1,3-dione

> <MPID>
100201

> <dsstox_substance_id>
DTXSID2021159

> <Canonical_QSARr>
O=C1OC(=O)c2ccccc12

> <InChI_Code_QSARr>
InChI=1S/C8H4O3/c9-7-5-3-1-2-4-6(5)8(10)11-7/h1-4H

> <InChI Key_QSARr>
LGRFSURHDFAFJT-UHFFFAOYSA-N

> <Salt_Solvent>
?

> <Ready_Biodeg>
1.0

$$$$
100193
  -INDIGO-08031722522D

 43 44  0  0  0  0  0  0  0  0999 V2000
   -4.7999   -2.7713    0.0000 C   0  0  0  0  0  0  0  0  0  0  0  0
   -4.0000   -1.3856    0.0000 C   0  0  0  0  0  0  0  0  0  0  0  0
   -2.3999   -1.3856    0.0000 O   0  0  0  0  0  0  0  0  0  0  0  0
   -1.6001    0.0000    0.0000 C   0  0  0  0  0  0  0  0  0  0  0  0
   -2.8693    0.9739    0.0000 H   0  0  0  0  0  0  0  0  0  0  0  0
   -1.8088    1.5864    0.0000 H   0  0  0  0  0  0  0  0  0  0  0  0
    0.0000    0.0000    0.0000 C   0  0  0  0  0  0  0  0  0  0  0  0
    1.2692   -0.9741    0.0000 H   0  0  0  0  0  0  0  0  0  0  0  0
    0.2087   -1.5863    0.0000 H   0  0  0  0  0  0  0  0  0  0  0  0
    0.7999    1.3856    0.0000 C   0  0  0  0  0  0  0  0  0  0  0  0
   -0.4694    2.3597    0.0000 H   0  0  0  0  0  0  0  0  0  0  0  0
    0.5911    2.9720    0.0000 H   0  0  0  0  0  0  0  0  0  0  0  0
    2.3999    1.3856    0.0000 C   0  0  0  0  0  0  0  0  0  0  0  0
    4.0000    1.3856    0.0000 H   0  0  0  0  0  0  0  0  0  0  0  0
    3.2001    2.7713    0.0000 H   0  0  0  0  0  0  0  0  0  0  0  0
    3.2001    0.0000    0.0000 H   0  0  0  0  0  0  0  0  0  0  0  0
   -4.7999    0.0000    0.0000 O   0  0  0  0  0  0  0  0  0  0  0  0
   -6.3999   -2.7713    0.0000 C   0  0  0  0  0  0  0  0  0  0  0  0
   -7.2001   -1.3856    0.0000 C   0  0  0  0  0  0  0  0  0  0  0  0
   -8.7999   -1.3856    0.0000 O   0  0  0  0  0  0  0  0  0  0  0  0
   -9.6001    0.0000    0.0000 C   0  0  0  0  0  0  0  0  0  0  0  0
   -9.3910    1.5864    0.0000 H   0  0  0  0  0  0  0  0  0  0  0  0
   -8.3305    0.9739    0.0000 H   0  0  0  0  0  0  0  0  0  0  0  0
  -11.2001    0.0000    0.0000 C   0  0  0  0  0  0  0  0  0  0  0  0
  -12.0000    1.3856    0.0000 C   0  0  0  0  0  0  0  0  0  0  0  0
  -11.2001    2.7713    0.0000 H   0  0  0  0  0  0  0  0  0  0  0  0
  -13.6001    1.3856    0.0000 C   0  0  0  0  0  0  0  0  0  0  0  0
  -14.3999    2.7713    0.0000 H   0  0  0  0  0  0  0  0  0  0  0  0
  -14.3999    0.0000    0.0000 C   0  0  0  0  0  0  0  0  0  0  0  0
  -16.0000    0.0000    0.0000 H   0  0  0  0  0  0  0  0  0  0  0  0
  -13.6001   -1.3856    0.0000 C   0  0  0  0  0  0  0  0  0  0  0  0
  -14.3999   -2.7713    0.0000 H   0  0  0  0  0  0  0  0  0  0  0  0
  -12.0000   -1.3856    0.0000 C   0  0  0  0  0  0  0  0  0  0  0  0
  -11.2001   -2.7713    0.0000 H   0  0  0  0  0  0  0  0  0  0  0  0
   -6.3999    0.0000    0.0000 O   0  0  0  0  0  0  0  0  0  0  0  0
   -7.2001   -4.1569    0.0000 C   0  0  0  0  0  0  0  0  0  0  0  0
   -8.7999   -4.1569    0.0000 H   0  0  0  0  0  0  0  0  0  0  0  0
   -6.3999   -5.5426    0.0000 C   0  0  0  0  0  0  0  0  0  0  0  0
   -7.2001   -6.9282    0.0000 H   0  0  0  0  0  0  0  0  0  0  0  0
   -4.7999   -5.5426    0.0000 C   0  0  0  0  0  0  0  0  0  0  0  0
   -4.0000   -6.9282    0.0000 H   0  0  0  0  0  0  0  0  0  0  0  0
   -4.0000   -4.1569    0.0000 C   0  0  0  0  0  0  0  0  0  0  0  0
   -2.3999   -4.1569    0.0000 H   0  0  0  0  0  0  0  0  0  0  0  0
  1  2  1  0  0  0  0
  2  3  1  0  0  0  0
  3  4  1  0  0  0  0
  4  5  1  0  0  0  0
  4  6  1  0  0  0  0
  4  7  1  0  0  0  0
  7  8  1  0  0  0  0
  7  9  1  0  0  0  0
  7 10  1  0  0  0  0
 10 11  1  0  0  0  0
 10 12  1  0  0  0  0
 10 13  1  0  0  0  0
 13 14  1  0  0  0  0
 13 15  1  0  0  0  0
 13 16  1  0  0  0  0
  2 17  2  0  0  0  0
  1 18  1  0  0  0  0
 18 19  1  0  0  0  0
 19 20  1  0  0  0  0
 20 21  1  0  0  0  0
 21 22  1  0  0  0  0
 21 23  1  0  0  0  0
 21 24  1  0  0  0  0
 24 25  1  0  0  0  0
 25 26  1  0  0  0  0
 25 27  2  0  0  0  0
 27 28  1  0  0  0  0
 27 29  1  0  0  0  0
 29 30  1  0  0  0  0
 29 31  2  0  0  0  0
 31 32  1  0  0  0  0
 31 33  1  0  0  0  0
 33 24  2  0  0  0  0
 33 34  1  0  0  0  0
 19 35  2  0  0  0  0
 18 36  2  0  0  0  0
 36 37  1  0  0  0  0
 36 38  1  0  0  0  0
 38 39  1  0  0  0  0
 38 40  2  0  0  0  0
 40 41  1  0  0  0  0
 40 42  1  0  0  0  0
 42  1  2  0  0  0  0
 42 43  1  0  0  0  0
M  END
> <ChemID>
100193

> <source_casrn>
85-68-7

> <CAS>
85-68-7

> <SMILES>
CCCCOC(=O)c1ccccc1C(=O)OCc1ccccc1

> <NAME>
Butyl benzyl phthalate

> <preferred_name>
Butyl benzyl phthalate

> <iupac>
benzyl butyl benzene-1,2-dicarboxylate

> <MPID>
100203

> <dsstox_substance_id>
DTXSID3020205

> <Canonical_QSARr>
CCCCOC(=O)c1ccccc1C(=O)OCc1ccccc1

> <InChI_Code_QSARr>
InChI=1S/C19H20O4/c1-2-3-13-22-18(20)16-11-7-8-12-17(16)19(21)23-14-15-9-5-4-6-10-15/h4-12H,2-3,13-14H2,1H3

> <InChI Key_QSARr>
IRIAEXORFWYRCZ-UHFFFAOYSA-N

> <Salt_Solvent>
?

> <Ready_Biodeg>
1.0

$$$$
100194
  -INDIGO-08031722522D

 48 48  0  0  0  0  0  0  0  0999 V2000
   10.4001   -6.9283    0.0000 C   0  0  0  0  0  0  0  0  0  0  0  0
   12.0001   -6.9283    0.0000 H   0  0  0  0  0  0  0  0  0  0  0  0
    9.6000   -5.5426    0.0000 C   0  0  0  0  0  0  0  0  0  0  0  0
   10.4001   -4.1569    0.0000 C   0  0  0  0  0  0  0  0  0  0  0  0
   12.0001   -4.1569    0.0000 O   0  0  0  0  0  0  0  0  0  0  0  0
   12.7999   -2.7713    0.0000 C   0  0  0  0  0  0  0  0  0  0  0  0
   11.5308   -1.7972    0.0000 H   0  0  0  0  0  0  0  0  0  0  0  0
   12.5911   -1.1849    0.0000 H   0  0  0  0  0  0  0  0  0  0  0  0
   14.3999   -2.7713    0.0000 C   0  0  0  0  0  0  0  0  0  0  0  0
   15.6693   -3.7453    0.0000 H   0  0  0  0  0  0  0  0  0  0  0  0
   14.6087   -4.3576    0.0000 H   0  0  0  0  0  0  0  0  0  0  0  0
   15.2000   -1.3856    0.0000 C   0  0  0  0  0  0  0  0  0  0  0  0
   13.9306   -0.4115    0.0000 H   0  0  0  0  0  0  0  0  0  0  0  0
   14.9912    0.2006    0.0000 H   0  0  0  0  0  0  0  0  0  0  0  0
   16.8000   -1.3856    0.0000 C   0  0  0  0  0  0  0  0  0  0  0  0
   18.4000   -1.3856    0.0000 H   0  0  0  0  0  0  0  0  0  0  0  0
   17.5998    0.0001    0.0000 H   0  0  0  0  0  0  0  0  0  0  0  0
   17.5998   -2.7713    0.0000 H   0  0  0  0  0  0  0  0  0  0  0  0
    9.6000   -2.7713    0.0000 O   0  0  0  0  0  0  0  0  0  0  0  0
    8.0000   -5.5426    0.0000 C   0  0  0  0  0  0  0  0  0  0  0  0
    7.2002   -4.1569    0.0000 C   0  0  0  0  0  0  0  0  0  0  0  0
    5.5999   -4.1569    0.0000 O   0  0  0  0  0  0  0  0  0  0  0  0
    4.8000   -2.7713    0.0000 C   0  0  0  0  0  0  0  0  0  0  0  0
    5.0089   -1.1849    0.0000 H   0  0  0  0  0  0  0  0  0  0  0  0
    6.0695   -1.7972    0.0000 H   0  0  0  0  0  0  0  0  0  0  0  0
    3.2001   -2.7713    0.0000 C   0  0  0  0  0  0  0  0  0  0  0  0
    2.3999   -1.3856    0.0000 O   0  0  0  0  0  0  0  0  0  0  0  0
    0.7999   -1.3856    0.0000 C   0  0  0  0  0  0  0  0  0  0  0  0
    0.5911   -2.9719    0.0000 H   0  0  0  0  0  0  0  0  0  0  0  0
   -0.4695   -2.3597    0.0000 H   0  0  0  0  0  0  0  0  0  0  0  0
    0.0001    0.0001    0.0000 C   0  0  0  0  0  0  0  0  0  0  0  0
    0.2090    1.5863    0.0000 H   0  0  0  0  0  0  0  0  0  0  0  0
    1.2692    0.9740    0.0000 H   0  0  0  0  0  0  0  0  0  0  0  0
   -1.5999    0.0001    0.0000 C   0  0  0  0  0  0  0  0  0  0  0  0
   -1.8087   -1.5864    0.0000 H   0  0  0  0  0  0  0  0  0  0  0  0
   -2.8693   -0.9740    0.0000 H   0  0  0  0  0  0  0  0  0  0  0  0
   -2.4000    1.3856    0.0000 C   0  0  0  0  0  0  0  0  0  0  0  0
   -3.1998    2.7713    0.0000 H   0  0  0  0  0  0  0  0  0  0  0  0
   -4.0000    1.3856    0.0000 H   0  0  0  0  0  0  0  0  0  0  0  0
   -1.5999    2.7713    0.0000 H   0  0  0  0  0  0  0  0  0  0  0  0
    2.3999   -4.1569    0.0000 O   0  0  0  0  0  0  0  0  0  0  0  0
    8.0000   -2.7713    0.0000 O   0  0  0  0  0  0  0  0  0  0  0  0
    7.2002   -6.9283    0.0000 C   0  0  0  0  0  0  0  0  0  0  0  0
    5.5999   -6.9283    0.0000 H   0  0  0  0  0  0  0  0  0  0  0  0
    8.0000   -8.3138    0.0000 C   0  0  0  0  0  0  0  0  0  0  0  0
    7.2002   -9.6995    0.0000 H   0  0  0  0  0  0  0  0  0  0  0  0
    9.6000   -8.3138    0.0000 C   0  0  0  0  0  0  0  0  0  0  0  0
   10.4001   -9.6995    0.0000 H   0  0  0  0  0  0  0  0  0  0  0  0
  1  2  1  0  0  0  0
  1  3  1  0  0  0  0
  3  4  1  0  0  0  0
  4  5  1  0  0  0  0
  5  6  1  0  0  0  0
  6  7  1  0  0  0  0
  6  8  1  0  0  0  0
  6  9  1  0  0  0  0
  9 10  1  0  0  0  0
  9 11  1  0  0  0  0
  9 12  1  0  0  0  0
 12 13  1  0  0  0  0
 12 14  1  0  0  0  0
 12 15  1  0  0  0  0
 15 16  1  0  0  0  0
 15 17  1  0  0  0  0
 15 18  1  0  0  0  0
  4 19  2  0  0  0  0
  3 20  2  0  0  0  0
 20 21  1  0  0  0  0
 21 22  1  0  0  0  0
 22 23  1  0  0  0  0
 23 24  1  0  0  0  0
 23 25  1  0  0  0  0
 23 26  1  0  0  0  0
 26 27  1  0  0  0  0
 27 28  1  0  0  0  0
 28 29  1  0  0  0  0
 28 30  1  0  0  0  0
 28 31  1  0  0  0  0
 31 32  1  0  0  0  0
 31 33  1  0  0  0  0
 31 34  1  0  0  0  0
 34 35  1  0  0  0  0
 34 36  1  0  0  0  0
 34 37  1  0  0  0  0
 37 38  1  0  0  0  0
 37 39  1  0  0  0  0
 37 40  1  0  0  0  0
 26 41  2  0  0  0  0
 21 42  2  0  0  0  0
 20 43  1  0  0  0  0
 43 44  1  0  0  0  0
 43 45  2  0  0  0  0
 45 46  1  0  0  0  0
 45 47  1  0  0  0  0
 47  1  2  0  0  0  0
 47 48  1  0  0  0  0
M  END
> <ChemID>
100194

> <source_casrn>
85-70-1

> <CAS>
85-70-1

> <SMILES>
O=C(OCC(=O)OCCCC)c(c(ccc1)C(=O)OCCCC)c1

> <NAME>
BUTYLGLYCOLYL BUTYL PHTHALATE

> <preferred_name>
Butylphthalyl butylglycolate

> <iupac>
2-butoxy-2-oxoethyl butyl benzene-1,2-dicarboxylate

> <MPID>
100204

> <dsstox_substance_id>
DTXSID7023938

> <Canonical_QSARr>
CCCCOC(=O)COC(=O)c1ccccc1C(=O)OCCCC

> <InChI_Code_QSARr>
InChI=1S/C18H24O6/c1-3-5-11-22-16(19)13-24-18(21)15-10-8-7-9-14(15)17(20)23-12-6-4-2/h7-10H,3-6,11-13H2,1-2H3

> <InChI Key_QSARr>
GOJCZVPJCKEBQV-UHFFFAOYSA-N

> <Salt_Solvent>
?

> <Ready_Biodeg>
1.0

$$$$
100195
  -INDIGO-08031722522D

 26 27  0  0  0  0  0  0  0  0999 V2000
    0.0001    3.2000    0.0000 N   0  0  0  0  0  0  0  0  0  0  0  0
    0.0001    1.6000    0.0000 C   0  0  0  0  0  0  0  0  0  0  0  0
    0.0001    0.0000    0.0000 C   0  0  0  0  0  0  0  0  0  0  0  0
   -0.0001   -1.6000    0.0000 H   0  0  0  0  0  0  0  0  0  0  0  0
    1.5999    0.0000    0.0000 C   0  0  0  0  0  0  0  0  0  0  0  0
    2.3999   -1.3857    0.0000 C   0  0  0  0  0  0  0  0  0  0  0  0
    1.5999   -2.7713    0.0000 H   0  0  0  0  0  0  0  0  0  0  0  0
    4.0000   -1.3857    0.0000 C   0  0  0  0  0  0  0  0  0  0  0  0
    4.8000   -2.7713    0.0000 H   0  0  0  0  0  0  0  0  0  0  0  0
    4.8000    0.0000    0.0000 C   0  0  0  0  0  0  0  0  0  0  0  0
    6.4000    0.0000    0.0000 H   0  0  0  0  0  0  0  0  0  0  0  0
    4.0000    1.3856    0.0000 C   0  0  0  0  0  0  0  0  0  0  0  0
    4.8000    2.7713    0.0000 H   0  0  0  0  0  0  0  0  0  0  0  0
    2.3999    1.3856    0.0000 C   0  0  0  0  0  0  0  0  0  0  0  0
    1.5999    2.7713    0.0000 H   0  0  0  0  0  0  0  0  0  0  0  0
   -1.5999    0.0000    0.0000 C   0  0  0  0  0  0  0  0  0  0  0  0
   -2.3999    1.3856    0.0000 C   0  0  0  0  0  0  0  0  0  0  0  0
   -1.5999    2.7713    0.0000 H   0  0  0  0  0  0  0  0  0  0  0  0
   -4.0000    1.3856    0.0000 C   0  0  0  0  0  0  0  0  0  0  0  0
   -4.8000    2.7713    0.0000 H   0  0  0  0  0  0  0  0  0  0  0  0
   -4.8000    0.0000    0.0000 C   0  0  0  0  0  0  0  0  0  0  0  0
   -6.4000    0.0000    0.0000 H   0  0  0  0  0  0  0  0  0  0  0  0
   -4.0000   -1.3857    0.0000 C   0  0  0  0  0  0  0  0  0  0  0  0
   -4.8000   -2.7713    0.0000 H   0  0  0  0  0  0  0  0  0  0  0  0
   -2.3999   -1.3857    0.0000 C   0  0  0  0  0  0  0  0  0  0  0  0
   -1.5999   -2.7713    0.0000 H   0  0  0  0  0  0  0  0  0  0  0  0
  1  2  3  0  0  0  0
  2  3  1  0  0  0  0
  3  4  1  0  0  0  0
  3  5  1  0  0  0  0
  5  6  1  0  0  0  0
  6  7  1  0  0  0  0
  6  8  2  0  0  0  0
  8  9  1  0  0  0  0
  8 10  1  0  0  0  0
 10 11  1  0  0  0  0
 10 12  2  0  0  0  0
 12 13  1  0  0  0  0
 12 14  1  0  0  0  0
 14  5  2  0  0  0  0
 14 15  1  0  0  0  0
  3 16  1  0  0  0  0
 16 17  1  0  0  0  0
 17 18  1  0  0  0  0
 17 19  2  0  0  0  0
 19 20  1  0  0  0  0
 19 21  1  0  0  0  0
 21 22  1  0  0  0  0
 21 23  2  0  0  0  0
 23 24  1  0  0  0  0
 23 25  1  0  0  0  0
 25 16  2  0  0  0  0
 25 26  1  0  0  0  0
M  END
> <ChemID>
100195

> <source_casrn>
86-29-3

> <CAS>
86-29-3

> <SMILES>
N#CC(c1ccccc1)c1ccccc1

> <NAME>
Diphenatrile

> <preferred_name>
Diphenylacetonitrile

> <iupac>
diphenylacetonitrile

> <MPID>
100205

> <dsstox_substance_id>
DTXSID4020539

> <Canonical_QSARr>
N#CC(c1ccccc1)c1ccccc1

> <InChI_Code_QSARr>
InChI=1S/C14H11N/c15-11-14(12-7-3-1-4-8-12)13-9-5-2-6-10-13/h1-10,14H

> <InChI Key_QSARr>
NEBPTMCRLHKPOB-UHFFFAOYSA-N

> <Salt_Solvent>
?

> <Ready_Biodeg>
0.0

$$$$
100197
  -INDIGO-08031722522D

 31 32  0  0  0  0  0  0  0  0999 V2000
   -1.3857   -2.4000    0.0000 O   0  0  0  0  0  0  0  0  0  0  0  0
   -1.3857   -0.8000    0.0000 C   0  0  0  0  0  0  0  0  0  0  0  0
    0.0000    0.0000    0.0000 C   0  0  0  0  0  0  0  0  0  0  0  0
    0.0000    1.6000    0.0000 C   0  0  0  0  0  0  0  0  0  0  0  0
    1.3857    2.4000    0.0000 C   0  0  0  0  0  0  0  0  0  0  0  0
    1.3857    4.0000    0.0000 H   0  0  0  0  0  0  0  0  0  0  0  0
    2.7712    1.6000    0.0000 C   0  0  0  0  0  0  0  0  0  0  0  0
    4.1569    2.4000    0.0000 H   0  0  0  0  0  0  0  0  0  0  0  0
    2.7712    0.0000    0.0000 C   0  0  0  0  0  0  0  0  0  0  0  0
    4.1569   -0.8000    0.0000 H   0  0  0  0  0  0  0  0  0  0  0  0
    1.3857   -0.8000    0.0000 C   0  0  0  0  0  0  0  0  0  0  0  0
    1.3857   -2.4000    0.0000 H   0  0  0  0  0  0  0  0  0  0  0  0
   -1.3857    2.4000    0.0000 N   0  0  0  0  0  0  0  0  0  0  0  0
   -2.7714    1.6000    0.0000 N   0  0  0  0  0  0  0  0  0  0  0  0
   -2.7714    0.0000    0.0000 N   0  0  0  0  0  0  0  0  0  0  0  0
   -4.1568   -0.8000    0.0000 C   0  0  0  0  0  0  0  0  0  0  0  0
   -3.5447   -2.2782    0.0000 H   0  0  0  0  0  0  0  0  0  0  0  0
   -4.7692   -2.2782    0.0000 H   0  0  0  0  0  0  0  0  0  0  0  0
   -5.5425    0.0000    0.0000 S   0  0  0  0  0  0  0  0  0  0  0  0
   -6.9282   -0.8000    0.0000 P   0  0  0  0  0  0  0  0  0  0  0  0
   -6.9282   -2.4000    0.0000 S   0  0  0  0  0  0  0  0  0  0  0  0
   -8.3139   -1.6000    0.0000 O   0  0  0  0  0  0  0  0  0  0  0  0
   -9.6994   -0.8000    0.0000 C   0  0  0  0  0  0  0  0  0  0  0  0
  -11.0851   -1.6000    0.0000 H   0  0  0  0  0  0  0  0  0  0  0  0
  -11.0851    0.0000    0.0000 H   0  0  0  0  0  0  0  0  0  0  0  0
   -9.6994   -2.4000    0.0000 H   0  0  0  0  0  0  0  0  0  0  0  0
   -8.3139    0.0000    0.0000 O   0  0  0  0  0  0  0  0  0  0  0  0
   -8.3139    1.6000    0.0000 C   0  0  0  0  0  0  0  0  0  0  0  0
   -8.3139    3.2000    0.0000 H   0  0  0  0  0  0  0  0  0  0  0  0
   -9.6994    2.4000    0.0000 H   0  0  0  0  0  0  0  0  0  0  0  0
   -6.9282    2.4000    0.0000 H   0  0  0  0  0  0  0  0  0  0  0  0
  1  2  2  0  0  0  0
  2  3  1  0  0  0  0
  3  4  1  0  0  0  0
  4  5  2  0  0  0  0
  5  6  1  0  0  0  0
  5  7  1  0  0  0  0
  7  8  1  0  0  0  0
  7  9  2  0  0  0  0
  9 10  1  0  0  0  0
  9 11  1  0  0  0  0
 11  3  2  0  0  0  0
 11 12  1  0  0  0  0
  4 13  1  0  0  0  0
 13 14  2  0  0  0  0
 14 15  1  0  0  0  0
 15  2  1  0  0  0  0
 15 16  1  0  0  0  0
 16 17  1  0  0  0  0
 16 18  1  0  0  0  0
 16 19  1  0  0  0  0
 19 20  1  0  0  0  0
 20 21  2  0  0  0  0
 20 22  1  0  0  0  0
 22 23  1  0  0  0  0
 23 24  1  0  0  0  0
 23 25  1  0  0  0  0
 23 26  1  0  0  0  0
 20 27  1  0  0  0  0
 27 28  1  0  0  0  0
 28 29  1  0  0  0  0
 28 30  1  0  0  0  0
 28 31  1  0  0  0  0
M  END
> <ChemID>
100197

> <source_casrn>
86-50-0

> <CAS>
86-50-0

> <SMILES>
COP(=S)(OC)SCN1N=Nc2ccccc2C1=O

> <NAME>
Guthion

> <preferred_name>
Azinphos-methyl

> <iupac>
O,O-dimethyl S-[(4-oxo-1,2,3-benzotriazin-3(4H)-yl)methyl] phosphorodithioate

> <MPID>
100207

> <dsstox_substance_id>
DTXSID3020122

> <Canonical_QSARr>
COP(=S)(OC)SCN1N=Nc2ccccc2C1=O

> <InChI_Code_QSARr>
InChI=1S/C10H12N3O3PS2/c1-15-17(18,16-2)19-7-13-10(14)8-5-3-4-6-9(8)11-12-13/h3-6H,7H2,1-2H3

> <InChI Key_QSARr>
CJJOSEISRRTUQB-UHFFFAOYSA-N

> <Salt_Solvent>
?

> <Ready_Biodeg>
1.0

$$$$
100198
  -INDIGO-08031722522D

 21 22  0  0  0  0  0  0  0  0999 V2000
    0.0001    0.0000    0.0000 C   0  0  0  0  0  0  0  0  0  0  0  0
   -0.8000    1.3856    0.0000 C   0  0  0  0  0  0  0  0  0  0  0  0
   -0.0001    2.7713    0.0000 H   0  0  0  0  0  0  0  0  0  0  0  0
   -2.4000    1.3856    0.0000 C   0  0  0  0  0  0  0  0  0  0  0  0
   -3.2001    2.7713    0.0000 H   0  0  0  0  0  0  0  0  0  0  0  0
   -3.1999    0.0000    0.0000 C   0  0  0  0  0  0  0  0  0  0  0  0
   -4.8000    0.0000    0.0000 H   0  0  0  0  0  0  0  0  0  0  0  0
   -2.4000   -1.3856    0.0000 C   0  0  0  0  0  0  0  0  0  0  0  0
   -3.2001   -2.7713    0.0000 H   0  0  0  0  0  0  0  0  0  0  0  0
   -0.8000   -1.3856    0.0000 C   0  0  0  0  0  0  0  0  0  0  0  0
    0.0001   -2.7713    0.0000 C   0  0  0  0  0  0  0  0  0  0  0  0
   -0.8000   -4.1569    0.0000 H   0  0  0  0  0  0  0  0  0  0  0  0
    1.6000   -2.7713    0.0000 C   0  0  0  0  0  0  0  0  0  0  0  0
    2.4000   -4.1569    0.0000 H   0  0  0  0  0  0  0  0  0  0  0  0
    2.4000   -1.3856    0.0000 C   0  0  0  0  0  0  0  0  0  0  0  0
    4.0000   -1.3856    0.0000 H   0  0  0  0  0  0  0  0  0  0  0  0
    1.6000    0.0000    0.0000 C   0  0  0  0  0  0  0  0  0  0  0  0
    2.4000    1.3856    0.0000 C   0  0  0  0  0  0  0  0  0  0  0  0
    1.6000    2.7713    0.0000 O   0  0  0  0  0  0  0  0  0  0  0  0
    4.0000    1.3856    0.0000 O   0  0  0  0  0  0  0  0  0  0  0  0
    4.8000    2.7713    0.0000 H   0  0  0  0  0  0  0  0  0  0  0  0
  1  2  1  0  0  0  0
  2  3  1  0  0  0  0
  2  4  2  0  0  0  0
  4  5  1  0  0  0  0
  4  6  1  0  0  0  0
  6  7  1  0  0  0  0
  6  8  2  0  0  0  0
  8  9  1  0  0  0  0
  8 10  1  0  0  0  0
 10  1  1  0  0  0  0
 10 11  2  0  0  0  0
 11 12  1  0  0  0  0
 11 13  1  0  0  0  0
 13 14  1  0  0  0  0
 13 15  2  0  0  0  0
 15 16  1  0  0  0  0
 15 17  1  0  0  0  0
 17  1  2  0  0  0  0
 17 18  1  0  0  0  0
 18 19  2  0  0  0  0
 18 20  1  0  0  0  0
 20 21  1  0  0  0  0
M  END
> <ChemID>
100198

> <source_casrn>
86-55-5

> <CAS>
NOCAS_861668

> <SMILES>
O=C(O)c(c(c(ccc1)cc2)c1)c2

> <NAME>
1-Naphthalenecarboxylic acid

> <preferred_name>


> <iupac>


> <MPID>
100208

> <dsstox_substance_id>
DTXSID50861668

> <Canonical_QSARr>
OC(=O)c1cccc2ccccc21

> <InChI_Code_QSARr>
InChI=1S/C11H8O2/c12-11(13)10-7-3-5-8-4-1-2-6-9(8)10/h1-7H,(H,12,13)

> <InChI Key_QSARr>
LNETULKMXZVUST-UHFFFAOYSA-N

> <Salt_Solvent>
?

> <Ready_Biodeg>
0.0

$$$$
100199
  -INDIGO-08031722522D

 23 25  0  0  0  0  0  0  0  0999 V2000
   -0.2706   -2.5747    0.0000 C   0  0  0  0  0  0  0  0  0  0  0  0
    1.2945   -2.2420    0.0000 C   0  0  0  0  0  0  0  0  0  0  0  0
    1.4616   -0.6508    0.0000 C   0  0  0  0  0  0  0  0  0  0  0  0
    2.9233    0.0000    0.0000 C   0  0  0  0  0  0  0  0  0  0  0  0
    3.0906    1.5912    0.0000 H   0  0  0  0  0  0  0  0  0  0  0  0
    4.2177   -0.9405    0.0000 C   0  0  0  0  0  0  0  0  0  0  0  0
    5.6794   -0.2897    0.0000 H   0  0  0  0  0  0  0  0  0  0  0  0
    4.0506   -2.5317    0.0000 C   0  0  0  0  0  0  0  0  0  0  0  0
    5.3450   -3.4721    0.0000 H   0  0  0  0  0  0  0  0  0  0  0  0
    2.5889   -3.1825    0.0000 C   0  0  0  0  0  0  0  0  0  0  0  0
    2.4215   -4.7737    0.0000 H   0  0  0  0  0  0  0  0  0  0  0  0
    0.0001    0.0000    0.0000 C   0  0  0  0  0  0  0  0  0  0  0  0
    0.8001    1.3857    0.0000 H   0  0  0  0  0  0  0  0  0  0  0  0
   -1.2944    0.9404    0.0000 H   0  0  0  0  0  0  0  0  0  0  0  0
   -1.0706   -1.1890    0.0000 C   0  0  0  0  0  0  0  0  0  0  0  0
   -2.6706   -1.1890    0.0000 C   0  0  0  0  0  0  0  0  0  0  0  0
   -3.4706    0.1966    0.0000 H   0  0  0  0  0  0  0  0  0  0  0  0
   -3.4706   -2.5747    0.0000 C   0  0  0  0  0  0  0  0  0  0  0  0
   -5.0706   -2.5747    0.0000 H   0  0  0  0  0  0  0  0  0  0  0  0
   -2.6706   -3.9603    0.0000 C   0  0  0  0  0  0  0  0  0  0  0  0
   -3.4706   -5.3460    0.0000 H   0  0  0  0  0  0  0  0  0  0  0  0
   -1.0706   -3.9603    0.0000 C   0  0  0  0  0  0  0  0  0  0  0  0
   -0.2706   -5.3460    0.0000 H   0  0  0  0  0  0  0  0  0  0  0  0
  1  2  1  0  0  0  0
  2  3  1  0  0  0  0
  3  4  2  0  0  0  0
  4  5  1  0  0  0  0
  4  6  1  0  0  0  0
  6  7  1  0  0  0  0
  6  8  2  0  0  0  0
  8  9  1  0  0  0  0
  8 10  1  0  0  0  0
 10  2  2  0  0  0  0
 10 11  1  0  0  0  0
  3 12  1  0  0  0  0
 12 13  1  0  0  0  0
 12 14  1  0  0  0  0
 12 15  1  0  0  0  0
 15  1  1  0  0  0  0
 15 16  2  0  0  0  0
 16 17  1  0  0  0  0
 16 18  1  0  0  0  0
 18 19  1  0  0  0  0
 18 20  2  0  0  0  0
 20 21  1  0  0  0  0
 20 22  1  0  0  0  0
 22  1  2  0  0  0  0
 22 23  1  0  0  0  0
M  END
> <ChemID>
100199

> <source_casrn>
86-73-7

> <CAS>
86-73-7

> <SMILES>
C1c2ccccc2-c2ccccc21

> <NAME>
9H-Fluorene

> <preferred_name>
Fluorene

> <iupac>
9H-fluorene

> <MPID>
100209

> <dsstox_substance_id>
DTXSID8024105

> <Canonical_QSARr>
C1c2ccccc2-c2ccccc21

> <InChI_Code_QSARr>
InChI=1S/C13H10/c1-3-7-12-10(5-1)9-11-6-2-4-8-13(11)12/h1-8H,9H2

> <InChI Key_QSARr>
NIHNNTQXNPWCJQ-UHFFFAOYSA-N

> <Salt_Solvent>
?

> <Ready_Biodeg>
0.0

$$$$
100201
  -INDIGO-08031722522D

 30 32  0  0  0  0  0  0  0  0999 V2000
   -5.5426    0.0000    0.0000 C   0  0  0  0  0  0  0  0  0  0  0  0
   -4.1568    0.8000    0.0000 O   0  0  0  0  0  0  0  0  0  0  0  0
   -2.7713    0.0000    0.0000 C   0  0  0  0  0  0  0  0  0  0  0  0
   -1.3855    0.8000    0.0000 C   0  0  0  0  0  0  0  0  0  0  0  0
    0.0000    0.0000    0.0000 C   0  0  0  0  0  0  0  0  0  0  0  0
    1.3857    0.8000    0.0000 C   0  0  0  0  0  0  0  0  0  0  0  0
    2.7713    0.0000    0.0000 H   0  0  0  0  0  0  0  0  0  0  0  0
    1.3857    2.4000    0.0000 C   0  0  0  0  0  0  0  0  0  0  0  0
    2.7713    3.2001    0.0000 H   0  0  0  0  0  0  0  0  0  0  0  0
    0.0000    3.2001    0.0000 C   0  0  0  0  0  0  0  0  0  0  0  0
    0.0000    4.8000    0.0000 H   0  0  0  0  0  0  0  0  0  0  0  0
   -1.3855    2.4000    0.0000 N   0  0  0  0  0  0  0  0  0  0  0  0
    0.0000   -1.6000    0.0000 C   0  0  0  0  0  0  0  0  0  0  0  0
    1.3857   -2.4001    0.0000 H   0  0  0  0  0  0  0  0  0  0  0  0
   -1.3855   -2.4001    0.0000 C   0  0  0  0  0  0  0  0  0  0  0  0
   -1.3855   -4.0000    0.0000 H   0  0  0  0  0  0  0  0  0  0  0  0
   -2.7713   -1.6000    0.0000 C   0  0  0  0  0  0  0  0  0  0  0  0
   -4.1568   -2.4001    0.0000 H   0  0  0  0  0  0  0  0  0  0  0  0
   -5.5426   -1.6000    0.0000 O   0  0  0  0  0  0  0  0  0  0  0  0
   -6.9281    0.8000    0.0000 C   0  0  0  0  0  0  0  0  0  0  0  0
   -8.3138    0.0000    0.0000 C   0  0  0  0  0  0  0  0  0  0  0  0
   -8.3138   -1.6000    0.0000 H   0  0  0  0  0  0  0  0  0  0  0  0
   -9.6994    0.8000    0.0000 C   0  0  0  0  0  0  0  0  0  0  0  0
  -11.0851    0.0000    0.0000 H   0  0  0  0  0  0  0  0  0  0  0  0
   -9.6994    2.4000    0.0000 C   0  0  0  0  0  0  0  0  0  0  0  0
  -11.0851    3.2001    0.0000 H   0  0  0  0  0  0  0  0  0  0  0  0
   -8.3138    3.2001    0.0000 C   0  0  0  0  0  0  0  0  0  0  0  0
   -8.3138    4.8000    0.0000 H   0  0  0  0  0  0  0  0  0  0  0  0
   -6.9281    2.4000    0.0000 C   0  0  0  0  0  0  0  0  0  0  0  0
   -5.5426    3.2001    0.0000 H   0  0  0  0  0  0  0  0  0  0  0  0
  1  2  1  0  0  0  0
  2  3  1  0  0  0  0
  3  4  1  0  0  0  0
  4  5  1  0  0  0  0
  5  6  2  0  0  0  0
  6  7  1  0  0  0  0
  6  8  1  0  0  0  0
  8  9  1  0  0  0  0
  8 10  2  0  0  0  0
 10 11  1  0  0  0  0
 10 12  1  0  0  0  0
 12  4  2  0  0  0  0
  5 13  1  0  0  0  0
 13 14  1  0  0  0  0
 13 15  2  0  0  0  0
 15 16  1  0  0  0  0
 15 17  1  0  0  0  0
 17  3  2  0  0  0  0
 17 18  1  0  0  0  0
  1 19  2  0  0  0  0
  1 20  1  0  0  0  0
 20 21  1  0  0  0  0
 21 22  1  0  0  0  0
 21 23  2  0  0  0  0
 23 24  1  0  0  0  0
 23 25  1  0  0  0  0
 25 26  1  0  0  0  0
 25 27  2  0  0  0  0
 27 28  1  0  0  0  0
 27 29  1  0  0  0  0
 29 20  2  0  0  0  0
 29 30  1  0  0  0  0
M  END
> <ChemID>
100201

> <source_casrn>
86-75-9

> <CAS>
86-75-9

> <SMILES>
O=C(Oc1cccc2ccc[n]c21)c1ccccc1

> <NAME>
Benzoxiquine

> <preferred_name>
Benzoxiquine

> <iupac>
quinolin-8-yl benzoate

> <MPID>
100211

> <dsstox_substance_id>
DTXSID5046069

> <Canonical_QSARr>
O=C(Oc1cccc2ccc[n]c21)c1ccccc1

> <InChI_Code_QSARr>
InChI=1S/C16H11NO2/c18-16(13-6-2-1-3-7-13)19-14-10-4-8-12-9-5-11-17-15(12)14/h1-11H

> <InChI Key_QSARr>
BHKPHCKISVSDGV-UHFFFAOYSA-N

> <Salt_Solvent>
?

> <Ready_Biodeg>
1.0

$$$$
100202
  -INDIGO-08031722522D

 24 25  0  0  0  0  0  0  0  0999 V2000
    4.8000    2.7713    0.0000 O   0  0  0  0  0  0  0  0  0  0  0  0
    6.4000    2.7713    0.0000 H   0  0  0  0  0  0  0  0  0  0  0  0
    4.0000    1.3856    0.0000 C   0  0  0  0  0  0  0  0  0  0  0  0
    4.8000   -0.0000    0.0000 O   0  0  0  0  0  0  0  0  0  0  0  0
    2.4001    1.3856    0.0000 C   0  0  0  0  0  0  0  0  0  0  0  0
    1.1306    2.3596    0.0000 H   0  0  0  0  0  0  0  0  0  0  0  0
    2.1912    2.9720    0.0000 H   0  0  0  0  0  0  0  0  0  0  0  0
    1.6001   -0.0000    0.0000 C   0  0  0  0  0  0  0  0  0  0  0  0
   -0.0001   -0.0000    0.0000 C   0  0  0  0  0  0  0  0  0  0  0  0
   -0.8001   -1.3857    0.0000 C   0  0  0  0  0  0  0  0  0  0  0  0
   -2.4000   -1.3857    0.0000 C   0  0  0  0  0  0  0  0  0  0  0  0
   -3.2000   -2.7713    0.0000 H   0  0  0  0  0  0  0  0  0  0  0  0
   -3.2000   -0.0000    0.0000 C   0  0  0  0  0  0  0  0  0  0  0  0
   -4.8000   -0.0000    0.0000 H   0  0  0  0  0  0  0  0  0  0  0  0
   -2.4000    1.3856    0.0000 C   0  0  0  0  0  0  0  0  0  0  0  0
   -3.2000    2.7713    0.0000 H   0  0  0  0  0  0  0  0  0  0  0  0
   -0.8001    1.3856    0.0000 C   0  0  0  0  0  0  0  0  0  0  0  0
   -0.0001    2.7713    0.0000 H   0  0  0  0  0  0  0  0  0  0  0  0
   -0.0001   -2.7713    0.0000 C   0  0  0  0  0  0  0  0  0  0  0  0
   -0.8001   -4.1569    0.0000 H   0  0  0  0  0  0  0  0  0  0  0  0
    1.6001   -2.7713    0.0000 C   0  0  0  0  0  0  0  0  0  0  0  0
    2.4001   -4.1569    0.0000 H   0  0  0  0  0  0  0  0  0  0  0  0
    2.4001   -1.3857    0.0000 C   0  0  0  0  0  0  0  0  0  0  0  0
    4.0000   -1.3857    0.0000 H   0  0  0  0  0  0  0  0  0  0  0  0
  1  2  1  0  0  0  0
  1  3  1  0  0  0  0
  3  4  2  0  0  0  0
  3  5  1  0  0  0  0
  5  6  1  0  0  0  0
  5  7  1  0  0  0  0
  5  8  1  0  0  0  0
  8  9  1  0  0  0  0
  9 10  1  0  0  0  0
 10 11  2  0  0  0  0
 11 12  1  0  0  0  0
 11 13  1  0  0  0  0
 13 14  1  0  0  0  0
 13 15  2  0  0  0  0
 15 16  1  0  0  0  0
 15 17  1  0  0  0  0
 17  9  2  0  0  0  0
 17 18  1  0  0  0  0
 10 19  1  0  0  0  0
 19 20  1  0  0  0  0
 19 21  2  0  0  0  0
 21 22  1  0  0  0  0
 21 23  1  0  0  0  0
 23  8  2  0  0  0  0
 23 24  1  0  0  0  0
M  END
> <ChemID>
100202

> <source_casrn>
86-87-3

> <CAS>
86-87-3

> <SMILES>
OC(=O)Cc1cccc2ccccc21

> <NAME>
1-Naphthaleneacetic acid

> <preferred_name>
1-Naphthaleneacetic acid

> <iupac>
naphthalen-1-ylacetic acid

> <MPID>
100212

> <dsstox_substance_id>
DTXSID8020915

> <Canonical_QSARr>
OC(=O)Cc1cccc2ccccc21

> <InChI_Code_QSARr>
InChI=1S/C12H10O2/c13-12(14)8-10-6-3-5-9-4-1-2-7-11(9)10/h1-7H,8H2,(H,13,14)

> <InChI Key_QSARr>
PRPINYUDVPFIRX-UHFFFAOYSA-N

> <Salt_Solvent>
?

> <Ready_Biodeg>
0.0

$$$$
100203
  -INDIGO-08031722522D

 25 26  0  0  0  0  0  0  0  0999 V2000
   -0.0001    0.0000    0.0000 C   0  0  0  0  0  0  0  0  0  0  0  0
    1.3856    0.8000    0.0000 C   0  0  0  0  0  0  0  0  0  0  0  0
    1.3856    2.4000    0.0000 H   0  0  0  0  0  0  0  0  0  0  0  0
    2.7713    0.0000    0.0000 C   0  0  0  0  0  0  0  0  0  0  0  0
    4.1569    0.8000    0.0000 N   0  0  0  0  0  0  0  0  0  0  0  0
    5.5426    0.0000    0.0000 H   0  0  0  0  0  0  0  0  0  0  0  0
    4.1569    2.4000    0.0000 H   0  0  0  0  0  0  0  0  0  0  0  0
    2.7713   -1.6000    0.0000 C   0  0  0  0  0  0  0  0  0  0  0  0
    4.1569   -2.4000    0.0000 H   0  0  0  0  0  0  0  0  0  0  0  0
    1.3856   -2.4000    0.0000 C   0  0  0  0  0  0  0  0  0  0  0  0
    1.3856   -4.0000    0.0000 H   0  0  0  0  0  0  0  0  0  0  0  0
   -0.0001   -1.6000    0.0000 C   0  0  0  0  0  0  0  0  0  0  0  0
   -1.3856   -2.4000    0.0000 C   0  0  0  0  0  0  0  0  0  0  0  0
   -1.3856   -4.0000    0.0000 O   0  0  0  0  0  0  0  0  0  0  0  0
   -2.7713   -4.8000    0.0000 H   0  0  0  0  0  0  0  0  0  0  0  0
   -2.7713   -1.6000    0.0000 C   0  0  0  0  0  0  0  0  0  0  0  0
   -4.1570   -2.4000    0.0000 H   0  0  0  0  0  0  0  0  0  0  0  0
   -2.7713    0.0000    0.0000 C   0  0  0  0  0  0  0  0  0  0  0  0
   -4.1570    0.8000    0.0000 S   0  0  0  0  0  0  0  0  0  0  0  0
   -4.9570   -0.5857    0.0000 O   0  0  0  0  0  0  0  0  0  0  0  0
   -5.5425    1.6000    0.0000 O   0  0  0  0  0  0  0  0  0  0  0  0
   -6.9282    0.8000    0.0000 H   0  0  0  0  0  0  0  0  0  0  0  0
   -3.3570    2.1857    0.0000 O   0  0  0  0  0  0  0  0  0  0  0  0
   -1.3856    0.8000    0.0000 C   0  0  0  0  0  0  0  0  0  0  0  0
   -1.3856    2.4000    0.0000 H   0  0  0  0  0  0  0  0  0  0  0  0
  1  2  1  0  0  0  0
  2  3  1  0  0  0  0
  2  4  2  0  0  0  0
  4  5  1  0  0  0  0
  5  6  1  0  0  0  0
  5  7  1  0  0  0  0
  4  8  1  0  0  0  0
  8  9  1  0  0  0  0
  8 10  2  0  0  0  0
 10 11  1  0  0  0  0
 10 12  1  0  0  0  0
 12  1  1  0  0  0  0
 12 13  2  0  0  0  0
 13 14  1  0  0  0  0
 14 15  1  0  0  0  0
 13 16  1  0  0  0  0
 16 17  1  0  0  0  0
 16 18  2  0  0  0  0
 18 19  1  0  0  0  0
 19 20  2  0  0  0  0
 19 21  1  0  0  0  0
 21 22  1  0  0  0  0
 19 23  2  0  0  0  0
 18 24  1  0  0  0  0
 24  1  2  0  0  0  0
 24 25  1  0  0  0  0
M  END
> <ChemID>
100203

> <source_casrn>
87-02-5

> <CAS>
87-02-5

> <SMILES>
Nc1cc2cc(cc(O)c2cc1)S(O)(=O)=O

> <NAME>
2-Naphthalenesulfonic acid, 7-amino-4-hydroxy-

> <preferred_name>
7-Amino-4-hydroxynaphthalene-2-sulfonic acid

> <iupac>
7-amino-4-hydroxynaphthalene-2-sulfonic acid

> <MPID>
100213

> <dsstox_substance_id>
DTXSID7026520

> <Canonical_QSARr>
Nc1cc2cc(cc(O)c2cc1)S(O)(=O)=O

> <InChI_Code_QSARr>
InChI=1S/C10H9NO4S/c11-7-1-2-9-6(3-7)4-8(5-10(9)12)16(13,14)15/h1-5,12H,11H2,(H,13,14,15)

> <InChI Key_QSARr>
KYARBIJYVGJZLB-UHFFFAOYSA-N

> <Salt_Solvent>
?

> <Ready_Biodeg>
0.0

$$$$
100205
  -INDIGO-08031722522D

 20 20  0  0  0  0  0  0  0  0999 V2000
    2.4000   -1.3856    0.0000 N   0  0  0  0  0  0  0  0  0  0  0  0
    3.2000   -2.7713    0.0000 H   0  0  0  0  0  0  0  0  0  0  0  0
    3.2000    0.0000    0.0000 H   0  0  0  0  0  0  0  0  0  0  0  0
    0.8000   -1.3856    0.0000 C   0  0  0  0  0  0  0  0  0  0  0  0
   -0.0000    0.0000    0.0000 C   0  0  0  0  0  0  0  0  0  0  0  0
    0.8000    1.3856    0.0000 C   0  0  0  0  0  0  0  0  0  0  0  0
    1.6000    2.7713    0.0000 H   0  0  0  0  0  0  0  0  0  0  0  0
    2.4000    1.3856    0.0000 H   0  0  0  0  0  0  0  0  0  0  0  0
   -0.0000    2.7713    0.0000 H   0  0  0  0  0  0  0  0  0  0  0  0
   -1.6000    0.0000    0.0000 C   0  0  0  0  0  0  0  0  0  0  0  0
   -2.4000    1.3856    0.0000 C   0  0  0  0  0  0  0  0  0  0  0  0
   -3.2000    2.7713    0.0000 H   0  0  0  0  0  0  0  0  0  0  0  0
   -4.0000    1.3856    0.0000 H   0  0  0  0  0  0  0  0  0  0  0  0
   -1.6000    2.7713    0.0000 H   0  0  0  0  0  0  0  0  0  0  0  0
   -2.4000   -1.3856    0.0000 C   0  0  0  0  0  0  0  0  0  0  0  0
   -4.0000   -1.3856    0.0000 H   0  0  0  0  0  0  0  0  0  0  0  0
   -1.6000   -2.7713    0.0000 C   0  0  0  0  0  0  0  0  0  0  0  0
   -2.4000   -4.1569    0.0000 H   0  0  0  0  0  0  0  0  0  0  0  0
   -0.0000   -2.7713    0.0000 C   0  0  0  0  0  0  0  0  0  0  0  0
    0.8000   -4.1569    0.0000 H   0  0  0  0  0  0  0  0  0  0  0  0
  1  2  1  0  0  0  0
  1  3  1  0  0  0  0
  1  4  1  0  0  0  0
  4  5  1  0  0  0  0
  5  6  1  0  0  0  0
  6  7  1  0  0  0  0
  6  8  1  0  0  0  0
  6  9  1  0  0  0  0
  5 10  2  0  0  0  0
 10 11  1  0  0  0  0
 11 12  1  0  0  0  0
 11 13  1  0  0  0  0
 11 14  1  0  0  0  0
 10 15  1  0  0  0  0
 15 16  1  0  0  0  0
 15 17  2  0  0  0  0
 17 18  1  0  0  0  0
 17 19  1  0  0  0  0
 19  4  2  0  0  0  0
 19 20  1  0  0  0  0
M  END
> <ChemID>
100205

> <source_casrn>
87-59-2

> <CAS>
87-59-2

> <SMILES>
Cc1cccc(N)c1C

> <NAME>
Benzenamine, 2,3-dimethyl-

> <preferred_name>
2,3-Dimethylaniline

> <iupac>
2,3-dimethylaniline

> <MPID>
100215

> <dsstox_substance_id>
DTXSID3026304

> <Canonical_QSARr>
Cc1cccc(N)c1C

> <InChI_Code_QSARr>
InChI=1S/C8H11N/c1-6-4-3-5-8(9)7(6)2/h3-5H,9H2,1-2H3

> <InChI Key_QSARr>
VVAKEQGKZNKUSU-UHFFFAOYSA-N

> <Salt_Solvent>
?

> <Ready_Biodeg>
0.0

$$$$
100206
  -INDIGO-08031722522D

 12 12  0  0  0  0  0  0  0  0999 V2000
    0.8000    1.3856    0.0000 Cl  0  0  0  0  0  0  0  0  0  0  0  0
   -0.0000   -0.0000    0.0000 C   0  0  0  0  0  0  0  0  0  0  0  0
    0.8000   -1.3857    0.0000 C   0  0  0  0  0  0  0  0  0  0  0  0
    2.4000   -1.3857    0.0000 Cl  0  0  0  0  0  0  0  0  0  0  0  0
   -0.0000   -2.7713    0.0000 C   0  0  0  0  0  0  0  0  0  0  0  0
    0.8000   -4.1569    0.0000 H   0  0  0  0  0  0  0  0  0  0  0  0
   -1.6000   -2.7713    0.0000 C   0  0  0  0  0  0  0  0  0  0  0  0
   -2.4000   -4.1569    0.0000 H   0  0  0  0  0  0  0  0  0  0  0  0
   -2.4000   -1.3856    0.0000 C   0  0  0  0  0  0  0  0  0  0  0  0
   -4.0000   -1.3856    0.0000 H   0  0  0  0  0  0  0  0  0  0  0  0
   -1.6000   -0.0000    0.0000 C   0  0  0  0  0  0  0  0  0  0  0  0
   -2.4000    1.3856    0.0000 Cl  0  0  0  0  0  0  0  0  0  0  0  0
  1  2  1  0  0  0  0
  2  3  1  0  0  0  0
  3  4  1  0  0  0  0
  3  5  2  0  0  0  0
  5  6  1  0  0  0  0
  5  7  1  0  0  0  0
  7  8  1  0  0  0  0
  7  9  2  0  0  0  0
  9 10  1  0  0  0  0
  9 11  1  0  0  0  0
 11  2  2  0  0  0  0
 11 12  1  0  0  0  0
M  END
> <ChemID>
100206

> <source_casrn>
87-61-6

> <CAS>
87-61-6

> <SMILES>
Clc1c(Cl)cccc1Cl

> <NAME>
Benzene, 1,2,3-trichloro-

> <preferred_name>
1,2,3-Trichlorobenzene

> <iupac>
C6H3Cl3

> <MPID>
100216

> <dsstox_substance_id>
DTXSID8026193

> <Canonical_QSARr>
Clc1c(Cl)cccc1Cl

> <InChI_Code_QSARr>
InChI=1S/C6H3Cl3/c7-4-2-1-3-5(8)6(4)9/h1-3H

> <InChI Key_QSARr>
RELMFMZEBKVZJC-UHFFFAOYSA-N

> <Salt_Solvent>
?

> <Ready_Biodeg>
0.0

$$$$
100207
  -INDIGO-08031722522D

 20 20  0  0  0  0  0  0  0  0999 V2000
    0.8000    1.3856    0.0000 N   0  0  0  0  0  0  0  0  0  0  0  0
    2.4000    1.3856    0.0000 H   0  0  0  0  0  0  0  0  0  0  0  0
   -0.0001    2.7713    0.0000 H   0  0  0  0  0  0  0  0  0  0  0  0
   -0.0001    0.0000    0.0000 C   0  0  0  0  0  0  0  0  0  0  0  0
    0.8000   -1.3856    0.0000 C   0  0  0  0  0  0  0  0  0  0  0  0
    2.4000   -1.3856    0.0000 C   0  0  0  0  0  0  0  0  0  0  0  0
    4.0000   -1.3856    0.0000 H   0  0  0  0  0  0  0  0  0  0  0  0
    3.2001   -2.7713    0.0000 H   0  0  0  0  0  0  0  0  0  0  0  0
    3.2001    0.0000    0.0000 H   0  0  0  0  0  0  0  0  0  0  0  0
   -0.0001   -2.7713    0.0000 C   0  0  0  0  0  0  0  0  0  0  0  0
    0.8000   -4.1569    0.0000 H   0  0  0  0  0  0  0  0  0  0  0  0
   -1.6001   -2.7713    0.0000 C   0  0  0  0  0  0  0  0  0  0  0  0
   -2.4000   -4.1569    0.0000 H   0  0  0  0  0  0  0  0  0  0  0  0
   -2.4000   -1.3856    0.0000 C   0  0  0  0  0  0  0  0  0  0  0  0
   -4.0000   -1.3856    0.0000 H   0  0  0  0  0  0  0  0  0  0  0  0
   -1.6001    0.0000    0.0000 C   0  0  0  0  0  0  0  0  0  0  0  0
   -2.4000    1.3856    0.0000 C   0  0  0  0  0  0  0  0  0  0  0  0
   -3.1999    2.7713    0.0000 H   0  0  0  0  0  0  0  0  0  0  0  0
   -4.0000    1.3856    0.0000 H   0  0  0  0  0  0  0  0  0  0  0  0
   -1.5999    2.7713    0.0000 H   0  0  0  0  0  0  0  0  0  0  0  0
  1  2  1  0  0  0  0
  1  3  1  0  0  0  0
  1  4  1  0  0  0  0
  4  5  1  0  0  0  0
  5  6  1  0  0  0  0
  6  7  1  0  0  0  0
  6  8  1  0  0  0  0
  6  9  1  0  0  0  0
  5 10  2  0  0  0  0
 10 11  1  0  0  0  0
 10 12  1  0  0  0  0
 12 13  1  0  0  0  0
 12 14  2  0  0  0  0
 14 15  1  0  0  0  0
 14 16  1  0  0  0  0
 16  4  2  0  0  0  0
 16 17  1  0  0  0  0
 17 18  1  0  0  0  0
 17 19  1  0  0  0  0
 17 20  1  0  0  0  0
M  END
> <ChemID>
100207

> <source_casrn>
87-62-7

> <CAS>
87-62-7

> <SMILES>
Cc1cccc(C)c1N

> <NAME>
2,6-DIMETHYLANILINE

> <preferred_name>
2,6-Dimethylaniline

> <iupac>
2,6-dimethylaniline

> <MPID>
100217

> <dsstox_substance_id>
DTXSID8026307

> <Canonical_QSARr>
Cc1cccc(C)c1N

> <InChI_Code_QSARr>
InChI=1S/C8H11N/c1-6-4-3-5-7(2)8(6)9/h3-5H,9H2,1-2H3

> <InChI Key_QSARr>
UFFBMTHBGFGIHF-UHFFFAOYSA-N

> <Salt_Solvent>
?

> <Ready_Biodeg>
0.0

$$$$
100209
  -INDIGO-08031722522D

 15 15  0  0  0  0  0  0  0  0999 V2000
    0.8000    1.3856    0.0000 O   0  0  0  0  0  0  0  0  0  0  0  0
    2.4000    1.3856    0.0000 H   0  0  0  0  0  0  0  0  0  0  0  0
   -0.0000   -0.0000    0.0000 C   0  0  0  0  0  0  0  0  0  0  0  0
    0.8000   -1.3857    0.0000 C   0  0  0  0  0  0  0  0  0  0  0  0
    2.4000   -1.3857    0.0000 O   0  0  0  0  0  0  0  0  0  0  0  0
    3.2000   -2.7713    0.0000 H   0  0  0  0  0  0  0  0  0  0  0  0
   -0.0000   -2.7713    0.0000 C   0  0  0  0  0  0  0  0  0  0  0  0
    0.8000   -4.1569    0.0000 H   0  0  0  0  0  0  0  0  0  0  0  0
   -1.6000   -2.7713    0.0000 C   0  0  0  0  0  0  0  0  0  0  0  0
   -2.4000   -4.1569    0.0000 H   0  0  0  0  0  0  0  0  0  0  0  0
   -2.4000   -1.3856    0.0000 C   0  0  0  0  0  0  0  0  0  0  0  0
   -4.0000   -1.3856    0.0000 H   0  0  0  0  0  0  0  0  0  0  0  0
   -1.6000   -0.0000    0.0000 C   0  0  0  0  0  0  0  0  0  0  0  0
   -2.4000    1.3856    0.0000 O   0  0  0  0  0  0  0  0  0  0  0  0
   -4.0000    1.3856    0.0000 H   0  0  0  0  0  0  0  0  0  0  0  0
  1  2  1  0  0  0  0
  1  3  1  0  0  0  0
  3  4  1  0  0  0  0
  4  5  1  0  0  0  0
  5  6  1  0  0  0  0
  4  7  2  0  0  0  0
  7  8  1  0  0  0  0
  7  9  1  0  0  0  0
  9 10  1  0  0  0  0
  9 11  2  0  0  0  0
 11 12  1  0  0  0  0
 11 13  1  0  0  0  0
 13  3  2  0  0  0  0
 13 14  1  0  0  0  0
 14 15  1  0  0  0  0
M  END
> <ChemID>
100209

> <source_casrn>
87-66-1

> <CAS>
87-66-1

> <SMILES>
Oc1c(O)cccc1O

> <NAME>
1,2,3-Trihydroxybenzene

> <preferred_name>
Pyrogallol

> <iupac>
benzene-1,2,3-triol

> <MPID>
100219

> <dsstox_substance_id>
DTXSID6025983

> <Canonical_QSARr>
Oc1c(O)cccc1O

> <InChI_Code_QSARr>
InChI=1S/C6H6O3/c7-4-2-1-3-5(8)6(4)9/h1-3,7-9H

> <InChI Key_QSARr>
WQGWDDDVZFFDIG-UHFFFAOYSA-N

> <Salt_Solvent>
?

> <Ready_Biodeg>
1.0

$$$$
100210
  -INDIGO-08031722522D

 16 15  0  0  0  0  0  0  0  0999 V2000
   -0.0000    0.0000    0.0000 C   0  0  0  0  0  0  0  0  0  0  0  0
   -0.0000   -1.6000    0.0000 H   0  0  0  0  0  0  0  0  0  0  0  0
    1.6000    0.0000    0.0000 C   0  0  0  0  0  0  0  0  0  0  0  0
    1.6000    1.6000    0.0000 H   0  0  0  0  0  0  0  0  0  0  0  0
    3.2000    0.0000    0.0000 C   0  0  0  0  0  0  0  0  0  0  0  0
    4.0001   -1.3857    0.0000 O   0  0  0  0  0  0  0  0  0  0  0  0
    4.0001    1.3857    0.0000 O   0  0  0  0  0  0  0  0  0  0  0  0
    5.6000    1.3857    0.0000 H   0  0  0  0  0  0  0  0  0  0  0  0
    1.6000   -1.6000    0.0000 O   0  0  0  0  0  0  0  0  0  0  0  0
    2.9857   -2.4000    0.0000 H   0  0  0  0  0  0  0  0  0  0  0  0
   -1.6000   -0.0000    0.0000 C   0  0  0  0  0  0  0  0  0  0  0  0
   -2.4001    1.3857    0.0000 O   0  0  0  0  0  0  0  0  0  0  0  0
   -2.3999   -1.3857    0.0000 O   0  0  0  0  0  0  0  0  0  0  0  0
   -4.0000   -1.3857    0.0000 H   0  0  0  0  0  0  0  0  0  0  0  0
   -0.0000    1.6000    0.0000 O   0  0  0  0  0  0  0  0  0  0  0  0
   -1.3857    2.4000    0.0000 H   0  0  0  0  0  0  0  0  0  0  0  0
  1  2  1  0  0  0  0
  1  3  1  0  0  0  0
  3  4  1  0  0  0  0
  3  5  1  0  0  0  0
  5  6  2  0  0  0  0
  5  7  1  0  0  0  0
  7  8  1  0  0  0  0
  3  9  1  0  0  0  0
  9 10  1  0  0  0  0
  1 11  1  0  0  0  0
 11 12  2  0  0  0  0
 11 13  1  0  0  0  0
 13 14  1  0  0  0  0
  1 15  1  0  0  0  0
 15 16  1  0  0  0  0
M  END
> <ChemID>
100210

> <source_casrn>
87-69-4

> <CAS>
87-69-4

> <SMILES>
OC(=O)[C@H](O)[C@@H](O)C(O)=O

> <NAME>
TARTARIC ACID

> <preferred_name>
L-Tartaric acid

> <iupac>
(2R,3R)-2,3-dihydroxybutanedioic acid

> <MPID>
100220

> <dsstox_substance_id>
DTXSID8023632

> <Canonical_QSARr>
OC(=O)C(O)C(O)C(O)=O

> <InChI_Code_QSARr>
InChI=1S/C4H6O6/c5-1(3(7)8)2(6)4(9)10/h1-2,5-6H,(H,7,8)(H,9,10)

> <InChI Key_QSARr>
FEWJPZIEWOKRBE-UHFFFAOYSA-N

> <Salt_Solvent>
?

> <Ready_Biodeg>
1.0

$$$$
100211
  -INDIGO-08031722522D

 12 12  0  0  0  0  0  0  0  0999 V2000
    0.8000    1.3856    0.0000 Br  0  0  0  0  0  0  0  0  0  0  0  0
   -0.0000   -0.0000    0.0000 C   0  0  0  0  0  0  0  0  0  0  0  0
    0.8000   -1.3857    0.0000 C   0  0  0  0  0  0  0  0  0  0  0  0
    2.4000   -1.3857    0.0000 Br  0  0  0  0  0  0  0  0  0  0  0  0
   -0.0000   -2.7713    0.0000 C   0  0  0  0  0  0  0  0  0  0  0  0
    0.8000   -4.1569    0.0000 Br  0  0  0  0  0  0  0  0  0  0  0  0
   -1.6000   -2.7713    0.0000 C   0  0  0  0  0  0  0  0  0  0  0  0
   -2.4000   -4.1569    0.0000 Br  0  0  0  0  0  0  0  0  0  0  0  0
   -2.4000   -1.3856    0.0000 C   0  0  0  0  0  0  0  0  0  0  0  0
   -4.0000   -1.3856    0.0000 Br  0  0  0  0  0  0  0  0  0  0  0  0
   -1.6000   -0.0000    0.0000 C   0  0  0  0  0  0  0  0  0  0  0  0
   -2.4000    1.3856    0.0000 Br  0  0  0  0  0  0  0  0  0  0  0  0
  1  2  1  0  0  0  0
  2  3  1  0  0  0  0
  3  4  1  0  0  0  0
  3  5  2  0  0  0  0
  5  6  1  0  0  0  0
  5  7  1  0  0  0  0
  7  8  1  0  0  0  0
  7  9  2  0  0  0  0
  9 10  1  0  0  0  0
  9 11  1  0  0  0  0
 11  2  2  0  0  0  0
 11 12  1  0  0  0  0
M  END
> <ChemID>
100211

> <source_casrn>
87-82-1

> <CAS>
87-82-1

> <SMILES>
Brc1c(Br)c(Br)c(Br)c(Br)c1Br

> <NAME>
Benzene, hexabromo-

> <preferred_name>
Hexabromobenzene

> <iupac>
hexabromobenzene

> <MPID>
100221

> <dsstox_substance_id>
DTXSID1024128

> <Canonical_QSARr>
Brc1c(Br)c(Br)c(Br)c(Br)c1Br

> <InChI_Code_QSARr>
InChI=1S/C6Br6/c7-1-2(8)4(10)6(12)5(11)3(1)9

> <InChI Key_QSARr>
CAYGQBVSOZLICD-UHFFFAOYSA-N

> <Salt_Solvent>
?

> <Ready_Biodeg>
0.0

$$$$
100213
  -INDIGO-08031722522D

 18 18  0  0  0  0  0  0  0  0999 V2000
    0.5472    1.5035    0.0000 Br  0  0  0  0  0  0  0  0  0  0  0  0
    0.0000    0.0000    0.0000 C   0  0  0  0  0  0  0  0  0  0  0  0
    1.5757   -0.2778    0.0000 H   0  0  0  0  0  0  0  0  0  0  0  0
   -1.3856    0.8000    0.0000 C   0  0  0  0  0  0  0  0  0  0  0  0
   -0.3571    2.0257    0.0000 H   0  0  0  0  0  0  0  0  0  0  0  0
   -2.4141    2.0257    0.0000 Br  0  0  0  0  0  0  0  0  0  0  0  0
   -2.7713    0.0000    0.0000 C   0  0  0  0  0  0  0  0  0  0  0  0
   -3.3185    1.5035    0.0000 H   0  0  0  0  0  0  0  0  0  0  0  0
   -4.3470   -0.2778    0.0000 Br  0  0  0  0  0  0  0  0  0  0  0  0
   -2.7713   -1.6000    0.0000 C   0  0  0  0  0  0  0  0  0  0  0  0
   -4.3470   -1.3222    0.0000 H   0  0  0  0  0  0  0  0  0  0  0  0
   -3.3185   -3.1035    0.0000 Cl  0  0  0  0  0  0  0  0  0  0  0  0
   -1.3856   -2.4000    0.0000 C   0  0  0  0  0  0  0  0  0  0  0  0
   -2.4141   -3.6257    0.0000 H   0  0  0  0  0  0  0  0  0  0  0  0
   -0.3571   -3.6257    0.0000 Br  0  0  0  0  0  0  0  0  0  0  0  0
    0.0000   -1.6000    0.0000 C   0  0  0  0  0  0  0  0  0  0  0  0
    0.5472   -3.1035    0.0000 H   0  0  0  0  0  0  0  0  0  0  0  0
    1.5757   -1.3222    0.0000 Br  0  0  0  0  0  0  0  0  0  0  0  0
  1  2  1  0  0  0  0
  2  3  1  0  0  0  0
  2  4  1  0  0  0  0
  4  5  1  0  0  0  0
  4  6  1  0  0  0  0
  4  7  1  0  0  0  0
  7  8  1  0  0  0  0
  7  9  1  0  0  0  0
  7 10  1  0  0  0  0
 10 11  1  0  0  0  0
 10 12  1  0  0  0  0
 10 13  1  0  0  0  0
 13 14  1  0  0  0  0
 13 15  1  0  0  0  0
 13 16  1  0  0  0  0
 16  2  1  0  0  0  0
 16 17  1  0  0  0  0
 16 18  1  0  0  0  0
M  END
> <ChemID>
100213

> <source_casrn>
87-84-3

> <CAS>
87-84-3

> <SMILES>
ClC1C(Br)C(Br)C(Br)C(Br)C1Br

> <NAME>
Cyclohexane, 1,2,3,4,5-pentabromo-6-chloro-

> <preferred_name>
Pentabromochlorocyclohexane

> <iupac>
1,2,3,4,5-pentabromo-6-chlorocyclohexane

> <MPID>
100223

> <dsstox_substance_id>
DTXSID4025828

> <Canonical_QSARr>
ClC1C(Br)C(Br)C(Br)C(Br)C1Br

> <InChI_Code_QSARr>
InChI=1S/C6H6Br5Cl/c7-1-2(8)4(10)6(12)5(11)3(1)9/h1-6H

> <InChI Key_QSARr>
UZOSVZSBPTTWIG-UHFFFAOYSA-N

> <Salt_Solvent>
?

> <Ready_Biodeg>
0.0

$$$$
100214
  -INDIGO-08031722522D

 13 13  0  0  0  0  0  0  0  0999 V2000
    0.8000    1.3856    0.0000 O   0  0  0  0  0  0  0  0  0  0  0  0
    2.4000    1.3856    0.0000 H   0  0  0  0  0  0  0  0  0  0  0  0
   -0.0000   -0.0000    0.0000 C   0  0  0  0  0  0  0  0  0  0  0  0
    0.8000   -1.3857    0.0000 C   0  0  0  0  0  0  0  0  0  0  0  0
    2.4000   -1.3857    0.0000 Cl  0  0  0  0  0  0  0  0  0  0  0  0
   -0.0000   -2.7713    0.0000 C   0  0  0  0  0  0  0  0  0  0  0  0
    0.8000   -4.1569    0.0000 Cl  0  0  0  0  0  0  0  0  0  0  0  0
   -1.6000   -2.7713    0.0000 C   0  0  0  0  0  0  0  0  0  0  0  0
   -2.4000   -4.1569    0.0000 Cl  0  0  0  0  0  0  0  0  0  0  0  0
   -2.4000   -1.3856    0.0000 C   0  0  0  0  0  0  0  0  0  0  0  0
   -4.0000   -1.3856    0.0000 Cl  0  0  0  0  0  0  0  0  0  0  0  0
   -1.6000   -0.0000    0.0000 C   0  0  0  0  0  0  0  0  0  0  0  0
   -2.4000    1.3856    0.0000 Cl  0  0  0  0  0  0  0  0  0  0  0  0
  1  2  1  0  0  0  0
  1  3  1  0  0  0  0
  3  4  1  0  0  0  0
  4  5  1  0  0  0  0
  4  6  2  0  0  0  0
  6  7  1  0  0  0  0
  6  8  1  0  0  0  0
  8  9  1  0  0  0  0
  8 10  2  0  0  0  0
 10 11  1  0  0  0  0
 10 12  1  0  0  0  0
 12  3  2  0  0  0  0
 12 13  1  0  0  0  0
M  END
> <ChemID>
100214

> <source_casrn>
87-86-5

> <CAS>
87-86-5

> <SMILES>
Oc1c(Cl)c(Cl)c(Cl)c(Cl)c1Cl

> <NAME>
Phenol, pentachloro-

> <preferred_name>
Pentachlorophenol

> <iupac>
pentachlorophenol

> <MPID>
100224

> <dsstox_substance_id>
DTXSID7021106

> <Canonical_QSARr>
Oc1c(Cl)c(Cl)c(Cl)c(Cl)c1Cl

> <InChI_Code_QSARr>
InChI=1S/C6HCl5O/c7-1-2(8)4(10)6(12)5(11)3(1)9/h12H

> <InChI Key_QSARr>
IZUPBVBPLAPZRR-UHFFFAOYSA-N

> <Salt_Solvent>
?

> <Ready_Biodeg>
0.0

$$$$
100215
  -INDIGO-08031722522D

 12 12  0  0  0  0  0  0  0  0999 V2000
   -0.0000   -0.0000    0.0000 N   0  0  0  0  0  0  0  0  0  0  0  0
    0.8000   -1.3857    0.0000 C   0  0  0  0  0  0  0  0  0  0  0  0
    2.4000   -1.3857    0.0000 O   0  0  0  0  0  0  0  0  0  0  0  0
   -0.0000   -2.7713    0.0000 N   0  0  0  0  0  0  0  0  0  0  0  0
    0.8000   -4.1569    0.0000 Cl  0  0  0  0  0  0  0  0  0  0  0  0
   -1.6000   -2.7713    0.0000 C   0  0  0  0  0  0  0  0  0  0  0  0
   -2.4000   -4.1569    0.0000 O   0  0  0  0  0  0  0  0  0  0  0  0
   -2.4000   -1.3856    0.0000 N   0  0  0  0  0  0  0  0  0  0  0  0
   -4.0000   -1.3856    0.0000 Cl  0  0  0  0  0  0  0  0  0  0  0  0
   -1.6000   -0.0000    0.0000 C   0  0  0  0  0  0  0  0  0  0  0  0
   -2.4000    1.3856    0.0000 O   0  0  0  0  0  0  0  0  0  0  0  0
    0.8000    1.3856    0.0000 Cl  0  0  0  0  0  0  0  0  0  0  0  0
  1  2  1  0  0  0  0
  2  3  2  0  0  0  0
  2  4  1  0  0  0  0
  4  5  1  0  0  0  0
  4  6  1  0  0  0  0
  6  7  2  0  0  0  0
  6  8  1  0  0  0  0
  8  9  1  0  0  0  0
  8 10  1  0  0  0  0
 10  1  1  0  0  0  0
 10 11  2  0  0  0  0
  1 12  1  0  0  0  0
M  END
> <ChemID>
100215

> <source_casrn>
87-90-1

> <CAS>
87-90-1

> <SMILES>
O=C1N(Cl)C(=O)N(Cl)C(=O)N1Cl

> <NAME>
1,3,5-Triazine-2,4,6(1H,3H,5H)-trione, 1,3,5-trichloro-

> <preferred_name>
Symclosene

> <iupac>
1,3,5-trichloro-1,3,5-triazinane-2,4,6-trione

> <MPID>
100225

> <dsstox_substance_id>
DTXSID2026523

> <Canonical_QSARr>
O=C1N(Cl)C(=O)N(Cl)C(=O)N1Cl

> <InChI_Code_QSARr>
InChI=1S/C3Cl3N3O3/c4-7-1(10)8(5)3(12)9(6)2(7)11

> <InChI Key_QSARr>
YRIZYWQGELRKNT-UHFFFAOYSA-N

> <Salt_Solvent>
?

> <Ready_Biodeg>
0.0

$$$$
100217
  -INDIGO-08031722522D

 20 20  0  0  0  0  0  0  0  0999 V2000
   -0.0000    2.7713    0.0000 C   0  0  0  0  0  0  0  0  0  0  0  0
    0.8000    4.1569    0.0000 H   0  0  0  0  0  0  0  0  0  0  0  0
   -0.8000    4.1569    0.0000 H   0  0  0  0  0  0  0  0  0  0  0  0
    1.6000    2.7713    0.0000 H   0  0  0  0  0  0  0  0  0  0  0  0
   -0.8000    1.3856    0.0000 C   0  0  0  0  0  0  0  0  0  0  0  0
   -0.0000    0.0000    0.0000 C   0  0  0  0  0  0  0  0  0  0  0  0
    1.6000    0.0000    0.0000 S   0  0  0  0  0  0  0  0  0  0  0  0
    1.6000   -1.6000    0.0000 O   0  0  0  0  0  0  0  0  0  0  0  0
    1.6000    1.6000    0.0000 O   0  0  0  0  0  0  0  0  0  0  0  0
    3.2000    0.0000    0.0000 N   0  0  0  0  0  0  0  0  0  0  0  0
    4.0000   -1.3856    0.0000 H   0  0  0  0  0  0  0  0  0  0  0  0
    4.0000    1.3856    0.0000 H   0  0  0  0  0  0  0  0  0  0  0  0
   -0.8000   -1.3856    0.0000 C   0  0  0  0  0  0  0  0  0  0  0  0
   -0.0000   -2.7713    0.0000 H   0  0  0  0  0  0  0  0  0  0  0  0
   -2.4000   -1.3856    0.0000 C   0  0  0  0  0  0  0  0  0  0  0  0
   -3.2001   -2.7713    0.0000 H   0  0  0  0  0  0  0  0  0  0  0  0
   -3.2001    0.0000    0.0000 C   0  0  0  0  0  0  0  0  0  0  0  0
   -4.8000    0.0000    0.0000 H   0  0  0  0  0  0  0  0  0  0  0  0
   -2.4000    1.3856    0.0000 C   0  0  0  0  0  0  0  0  0  0  0  0
   -3.2001    2.7713    0.0000 H   0  0  0  0  0  0  0  0  0  0  0  0
  1  2  1  0  0  0  0
  1  3  1  0  0  0  0
  1  4  1  0  0  0  0
  1  5  1  0  0  0  0
  5  6  1  0  0  0  0
  6  7  1  0  0  0  0
  7  8  2  0  0  0  0
  7  9  2  0  0  0  0
  7 10  1  0  0  0  0
 10 11  1  0  0  0  0
 10 12  1  0  0  0  0
  6 13  2  0  0  0  0
 13 14  1  0  0  0  0
 13 15  1  0  0  0  0
 15 16  1  0  0  0  0
 15 17  2  0  0  0  0
 17 18  1  0  0  0  0
 17 19  1  0  0  0  0
 19  5  2  0  0  0  0
 19 20  1  0  0  0  0
M  END
> <ChemID>
100217

> <source_casrn>
88-19-7

> <CAS>
88-19-7

> <SMILES>
Cc1ccccc1S(N)(=O)=O

> <NAME>
Benzenesulfonamide, 2-methyl-

> <preferred_name>
o-Toluenesulfonamide

> <iupac>
2-methylbenzenesulfonamide

> <MPID>
100227

> <dsstox_substance_id>
DTXSID7021362

> <Canonical_QSARr>
Cc1ccccc1S(N)(=O)=O

> <InChI_Code_QSARr>
InChI=1S/C7H9NO2S/c1-6-4-2-3-5-7(6)11(8,9)10/h2-5H,1H3,(H2,8,9,10)

> <InChI Key_QSARr>
YCMLQMDWSXFTIF-UHFFFAOYSA-N

> <Salt_Solvent>
?

> <Ready_Biodeg>
0.0

$$$$
100218
  -INDIGO-08031722522D

 18 18  0  0  0  0  0  0  0  0999 V2000
    0.8000    1.3856    0.0000 S   0  0  0  0  0  0  0  0  0  0  0  0
    2.1856    0.5857    0.0000 O   0  0  0  0  0  0  0  0  0  0  0  0
   -0.5856    2.1856    0.0000 O   0  0  0  0  0  0  0  0  0  0  0  0
    1.6000    2.7713    0.0000 O   0  0  0  0  0  0  0  0  0  0  0  0
    3.2000    2.7713    0.0000 H   0  0  0  0  0  0  0  0  0  0  0  0
   -0.0000    0.0000    0.0000 C   0  0  0  0  0  0  0  0  0  0  0  0
    0.8000   -1.3856    0.0000 C   0  0  0  0  0  0  0  0  0  0  0  0
    2.4000   -1.3856    0.0000 H   0  0  0  0  0  0  0  0  0  0  0  0
   -0.0000   -2.7713    0.0000 C   0  0  0  0  0  0  0  0  0  0  0  0
    0.8000   -4.1569    0.0000 H   0  0  0  0  0  0  0  0  0  0  0  0
   -1.6000   -2.7713    0.0000 C   0  0  0  0  0  0  0  0  0  0  0  0
   -2.4000   -4.1569    0.0000 H   0  0  0  0  0  0  0  0  0  0  0  0
   -2.4000   -1.3856    0.0000 C   0  0  0  0  0  0  0  0  0  0  0  0
   -4.0000   -1.3856    0.0000 H   0  0  0  0  0  0  0  0  0  0  0  0
   -1.6000    0.0000    0.0000 C   0  0  0  0  0  0  0  0  0  0  0  0
   -2.4000    1.3856    0.0000 N   0  0  0  0  0  0  0  0  0  0  0  0
   -4.0000    1.3856    0.0000 H   0  0  0  0  0  0  0  0  0  0  0  0
   -1.6000    2.7713    0.0000 H   0  0  0  0  0  0  0  0  0  0  0  0
  1  2  2  0  0  0  0
  1  3  2  0  0  0  0
  1  4  1  0  0  0  0
  4  5  1  0  0  0  0
  1  6  1  0  0  0  0
  6  7  1  0  0  0  0
  7  8  1  0  0  0  0
  7  9  2  0  0  0  0
  9 10  1  0  0  0  0
  9 11  1  0  0  0  0
 11 12  1  0  0  0  0
 11 13  2  0  0  0  0
 13 14  1  0  0  0  0
 13 15  1  0  0  0  0
 15  6  2  0  0  0  0
 15 16  1  0  0  0  0
 16 17  1  0  0  0  0
 16 18  1  0  0  0  0
M  END
> <ChemID>
100218

> <source_casrn>
88-21-1

> <CAS>
88-21-1

> <SMILES>
Nc1ccccc1S(O)(=O)=O

> <NAME>
O-ANILINESULFONIC ACID

> <preferred_name>
Orthanilic acid

> <iupac>
2-aminobenzenesulfonic acid

> <MPID>
100228

> <dsstox_substance_id>
DTXSID1024463

> <Canonical_QSARr>
Nc1ccccc1S(O)(=O)=O

> <InChI_Code_QSARr>
InChI=1S/C6H7NO3S/c7-5-3-1-2-4-6(5)11(8,9)10/h1-4H,7H2,(H,8,9,10)

> <InChI Key_QSARr>
ZMCHBSMFKQYNKA-UHFFFAOYSA-N

> <Salt_Solvent>
?

> <Ready_Biodeg>
0.0

$$$$
100219
  -INDIGO-08031722522D

 21 21  0  0  0  0  0  0  0  0999 V2000
    0.0000   -0.0000    0.0000 C   0  0  0  0  0  0  0  0  0  0  0  0
    1.3857    0.8000    0.0000 C   0  0  0  0  0  0  0  0  0  0  0  0
    1.3857    2.4000    0.0000 H   0  0  0  0  0  0  0  0  0  0  0  0
    2.7713   -0.0000    0.0000 C   0  0  0  0  0  0  0  0  0  0  0  0
    4.1570    0.8000    0.0000 C   0  0  0  0  0  0  0  0  0  0  0  0
    5.5426    1.6000    0.0000 H   0  0  0  0  0  0  0  0  0  0  0  0
    5.5426   -0.0000    0.0000 H   0  0  0  0  0  0  0  0  0  0  0  0
    4.1570    2.4000    0.0000 H   0  0  0  0  0  0  0  0  0  0  0  0
    2.7713   -1.6000    0.0000 C   0  0  0  0  0  0  0  0  0  0  0  0
    4.1570   -2.4000    0.0000 H   0  0  0  0  0  0  0  0  0  0  0  0
    1.3857   -2.4000    0.0000 C   0  0  0  0  0  0  0  0  0  0  0  0
    1.3857   -4.0000    0.0000 H   0  0  0  0  0  0  0  0  0  0  0  0
    0.0000   -1.6000    0.0000 C   0  0  0  0  0  0  0  0  0  0  0  0
   -1.3856   -2.4000    0.0000 N   0  0  0  0  0  0  0  0  0  0  0  0
   -1.3856   -4.0000    0.0000 H   0  0  0  0  0  0  0  0  0  0  0  0
   -2.7713   -1.6000    0.0000 H   0  0  0  0  0  0  0  0  0  0  0  0
   -1.3856    0.8000    0.0000 S   0  0  0  0  0  0  0  0  0  0  0  0
   -0.5856    2.1856    0.0000 O   0  0  0  0  0  0  0  0  0  0  0  0
   -2.7713    1.6000    0.0000 O   0  0  0  0  0  0  0  0  0  0  0  0
   -2.7713    3.2000    0.0000 H   0  0  0  0  0  0  0  0  0  0  0  0
   -2.1857   -0.5856    0.0000 O   0  0  0  0  0  0  0  0  0  0  0  0
  1  2  1  0  0  0  0
  2  3  1  0  0  0  0
  2  4  2  0  0  0  0
  4  5  1  0  0  0  0
  5  6  1  0  0  0  0
  5  7  1  0  0  0  0
  5  8  1  0  0  0  0
  4  9  1  0  0  0  0
  9 10  1  0  0  0  0
  9 11  2  0  0  0  0
 11 12  1  0  0  0  0
 11 13  1  0  0  0  0
 13  1  2  0  0  0  0
 13 14  1  0  0  0  0
 14 15  1  0  0  0  0
 14 16  1  0  0  0  0
  1 17  1  0  0  0  0
 17 18  2  0  0  0  0
 17 19  1  0  0  0  0
 19 20  1  0  0  0  0
 17 21  2  0  0  0  0
M  END
> <ChemID>
100219

> <source_casrn>
88-44-8

> <CAS>
88-44-8

> <SMILES>
Cc1cc(c(N)cc1)S(O)(=O)=O

> <NAME>
Benzenesulfonic acid, 2-amino-5-methyl-

> <preferred_name>
2-Amino-5-methylbenzenesulfonic acid

> <iupac>
2-amino-5-methylbenzenesulfonic acid

> <MPID>
100229

> <dsstox_substance_id>
DTXSID7026526

> <Canonical_QSARr>
Cc1cc(c(N)cc1)S(O)(=O)=O

> <InChI_Code_QSARr>
InChI=1S/C7H9NO3S/c1-5-2-3-6(8)7(4-5)12(9,10)11/h2-4H,8H2,1H3,(H,9,10,11)

> <InChI Key_QSARr>
LTPSRQRIPCVMKQ-UHFFFAOYSA-N

> <Salt_Solvent>
?

> <Ready_Biodeg>
0.0

$$$$
100221
  -INDIGO-08031722522D

 22 22  0  0  0  0  0  0  0  0999 V2000
   -0.0000    0.0000    0.0000 C   0  0  0  0  0  0  0  0  0  0  0  0
   -0.8000    1.3856    0.0000 C   0  0  0  0  0  0  0  0  0  0  0  0
   -0.0000    2.7713    0.0000 H   0  0  0  0  0  0  0  0  0  0  0  0
   -2.4000    1.3856    0.0000 C   0  0  0  0  0  0  0  0  0  0  0  0
   -3.1999    2.7713    0.0000 H   0  0  0  0  0  0  0  0  0  0  0  0
   -3.1999    0.0000    0.0000 C   0  0  0  0  0  0  0  0  0  0  0  0
   -4.8000    0.0000    0.0000 C   0  0  0  0  0  0  0  0  0  0  0  0
   -6.4000    0.0000    0.0000 H   0  0  0  0  0  0  0  0  0  0  0  0
   -5.6000    1.3856    0.0000 H   0  0  0  0  0  0  0  0  0  0  0  0
   -5.6000   -1.3856    0.0000 H   0  0  0  0  0  0  0  0  0  0  0  0
   -2.4000   -1.3856    0.0000 C   0  0  0  0  0  0  0  0  0  0  0  0
   -3.1999   -2.7713    0.0000 H   0  0  0  0  0  0  0  0  0  0  0  0
   -0.8000   -1.3856    0.0000 C   0  0  0  0  0  0  0  0  0  0  0  0
   -0.0000   -2.7713    0.0000 C   0  0  0  0  0  0  0  0  0  0  0  0
    0.7999   -4.1569    0.0000 H   0  0  0  0  0  0  0  0  0  0  0  0
   -0.8000   -4.1569    0.0000 H   0  0  0  0  0  0  0  0  0  0  0  0
    1.6001   -2.7713    0.0000 H   0  0  0  0  0  0  0  0  0  0  0  0
    1.6001    0.0000    0.0000 S   0  0  0  0  0  0  0  0  0  0  0  0
    1.6001    1.6000    0.0000 O   0  0  0  0  0  0  0  0  0  0  0  0
    3.2000    0.0000    0.0000 O   0  0  0  0  0  0  0  0  0  0  0  0
    4.0000    1.3856    0.0000 H   0  0  0  0  0  0  0  0  0  0  0  0
    1.6001   -1.6000    0.0000 O   0  0  0  0  0  0  0  0  0  0  0  0
  1  2  1  0  0  0  0
  2  3  1  0  0  0  0
  2  4  2  0  0  0  0
  4  5  1  0  0  0  0
  4  6  1  0  0  0  0
  6  7  1  0  0  0  0
  7  8  1  0  0  0  0
  7  9  1  0  0  0  0
  7 10  1  0  0  0  0
  6 11  2  0  0  0  0
 11 12  1  0  0  0  0
 11 13  1  0  0  0  0
 13  1  2  0  0  0  0
 13 14  1  0  0  0  0
 14 15  1  0  0  0  0
 14 16  1  0  0  0  0
 14 17  1  0  0  0  0
  1 18  1  0  0  0  0
 18 19  2  0  0  0  0
 18 20  1  0  0  0  0
 20 21  1  0  0  0  0
 18 22  2  0  0  0  0
M  END
> <ChemID>
100221

> <source_casrn>
88-61-9

> <CAS>
88-61-9

> <SMILES>
Cc1cc(C)c(cc1)S(O)(=O)=O

> <NAME>
2,4-DIMETHYLBENZENESULFONIC ACID

> <preferred_name>
2,4-Dimethylbenzenesulfonic acid

> <iupac>
C8H10O3S

> <MPID>
100231

> <dsstox_substance_id>
DTXSID1047023

> <Canonical_QSARr>
Cc1cc(C)c(cc1)S(O)(=O)=O

> <InChI_Code_QSARr>
InChI=1S/C8H10O3S/c1-6-3-4-8(7(2)5-6)12(9,10)11/h3-5H,1-2H3,(H,9,10,11)

> <InChI Key_QSARr>
CHZLVSBMXZSPNN-UHFFFAOYSA-N

> <Salt_Solvent>
?

> <Ready_Biodeg>
1.0

$$$$
100222
  -INDIGO-08031722522D

 15 15  0  0  0  0  0  0  0  0999 V2000
    2.4000    1.3856    0.0000 C   0  0  0  0  0  0  0  0  0  0  0  0
    3.2001    2.7713    0.0000 H   0  0  0  0  0  0  0  0  0  0  0  0
    3.2001   -0.0000    0.0000 C   0  0  0  0  0  0  0  0  0  0  0  0
    4.8000   -0.0000    0.0000 H   0  0  0  0  0  0  0  0  0  0  0  0
    2.4000   -1.3856    0.0000 C   0  0  0  0  0  0  0  0  0  0  0  0
    3.2001   -2.7713    0.0000 H   0  0  0  0  0  0  0  0  0  0  0  0
    0.8000   -1.3856    0.0000 C   0  0  0  0  0  0  0  0  0  0  0  0
    0.0000   -2.7713    0.0000 I   0  0  0  0  0  0  0  0  0  0  0  0
    0.0000    0.0000    0.0000 C   0  0  0  0  0  0  0  0  0  0  0  0
   -1.6000    0.0000    0.0000 C   0  0  0  0  0  0  0  0  0  0  0  0
   -2.4001    1.3856    0.0000 O   0  0  0  0  0  0  0  0  0  0  0  0
   -2.4001   -1.3856    0.0000 O   0  0  0  0  0  0  0  0  0  0  0  0
   -4.0000   -1.3856    0.0000 H   0  0  0  0  0  0  0  0  0  0  0  0
    0.8000    1.3856    0.0000 C   0  0  0  0  0  0  0  0  0  0  0  0
    0.0000    2.7713    0.0000 H   0  0  0  0  0  0  0  0  0  0  0  0
  1  2  1  0  0  0  0
  1  3  1  0  0  0  0
  3  4  1  0  0  0  0
  3  5  2  0  0  0  0
  5  6  1  0  0  0  0
  5  7  1  0  0  0  0
  7  8  1  0  0  0  0
  7  9  2  0  0  0  0
  9 10  1  0  0  0  0
 10 11  2  0  0  0  0
 10 12  1  0  0  0  0
 12 13  1  0  0  0  0
  9 14  1  0  0  0  0
 14  1  2  0  0  0  0
 14 15  1  0  0  0  0
M  END
> <ChemID>
100222

> <source_casrn>
88-67-5

> <CAS>
88-67-5

> <SMILES>
OC(=O)c1ccccc1I

> <NAME>
Benzoic acid, 2-iodo-

> <preferred_name>
Benzoic acid, 2-iodo-

> <iupac>
2-Iodobenzoic acid

> <MPID>
100232

> <dsstox_substance_id>
DTXSID6058976

> <Canonical_QSARr>
OC(=O)c1ccccc1I

> <InChI_Code_QSARr>
InChI=1S/C7H5IO2/c8-6-4-2-1-3-5(6)7(9)10/h1-4H,(H,9,10)

> <InChI Key_QSARr>
CJNZAXGUTKBIHP-UHFFFAOYSA-N

> <Salt_Solvent>
?

> <Ready_Biodeg>
0.0

$$$$
100223
  -INDIGO-08031722522D

 17 17  0  0  0  0  0  0  0  0999 V2000
    1.3856    2.4000    0.0000 N   0  0  0  0  0  0  0  0  0  0  0  0
    1.3856    4.0000    0.0000 O   0  0  0  0  0  0  0  0  0  0  0  0
    2.7713    1.6000    0.0000 O   0  0  0  0  0  0  0  0  0  0  0  0
    0.0000    1.6000    0.0000 C   0  0  0  0  0  0  0  0  0  0  0  0
   -1.3856    2.4000    0.0000 C   0  0  0  0  0  0  0  0  0  0  0  0
   -1.3856    4.0000    0.0000 H   0  0  0  0  0  0  0  0  0  0  0  0
   -2.7713    1.6000    0.0000 C   0  0  0  0  0  0  0  0  0  0  0  0
   -4.1569    2.4000    0.0000 H   0  0  0  0  0  0  0  0  0  0  0  0
   -2.7713    0.0000    0.0000 C   0  0  0  0  0  0  0  0  0  0  0  0
   -4.1569   -0.8000    0.0000 H   0  0  0  0  0  0  0  0  0  0  0  0
   -1.3856   -0.8000    0.0000 C   0  0  0  0  0  0  0  0  0  0  0  0
   -1.3856   -2.4000    0.0000 H   0  0  0  0  0  0  0  0  0  0  0  0
    0.0000    0.0000    0.0000 C   0  0  0  0  0  0  0  0  0  0  0  0
    1.3856   -0.8000    0.0000 C   0  0  0  0  0  0  0  0  0  0  0  0
    2.7713   -1.6000    0.0000 H   0  0  0  0  0  0  0  0  0  0  0  0
    1.3856   -2.4000    0.0000 H   0  0  0  0  0  0  0  0  0  0  0  0
    2.7713    0.0000    0.0000 H   0  0  0  0  0  0  0  0  0  0  0  0
  1  2  2  0  0  0  0
  1  3  1  0  0  0  0
  1  4  1  0  0  0  0
  4  5  1  0  0  0  0
  5  6  1  0  0  0  0
  5  7  2  0  0  0  0
  7  8  1  0  0  0  0
  7  9  1  0  0  0  0
  9 10  1  0  0  0  0
  9 11  2  0  0  0  0
 11 12  1  0  0  0  0
 11 13  1  0  0  0  0
 13  4  2  0  0  0  0
 13 14  1  0  0  0  0
 14 15  1  0  0  0  0
 14 16  1  0  0  0  0
 14 17  1  0  0  0  0
M  CHG  2   1   1   3  -1
M  END
> <ChemID>
100223

> <source_casrn>
88-72-2

> <CAS>
88-72-2

> <SMILES>
Cc1ccccc1[N+]([O-])=O

> <NAME>
Benzene, 1-methyl-2-nitro-

> <preferred_name>
2-Nitrotoluene

> <iupac>
1-methyl-2-nitrobenzene

> <MPID>
100233

> <dsstox_substance_id>
DTXSID4025791

> <Canonical_QSARr>
Cc1ccccc1[N+]([O-])=O

> <InChI_Code_QSARr>
InChI=1S/C7H7NO2/c1-6-4-2-3-5-7(6)8(9)10/h2-5H,1H3

> <InChI Key_QSARr>
PLAZTCDQAHEYBI-UHFFFAOYSA-N

> <Salt_Solvent>
?

> <Ready_Biodeg>
0.0

$$$$
100225
  -INDIGO-08031722522D

 16 16  0  0  0  0  0  0  0  0999 V2000
    1.3856    0.8000    0.0000 N   0  0  0  0  0  0  0  0  0  0  0  0
    1.3856    2.4000    0.0000 O   0  0  0  0  0  0  0  0  0  0  0  0
    2.7713   -0.0000    0.0000 O   0  0  0  0  0  0  0  0  0  0  0  0
    0.0000   -0.0000    0.0000 C   0  0  0  0  0  0  0  0  0  0  0  0
   -1.3856    0.8000    0.0000 C   0  0  0  0  0  0  0  0  0  0  0  0
   -1.3856    2.4000    0.0000 H   0  0  0  0  0  0  0  0  0  0  0  0
   -2.7713   -0.0000    0.0000 C   0  0  0  0  0  0  0  0  0  0  0  0
   -4.1569    0.8000    0.0000 H   0  0  0  0  0  0  0  0  0  0  0  0
   -2.7713   -1.6000    0.0000 C   0  0  0  0  0  0  0  0  0  0  0  0
   -4.1569   -2.4000    0.0000 H   0  0  0  0  0  0  0  0  0  0  0  0
   -1.3856   -2.4000    0.0000 C   0  0  0  0  0  0  0  0  0  0  0  0
   -1.3856   -4.0000    0.0000 H   0  0  0  0  0  0  0  0  0  0  0  0
    0.0000   -1.6000    0.0000 C   0  0  0  0  0  0  0  0  0  0  0  0
    1.3856   -2.4000    0.0000 N   0  0  0  0  0  0  0  0  0  0  0  0
    1.3856   -4.0000    0.0000 H   0  0  0  0  0  0  0  0  0  0  0  0
    2.7713   -1.6000    0.0000 H   0  0  0  0  0  0  0  0  0  0  0  0
  1  2  2  0  0  0  0
  1  3  1  0  0  0  0
  1  4  1  0  0  0  0
  4  5  1  0  0  0  0
  5  6  1  0  0  0  0
  5  7  2  0  0  0  0
  7  8  1  0  0  0  0
  7  9  1  0  0  0  0
  9 10  1  0  0  0  0
  9 11  2  0  0  0  0
 11 12  1  0  0  0  0
 11 13  1  0  0  0  0
 13  4  2  0  0  0  0
 13 14  1  0  0  0  0
 14 15  1  0  0  0  0
 14 16  1  0  0  0  0
M  CHG  2   1   1   3  -1
M  END
> <ChemID>
100225

> <source_casrn>
88-74-4

> <CAS>
88-74-4

> <SMILES>
Nc1ccccc1[N+]([O-])=O

> <NAME>
Benzenamine, 2-nitro-

> <preferred_name>
2-Nitroaniline

> <iupac>
2-nitroaniline

> <MPID>
100235

> <dsstox_substance_id>
DTXSID1025726

> <Canonical_QSARr>
Nc1ccccc1[N+]([O-])=O

> <InChI_Code_QSARr>
InChI=1S/C6H6N2O2/c7-5-3-1-2-4-6(5)8(9)10/h1-4H,7H2

> <InChI Key_QSARr>
DPJCXCZTLWNFOH-UHFFFAOYSA-N

> <Salt_Solvent>
?

> <Ready_Biodeg>
0.0

$$$$
100226
  -INDIGO-08031722522D

 15 15  0  0  0  0  0  0  0  0999 V2000
   -1.3856    2.4000    0.0000 O   0  0  0  0  0  0  0  0  0  0  0  0
   -1.3856    4.0000    0.0000 H   0  0  0  0  0  0  0  0  0  0  0  0
    0.0000    1.6000    0.0000 C   0  0  0  0  0  0  0  0  0  0  0  0
    0.0000    0.0000    0.0000 C   0  0  0  0  0  0  0  0  0  0  0  0
   -1.3856   -0.8000    0.0000 N   0  0  0  0  0  0  0  0  0  0  0  0
   -1.3856   -2.4000    0.0000 O   0  0  0  0  0  0  0  0  0  0  0  0
   -2.7713    0.0000    0.0000 O   0  0  0  0  0  0  0  0  0  0  0  0
    1.3856   -0.8000    0.0000 C   0  0  0  0  0  0  0  0  0  0  0  0
    1.3856   -2.4000    0.0000 H   0  0  0  0  0  0  0  0  0  0  0  0
    2.7713    0.0000    0.0000 C   0  0  0  0  0  0  0  0  0  0  0  0
    4.1569   -0.8000    0.0000 H   0  0  0  0  0  0  0  0  0  0  0  0
    2.7713    1.6000    0.0000 C   0  0  0  0  0  0  0  0  0  0  0  0
    4.1569    2.4000    0.0000 H   0  0  0  0  0  0  0  0  0  0  0  0
    1.3856    2.4000    0.0000 C   0  0  0  0  0  0  0  0  0  0  0  0
    1.3856    4.0000    0.0000 H   0  0  0  0  0  0  0  0  0  0  0  0
  1  2  1  0  0  0  0
  1  3  1  0  0  0  0
  3  4  1  0  0  0  0
  4  5  1  0  0  0  0
  5  6  1  0  0  0  0
  5  7  2  0  0  0  0
  4  8  2  0  0  0  0
  8  9  1  0  0  0  0
  8 10  1  0  0  0  0
 10 11  1  0  0  0  0
 10 12  2  0  0  0  0
 12 13  1  0  0  0  0
 12 14  1  0  0  0  0
 14  3  2  0  0  0  0
 14 15  1  0  0  0  0
M  CHG  2   5   1   6  -1
M  END
> <ChemID>
100226

> <source_casrn>
88-75-5

> <CAS>
88-75-5

> <SMILES>
[O-][N+](=O)c1ccccc1O

> <NAME>
2-Nitrophenol

> <preferred_name>
2-Nitrophenol

> <iupac>
2-nitrophenol

> <MPID>
100236

> <dsstox_substance_id>
DTXSID1021790

> <Canonical_QSARr>
[O-][N+](=O)c1ccccc1O

> <InChI_Code_QSARr>
InChI=1S/C6H5NO3/c8-6-4-2-1-3-5(6)7(9)10/h1-4,8H

> <InChI Key_QSARr>
IQUPABOKLQSFBK-UHFFFAOYSA-N

> <Salt_Solvent>
?

> <Ready_Biodeg>
0.0

$$$$
100227
  -INDIGO-08031722522D

 29 29  0  0  0  0  0  0  0  0999 V2000
    1.6000    2.7712    0.0000 O   0  0  0  0  0  0  0  0  0  0  0  0
    2.4000    4.1569    0.0000 H   0  0  0  0  0  0  0  0  0  0  0  0
    2.4000    1.3856    0.0000 C   0  0  0  0  0  0  0  0  0  0  0  0
    4.0001    1.3856    0.0000 C   0  0  0  0  0  0  0  0  0  0  0  0
    4.7999    2.7712    0.0000 N   0  0  0  0  0  0  0  0  0  0  0  0
    6.4000    2.7713    0.0000 O   0  0  0  0  0  0  0  0  0  0  0  0
    4.0001    4.1569    0.0000 O   0  0  0  0  0  0  0  0  0  0  0  0
    4.7999   -0.0001    0.0000 C   0  0  0  0  0  0  0  0  0  0  0  0
    6.4000    0.0001    0.0000 H   0  0  0  0  0  0  0  0  0  0  0  0
    4.0001   -1.3856    0.0000 C   0  0  0  0  0  0  0  0  0  0  0  0
    4.7999   -2.7713    0.0000 N   0  0  0  0  0  0  0  0  0  0  0  0
    6.4000   -2.7713    0.0000 O   0  0  0  0  0  0  0  0  0  0  0  0
    3.9999   -4.1569    0.0000 O   0  0  0  0  0  0  0  0  0  0  0  0
    2.4000   -1.3856    0.0000 C   0  0  0  0  0  0  0  0  0  0  0  0
    1.6000   -2.7712    0.0000 H   0  0  0  0  0  0  0  0  0  0  0  0
    1.6000   -0.0001    0.0000 C   0  0  0  0  0  0  0  0  0  0  0  0
   -0.0001    0.0001    0.0000 C   0  0  0  0  0  0  0  0  0  0  0  0
   -0.0001    1.6000    0.0000 H   0  0  0  0  0  0  0  0  0  0  0  0
   -1.5036    0.5472    0.0000 C   0  0  0  0  0  0  0  0  0  0  0  0
   -2.3631    1.8966    0.0000 H   0  0  0  0  0  0  0  0  0  0  0  0
   -1.1572    2.1093    0.0000 H   0  0  0  0  0  0  0  0  0  0  0  0
   -2.7292   -0.4812    0.0000 C   0  0  0  0  0  0  0  0  0  0  0  0
   -3.9549   -1.5097    0.0000 H   0  0  0  0  0  0  0  0  0  0  0  0
   -4.2327    0.0660    0.0000 H   0  0  0  0  0  0  0  0  0  0  0  0
   -2.4514   -2.0569    0.0000 H   0  0  0  0  0  0  0  0  0  0  0  0
   -0.0001   -1.6000    0.0000 C   0  0  0  0  0  0  0  0  0  0  0  0
   -1.3856   -2.4000    0.0000 H   0  0  0  0  0  0  0  0  0  0  0  0
   -0.0001   -3.2000    0.0000 H   0  0  0  0  0  0  0  0  0  0  0  0
   -1.3856   -0.8000    0.0000 H   0  0  0  0  0  0  0  0  0  0  0  0
  1  2  1  0  0  0  0
  1  3  1  0  0  0  0
  3  4  1  0  0  0  0
  4  5  1  0  0  0  0
  5  6  2  0  0  0  0
  5  7  1  0  0  0  0
  4  8  2  0  0  0  0
  8  9  1  0  0  0  0
  8 10  1  0  0  0  0
 10 11  1  0  0  0  0
 11 12  2  0  0  0  0
 11 13  1  0  0  0  0
 10 14  2  0  0  0  0
 14 15  1  0  0  0  0
 14 16  1  0  0  0  0
 16  3  2  0  0  0  0
 16 17  1  0  0  0  0
 17 18  1  0  0  0  0
 17 19  1  0  0  0  0
 19 20  1  0  0  0  0
 19 21  1  0  0  0  0
 19 22  1  0  0  0  0
 22 23  1  0  0  0  0
 22 24  1  0  0  0  0
 22 25  1  0  0  0  0
 17 26  1  0  0  0  0
 26 27  1  0  0  0  0
 26 28  1  0  0  0  0
 26 29  1  0  0  0  0
M  CHG  4   5   1   7  -1  11   1  13  -1
M  END
> <ChemID>
100227

> <source_casrn>
88-85-7

> <CAS>
88-85-7

> <SMILES>
CCC(C)c1cc(cc(c1O)[N+]([O-])=O)[N+]([O-])=O

> <NAME>
Phenol, 2-(1-methylpropyl)-4,6-dinitro-

> <preferred_name>
Dinoseb

> <iupac>
2-(butan-2-yl)-4,6-dinitrophenol

> <MPID>
100237

> <dsstox_substance_id>
DTXSID3020207

> <Canonical_QSARr>
CCC(C)c1cc(cc(c1O)[N+]([O-])=O)[N+]([O-])=O

> <InChI_Code_QSARr>
InChI=1S/C10H12N2O5/c1-3-6(2)8-4-7(11(14)15)5-9(10(8)13)12(16)17/h4-6,13H,3H2,1-2H3

> <InChI Key_QSARr>
OWZPCEFYPSAJFR-UHFFFAOYSA-N

> <Salt_Solvent>
?

> <Ready_Biodeg>
0.0

$$$$
100229
  -INDIGO-08031722522D

 17 17  0  0  0  0  0  0  0  0999 V2000
    1.3856    2.4001    0.0000 N   0  0  0  0  0  0  0  0  0  0  0  0
    2.7713    1.6000    0.0000 C   0  0  0  0  0  0  0  0  0  0  0  0
    4.1569    2.3999    0.0000 H   0  0  0  0  0  0  0  0  0  0  0  0
    2.7713    0.0000    0.0000 C   0  0  0  0  0  0  0  0  0  0  0  0
    4.1569   -0.7999    0.0000 H   0  0  0  0  0  0  0  0  0  0  0  0
    1.3856   -0.8001    0.0000 C   0  0  0  0  0  0  0  0  0  0  0  0
    1.3856   -2.4001    0.0000 H   0  0  0  0  0  0  0  0  0  0  0  0
    0.0000    0.0000    0.0000 C   0  0  0  0  0  0  0  0  0  0  0  0
   -1.3856   -0.8001    0.0000 C   0  0  0  0  0  0  0  0  0  0  0  0
   -1.3856   -2.4001    0.0000 O   0  0  0  0  0  0  0  0  0  0  0  0
   -2.7713   -3.2000    0.0000 H   0  0  0  0  0  0  0  0  0  0  0  0
   -2.7713    0.0000    0.0000 O   0  0  0  0  0  0  0  0  0  0  0  0
    0.0000    1.6000    0.0000 C   0  0  0  0  0  0  0  0  0  0  0  0
   -1.3856    2.4001    0.0000 C   0  0  0  0  0  0  0  0  0  0  0  0
   -2.7713    1.6000    0.0000 O   0  0  0  0  0  0  0  0  0  0  0  0
   -1.3856    4.0001    0.0000 O   0  0  0  0  0  0  0  0  0  0  0  0
   -2.7713    4.8000    0.0000 H   0  0  0  0  0  0  0  0  0  0  0  0
  1  2  1  0  0  0  0
  2  3  1  0  0  0  0
  2  4  2  0  0  0  0
  4  5  1  0  0  0  0
  4  6  1  0  0  0  0
  6  7  1  0  0  0  0
  6  8  2  0  0  0  0
  8  9  1  0  0  0  0
  9 10  1  0  0  0  0
 10 11  1  0  0  0  0
  9 12  2  0  0  0  0
  8 13  1  0  0  0  0
 13  1  2  0  0  0  0
 13 14  1  0  0  0  0
 14 15  2  0  0  0  0
 14 16  1  0  0  0  0
 16 17  1  0  0  0  0
M  END
> <ChemID>
100229

> <source_casrn>
89-00-9

> <CAS>
89-00-9

> <SMILES>
OC(=O)c1[n]cccc1C(O)=O

> <NAME>
QUINOLINIC ACID

> <preferred_name>
2,3-Pyridinedicarboxylic acid

> <iupac>
pyridine-2,3-dicarboxylic acid

> <MPID>
100239

> <dsstox_substance_id>
DTXSID8041327

> <Canonical_QSARr>
OC(=O)c1[n]cccc1C(O)=O

> <InChI_Code_QSARr>
InChI=1S/C7H5NO4/c9-6(10)4-2-1-3-8-5(4)7(11)12/h1-3H,(H,9,10)(H,11,12)

> <InChI Key_QSARr>
GJAWHXHKYYXBSV-UHFFFAOYSA-N

> <Salt_Solvent>
?

> <Ready_Biodeg>
1.0

$$$$
100230
  -INDIGO-08031722522D

 16 16  0  0  0  0  0  0  0  0999 V2000
   -1.3856    0.8000    0.0000 N   0  0  0  0  0  0  0  0  0  0  0  0
   -1.3856    2.4000    0.0000 H   0  0  0  0  0  0  0  0  0  0  0  0
   -2.7713   -0.0000    0.0000 H   0  0  0  0  0  0  0  0  0  0  0  0
    0.0000   -0.0000    0.0000 C   0  0  0  0  0  0  0  0  0  0  0  0
    0.0000   -1.6000    0.0000 C   0  0  0  0  0  0  0  0  0  0  0  0
   -1.3856   -2.4000    0.0000 N   0  0  0  0  0  0  0  0  0  0  0  0
   -1.3856   -4.0000    0.0000 O   0  0  0  0  0  0  0  0  0  0  0  0
   -2.7713   -1.6000    0.0000 O   0  0  0  0  0  0  0  0  0  0  0  0
    1.3856   -2.4000    0.0000 C   0  0  0  0  0  0  0  0  0  0  0  0
    1.3856   -4.0000    0.0000 H   0  0  0  0  0  0  0  0  0  0  0  0
    2.7713   -1.6000    0.0000 C   0  0  0  0  0  0  0  0  0  0  0  0
    4.1569   -2.4000    0.0000 Cl  0  0  0  0  0  0  0  0  0  0  0  0
    2.7713   -0.0000    0.0000 C   0  0  0  0  0  0  0  0  0  0  0  0
    4.1569    0.8000    0.0000 H   0  0  0  0  0  0  0  0  0  0  0  0
    1.3856    0.8000    0.0000 C   0  0  0  0  0  0  0  0  0  0  0  0
    1.3856    2.4000    0.0000 H   0  0  0  0  0  0  0  0  0  0  0  0
  1  2  1  0  0  0  0
  1  3  1  0  0  0  0
  1  4  1  0  0  0  0
  4  5  1  0  0  0  0
  5  6  1  0  0  0  0
  6  7  1  0  0  0  0
  6  8  2  0  0  0  0
  5  9  2  0  0  0  0
  9 10  1  0  0  0  0
  9 11  1  0  0  0  0
 11 12  1  0  0  0  0
 11 13  2  0  0  0  0
 13 14  1  0  0  0  0
 13 15  1  0  0  0  0
 15  4  2  0  0  0  0
 15 16  1  0  0  0  0
M  CHG  2   6   1   7  -1
M  END
> <ChemID>
100230

> <source_casrn>
89-63-4

> <CAS>
89-63-4

> <SMILES>
Nc1ccc(Cl)cc1[N+]([O-])=O

> <NAME>
Benzenamine, 4-chloro-2-nitro-

> <preferred_name>
4-Chloro-2-nitroaniline

> <iupac>
4-chloro-2-nitroaniline

> <MPID>
100240

> <dsstox_substance_id>
DTXSID4030384

> <Canonical_QSARr>
Nc1ccc(Cl)cc1[N+]([O-])=O

> <InChI_Code_QSARr>
InChI=1S/C6H5ClN2O2/c7-4-1-2-5(8)6(3-4)9(10)11/h1-3H,8H2

> <InChI Key_QSARr>
PBGKNXWGYQPUJK-UHFFFAOYSA-N

> <Salt_Solvent>
?

> <Ready_Biodeg>
0.0

$$$$
100231
  -INDIGO-08031722522D

 17 17  0  0  0  0  0  0  0  0999 V2000
    1.6000    0.0000    0.0000 C   0  0  0  0  0  0  0  0  0  0  0  0
    2.8694    0.9740    0.0000 H   0  0  0  0  0  0  0  0  0  0  0  0
    1.8088    1.5863    0.0000 H   0  0  0  0  0  0  0  0  0  0  0  0
   -0.0000    0.0000    0.0000 C   0  0  0  0  0  0  0  0  0  0  0  0
   -0.8000   -1.3856    0.0000 C   0  0  0  0  0  0  0  0  0  0  0  0
   -0.0000   -2.7713    0.0000 H   0  0  0  0  0  0  0  0  0  0  0  0
   -2.4000   -1.3856    0.0000 C   0  0  0  0  0  0  0  0  0  0  0  0
   -3.2001   -2.7713    0.0000 H   0  0  0  0  0  0  0  0  0  0  0  0
   -3.2001    0.0000    0.0000 C   0  0  0  0  0  0  0  0  0  0  0  0
   -4.8000    0.0000    0.0000 H   0  0  0  0  0  0  0  0  0  0  0  0
   -2.4000    1.3856    0.0000 C   0  0  0  0  0  0  0  0  0  0  0  0
   -3.2001    2.7713    0.0000 H   0  0  0  0  0  0  0  0  0  0  0  0
   -0.8000    1.3856    0.0000 C   0  0  0  0  0  0  0  0  0  0  0  0
   -0.0000    2.7713    0.0000 O   0  0  0  0  0  0  0  0  0  0  0  0
   -0.8000    4.1569    0.0000 H   0  0  0  0  0  0  0  0  0  0  0  0
    2.4001   -1.3856    0.0000 O   0  0  0  0  0  0  0  0  0  0  0  0
    4.0000   -1.3856    0.0000 H   0  0  0  0  0  0  0  0  0  0  0  0
  1  2  1  0  0  0  0
  1  3  1  0  0  0  0
  1  4  1  0  0  0  0
  4  5  1  0  0  0  0
  5  6  1  0  0  0  0
  5  7  2  0  0  0  0
  7  8  1  0  0  0  0
  7  9  1  0  0  0  0
  9 10  1  0  0  0  0
  9 11  2  0  0  0  0
 11 12  1  0  0  0  0
 11 13  1  0  0  0  0
 13  4  2  0  0  0  0
 13 14  1  0  0  0  0
 14 15  1  0  0  0  0
  1 16  1  0  0  0  0
 16 17  1  0  0  0  0
M  END
> <ChemID>
100231

> <source_casrn>
90-01-7

> <CAS>
90-01-7

> <SMILES>
Oc1ccccc1CO

> <NAME>
2-Hydroxybenzyl alcohol

> <preferred_name>
Salicyl alcohol

> <iupac>
2-(hydroxymethyl)phenol

> <MPID>
100241

> <dsstox_substance_id>
DTXSID9045843

> <Canonical_QSARr>
Oc1ccccc1CO

> <InChI_Code_QSARr>
InChI=1S/C7H8O2/c8-5-6-3-1-2-4-7(6)9/h1-4,8-9H,5H2

> <InChI Key_QSARr>
CQRYARSYNCAZFO-UHFFFAOYSA-N

> <Salt_Solvent>
?

> <Ready_Biodeg>
0.0

$$$$
100233
  -INDIGO-08031722522D

 17 17  0  0  0  0  0  0  0  0999 V2000
    2.4000    1.3856    0.0000 C   0  0  0  0  0  0  0  0  0  0  0  0
    3.2001    2.7713    0.0000 H   0  0  0  0  0  0  0  0  0  0  0  0
    3.2001    0.0000    0.0000 C   0  0  0  0  0  0  0  0  0  0  0  0
    4.8000    0.0000    0.0000 H   0  0  0  0  0  0  0  0  0  0  0  0
    2.4000   -1.3856    0.0000 C   0  0  0  0  0  0  0  0  0  0  0  0
    3.2001   -2.7713    0.0000 H   0  0  0  0  0  0  0  0  0  0  0  0
    0.8000   -1.3856    0.0000 C   0  0  0  0  0  0  0  0  0  0  0  0
    0.0000   -2.7713    0.0000 H   0  0  0  0  0  0  0  0  0  0  0  0
    0.0000    0.0000    0.0000 C   0  0  0  0  0  0  0  0  0  0  0  0
   -1.6000    0.0000    0.0000 O   0  0  0  0  0  0  0  0  0  0  0  0
   -2.4001   -1.3856    0.0000 C   0  0  0  0  0  0  0  0  0  0  0  0
   -4.0000   -1.3856    0.0000 H   0  0  0  0  0  0  0  0  0  0  0  0
   -3.2000   -2.7713    0.0000 H   0  0  0  0  0  0  0  0  0  0  0  0
   -3.2000    0.0000    0.0000 H   0  0  0  0  0  0  0  0  0  0  0  0
    0.8000    1.3856    0.0000 C   0  0  0  0  0  0  0  0  0  0  0  0
    0.0000    2.7713    0.0000 O   0  0  0  0  0  0  0  0  0  0  0  0
    0.8000    4.1569    0.0000 H   0  0  0  0  0  0  0  0  0  0  0  0
  1  2  1  0  0  0  0
  1  3  1  0  0  0  0
  3  4  1  0  0  0  0
  3  5  2  0  0  0  0
  5  6  1  0  0  0  0
  5  7  1  0  0  0  0
  7  8  1  0  0  0  0
  7  9  2  0  0  0  0
  9 10  1  0  0  0  0
 10 11  1  0  0  0  0
 11 12  1  0  0  0  0
 11 13  1  0  0  0  0
 11 14  1  0  0  0  0
  9 15  1  0  0  0  0
 15  1  2  0  0  0  0
 15 16  1  0  0  0  0
 16 17  1  0  0  0  0
M  END
> <ChemID>
100233

> <source_casrn>
90-05-1

> <CAS>
90-05-1

> <SMILES>
COc1ccccc1O

> <NAME>
Phenol, 2-methoxy-

> <preferred_name>
2-Methoxyphenol

> <iupac>
2-methoxyphenol

> <MPID>
100243

> <dsstox_substance_id>
DTXSID0023113

> <Canonical_QSARr>
COc1ccccc1O

> <InChI_Code_QSARr>
InChI=1S/C7H8O2/c1-9-7-5-3-2-4-6(7)8/h2-5,8H,1H3

> <InChI Key_QSARr>
LHGVFZTZFXWLCP-UHFFFAOYSA-N

> <Salt_Solvent>
?

> <Ready_Biodeg>
1.0

$$$$
100234
  -INDIGO-08031722522D

 18 19  0  0  0  0  0  0  0  0999 V2000
    0.0001   -0.0000    0.0000 C   0  0  0  0  0  0  0  0  0  0  0  0
    1.3856    0.8000    0.0000 C   0  0  0  0  0  0  0  0  0  0  0  0
    1.3856    2.4000    0.0000 H   0  0  0  0  0  0  0  0  0  0  0  0
    2.7713   -0.0000    0.0000 C   0  0  0  0  0  0  0  0  0  0  0  0
    4.1569    0.8000    0.0000 H   0  0  0  0  0  0  0  0  0  0  0  0
    2.7713   -1.6000    0.0000 C   0  0  0  0  0  0  0  0  0  0  0  0
    4.1569   -2.4000    0.0000 H   0  0  0  0  0  0  0  0  0  0  0  0
    1.3856   -2.4000    0.0000 C   0  0  0  0  0  0  0  0  0  0  0  0
    1.3856   -4.0000    0.0000 I   0  0  0  0  0  0  0  0  0  0  0  0
    0.0001   -1.6000    0.0000 C   0  0  0  0  0  0  0  0  0  0  0  0
   -1.3856   -2.4000    0.0000 C   0  0  0  0  0  0  0  0  0  0  0  0
   -1.3856   -4.0000    0.0000 H   0  0  0  0  0  0  0  0  0  0  0  0
   -2.7712   -1.6000    0.0000 C   0  0  0  0  0  0  0  0  0  0  0  0
   -4.1569   -2.4000    0.0000 H   0  0  0  0  0  0  0  0  0  0  0  0
   -2.7712   -0.0000    0.0000 C   0  0  0  0  0  0  0  0  0  0  0  0
   -4.1569    0.8000    0.0000 H   0  0  0  0  0  0  0  0  0  0  0  0
   -1.3856    0.8000    0.0000 C   0  0  0  0  0  0  0  0  0  0  0  0
   -1.3856    2.4000    0.0000 H   0  0  0  0  0  0  0  0  0  0  0  0
  1  2  1  0  0  0  0
  2  3  1  0  0  0  0
  2  4  2  0  0  0  0
  4  5  1  0  0  0  0
  4  6  1  0  0  0  0
  6  7  1  0  0  0  0
  6  8  2  0  0  0  0
  8  9  1  0  0  0  0
  8 10  1  0  0  0  0
 10  1  1  0  0  0  0
 10 11  2  0  0  0  0
 11 12  1  0  0  0  0
 11 13  1  0  0  0  0
 13 14  1  0  0  0  0
 13 15  2  0  0  0  0
 15 16  1  0  0  0  0
 15 17  1  0  0  0  0
 17  1  2  0  0  0  0
 17 18  1  0  0  0  0
M  END
> <ChemID>
100234

> <source_casrn>
90-14-2

> <CAS>
90-14-2

> <SMILES>
c(c(c(cc1)I)ccc2)(c2)c1

> <NAME>
1-Iodonaphthalene

> <preferred_name>
Naphthalene, 1-iodo-

> <iupac>
1-Iodonaphthalene

> <MPID>
100244

> <dsstox_substance_id>
DTXSID3059004

> <Canonical_QSARr>
Ic1cccc2ccccc21

> <InChI_Code_QSARr>
InChI=1S/C10H7I/c11-10-7-3-5-8-4-1-2-6-9(8)10/h1-7H

> <InChI Key_QSARr>
NHPPIJMARIVBGU-UHFFFAOYSA-N

> <Salt_Solvent>
?

> <Ready_Biodeg>
1.0

$$$$
100235
  -INDIGO-08031722522D

 19 20  0  0  0  0  0  0  0  0999 V2000
    2.4001    1.3856    0.0000 O   0  0  0  0  0  0  0  0  0  0  0  0
    4.0000    1.3856    0.0000 H   0  0  0  0  0  0  0  0  0  0  0  0
    1.6000    0.0000    0.0000 C   0  0  0  0  0  0  0  0  0  0  0  0
    2.4001   -1.3856    0.0000 C   0  0  0  0  0  0  0  0  0  0  0  0
    4.0000   -1.3856    0.0000 H   0  0  0  0  0  0  0  0  0  0  0  0
    1.6000   -2.7713    0.0000 C   0  0  0  0  0  0  0  0  0  0  0  0
    2.4001   -4.1569    0.0000 H   0  0  0  0  0  0  0  0  0  0  0  0
   -0.0000   -2.7713    0.0000 C   0  0  0  0  0  0  0  0  0  0  0  0
   -0.8000   -4.1569    0.0000 H   0  0  0  0  0  0  0  0  0  0  0  0
   -0.8000   -1.3856    0.0000 C   0  0  0  0  0  0  0  0  0  0  0  0
   -0.0000    0.0000    0.0000 C   0  0  0  0  0  0  0  0  0  0  0  0
   -0.8000    1.3856    0.0000 C   0  0  0  0  0  0  0  0  0  0  0  0
   -0.0000    2.7713    0.0000 H   0  0  0  0  0  0  0  0  0  0  0  0
   -2.4000    1.3856    0.0000 C   0  0  0  0  0  0  0  0  0  0  0  0
   -3.2001    2.7713    0.0000 H   0  0  0  0  0  0  0  0  0  0  0  0
   -3.2001    0.0000    0.0000 C   0  0  0  0  0  0  0  0  0  0  0  0
   -4.8000    0.0000    0.0000 H   0  0  0  0  0  0  0  0  0  0  0  0
   -2.4000   -1.3856    0.0000 C   0  0  0  0  0  0  0  0  0  0  0  0
   -3.2001   -2.7713    0.0000 H   0  0  0  0  0  0  0  0  0  0  0  0
  1  2  1  0  0  0  0
  1  3  1  0  0  0  0
  3  4  1  0  0  0  0
  4  5  1  0  0  0  0
  4  6  2  0  0  0  0
  6  7  1  0  0  0  0
  6  8  1  0  0  0  0
  8  9  1  0  0  0  0
  8 10  2  0  0  0  0
 10 11  1  0  0  0  0
 11  3  2  0  0  0  0
 11 12  1  0  0  0  0
 12 13  1  0  0  0  0
 12 14  2  0  0  0  0
 14 15  1  0  0  0  0
 14 16  1  0  0  0  0
 16 17  1  0  0  0  0
 16 18  2  0  0  0  0
 18 10  1  0  0  0  0
 18 19  1  0  0  0  0
M  END
> <ChemID>
100235

> <source_casrn>
90-15-3

> <CAS>
90-15-3

> <SMILES>
Oc1cccc2ccccc21

> <NAME>
1-Naphthol

> <preferred_name>
1-Naphthol

> <iupac>
naphthalen-1-ol

> <MPID>
100245

> <dsstox_substance_id>
DTXSID6021793

> <Canonical_QSARr>
Oc1cccc2ccccc21

> <InChI_Code_QSARr>
InChI=1S/C10H8O/c11-10-7-3-5-8-4-1-2-6-9(8)10/h1-7,11H

> <InChI Key_QSARr>
KJCVRFUGPWSIIH-UHFFFAOYSA-N

> <Salt_Solvent>
?

> <Ready_Biodeg>
1.0

$$$$
100237
  -INDIGO-08031722522D

 24 25  0  0  0  0  0  0  0  0999 V2000
   -0.0001    0.0000    0.0000 C   0  0  0  0  0  0  0  0  0  0  0  0
    1.5757   -0.2779    0.0000 C   0  0  0  0  0  0  0  0  0  0  0  0
    2.6042    0.9479    0.0000 C   0  0  0  0  0  0  0  0  0  0  0  0
    2.0570    2.4514    0.0000 H   0  0  0  0  0  0  0  0  0  0  0  0
    4.1798    0.6700    0.0000 C   0  0  0  0  0  0  0  0  0  0  0  0
    5.2083    1.8956    0.0000 H   0  0  0  0  0  0  0  0  0  0  0  0
    4.7270   -0.8335    0.0000 C   0  0  0  0  0  0  0  0  0  0  0  0
    6.3028   -1.1113    0.0000 H   0  0  0  0  0  0  0  0  0  0  0  0
    3.6987   -2.0592    0.0000 C   0  0  0  0  0  0  0  0  0  0  0  0
    4.2459   -3.5627    0.0000 H   0  0  0  0  0  0  0  0  0  0  0  0
    2.1229   -1.7813    0.0000 C   0  0  0  0  0  0  0  0  0  0  0  0
    1.0945   -3.0070    0.0000 H   0  0  0  0  0  0  0  0  0  0  0  0
   -0.8001    1.3857    0.0000 C   0  0  0  0  0  0  0  0  0  0  0  0
   -0.2528    2.8892    0.0000 N   0  0  0  0  0  0  0  0  0  0  0  0
   -1.2812    4.1148    0.0000 H   0  0  0  0  0  0  0  0  0  0  0  0
    1.3229    3.1669    0.0000 H   0  0  0  0  0  0  0  0  0  0  0  0
   -2.4000    1.3857    0.0000 C   0  0  0  0  0  0  0  0  0  0  0  0
   -3.2000    2.7713    0.0000 H   0  0  0  0  0  0  0  0  0  0  0  0
   -3.2000    0.0000    0.0000 C   0  0  0  0  0  0  0  0  0  0  0  0
   -4.8000    0.0000    0.0000 H   0  0  0  0  0  0  0  0  0  0  0  0
   -2.4000   -1.3857    0.0000 C   0  0  0  0  0  0  0  0  0  0  0  0
   -3.2000   -2.7713    0.0000 H   0  0  0  0  0  0  0  0  0  0  0  0
   -0.8001   -1.3857    0.0000 C   0  0  0  0  0  0  0  0  0  0  0  0
   -0.0001   -2.7713    0.0000 H   0  0  0  0  0  0  0  0  0  0  0  0
  1  2  1  0  0  0  0
  2  3  1  0  0  0  0
  3  4  1  0  0  0  0
  3  5  2  0  0  0  0
  5  6  1  0  0  0  0
  5  7  1  0  0  0  0
  7  8  1  0  0  0  0
  7  9  2  0  0  0  0
  9 10  1  0  0  0  0
  9 11  1  0  0  0  0
 11  2  2  0  0  0  0
 11 12  1  0  0  0  0
  1 13  1  0  0  0  0
 13 14  1  0  0  0  0
 14 15  1  0  0  0  0
 14 16  1  0  0  0  0
 13 17  2  0  0  0  0
 17 18  1  0  0  0  0
 17 19  1  0  0  0  0
 19 20  1  0  0  0  0
 19 21  2  0  0  0  0
 21 22  1  0  0  0  0
 21 23  1  0  0  0  0
 23  1  2  0  0  0  0
 23 24  1  0  0  0  0
M  END
> <ChemID>
100237

> <source_casrn>
90-41-5

> <CAS>
90-41-5

> <SMILES>
Nc1ccccc1-c1ccccc1

> <NAME>
1,1'-Biphenyl -2-amine

> <preferred_name>
2-Biphenylamine

> <iupac>
biphenyl-2-amine

> <MPID>
100247

> <dsstox_substance_id>
DTXSID3030189

> <Canonical_QSARr>
Nc1ccccc1-c1ccccc1

> <InChI_Code_QSARr>
InChI=1S/C12H11N/c13-12-9-5-4-8-11(12)10-6-2-1-3-7-10/h1-9H,13H2

> <InChI Key_QSARr>
TWBPWBPGNQWFSJ-UHFFFAOYSA-N

> <Salt_Solvent>
?

> <Ready_Biodeg>
0.0

$$$$
100238
  -INDIGO-08031722522D

 23 24  0  0  0  0  0  0  0  0999 V2000
    0.0001    2.7713    0.0000 O   0  0  0  0  0  0  0  0  0  0  0  0
    0.8001    4.1569    0.0000 H   0  0  0  0  0  0  0  0  0  0  0  0
    0.8001    1.3856    0.0000 C   0  0  0  0  0  0  0  0  0  0  0  0
    0.0001    0.0000    0.0000 C   0  0  0  0  0  0  0  0  0  0  0  0
   -1.6001    0.0000    0.0000 C   0  0  0  0  0  0  0  0  0  0  0  0
   -2.4001    1.3856    0.0000 C   0  0  0  0  0  0  0  0  0  0  0  0
   -1.6001    2.7713    0.0000 H   0  0  0  0  0  0  0  0  0  0  0  0
   -4.0000    1.3856    0.0000 C   0  0  0  0  0  0  0  0  0  0  0  0
   -4.8000    2.7713    0.0000 H   0  0  0  0  0  0  0  0  0  0  0  0
   -4.8000    0.0000    0.0000 C   0  0  0  0  0  0  0  0  0  0  0  0
   -6.4000    0.0000    0.0000 H   0  0  0  0  0  0  0  0  0  0  0  0
   -4.0000   -1.3856    0.0000 C   0  0  0  0  0  0  0  0  0  0  0  0
   -4.8000   -2.7713    0.0000 H   0  0  0  0  0  0  0  0  0  0  0  0
   -2.4001   -1.3856    0.0000 C   0  0  0  0  0  0  0  0  0  0  0  0
   -1.6001   -2.7713    0.0000 H   0  0  0  0  0  0  0  0  0  0  0  0
    0.8001   -1.3856    0.0000 C   0  0  0  0  0  0  0  0  0  0  0  0
    0.0001   -2.7713    0.0000 H   0  0  0  0  0  0  0  0  0  0  0  0
    2.4000   -1.3856    0.0000 C   0  0  0  0  0  0  0  0  0  0  0  0
    3.2000   -2.7713    0.0000 H   0  0  0  0  0  0  0  0  0  0  0  0
    3.2000    0.0000    0.0000 C   0  0  0  0  0  0  0  0  0  0  0  0
    4.8000    0.0000    0.0000 H   0  0  0  0  0  0  0  0  0  0  0  0
    2.4000    1.3856    0.0000 C   0  0  0  0  0  0  0  0  0  0  0  0
    3.2000    2.7713    0.0000 H   0  0  0  0  0  0  0  0  0  0  0  0
  1  2  1  0  0  0  0
  1  3  1  0  0  0  0
  3  4  1  0  0  0  0
  4  5  1  0  0  0  0
  5  6  1  0  0  0  0
  6  7  1  0  0  0  0
  6  8  2  0  0  0  0
  8  9  1  0  0  0  0
  8 10  1  0  0  0  0
 10 11  1  0  0  0  0
 10 12  2  0  0  0  0
 12 13  1  0  0  0  0
 12 14  1  0  0  0  0
 14  5  2  0  0  0  0
 14 15  1  0  0  0  0
  4 16  2  0  0  0  0
 16 17  1  0  0  0  0
 16 18  1  0  0  0  0
 18 19  1  0  0  0  0
 18 20  2  0  0  0  0
 20 21  1  0  0  0  0
 20 22  1  0  0  0  0
 22  3  2  0  0  0  0
 22 23  1  0  0  0  0
M  END
> <ChemID>
100238

> <source_casrn>
90-43-7

> <CAS>
90-43-7

> <SMILES>
Oc1ccccc1-c1ccccc1

> <NAME>
1,1'-Biphenyl -2-ol

> <preferred_name>
2-Phenylphenol

> <iupac>
biphenyl-2-ol

> <MPID>
100248

> <dsstox_substance_id>
DTXSID2021151

> <Canonical_QSARr>
Oc1ccccc1-c1ccccc1

> <InChI_Code_QSARr>
InChI=1S/C12H10O/c13-12-9-5-4-8-11(12)10-6-2-1-3-7-10/h1-9,13H

> <InChI Key_QSARr>
LLEMOWNGBBNAJR-UHFFFAOYSA-N

> <Salt_Solvent>
?

> <Ready_Biodeg>
1.0

$$$$
100239
  -INDIGO-08031722522D

 25 26  0  0  0  0  0  0  0  0999 V2000
   -0.0001    1.6000    0.0000 C   0  0  0  0  0  0  0  0  0  0  0  0
    1.3856    2.4000    0.0000 C   0  0  0  0  0  0  0  0  0  0  0  0
    1.3856    4.0000    0.0000 H   0  0  0  0  0  0  0  0  0  0  0  0
    2.7713    1.6000    0.0000 C   0  0  0  0  0  0  0  0  0  0  0  0
    4.1569    2.4000    0.0000 H   0  0  0  0  0  0  0  0  0  0  0  0
    2.7713    0.0000    0.0000 C   0  0  0  0  0  0  0  0  0  0  0  0
    4.1569   -0.8000    0.0000 N   0  0  0  0  0  0  0  0  0  0  0  0
    5.5426    0.0000    0.0000 H   0  0  0  0  0  0  0  0  0  0  0  0
    4.1569   -2.4000    0.0000 H   0  0  0  0  0  0  0  0  0  0  0  0
    1.3856   -0.8000    0.0000 C   0  0  0  0  0  0  0  0  0  0  0  0
    1.3856   -2.4000    0.0000 H   0  0  0  0  0  0  0  0  0  0  0  0
   -0.0001    0.0000    0.0000 C   0  0  0  0  0  0  0  0  0  0  0  0
   -1.3856   -0.8000    0.0000 C   0  0  0  0  0  0  0  0  0  0  0  0
   -1.3856   -2.4000    0.0000 O   0  0  0  0  0  0  0  0  0  0  0  0
   -2.7713   -3.2000    0.0000 H   0  0  0  0  0  0  0  0  0  0  0  0
   -2.7713    0.0000    0.0000 C   0  0  0  0  0  0  0  0  0  0  0  0
   -4.1570   -0.8000    0.0000 H   0  0  0  0  0  0  0  0  0  0  0  0
   -2.7713    1.6000    0.0000 C   0  0  0  0  0  0  0  0  0  0  0  0
   -4.1570    2.4000    0.0000 S   0  0  0  0  0  0  0  0  0  0  0  0
   -4.9570    1.0143    0.0000 O   0  0  0  0  0  0  0  0  0  0  0  0
   -5.5425    3.2000    0.0000 O   0  0  0  0  0  0  0  0  0  0  0  0
   -6.9282    2.4000    0.0000 H   0  0  0  0  0  0  0  0  0  0  0  0
   -3.3570    3.7857    0.0000 O   0  0  0  0  0  0  0  0  0  0  0  0
   -1.3856    2.4000    0.0000 C   0  0  0  0  0  0  0  0  0  0  0  0
   -1.3856    4.0000    0.0000 H   0  0  0  0  0  0  0  0  0  0  0  0
  1  2  1  0  0  0  0
  2  3  1  0  0  0  0
  2  4  2  0  0  0  0
  4  5  1  0  0  0  0
  4  6  1  0  0  0  0
  6  7  1  0  0  0  0
  7  8  1  0  0  0  0
  7  9  1  0  0  0  0
  6 10  2  0  0  0  0
 10 11  1  0  0  0  0
 10 12  1  0  0  0  0
 12  1  1  0  0  0  0
 12 13  2  0  0  0  0
 13 14  1  0  0  0  0
 14 15  1  0  0  0  0
 13 16  1  0  0  0  0
 16 17  1  0  0  0  0
 16 18  2  0  0  0  0
 18 19  1  0  0  0  0
 19 20  2  0  0  0  0
 19 21  1  0  0  0  0
 21 22  1  0  0  0  0
 19 23  2  0  0  0  0
 18 24  1  0  0  0  0
 24  1  2  0  0  0  0
 24 25  1  0  0  0  0
M  END
> <ChemID>
100239

> <source_casrn>
90-51-7

> <CAS>
90-51-7

> <SMILES>
Nc1cc2c(cc1)cc(cc2O)S(O)(=O)=O

> <NAME>
2-Naphthalenesulfonic acid, 6-amino-4-hydroxy-

> <preferred_name>
6-Amino-4-hydroxynaphthalene-2-sulfonic acid

> <iupac>
6-amino-4-hydroxynaphthalene-2-sulfonic acid

> <MPID>
100249

> <dsstox_substance_id>
DTXSID0026547

> <Canonical_QSARr>
Nc1cc2c(cc1)cc(cc2O)S(O)(=O)=O

> <InChI_Code_QSARr>
InChI=1S/C10H9NO4S/c11-7-2-1-6-3-8(16(13,14)15)5-10(12)9(6)4-7/h1-5,12H,11H2,(H,13,14,15)

> <InChI Key_QSARr>
HBZVNWNSRNTWPS-UHFFFAOYSA-N

> <Salt_Solvent>
?

> <Ready_Biodeg>
0.0

$$$$
100241
  -INDIGO-08031722522D

 26 27  0  0  0  0  0  0  0  0999 V2000
   -1.5757    0.2779    0.0000 C   0  0  0  0  0  0  0  0  0  0  0  0
    0.0000    0.0000    0.0000 C   0  0  0  0  0  0  0  0  0  0  0  0
   -0.2778   -1.5757    0.0000 H   0  0  0  0  0  0  0  0  0  0  0  0
    1.5757   -0.2778    0.0000 C   0  0  0  0  0  0  0  0  0  0  0  0
    2.1229   -1.7814    0.0000 C   0  0  0  0  0  0  0  0  0  0  0  0
    1.0944   -3.0070    0.0000 H   0  0  0  0  0  0  0  0  0  0  0  0
    3.6986   -2.0592    0.0000 C   0  0  0  0  0  0  0  0  0  0  0  0
    4.2459   -3.5627    0.0000 H   0  0  0  0  0  0  0  0  0  0  0  0
    4.7270   -0.8335    0.0000 C   0  0  0  0  0  0  0  0  0  0  0  0
    6.3028   -1.1114    0.0000 H   0  0  0  0  0  0  0  0  0  0  0  0
    4.1799    0.6700    0.0000 C   0  0  0  0  0  0  0  0  0  0  0  0
    5.2084    1.8956    0.0000 H   0  0  0  0  0  0  0  0  0  0  0  0
    2.6042    0.9478    0.0000 C   0  0  0  0  0  0  0  0  0  0  0  0
    2.0569    2.4513    0.0000 H   0  0  0  0  0  0  0  0  0  0  0  0
    0.5473    1.5035    0.0000 O   0  0  0  0  0  0  0  0  0  0  0  0
   -0.4811    2.7292    0.0000 H   0  0  0  0  0  0  0  0  0  0  0  0
   -2.3757    1.6635    0.0000 C   0  0  0  0  0  0  0  0  0  0  0  0
   -1.5757    3.0491    0.0000 H   0  0  0  0  0  0  0  0  0  0  0  0
   -3.9756    1.6635    0.0000 C   0  0  0  0  0  0  0  0  0  0  0  0
   -4.7758    3.0491    0.0000 H   0  0  0  0  0  0  0  0  0  0  0  0
   -4.7758    0.2779    0.0000 C   0  0  0  0  0  0  0  0  0  0  0  0
   -6.3757    0.2779    0.0000 H   0  0  0  0  0  0  0  0  0  0  0  0
   -3.9756   -1.1078    0.0000 C   0  0  0  0  0  0  0  0  0  0  0  0
   -4.7758   -2.4935    0.0000 H   0  0  0  0  0  0  0  0  0  0  0  0
   -2.3757   -1.1078    0.0000 C   0  0  0  0  0  0  0  0  0  0  0  0
   -1.5757   -2.4935    0.0000 H   0  0  0  0  0  0  0  0  0  0  0  0
  1  2  1  0  0  0  0
  2  3  1  0  0  0  0
  2  4  1  0  0  0  0
  4  5  1  0  0  0  0
  5  6  1  0  0  0  0
  5  7  2  0  0  0  0
  7  8  1  0  0  0  0
  7  9  1  0  0  0  0
  9 10  1  0  0  0  0
  9 11  2  0  0  0  0
 11 12  1  0  0  0  0
 11 13  1  0  0  0  0
 13  4  2  0  0  0  0
 13 14  1  0  0  0  0
  2 15  1  0  0  0  0
 15 16  1  0  0  0  0
  1 17  1  0  0  0  0
 17 18  1  0  0  0  0
 17 19  2  0  0  0  0
 19 20  1  0  0  0  0
 19 21  1  0  0  0  0
 21 22  1  0  0  0  0
 21 23  2  0  0  0  0
 23 24  1  0  0  0  0
 23 25  1  0  0  0  0
 25  1  2  0  0  0  0
 25 26  1  0  0  0  0
M  END
> <ChemID>
100241

> <source_casrn>
91-01-0

> <CAS>
91-01-0

> <SMILES>
OC(c1ccccc1)c1ccccc1

> <NAME>
Benzenemethanol, .alpha.-phenyl-

> <preferred_name>
Diphenylmethanol

> <iupac>
C13H12O

> <MPID>
100251

> <dsstox_substance_id>
DTXSID2059015

> <Canonical_QSARr>
OC(c1ccccc1)c1ccccc1

> <InChI_Code_QSARr>
InChI=1S/C13H12O/c14-13(11-7-3-1-4-8-11)12-9-5-2-6-10-12/h1-10,13-14H

> <InChI Key_QSARr>
QILSFLSDHQAZET-UHFFFAOYSA-N

> <Salt_Solvent>
?

> <Ready_Biodeg>
1.0

$$$$
100242
  -INDIGO-08031722522D

 23 24  0  0  0  0  0  0  0  0999 V2000
    0.0001   -0.0000    0.0000 C   0  0  0  0  0  0  0  0  0  0  0  0
    1.3857    0.8000    0.0000 C   0  0  0  0  0  0  0  0  0  0  0  0
    2.7712   -0.0000    0.0000 C   0  0  0  0  0  0  0  0  0  0  0  0
    4.1569    0.8000    0.0000 C   0  0  0  0  0  0  0  0  0  0  0  0
    4.1569    2.4000    0.0000 H   0  0  0  0  0  0  0  0  0  0  0  0
    5.5425   -0.0000    0.0000 C   0  0  0  0  0  0  0  0  0  0  0  0
    6.9282    0.8000    0.0000 H   0  0  0  0  0  0  0  0  0  0  0  0
    5.5425   -1.6000    0.0000 C   0  0  0  0  0  0  0  0  0  0  0  0
    6.9282   -2.4000    0.0000 H   0  0  0  0  0  0  0  0  0  0  0  0
    4.1569   -2.4000    0.0000 C   0  0  0  0  0  0  0  0  0  0  0  0
    4.1569   -4.0000    0.0000 H   0  0  0  0  0  0  0  0  0  0  0  0
    2.7712   -1.6000    0.0000 N   0  0  0  0  0  0  0  0  0  0  0  0
    1.3857    2.4000    0.0000 O   0  0  0  0  0  0  0  0  0  0  0  0
    0.0001   -1.6000    0.0000 C   0  0  0  0  0  0  0  0  0  0  0  0
    1.3857   -2.4000    0.0000 H   0  0  0  0  0  0  0  0  0  0  0  0
   -1.3856   -2.4000    0.0000 C   0  0  0  0  0  0  0  0  0  0  0  0
   -1.3856   -4.0000    0.0000 H   0  0  0  0  0  0  0  0  0  0  0  0
   -2.7713   -1.6000    0.0000 C   0  0  0  0  0  0  0  0  0  0  0  0
   -4.1569   -2.4000    0.0000 H   0  0  0  0  0  0  0  0  0  0  0  0
   -2.7713   -0.0000    0.0000 C   0  0  0  0  0  0  0  0  0  0  0  0
   -4.1569    0.8000    0.0000 H   0  0  0  0  0  0  0  0  0  0  0  0
   -1.3856    0.8000    0.0000 C   0  0  0  0  0  0  0  0  0  0  0  0
   -1.3856    2.4000    0.0000 H   0  0  0  0  0  0  0  0  0  0  0  0
  1  2  1  0  0  0  0
  2  3  1  0  0  0  0
  3  4  1  0  0  0  0
  4  5  1  0  0  0  0
  4  6  2  0  0  0  0
  6  7  1  0  0  0  0
  6  8  1  0  0  0  0
  8  9  1  0  0  0  0
  8 10  2  0  0  0  0
 10 11  1  0  0  0  0
 10 12  1  0  0  0  0
 12  3  2  0  0  0  0
  2 13  2  0  0  0  0
  1 14  1  0  0  0  0
 14 15  1  0  0  0  0
 14 16  2  0  0  0  0
 16 17  1  0  0  0  0
 16 18  1  0  0  0  0
 18 19  1  0  0  0  0
 18 20  2  0  0  0  0
 20 21  1  0  0  0  0
 20 22  1  0  0  0  0
 22  1  2  0  0  0  0
 22 23  1  0  0  0  0
M  END
> <ChemID>
100242

> <source_casrn>
91-02-1

> <CAS>
91-02-1

> <SMILES>
O=C(c1cccc[n]1)c1ccccc1

> <NAME>
2-Benzoylpyridine

> <preferred_name>
Methanone, phenyl-2-pyridinyl-

> <iupac>
phenyl-pyridin-2-ylmethanone

> <MPID>
100252

> <dsstox_substance_id>
DTXSID7059016

> <Canonical_QSARr>
O=C(c1cccc[n]1)c1ccccc1

> <InChI_Code_QSARr>
InChI=1S/C12H9NO/c14-12(10-6-2-1-3-7-10)11-8-4-5-9-13-11/h1-9H

> <InChI Key_QSARr>
GCSHUYKULREZSJ-UHFFFAOYSA-N

> <Salt_Solvent>
?

> <Ready_Biodeg>
1.0

$$$$
100243
  -INDIGO-08031722522D

 14 14  0  0  0  0  0  0  0  0999 V2000
    0.0000   -0.0000    0.0000 C   0  0  0  0  0  0  0  0  0  0  0  0
    1.3856    0.8000    0.0000 C   0  0  0  0  0  0  0  0  0  0  0  0
    1.3856    2.4000    0.0000 H   0  0  0  0  0  0  0  0  0  0  0  0
    2.7713   -0.0000    0.0000 C   0  0  0  0  0  0  0  0  0  0  0  0
    4.1569    0.8000    0.0000 H   0  0  0  0  0  0  0  0  0  0  0  0
    2.7713   -1.6000    0.0000 C   0  0  0  0  0  0  0  0  0  0  0  0
    4.1569   -2.4000    0.0000 H   0  0  0  0  0  0  0  0  0  0  0  0
    1.3856   -2.4000    0.0000 C   0  0  0  0  0  0  0  0  0  0  0  0
    1.3856   -4.0000    0.0000 H   0  0  0  0  0  0  0  0  0  0  0  0
    0.0000   -1.6000    0.0000 C   0  0  0  0  0  0  0  0  0  0  0  0
   -1.3856   -2.4000    0.0000 C   0  0  0  0  0  0  0  0  0  0  0  0
   -2.7713   -3.2000    0.0000 N   0  0  0  0  0  0  0  0  0  0  0  0
   -1.3856    0.8000    0.0000 C   0  0  0  0  0  0  0  0  0  0  0  0
   -2.7713    1.6000    0.0000 N   0  0  0  0  0  0  0  0  0  0  0  0
  1  2  1  0  0  0  0
  2  3  1  0  0  0  0
  2  4  2  0  0  0  0
  4  5  1  0  0  0  0
  4  6  1  0  0  0  0
  6  7  1  0  0  0  0
  6  8  2  0  0  0  0
  8  9  1  0  0  0  0
  8 10  1  0  0  0  0
 10  1  2  0  0  0  0
 10 11  1  0  0  0  0
 11 12  3  0  0  0  0
  1 13  1  0  0  0  0
 13 14  3  0  0  0  0
M  END
> <ChemID>
100243

> <source_casrn>
91-15-6

> <CAS>
91-15-6

> <SMILES>
N#Cc1ccccc1C#N

> <NAME>
1,2-Benzenedicarbonitrile

> <preferred_name>
1,2-Benzenedicarbonitrile

> <iupac>
benzene-1,2-dicarbonitrile

> <MPID>
100253

> <dsstox_substance_id>
DTXSID8029604

> <Canonical_QSARr>
N#Cc1ccccc1C#N

> <InChI_Code_QSARr>
InChI=1S/C8H4N2/c9-5-7-3-1-2-4-8(7)6-10/h1-4H

> <InChI Key_QSARr>
XQZYPMVTSDWCCE-UHFFFAOYSA-N

> <Salt_Solvent>
?

> <Ready_Biodeg>
0.0

$$$$
100245
  -INDIGO-08031722522D

 28 29  0  0  0  0  0  0  0  0999 V2000
    0.0001    0.0000    0.0000 C   0  0  0  0  0  0  0  0  0  0  0  0
   -0.0001    1.6000    0.0000 H   0  0  0  0  0  0  0  0  0  0  0  0
   -1.3856    0.8000    0.0000 C   0  0  0  0  0  0  0  0  0  0  0  0
   -0.8384    2.3035    0.0000 H   0  0  0  0  0  0  0  0  0  0  0  0
   -2.4141    2.0257    0.0000 H   0  0  0  0  0  0  0  0  0  0  0  0
   -2.7712    0.0000    0.0000 C   0  0  0  0  0  0  0  0  0  0  0  0
   -3.3185    1.5035    0.0000 H   0  0  0  0  0  0  0  0  0  0  0  0
   -4.3470   -0.2778    0.0000 H   0  0  0  0  0  0  0  0  0  0  0  0
   -2.7712   -1.6000    0.0000 C   0  0  0  0  0  0  0  0  0  0  0  0
   -4.3470   -1.3222    0.0000 H   0  0  0  0  0  0  0  0  0  0  0  0
   -3.3185   -3.1035    0.0000 H   0  0  0  0  0  0  0  0  0  0  0  0
   -1.3856   -2.4000    0.0000 C   0  0  0  0  0  0  0  0  0  0  0  0
   -2.4141   -3.6257    0.0000 H   0  0  0  0  0  0  0  0  0  0  0  0
   -0.8384   -3.9035    0.0000 H   0  0  0  0  0  0  0  0  0  0  0  0
   -0.0001   -1.6000    0.0000 C   0  0  0  0  0  0  0  0  0  0  0  0
   -0.0001   -3.2000    0.0000 H   0  0  0  0  0  0  0  0  0  0  0  0
    1.3856   -2.4000    0.0000 C   0  0  0  0  0  0  0  0  0  0  0  0
    0.8384   -3.9035    0.0000 H   0  0  0  0  0  0  0  0  0  0  0  0
    2.4141   -3.6257    0.0000 H   0  0  0  0  0  0  0  0  0  0  0  0
    2.7712   -1.6000    0.0000 C   0  0  0  0  0  0  0  0  0  0  0  0
    3.3185   -3.1035    0.0000 H   0  0  0  0  0  0  0  0  0  0  0  0
    4.3470   -1.3222    0.0000 H   0  0  0  0  0  0  0  0  0  0  0  0
    2.7712    0.0000    0.0000 C   0  0  0  0  0  0  0  0  0  0  0  0
    4.3470   -0.2778    0.0000 H   0  0  0  0  0  0  0  0  0  0  0  0
    3.3185    1.5035    0.0000 H   0  0  0  0  0  0  0  0  0  0  0  0
    1.3856    0.8000    0.0000 C   0  0  0  0  0  0  0  0  0  0  0  0
    2.4141    2.0257    0.0000 H   0  0  0  0  0  0  0  0  0  0  0  0
    0.8384    2.3035    0.0000 H   0  0  0  0  0  0  0  0  0  0  0  0
  1  2  1  0  0  0  0
  1  3  1  0  0  0  0
  3  4  1  0  0  0  0
  3  5  1  0  0  0  0
  3  6  1  0  0  0  0
  6  7  1  0  0  0  0
  6  8  1  0  0  0  0
  6  9  1  0  0  0  0
  9 10  1  0  0  0  0
  9 11  1  0  0  0  0
  9 12  1  0  0  0  0
 12 13  1  0  0  0  0
 12 14  1  0  0  0  0
 12 15  1  0  0  0  0
 15  1  1  0  0  0  0
 15 16  1  0  0  0  0
 15 17  1  0  0  0  0
 17 18  1  0  0  0  0
 17 19  1  0  0  0  0
 17 20  1  0  0  0  0
 20 21  1  0  0  0  0
 20 22  1  0  0  0  0
 20 23  1  0  0  0  0
 23 24  1  0  0  0  0
 23 25  1  0  0  0  0
 23 26  1  0  0  0  0
 26  1  1  0  0  0  0
 26 27  1  0  0  0  0
 26 28  1  0  0  0  0
M  END
> <ChemID>
100245

> <source_casrn>
91-17-8

> <CAS>
91-17-8

> <SMILES>
C1CCCC2CCCCC21

> <NAME>
Naphthalene, decahydro-

> <preferred_name>
Decalin

> <iupac>
decahydronaphthalene

> <MPID>
100255

> <dsstox_substance_id>
DTXSID1024912

> <Canonical_QSARr>
C1CCCC2CCCCC21

> <InChI_Code_QSARr>
InChI=1S/C10H18/c1-2-6-10-8-4-3-7-9(10)5-1/h9-10H,1-8H2

> <InChI Key_QSARr>
NNBZCPXTIHJBJL-UHFFFAOYSA-N

> <Salt_Solvent>
?

> <Ready_Biodeg>
0.0

$$$$
100246
  -INDIGO-08031722522D

 18 19  0  0  0  0  0  0  0  0999 V2000
    1.3856    2.4000    0.0000 C   0  0  0  0  0  0  0  0  0  0  0  0
    1.3856    4.0000    0.0000 H   0  0  0  0  0  0  0  0  0  0  0  0
    0.0001    1.6000    0.0000 C   0  0  0  0  0  0  0  0  0  0  0  0
    0.0001    0.0000    0.0000 C   0  0  0  0  0  0  0  0  0  0  0  0
   -1.3856   -0.8000    0.0000 C   0  0  0  0  0  0  0  0  0  0  0  0
   -1.3856   -2.4000    0.0000 H   0  0  0  0  0  0  0  0  0  0  0  0
   -2.7712    0.0000    0.0000 C   0  0  0  0  0  0  0  0  0  0  0  0
   -4.1569   -0.8000    0.0000 H   0  0  0  0  0  0  0  0  0  0  0  0
   -2.7712    1.6000    0.0000 C   0  0  0  0  0  0  0  0  0  0  0  0
   -4.1569    2.4000    0.0000 H   0  0  0  0  0  0  0  0  0  0  0  0
   -1.3856    2.4000    0.0000 C   0  0  0  0  0  0  0  0  0  0  0  0
   -1.3856    4.0000    0.0000 H   0  0  0  0  0  0  0  0  0  0  0  0
    1.3856   -0.8000    0.0000 C   0  0  0  0  0  0  0  0  0  0  0  0
    1.3856   -2.4000    0.0000 H   0  0  0  0  0  0  0  0  0  0  0  0
    2.7713    0.0000    0.0000 C   0  0  0  0  0  0  0  0  0  0  0  0
    4.1569   -0.8000    0.0000 H   0  0  0  0  0  0  0  0  0  0  0  0
    2.7713    1.6000    0.0000 C   0  0  0  0  0  0  0  0  0  0  0  0
    4.1569    2.4000    0.0000 H   0  0  0  0  0  0  0  0  0  0  0  0
  1  2  1  0  0  0  0
  1  3  1  0  0  0  0
  3  4  1  0  0  0  0
  4  5  2  0  0  0  0
  5  6  1  0  0  0  0
  5  7  1  0  0  0  0
  7  8  1  0  0  0  0
  7  9  2  0  0  0  0
  9 10  1  0  0  0  0
  9 11  1  0  0  0  0
 11  3  2  0  0  0  0
 11 12  1  0  0  0  0
  4 13  1  0  0  0  0
 13 14  1  0  0  0  0
 13 15  2  0  0  0  0
 15 16  1  0  0  0  0
 15 17  1  0  0  0  0
 17  1  2  0  0  0  0
 17 18  1  0  0  0  0
M  END
> <ChemID>
100246

> <source_casrn>
91-20-3

> <CAS>
91-20-3

> <SMILES>
c1cccc2ccccc21

> <NAME>
Naphthalene

> <preferred_name>
Naphthalene

> <iupac>
naphthalene

> <MPID>
100256

> <dsstox_substance_id>
DTXSID8020913

> <Canonical_QSARr>
c1cccc2ccccc21

> <InChI_Code_QSARr>
InChI=1S/C10H8/c1-2-6-10-8-4-3-7-9(10)5-1/h1-8H

> <InChI Key_QSARr>
UFWIBTONFRDIAS-UHFFFAOYSA-N

> <Salt_Solvent>
?

> <Ready_Biodeg>
1.0

$$$$
100247
  -INDIGO-08031722522D

 17 18  0  0  0  0  0  0  0  0999 V2000
   -1.3856    2.4000    0.0000 N   0  0  0  0  0  0  0  0  0  0  0  0
   -2.7712    1.6000    0.0000 C   0  0  0  0  0  0  0  0  0  0  0  0
   -4.1569    2.4000    0.0000 H   0  0  0  0  0  0  0  0  0  0  0  0
   -2.7712    0.0000    0.0000 C   0  0  0  0  0  0  0  0  0  0  0  0
   -4.1569   -0.8000    0.0000 H   0  0  0  0  0  0  0  0  0  0  0  0
   -1.3856   -0.8000    0.0000 C   0  0  0  0  0  0  0  0  0  0  0  0
   -1.3856   -2.4000    0.0000 H   0  0  0  0  0  0  0  0  0  0  0  0
    0.0001    0.0000    0.0000 C   0  0  0  0  0  0  0  0  0  0  0  0
    0.0001    1.6000    0.0000 C   0  0  0  0  0  0  0  0  0  0  0  0
    1.3856    2.4000    0.0000 C   0  0  0  0  0  0  0  0  0  0  0  0
    1.3856    4.0000    0.0000 H   0  0  0  0  0  0  0  0  0  0  0  0
    2.7713    1.6000    0.0000 C   0  0  0  0  0  0  0  0  0  0  0  0
    4.1569    2.4000    0.0000 H   0  0  0  0  0  0  0  0  0  0  0  0
    2.7713    0.0000    0.0000 C   0  0  0  0  0  0  0  0  0  0  0  0
    4.1569   -0.8000    0.0000 H   0  0  0  0  0  0  0  0  0  0  0  0
    1.3856   -0.8000    0.0000 C   0  0  0  0  0  0  0  0  0  0  0  0
    1.3856   -2.4000    0.0000 H   0  0  0  0  0  0  0  0  0  0  0  0
  1  2  1  0  0  0  0
  2  3  1  0  0  0  0
  2  4  2  0  0  0  0
  4  5  1  0  0  0  0
  4  6  1  0  0  0  0
  6  7  1  0  0  0  0
  6  8  2  0  0  0  0
  8  9  1  0  0  0  0
  9  1  2  0  0  0  0
  9 10  1  0  0  0  0
 10 11  1  0  0  0  0
 10 12  2  0  0  0  0
 12 13  1  0  0  0  0
 12 14  1  0  0  0  0
 14 15  1  0  0  0  0
 14 16  2  0  0  0  0
 16  8  1  0  0  0  0
 16 17  1  0  0  0  0
M  END
> <ChemID>
100247

> <source_casrn>
91-22-5

> <CAS>
91-22-5

> <SMILES>
c1cccc2[n]cccc21

> <NAME>
Quinoline

> <preferred_name>
Quinoline

> <iupac>
C9H7N

> <MPID>
100257

> <dsstox_substance_id>
DTXSID1021798

> <Canonical_QSARr>
c1cccc2[n]cccc21

> <InChI_Code_QSARr>
InChI=1S/C9H7N/c1-2-6-9-8(4-1)5-3-7-10-9/h1-7H

> <InChI Key_QSARr>
SMWDFEZZVXVKRB-UHFFFAOYSA-N

> <Salt_Solvent>
?

> <Ready_Biodeg>
1.0

$$$$
100249
  -INDIGO-08031722522D

 20 21  0  0  0  0  0  0  0  0999 V2000
   -0.0001   -0.0000    0.0000 C   0  0  0  0  0  0  0  0  0  0  0  0
    1.3857    0.8000    0.0000 C   0  0  0  0  0  0  0  0  0  0  0  0
    1.3857    2.4000    0.0000 H   0  0  0  0  0  0  0  0  0  0  0  0
    2.7713   -0.0000    0.0000 C   0  0  0  0  0  0  0  0  0  0  0  0
    4.1569    0.8000    0.0000 N   0  0  0  0  0  0  0  0  0  0  0  0
    5.5426   -0.0000    0.0000 H   0  0  0  0  0  0  0  0  0  0  0  0
    4.1569    2.4000    0.0000 H   0  0  0  0  0  0  0  0  0  0  0  0
    2.7713   -1.6000    0.0000 C   0  0  0  0  0  0  0  0  0  0  0  0
    4.1569   -2.4000    0.0000 H   0  0  0  0  0  0  0  0  0  0  0  0
    1.3857   -2.4000    0.0000 C   0  0  0  0  0  0  0  0  0  0  0  0
    1.3857   -4.0000    0.0000 H   0  0  0  0  0  0  0  0  0  0  0  0
   -0.0001   -1.6000    0.0000 C   0  0  0  0  0  0  0  0  0  0  0  0
   -1.3857   -2.4000    0.0000 C   0  0  0  0  0  0  0  0  0  0  0  0
   -1.3857   -4.0000    0.0000 H   0  0  0  0  0  0  0  0  0  0  0  0
   -2.7713   -1.6000    0.0000 C   0  0  0  0  0  0  0  0  0  0  0  0
   -4.1569   -2.4000    0.0000 H   0  0  0  0  0  0  0  0  0  0  0  0
   -2.7713   -0.0000    0.0000 C   0  0  0  0  0  0  0  0  0  0  0  0
   -4.1569    0.8000    0.0000 H   0  0  0  0  0  0  0  0  0  0  0  0
   -1.3857    0.8000    0.0000 C   0  0  0  0  0  0  0  0  0  0  0  0
   -1.3857    2.4000    0.0000 H   0  0  0  0  0  0  0  0  0  0  0  0
  1  2  1  0  0  0  0
  2  3  1  0  0  0  0
  2  4  2  0  0  0  0
  4  5  1  0  0  0  0
  5  6  1  0  0  0  0
  5  7  1  0  0  0  0
  4  8  1  0  0  0  0
  8  9  1  0  0  0  0
  8 10  2  0  0  0  0
 10 11  1  0  0  0  0
 10 12  1  0  0  0  0
 12  1  1  0  0  0  0
 12 13  2  0  0  0  0
 13 14  1  0  0  0  0
 13 15  1  0  0  0  0
 15 16  1  0  0  0  0
 15 17  2  0  0  0  0
 17 18  1  0  0  0  0
 17 19  1  0  0  0  0
 19  1  2  0  0  0  0
 19 20  1  0  0  0  0
M  END
> <ChemID>
100249

> <source_casrn>
91-59-8

> <CAS>
91-59-8

> <SMILES>
Nc1cc2ccccc2cc1

> <NAME>
2-Naphthylamine

> <preferred_name>
2-Naphthylamine

> <iupac>
naphthalen-2-amine

> <MPID>
100259

> <dsstox_substance_id>
DTXSID2020921

> <Canonical_QSARr>
Nc1cc2ccccc2cc1

> <InChI_Code_QSARr>
InChI=1S/C10H9N/c11-10-6-5-8-3-1-2-4-9(8)7-10/h1-7H,11H2

> <InChI Key_QSARr>
JBIJLHTVPXGSAM-UHFFFAOYSA-N

> <Salt_Solvent>
?

> <Ready_Biodeg>
1.0

$$$$
100250
  -INDIGO-08031722522D

 19 20  0  0  0  0  0  0  0  0999 V2000
   -0.0001   -0.0000    0.0000 C   0  0  0  0  0  0  0  0  0  0  0  0
    1.3857    0.8000    0.0000 C   0  0  0  0  0  0  0  0  0  0  0  0
    1.3857    2.4000    0.0000 H   0  0  0  0  0  0  0  0  0  0  0  0
    2.7713   -0.0000    0.0000 C   0  0  0  0  0  0  0  0  0  0  0  0
    4.1569    0.8000    0.0000 S   0  0  0  0  0  0  0  0  0  0  0  0
    5.5426   -0.0000    0.0000 H   0  0  0  0  0  0  0  0  0  0  0  0
    2.7713   -1.6000    0.0000 C   0  0  0  0  0  0  0  0  0  0  0  0
    4.1569   -2.4000    0.0000 H   0  0  0  0  0  0  0  0  0  0  0  0
    1.3857   -2.4000    0.0000 C   0  0  0  0  0  0  0  0  0  0  0  0
    1.3857   -4.0000    0.0000 H   0  0  0  0  0  0  0  0  0  0  0  0
   -0.0001   -1.6000    0.0000 C   0  0  0  0  0  0  0  0  0  0  0  0
   -1.3857   -2.4000    0.0000 C   0  0  0  0  0  0  0  0  0  0  0  0
   -1.3857   -4.0000    0.0000 H   0  0  0  0  0  0  0  0  0  0  0  0
   -2.7713   -1.6000    0.0000 C   0  0  0  0  0  0  0  0  0  0  0  0
   -4.1569   -2.4000    0.0000 H   0  0  0  0  0  0  0  0  0  0  0  0
   -2.7713   -0.0000    0.0000 C   0  0  0  0  0  0  0  0  0  0  0  0
   -4.1569    0.8000    0.0000 H   0  0  0  0  0  0  0  0  0  0  0  0
   -1.3857    0.8000    0.0000 C   0  0  0  0  0  0  0  0  0  0  0  0
   -1.3857    2.4000    0.0000 H   0  0  0  0  0  0  0  0  0  0  0  0
  1  2  1  0  0  0  0
  2  3  1  0  0  0  0
  2  4  2  0  0  0  0
  4  5  1  0  0  0  0
  5  6  1  0  0  0  0
  4  7  1  0  0  0  0
  7  8  1  0  0  0  0
  7  9  2  0  0  0  0
  9 10  1  0  0  0  0
  9 11  1  0  0  0  0
 11  1  1  0  0  0  0
 11 12  2  0  0  0  0
 12 13  1  0  0  0  0
 12 14  1  0  0  0  0
 14 15  1  0  0  0  0
 14 16  2  0  0  0  0
 16 17  1  0  0  0  0
 16 18  1  0  0  0  0
 18  1  2  0  0  0  0
 18 19  1  0  0  0  0
M  END
> <ChemID>
100250

> <source_casrn>
91-60-1

> <CAS>
91-60-1

> <SMILES>
Sc1cc2ccccc2cc1

> <NAME>
2-Naphthalenethiol

> <preferred_name>
2-Naphthalenethiol

> <iupac>
Naphthalene-2-thiol

> <MPID>
100260

> <dsstox_substance_id>
DTXSID1059028

> <Canonical_QSARr>
Sc1cc2ccccc2cc1

> <InChI_Code_QSARr>
InChI=1S/C10H8S/c11-10-6-5-8-3-1-2-4-9(8)7-10/h1-7,11H

> <InChI Key_QSARr>
RFCQDOVPMUSZMN-UHFFFAOYSA-N

> <Salt_Solvent>
?

> <Ready_Biodeg>
0.0

$$$$
100251
  -INDIGO-08031722522D

 17 18  0  0  0  0  0  0  0  0999 V2000
   -4.1569   -2.4000    0.0000 O   0  0  0  0  0  0  0  0  0  0  0  0
   -2.7712   -1.6000    0.0000 C   0  0  0  0  0  0  0  0  0  0  0  0
   -1.3856   -2.4000    0.0000 O   0  0  0  0  0  0  0  0  0  0  0  0
    0.0001   -1.6000    0.0000 C   0  0  0  0  0  0  0  0  0  0  0  0
    0.0001   -0.0000    0.0000 C   0  0  0  0  0  0  0  0  0  0  0  0
    1.3856    0.8000    0.0000 C   0  0  0  0  0  0  0  0  0  0  0  0
    1.3856    2.4000    0.0000 H   0  0  0  0  0  0  0  0  0  0  0  0
    2.7713   -0.0000    0.0000 C   0  0  0  0  0  0  0  0  0  0  0  0
    4.1569    0.8000    0.0000 H   0  0  0  0  0  0  0  0  0  0  0  0
    2.7713   -1.6000    0.0000 C   0  0  0  0  0  0  0  0  0  0  0  0
    4.1569   -2.4000    0.0000 H   0  0  0  0  0  0  0  0  0  0  0  0
    1.3856   -2.4000    0.0000 C   0  0  0  0  0  0  0  0  0  0  0  0
    1.3856   -4.0000    0.0000 H   0  0  0  0  0  0  0  0  0  0  0  0
   -1.3856    0.8000    0.0000 C   0  0  0  0  0  0  0  0  0  0  0  0
   -1.3856    2.4000    0.0000 H   0  0  0  0  0  0  0  0  0  0  0  0
   -2.7712   -0.0000    0.0000 C   0  0  0  0  0  0  0  0  0  0  0  0
   -4.1569    0.8000    0.0000 H   0  0  0  0  0  0  0  0  0  0  0  0
  1  2  2  0  0  0  0
  2  3  1  0  0  0  0
  3  4  1  0  0  0  0
  4  5  1  0  0  0  0
  5  6  2  0  0  0  0
  6  7  1  0  0  0  0
  6  8  1  0  0  0  0
  8  9  1  0  0  0  0
  8 10  2  0  0  0  0
 10 11  1  0  0  0  0
 10 12  1  0  0  0  0
 12  4  2  0  0  0  0
 12 13  1  0  0  0  0
  5 14  1  0  0  0  0
 14 15  1  0  0  0  0
 14 16  2  0  0  0  0
 16  2  1  0  0  0  0
 16 17  1  0  0  0  0
M  END
> <ChemID>
100251

> <source_casrn>
91-64-5

> <CAS>
91-64-5

> <SMILES>
O=C1C=Cc2ccccc2O1

> <NAME>
2H-1-Benzopyran-2-one

> <preferred_name>
Coumarin

> <iupac>
2H-chromen-2-one

> <MPID>
100261

> <dsstox_substance_id>
DTXSID7020348

> <Canonical_QSARr>
O=C1C=Cc2ccccc2O1

> <InChI_Code_QSARr>
InChI=1S/C9H6O2/c10-9-6-5-7-3-1-2-4-8(7)11-9/h1-6H

> <InChI Key_QSARr>
ZYGHJZDHTFUPRJ-UHFFFAOYSA-N

> <Salt_Solvent>
?

> <Ready_Biodeg>
1.0

$$$$
100253
  -INDIGO-08031722522D

 26 27  0  0  0  0  0  0  0  0999 V2000
    3.2000   -2.7713    0.0000 Cl  0  0  0  0  0  0  0  0  0  0  0  0
    2.4000   -1.3856    0.0000 C   0  0  0  0  0  0  0  0  0  0  0  0
    3.2000   -0.0000    0.0000 C   0  0  0  0  0  0  0  0  0  0  0  0
    4.8000   -0.0000    0.0000 N   0  0  0  0  0  0  0  0  0  0  0  0
    5.6000   -1.3856    0.0000 H   0  0  0  0  0  0  0  0  0  0  0  0
    5.6000    1.3856    0.0000 H   0  0  0  0  0  0  0  0  0  0  0  0
    2.4000    1.3856    0.0000 C   0  0  0  0  0  0  0  0  0  0  0  0
    3.2000    2.7713    0.0000 H   0  0  0  0  0  0  0  0  0  0  0  0
    0.7999    1.3856    0.0000 C   0  0  0  0  0  0  0  0  0  0  0  0
   -0.0001    2.7713    0.0000 H   0  0  0  0  0  0  0  0  0  0  0  0
   -0.0001   -0.0000    0.0000 C   0  0  0  0  0  0  0  0  0  0  0  0
   -1.5999    0.0000    0.0000 C   0  0  0  0  0  0  0  0  0  0  0  0
   -2.3999    1.3856    0.0000 C   0  0  0  0  0  0  0  0  0  0  0  0
   -1.5999    2.7713    0.0000 H   0  0  0  0  0  0  0  0  0  0  0  0
   -4.0000    1.3856    0.0000 C   0  0  0  0  0  0  0  0  0  0  0  0
   -4.8000    2.7713    0.0000 Cl  0  0  0  0  0  0  0  0  0  0  0  0
   -4.8000    0.0000    0.0000 C   0  0  0  0  0  0  0  0  0  0  0  0
   -6.4000    0.0000    0.0000 N   0  0  0  0  0  0  0  0  0  0  0  0
   -7.2000    1.3856    0.0000 H   0  0  0  0  0  0  0  0  0  0  0  0
   -7.2000   -1.3856    0.0000 H   0  0  0  0  0  0  0  0  0  0  0  0
   -4.0000   -1.3856    0.0000 C   0  0  0  0  0  0  0  0  0  0  0  0
   -4.8000   -2.7713    0.0000 H   0  0  0  0  0  0  0  0  0  0  0  0
   -2.3999   -1.3856    0.0000 C   0  0  0  0  0  0  0  0  0  0  0  0
   -1.5999   -2.7713    0.0000 H   0  0  0  0  0  0  0  0  0  0  0  0
    0.7999   -1.3856    0.0000 C   0  0  0  0  0  0  0  0  0  0  0  0
   -0.0001   -2.7713    0.0000 H   0  0  0  0  0  0  0  0  0  0  0  0
  1  2  1  0  0  0  0
  2  3  1  0  0  0  0
  3  4  1  0  0  0  0
  4  5  1  0  0  0  0
  4  6  1  0  0  0  0
  3  7  2  0  0  0  0
  7  8  1  0  0  0  0
  7  9  1  0  0  0  0
  9 10  1  0  0  0  0
  9 11  2  0  0  0  0
 11 12  1  0  0  0  0
 12 13  1  0  0  0  0
 13 14  1  0  0  0  0
 13 15  2  0  0  0  0
 15 16  1  0  0  0  0
 15 17  1  0  0  0  0
 17 18  1  0  0  0  0
 18 19  1  0  0  0  0
 18 20  1  0  0  0  0
 17 21  2  0  0  0  0
 21 22  1  0  0  0  0
 21 23  1  0  0  0  0
 23 12  2  0  0  0  0
 23 24  1  0  0  0  0
 11 25  1  0  0  0  0
 25  2  2  0  0  0  0
 25 26  1  0  0  0  0
M  END
> <ChemID>
100253

> <source_casrn>
91-94-1

> <CAS>
91-94-1

> <SMILES>
Nc1ccc(cc1Cl)-c1cc(Cl)c(N)cc1

> <NAME>
1,1'-Biphenyl -4,4'-diamine, 3,3'-dichloro-

> <preferred_name>
3,3'-Dichlorobenzidine

> <iupac>
3,3'-dichlorobiphenyl-4,4'-diamine

> <MPID>
100263

> <dsstox_substance_id>
DTXSID6020432

> <Canonical_QSARr>
Nc1ccc(cc1Cl)-c1cc(Cl)c(N)cc1

> <InChI_Code_QSARr>
InChI=1S/C12H10Cl2N2/c13-9-5-7(1-3-11(9)15)8-2-4-12(16)10(14)6-8/h1-6H,15-16H2

> <InChI Key_QSARr>
HUWXDEQWWKGHRV-UHFFFAOYSA-N

> <Salt_Solvent>
?

> <Ready_Biodeg>
0.0

$$$$
100254
  -INDIGO-08031722522D

 22 23  0  0  0  0  0  0  0  0999 V2000
   -0.8001    1.3856    0.0000 C   0  0  0  0  0  0  0  0  0  0  0  0
   -0.0001    2.7713    0.0000 H   0  0  0  0  0  0  0  0  0  0  0  0
   -0.0001   -0.0000    0.0000 C   0  0  0  0  0  0  0  0  0  0  0  0
    1.6001    0.0000    0.0000 C   0  0  0  0  0  0  0  0  0  0  0  0
    2.4001    1.3856    0.0000 C   0  0  0  0  0  0  0  0  0  0  0  0
    1.6001    2.7713    0.0000 H   0  0  0  0  0  0  0  0  0  0  0  0
    4.0000    1.3856    0.0000 C   0  0  0  0  0  0  0  0  0  0  0  0
    4.8000    2.7713    0.0000 H   0  0  0  0  0  0  0  0  0  0  0  0
    4.8000    0.0000    0.0000 C   0  0  0  0  0  0  0  0  0  0  0  0
    6.4000    0.0000    0.0000 H   0  0  0  0  0  0  0  0  0  0  0  0
    4.0000   -1.3856    0.0000 C   0  0  0  0  0  0  0  0  0  0  0  0
    4.8000   -2.7713    0.0000 H   0  0  0  0  0  0  0  0  0  0  0  0
    2.4001   -1.3856    0.0000 C   0  0  0  0  0  0  0  0  0  0  0  0
    1.6001   -2.7713    0.0000 H   0  0  0  0  0  0  0  0  0  0  0  0
   -0.8001   -1.3856    0.0000 C   0  0  0  0  0  0  0  0  0  0  0  0
   -0.0001   -2.7713    0.0000 H   0  0  0  0  0  0  0  0  0  0  0  0
   -2.4000   -1.3856    0.0000 C   0  0  0  0  0  0  0  0  0  0  0  0
   -3.2000   -2.7713    0.0000 H   0  0  0  0  0  0  0  0  0  0  0  0
   -3.2000   -0.0000    0.0000 C   0  0  0  0  0  0  0  0  0  0  0  0
   -4.8000   -0.0000    0.0000 H   0  0  0  0  0  0  0  0  0  0  0  0
   -2.4000    1.3856    0.0000 C   0  0  0  0  0  0  0  0  0  0  0  0
   -3.2000    2.7713    0.0000 H   0  0  0  0  0  0  0  0  0  0  0  0
  1  2  1  0  0  0  0
  1  3  1  0  0  0  0
  3  4  1  0  0  0  0
  4  5  1  0  0  0  0
  5  6  1  0  0  0  0
  5  7  2  0  0  0  0
  7  8  1  0  0  0  0
  7  9  1  0  0  0  0
  9 10  1  0  0  0  0
  9 11  2  0  0  0  0
 11 12  1  0  0  0  0
 11 13  1  0  0  0  0
 13  4  2  0  0  0  0
 13 14  1  0  0  0  0
  3 15  2  0  0  0  0
 15 16  1  0  0  0  0
 15 17  1  0  0  0  0
 17 18  1  0  0  0  0
 17 19  2  0  0  0  0
 19 20  1  0  0  0  0
 19 21  1  0  0  0  0
 21  1  2  0  0  0  0
 21 22  1  0  0  0  0
M  END
> <ChemID>
100254

> <source_casrn>
92-52-4

> <CAS>
92-52-4

> <SMILES>
c1ccccc1-c1ccccc1

> <NAME>
1,1'-Biphenyl

> <preferred_name>
Biphenyl

> <iupac>
biphenyl

> <MPID>
100264

> <dsstox_substance_id>
DTXSID4020161

> <Canonical_QSARr>
c1ccccc1-c1ccccc1

> <InChI_Code_QSARr>
InChI=1S/C12H10/c1-3-7-11(8-4-1)12-9-5-2-6-10-12/h1-10H

> <InChI Key_QSARr>
ZUOUZKKEUPVFJK-UHFFFAOYSA-N

> <Salt_Solvent>
?

> <Ready_Biodeg>
1.0

$$$$
100255
  -INDIGO-08031722522D

 23 24  0  0  0  0  0  0  0  0999 V2000
    4.8000    0.0000    0.0000 O   0  0  0  0  0  0  0  0  0  0  0  0
    5.6000    1.3856    0.0000 H   0  0  0  0  0  0  0  0  0  0  0  0
    3.2000    0.0000    0.0000 C   0  0  0  0  0  0  0  0  0  0  0  0
    2.4000    1.3856    0.0000 C   0  0  0  0  0  0  0  0  0  0  0  0
    3.2000    2.7713    0.0000 H   0  0  0  0  0  0  0  0  0  0  0  0
    0.8000    1.3856    0.0000 C   0  0  0  0  0  0  0  0  0  0  0  0
    0.0000    2.7713    0.0000 H   0  0  0  0  0  0  0  0  0  0  0  0
    0.0000    0.0000    0.0000 C   0  0  0  0  0  0  0  0  0  0  0  0
   -1.6000    0.0000    0.0000 C   0  0  0  0  0  0  0  0  0  0  0  0
   -2.4000    1.3856    0.0000 C   0  0  0  0  0  0  0  0  0  0  0  0
   -1.6000    2.7713    0.0000 H   0  0  0  0  0  0  0  0  0  0  0  0
   -4.0000    1.3856    0.0000 C   0  0  0  0  0  0  0  0  0  0  0  0
   -4.8000    2.7713    0.0000 H   0  0  0  0  0  0  0  0  0  0  0  0
   -4.8000   -0.0000    0.0000 C   0  0  0  0  0  0  0  0  0  0  0  0
   -6.4000   -0.0000    0.0000 H   0  0  0  0  0  0  0  0  0  0  0  0
   -4.0000   -1.3856    0.0000 C   0  0  0  0  0  0  0  0  0  0  0  0
   -4.8000   -2.7713    0.0000 H   0  0  0  0  0  0  0  0  0  0  0  0
   -2.4000   -1.3856    0.0000 C   0  0  0  0  0  0  0  0  0  0  0  0
   -1.6000   -2.7713    0.0000 H   0  0  0  0  0  0  0  0  0  0  0  0
    0.8000   -1.3856    0.0000 C   0  0  0  0  0  0  0  0  0  0  0  0
    0.0000   -2.7713    0.0000 H   0  0  0  0  0  0  0  0  0  0  0  0
    2.4000   -1.3856    0.0000 C   0  0  0  0  0  0  0  0  0  0  0  0
    3.2000   -2.7713    0.0000 H   0  0  0  0  0  0  0  0  0  0  0  0
  1  2  1  0  0  0  0
  1  3  1  0  0  0  0
  3  4  1  0  0  0  0
  4  5  1  0  0  0  0
  4  6  2  0  0  0  0
  6  7  1  0  0  0  0
  6  8  1  0  0  0  0
  8  9  1  0  0  0  0
  9 10  1  0  0  0  0
 10 11  1  0  0  0  0
 10 12  2  0  0  0  0
 12 13  1  0  0  0  0
 12 14  1  0  0  0  0
 14 15  1  0  0  0  0
 14 16  2  0  0  0  0
 16 17  1  0  0  0  0
 16 18  1  0  0  0  0
 18  9  2  0  0  0  0
 18 19  1  0  0  0  0
  8 20  2  0  0  0  0
 20 21  1  0  0  0  0
 20 22  1  0  0  0  0
 22  3  2  0  0  0  0
 22 23  1  0  0  0  0
M  END
> <ChemID>
100255

> <source_casrn>
92-69-3

> <CAS>
92-69-3

> <SMILES>
Oc1ccc(cc1)-c1ccccc1

> <NAME>
1,1'-Biphenyl -4-ol

> <preferred_name>
4-Phenylphenol

> <iupac>
biphenyl-4-ol

> <MPID>
100265

> <dsstox_substance_id>
DTXSID7021152

> <Canonical_QSARr>
Oc1ccc(cc1)-c1ccccc1

> <InChI_Code_QSARr>
InChI=1S/C12H10O/c13-12-8-6-11(7-9-12)10-4-2-1-3-5-10/h1-9,13H

> <InChI Key_QSARr>
YXVFYQXJAXKLAK-UHFFFAOYSA-N

> <Salt_Solvent>
?

> <Ready_Biodeg>
0.0

$$$$
100257
  -INDIGO-08031722522D

 33 35  0  0  0  0  0  0  0  0999 V2000
   -0.0001    0.0000    0.0000 C   0  0  0  0  0  0  0  0  0  0  0  0
   -0.7999    1.3857    0.0000 C   0  0  0  0  0  0  0  0  0  0  0  0
   -0.0001    2.7713    0.0000 H   0  0  0  0  0  0  0  0  0  0  0  0
   -2.4001    1.3856    0.0000 C   0  0  0  0  0  0  0  0  0  0  0  0
   -3.2001    2.7713    0.0000 H   0  0  0  0  0  0  0  0  0  0  0  0
   -3.1999    0.0000    0.0000 C   0  0  0  0  0  0  0  0  0  0  0  0
   -4.8000    0.0000    0.0000 H   0  0  0  0  0  0  0  0  0  0  0  0
   -2.4001   -1.3856    0.0000 C   0  0  0  0  0  0  0  0  0  0  0  0
   -3.2001   -2.7713    0.0000 H   0  0  0  0  0  0  0  0  0  0  0  0
   -0.7999   -1.3856    0.0000 C   0  0  0  0  0  0  0  0  0  0  0  0
   -0.0001   -2.7713    0.0000 C   0  0  0  0  0  0  0  0  0  0  0  0
   -0.7999   -4.1569    0.0000 H   0  0  0  0  0  0  0  0  0  0  0  0
    1.6000   -2.7713    0.0000 C   0  0  0  0  0  0  0  0  0  0  0  0
    2.4001   -4.1569    0.0000 O   0  0  0  0  0  0  0  0  0  0  0  0
    1.6000   -5.5426    0.0000 H   0  0  0  0  0  0  0  0  0  0  0  0
    2.4001   -1.3856    0.0000 C   0  0  0  0  0  0  0  0  0  0  0  0
    3.9999   -1.3856    0.0000 C   0  0  0  0  0  0  0  0  0  0  0  0
    4.8000   -2.7713    0.0000 N   0  0  0  0  0  0  0  0  0  0  0  0
    3.9999   -4.1569    0.0000 H   0  0  0  0  0  0  0  0  0  0  0  0
    6.4001   -2.7713    0.0000 C   0  0  0  0  0  0  0  0  0  0  0  0
    7.1999   -4.1570    0.0000 C   0  0  0  0  0  0  0  0  0  0  0  0
    6.4001   -5.5426    0.0000 H   0  0  0  0  0  0  0  0  0  0  0  0
    8.8001   -4.1569    0.0000 C   0  0  0  0  0  0  0  0  0  0  0  0
    9.6001   -5.5426    0.0000 H   0  0  0  0  0  0  0  0  0  0  0  0
    9.6001   -2.7713    0.0000 C   0  0  0  0  0  0  0  0  0  0  0  0
   11.2000   -2.7713    0.0000 H   0  0  0  0  0  0  0  0  0  0  0  0
    8.8001   -1.3856    0.0000 C   0  0  0  0  0  0  0  0  0  0  0  0
    9.6001    0.0000    0.0000 H   0  0  0  0  0  0  0  0  0  0  0  0
    7.1999   -1.3856    0.0000 C   0  0  0  0  0  0  0  0  0  0  0  0
    6.3999    0.0000    0.0000 H   0  0  0  0  0  0  0  0  0  0  0  0
    4.8000    0.0000    0.0000 O   0  0  0  0  0  0  0  0  0  0  0  0
    1.6000    0.0000    0.0000 C   0  0  0  0  0  0  0  0  0  0  0  0
    2.4001    1.3857    0.0000 H   0  0  0  0  0  0  0  0  0  0  0  0
  1  2  1  0  0  0  0
  2  3  1  0  0  0  0
  2  4  2  0  0  0  0
  4  5  1  0  0  0  0
  4  6  1  0  0  0  0
  6  7  1  0  0  0  0
  6  8  2  0  0  0  0
  8  9  1  0  0  0  0
  8 10  1  0  0  0  0
 10  1  1  0  0  0  0
 10 11  2  0  0  0  0
 11 12  1  0  0  0  0
 11 13  1  0  0  0  0
 13 14  1  0  0  0  0
 14 15  1  0  0  0  0
 13 16  2  0  0  0  0
 16 17  1  0  0  0  0
 17 18  1  0  0  0  0
 18 19  1  0  0  0  0
 18 20  1  0  0  0  0
 20 21  1  0  0  0  0
 21 22  1  0  0  0  0
 21 23  2  0  0  0  0
 23 24  1  0  0  0  0
 23 25  1  0  0  0  0
 25 26  1  0  0  0  0
 25 27  2  0  0  0  0
 27 28  1  0  0  0  0
 27 29  1  0  0  0  0
 29 20  2  0  0  0  0
 29 30  1  0  0  0  0
 17 31  2  0  0  0  0
 16 32  1  0  0  0  0
 32  1  2  0  0  0  0
 32 33  1  0  0  0  0
M  END
> <ChemID>
100257

> <source_casrn>
92-77-3

> <CAS>
92-77-3

> <SMILES>
Oc1cc2ccccc2cc1C(=O)Nc1ccccc1

> <NAME>
2-Naphthalenecarboxamide, 3-hydroxy-N-phenyl-

> <preferred_name>
3-Hydroxy-2-naphthanilide

> <iupac>
3-hydroxy-N-phenyl-2-naphthamide

> <MPID>
100267

> <dsstox_substance_id>
DTXSID1052618

> <Canonical_QSARr>
Oc1cc2ccccc2cc1C(=O)Nc1ccccc1

> <InChI_Code_QSARr>
InChI=1S/C17H13NO2/c19-16-11-13-7-5-4-6-12(13)10-15(16)17(20)18-14-8-2-1-3-9-14/h1-11,19H,(H,18,20)

> <InChI Key_QSARr>
JFGQHAHJWJBOPD-UHFFFAOYSA-N

> <Salt_Solvent>
?

> <Ready_Biodeg>
0.0

$$$$
100258
  -INDIGO-08031722522D

 23 25  0  0  0  0  0  0  0  0999 V2000
   -1.3856    0.8000    0.0000 N   0  0  0  0  0  0  0  0  0  0  0  0
   -1.3856    2.4000    0.0000 H   0  0  0  0  0  0  0  0  0  0  0  0
   -2.7712   -0.0000    0.0000 C   0  0  0  0  0  0  0  0  0  0  0  0
   -2.7712   -1.6000    0.0000 C   0  0  0  0  0  0  0  0  0  0  0  0
   -4.1569   -2.4000    0.0000 C   0  0  0  0  0  0  0  0  0  0  0  0
   -4.1569   -4.0000    0.0000 H   0  0  0  0  0  0  0  0  0  0  0  0
   -5.5425   -1.6000    0.0000 C   0  0  0  0  0  0  0  0  0  0  0  0
   -6.9282   -2.4000    0.0000 H   0  0  0  0  0  0  0  0  0  0  0  0
   -5.5425   -0.0000    0.0000 C   0  0  0  0  0  0  0  0  0  0  0  0
   -6.9282    0.8000    0.0000 H   0  0  0  0  0  0  0  0  0  0  0  0
   -4.1569    0.8000    0.0000 C   0  0  0  0  0  0  0  0  0  0  0  0
   -4.1569    2.4000    0.0000 H   0  0  0  0  0  0  0  0  0  0  0  0
   -1.3856   -2.4000    0.0000 S   0  0  0  0  0  0  0  0  0  0  0  0
   -0.0001   -1.6000    0.0000 C   0  0  0  0  0  0  0  0  0  0  0  0
   -0.0001   -0.0000    0.0000 C   0  0  0  0  0  0  0  0  0  0  0  0
    1.3856    0.8000    0.0000 C   0  0  0  0  0  0  0  0  0  0  0  0
    1.3856    2.4000    0.0000 H   0  0  0  0  0  0  0  0  0  0  0  0
    2.7713   -0.0000    0.0000 C   0  0  0  0  0  0  0  0  0  0  0  0
    4.1569    0.8000    0.0000 H   0  0  0  0  0  0  0  0  0  0  0  0
    2.7713   -1.6000    0.0000 C   0  0  0  0  0  0  0  0  0  0  0  0
    4.1569   -2.4000    0.0000 H   0  0  0  0  0  0  0  0  0  0  0  0
    1.3856   -2.4000    0.0000 C   0  0  0  0  0  0  0  0  0  0  0  0
    1.3856   -4.0000    0.0000 H   0  0  0  0  0  0  0  0  0  0  0  0
  1  2  1  0  0  0  0
  1  3  1  0  0  0  0
  3  4  1  0  0  0  0
  4  5  2  0  0  0  0
  5  6  1  0  0  0  0
  5  7  1  0  0  0  0
  7  8  1  0  0  0  0
  7  9  2  0  0  0  0
  9 10  1  0  0  0  0
  9 11  1  0  0  0  0
 11  3  2  0  0  0  0
 11 12  1  0  0  0  0
  4 13  1  0  0  0  0
 13 14  1  0  0  0  0
 14 15  1  0  0  0  0
 15  1  1  0  0  0  0
 15 16  2  0  0  0  0
 16 17  1  0  0  0  0
 16 18  1  0  0  0  0
 18 19  1  0  0  0  0
 18 20  2  0  0  0  0
 20 21  1  0  0  0  0
 20 22  1  0  0  0  0
 22 14  2  0  0  0  0
 22 23  1  0  0  0  0
M  END
> <ChemID>
100258

> <source_casrn>
92-84-2

> <CAS>
92-84-2

> <SMILES>
c1cccc2Nc3ccccc3Sc21

> <NAME>
10H-Phenothiazine

> <preferred_name>
Phenothiazine

> <iupac>
C12H9NS

> <MPID>
100268

> <dsstox_substance_id>
DTXSID5021126

> <Canonical_QSARr>
c1cccc2Nc3ccccc3Sc21

> <InChI_Code_QSARr>
InChI=1S/C12H9NS/c1-3-7-11-9(5-1)13-10-6-2-4-8-12(10)14-11/h1-8,13H

> <InChI Key_QSARr>
WJFKNYWRSNBZNX-UHFFFAOYSA-N

> <Salt_Solvent>
?

> <Ready_Biodeg>
0.0

$$$$
100259
  -INDIGO-08031722522D

 22 24  0  0  0  0  0  0  0  0999 V2000
    0.0001   -0.0000    0.0000 C   0  0  0  0  0  0  0  0  0  0  0  0
    1.3857    0.8000    0.0000 S   0  0  0  0  0  0  0  0  0  0  0  0
    2.7712   -0.0000    0.0000 C   0  0  0  0  0  0  0  0  0  0  0  0
    4.1569    0.8000    0.0000 C   0  0  0  0  0  0  0  0  0  0  0  0
    4.1569    2.4000    0.0000 H   0  0  0  0  0  0  0  0  0  0  0  0
    5.5425   -0.0000    0.0000 C   0  0  0  0  0  0  0  0  0  0  0  0
    6.9282    0.8000    0.0000 H   0  0  0  0  0  0  0  0  0  0  0  0
    5.5425   -1.6000    0.0000 C   0  0  0  0  0  0  0  0  0  0  0  0
    6.9282   -2.4000    0.0000 H   0  0  0  0  0  0  0  0  0  0  0  0
    4.1569   -2.4000    0.0000 C   0  0  0  0  0  0  0  0  0  0  0  0
    4.1569   -4.0000    0.0000 H   0  0  0  0  0  0  0  0  0  0  0  0
    2.7712   -1.6000    0.0000 C   0  0  0  0  0  0  0  0  0  0  0  0
    1.3857   -2.4000    0.0000 S   0  0  0  0  0  0  0  0  0  0  0  0
    0.0001   -1.6000    0.0000 C   0  0  0  0  0  0  0  0  0  0  0  0
   -1.3856   -2.4000    0.0000 C   0  0  0  0  0  0  0  0  0  0  0  0
   -1.3856   -4.0000    0.0000 H   0  0  0  0  0  0  0  0  0  0  0  0
   -2.7713   -1.6000    0.0000 C   0  0  0  0  0  0  0  0  0  0  0  0
   -4.1569   -2.4000    0.0000 H   0  0  0  0  0  0  0  0  0  0  0  0
   -2.7713   -0.0000    0.0000 C   0  0  0  0  0  0  0  0  0  0  0  0
   -4.1569    0.8000    0.0000 H   0  0  0  0  0  0  0  0  0  0  0  0
   -1.3856    0.8000    0.0000 C   0  0  0  0  0  0  0  0  0  0  0  0
   -1.3856    2.4000    0.0000 H   0  0  0  0  0  0  0  0  0  0  0  0
  1  2  1  0  0  0  0
  2  3  1  0  0  0  0
  3  4  1  0  0  0  0
  4  5  1  0  0  0  0
  4  6  2  0  0  0  0
  6  7  1  0  0  0  0
  6  8  1  0  0  0  0
  8  9  1  0  0  0  0
  8 10  2  0  0  0  0
 10 11  1  0  0  0  0
 10 12  1  0  0  0  0
 12  3  2  0  0  0  0
 12 13  1  0  0  0  0
 13 14  1  0  0  0  0
 14  1  1  0  0  0  0
 14 15  2  0  0  0  0
 15 16  1  0  0  0  0
 15 17  1  0  0  0  0
 17 18  1  0  0  0  0
 17 19  2  0  0  0  0
 19 20  1  0  0  0  0
 19 21  1  0  0  0  0
 21  1  2  0  0  0  0
 21 22  1  0  0  0  0
M  END
> <ChemID>
100259

> <source_casrn>
92-85-3

> <CAS>
92-85-3

> <SMILES>
c1cccc2Sc3ccccc3Sc21

> <NAME>
Thianthrene

> <preferred_name>
Thianthrene

> <iupac>
Thianthrene

> <MPID>
100269

> <dsstox_substance_id>
DTXSID6059071

> <Canonical_QSARr>
c1cccc2Sc3ccccc3Sc21

> <InChI_Code_QSARr>
InChI=1S/C12H8S2/c1-2-6-10-9(5-1)13-11-7-3-4-8-12(11)14-10/h1-8H

> <InChI Key_QSARr>
GVIJJXMXTUZIOD-UHFFFAOYSA-N

> <Salt_Solvent>
?

> <Ready_Biodeg>
0.0

$$$$
100261
  -INDIGO-08031722522D

 32 34  0  0  0  0  0  0  0  0999 V2000
    1.6001    0.0000    0.0000 C   0  0  0  0  0  0  0  0  0  0  0  0
    2.3999   -1.3856    0.0000 C   0  0  0  0  0  0  0  0  0  0  0  0
    1.6001   -2.7713    0.0000 H   0  0  0  0  0  0  0  0  0  0  0  0
    4.0001   -1.3856    0.0000 C   0  0  0  0  0  0  0  0  0  0  0  0
    4.8001   -2.7713    0.0000 H   0  0  0  0  0  0  0  0  0  0  0  0
    4.8001    0.0000    0.0000 C   0  0  0  0  0  0  0  0  0  0  0  0
    6.4000    0.0000    0.0000 H   0  0  0  0  0  0  0  0  0  0  0  0
    4.0001    1.3856    0.0000 C   0  0  0  0  0  0  0  0  0  0  0  0
    4.8001    2.7713    0.0000 H   0  0  0  0  0  0  0  0  0  0  0  0
    2.3999    1.3856    0.0000 C   0  0  0  0  0  0  0  0  0  0  0  0
    1.6001    2.7713    0.0000 H   0  0  0  0  0  0  0  0  0  0  0  0
    0.0000    0.0000    0.0000 C   0  0  0  0  0  0  0  0  0  0  0  0
   -0.8001    1.3856    0.0000 C   0  0  0  0  0  0  0  0  0  0  0  0
    0.0000    2.7713    0.0000 H   0  0  0  0  0  0  0  0  0  0  0  0
   -2.3999    1.3856    0.0000 C   0  0  0  0  0  0  0  0  0  0  0  0
   -3.2000    2.7713    0.0000 H   0  0  0  0  0  0  0  0  0  0  0  0
   -3.2000    0.0000    0.0000 C   0  0  0  0  0  0  0  0  0  0  0  0
   -4.7999    0.0000    0.0000 C   0  0  0  0  0  0  0  0  0  0  0  0
   -5.5999    1.3856    0.0000 C   0  0  0  0  0  0  0  0  0  0  0  0
   -4.8001    2.7713    0.0000 H   0  0  0  0  0  0  0  0  0  0  0  0
   -7.2001    1.3856    0.0000 C   0  0  0  0  0  0  0  0  0  0  0  0
   -8.0001    2.7713    0.0000 H   0  0  0  0  0  0  0  0  0  0  0  0
   -7.9999   -0.0000    0.0000 C   0  0  0  0  0  0  0  0  0  0  0  0
   -9.6000   -0.0000    0.0000 H   0  0  0  0  0  0  0  0  0  0  0  0
   -7.2001   -1.3856    0.0000 C   0  0  0  0  0  0  0  0  0  0  0  0
   -7.9999   -2.7713    0.0000 H   0  0  0  0  0  0  0  0  0  0  0  0
   -5.5999   -1.3856    0.0000 C   0  0  0  0  0  0  0  0  0  0  0  0
   -4.7999   -2.7713    0.0000 H   0  0  0  0  0  0  0  0  0  0  0  0
   -2.3999   -1.3856    0.0000 C   0  0  0  0  0  0  0  0  0  0  0  0
   -3.2000   -2.7713    0.0000 H   0  0  0  0  0  0  0  0  0  0  0  0
   -0.8001   -1.3856    0.0000 C   0  0  0  0  0  0  0  0  0  0  0  0
    0.0000   -2.7713    0.0000 H   0  0  0  0  0  0  0  0  0  0  0  0
  1  2  1  0  0  0  0
  2  3  1  0  0  0  0
  2  4  2  0  0  0  0
  4  5  1  0  0  0  0
  4  6  1  0  0  0  0
  6  7  1  0  0  0  0
  6  8  2  0  0  0  0
  8  9  1  0  0  0  0
  8 10  1  0  0  0  0
 10  1  2  0  0  0  0
 10 11  1  0  0  0  0
  1 12  1  0  0  0  0
 12 13  1  0  0  0  0
 13 14  1  0  0  0  0
 13 15  2  0  0  0  0
 15 16  1  0  0  0  0
 15 17  1  0  0  0  0
 17 18  1  0  0  0  0
 18 19  1  0  0  0  0
 19 20  1  0  0  0  0
 19 21  2  0  0  0  0
 21 22  1  0  0  0  0
 21 23  1  0  0  0  0
 23 24  1  0  0  0  0
 23 25  2  0  0  0  0
 25 26  1  0  0  0  0
 25 27  1  0  0  0  0
 27 18  2  0  0  0  0
 27 28  1  0  0  0  0
 17 29  2  0  0  0  0
 29 30  1  0  0  0  0
 29 31  1  0  0  0  0
 31 12  2  0  0  0  0
 31 32  1  0  0  0  0
M  END
> <ChemID>
100261

> <source_casrn>
92-94-4

> <CAS>
92-94-4

> <SMILES>
c1cc(ccc1-c1ccccc1)-c1ccccc1

> <NAME>
1,1':4',1''-Terphenyl

> <preferred_name>
1,1':4',1''-Terphenyl

> <iupac>
1,1':4',1''-terphenyl

> <MPID>
100271

> <dsstox_substance_id>
DTXSID6029121

> <Canonical_QSARr>
c1cc(ccc1-c1ccccc1)-c1ccccc1

> <InChI_Code_QSARr>
InChI=1S/C18H14/c1-3-7-15(8-4-1)17-11-13-18(14-12-17)16-9-5-2-6-10-16/h1-14H

> <InChI Key_QSARr>
XJKSTNDFUHDPQJ-UHFFFAOYSA-N

> <Salt_Solvent>
?

> <Ready_Biodeg>
0.0

$$$$
100262
  -INDIGO-08031722522D

 21 22  0  0  0  0  0  0  0  0999 V2000
    0.0001   -0.0000    0.0000 C   0  0  0  0  0  0  0  0  0  0  0  0
    1.3857    0.8000    0.0000 C   0  0  0  0  0  0  0  0  0  0  0  0
    1.3857    2.4000    0.0000 H   0  0  0  0  0  0  0  0  0  0  0  0
    2.7712   -0.0000    0.0000 C   0  0  0  0  0  0  0  0  0  0  0  0
    4.1569    0.8000    0.0000 C   0  0  0  0  0  0  0  0  0  0  0  0
    5.5425   -0.0000    0.0000 O   0  0  0  0  0  0  0  0  0  0  0  0
    6.9282    0.8000    0.0000 H   0  0  0  0  0  0  0  0  0  0  0  0
    4.1569    2.4000    0.0000 O   0  0  0  0  0  0  0  0  0  0  0  0
    2.7712   -1.6000    0.0000 C   0  0  0  0  0  0  0  0  0  0  0  0
    4.1569   -2.4000    0.0000 H   0  0  0  0  0  0  0  0  0  0  0  0
    1.3857   -2.4000    0.0000 C   0  0  0  0  0  0  0  0  0  0  0  0
    1.3857   -4.0000    0.0000 H   0  0  0  0  0  0  0  0  0  0  0  0
    0.0001   -1.6000    0.0000 C   0  0  0  0  0  0  0  0  0  0  0  0
   -1.3856   -2.4000    0.0000 C   0  0  0  0  0  0  0  0  0  0  0  0
   -1.3856   -4.0000    0.0000 H   0  0  0  0  0  0  0  0  0  0  0  0
   -2.7713   -1.6000    0.0000 C   0  0  0  0  0  0  0  0  0  0  0  0
   -4.1569   -2.4000    0.0000 H   0  0  0  0  0  0  0  0  0  0  0  0
   -2.7713   -0.0000    0.0000 C   0  0  0  0  0  0  0  0  0  0  0  0
   -4.1569    0.8000    0.0000 H   0  0  0  0  0  0  0  0  0  0  0  0
   -1.3856    0.8000    0.0000 C   0  0  0  0  0  0  0  0  0  0  0  0
   -1.3856    2.4000    0.0000 H   0  0  0  0  0  0  0  0  0  0  0  0
  1  2  1  0  0  0  0
  2  3  1  0  0  0  0
  2  4  2  0  0  0  0
  4  5  1  0  0  0  0
  5  6  1  0  0  0  0
  6  7  1  0  0  0  0
  5  8  2  0  0  0  0
  4  9  1  0  0  0  0
  9 10  1  0  0  0  0
  9 11  2  0  0  0  0
 11 12  1  0  0  0  0
 11 13  1  0  0  0  0
 13  1  1  0  0  0  0
 13 14  2  0  0  0  0
 14 15  1  0  0  0  0
 14 16  1  0  0  0  0
 16 17  1  0  0  0  0
 16 18  2  0  0  0  0
 18 19  1  0  0  0  0
 18 20  1  0  0  0  0
 20  1  2  0  0  0  0
 20 21  1  0  0  0  0
M  END
> <ChemID>
100262

> <source_casrn>
93-09-4

> <CAS>
93-09-4

> <SMILES>
OC(=O)c1cc2ccccc2cc1

> <NAME>
2-Naphthalenecarboxylic acid

> <preferred_name>
2-Naphthalenecarboxylic acid

> <iupac>
NAPHTHALENE-2-CARBOXYLIC ACID

> <MPID>
100272

> <dsstox_substance_id>
DTXSID1059078

> <Canonical_QSARr>
OC(=O)c1cc2ccccc2cc1

> <InChI_Code_QSARr>
InChI=1S/C11H8O2/c12-11(13)10-6-5-8-3-1-2-4-9(8)7-10/h1-7H,(H,12,13)

> <InChI Key_QSARr>
UOBYKYZJUGYBDK-UHFFFAOYSA-N

> <Salt_Solvent>
?

> <Ready_Biodeg>
1.0

$$$$
100263
  -INDIGO-08031722522D

 20 21  0  0  0  0  0  0  0  0999 V2000
    0.7999    1.3856    0.0000 C   0  0  0  0  0  0  0  0  0  0  0  0
    2.4001    1.3856    0.0000 N   0  0  0  0  0  0  0  0  0  0  0  0
    3.2001    0.0000    0.0000 C   0  0  0  0  0  0  0  0  0  0  0  0
    4.8000    0.0000    0.0000 C   0  0  0  0  0  0  0  0  0  0  0  0
    5.6000    1.3856    0.0000 O   0  0  0  0  0  0  0  0  0  0  0  0
    7.2000    1.3856    0.0000 H   0  0  0  0  0  0  0  0  0  0  0  0
    5.6000   -1.3856    0.0000 O   0  0  0  0  0  0  0  0  0  0  0  0
    2.4001   -1.3856    0.0000 C   0  0  0  0  0  0  0  0  0  0  0  0
    3.2001   -2.7713    0.0000 H   0  0  0  0  0  0  0  0  0  0  0  0
    0.7999   -1.3856    0.0000 C   0  0  0  0  0  0  0  0  0  0  0  0
   -0.0001   -2.7713    0.0000 H   0  0  0  0  0  0  0  0  0  0  0  0
   -0.0001    0.0000    0.0000 C   0  0  0  0  0  0  0  0  0  0  0  0
   -1.6000    0.0000    0.0000 C   0  0  0  0  0  0  0  0  0  0  0  0
   -2.4000   -1.3856    0.0000 H   0  0  0  0  0  0  0  0  0  0  0  0
   -2.4000    1.3856    0.0000 C   0  0  0  0  0  0  0  0  0  0  0  0
   -4.0000    1.3856    0.0000 H   0  0  0  0  0  0  0  0  0  0  0  0
   -1.6000    2.7713    0.0000 C   0  0  0  0  0  0  0  0  0  0  0  0
   -2.4000    4.1569    0.0000 H   0  0  0  0  0  0  0  0  0  0  0  0
   -0.0001    2.7713    0.0000 C   0  0  0  0  0  0  0  0  0  0  0  0
    0.7999    4.1569    0.0000 H   0  0  0  0  0  0  0  0  0  0  0  0
  1  2  1  0  0  0  0
  2  3  2  0  0  0  0
  3  4  1  0  0  0  0
  4  5  1  0  0  0  0
  5  6  1  0  0  0  0
  4  7  2  0  0  0  0
  3  8  1  0  0  0  0
  8  9  1  0  0  0  0
  8 10  2  0  0  0  0
 10 11  1  0  0  0  0
 10 12  1  0  0  0  0
 12  1  1  0  0  0  0
 12 13  2  0  0  0  0
 13 14  1  0  0  0  0
 13 15  1  0  0  0  0
 15 16  1  0  0  0  0
 15 17  2  0  0  0  0
 17 18  1  0  0  0  0
 17 19  1  0  0  0  0
 19  1  2  0  0  0  0
 19 20  1  0  0  0  0
M  END
> <ChemID>
100263

> <source_casrn>
93-10-7

> <CAS>
93-10-7

> <SMILES>
OC(=O)c1ccc2ccccc2[n]1

> <NAME>
2-Quinolinecarboxylic acid

> <preferred_name>
2-Quinolinecarboxylic acid

> <iupac>
Quinoline-2-carboxylic acid

> <MPID>
100273

> <dsstox_substance_id>
DTXSID6059079

> <Canonical_QSARr>
OC(=O)c1ccc2ccccc2[n]1

> <InChI_Code_QSARr>
InChI=1S/C10H7NO2/c12-10(13)9-6-5-7-3-1-2-4-8(7)11-9/h1-6H,(H,12,13)

> <InChI Key_QSARr>
LOAUVZALPPNFOQ-UHFFFAOYSA-N

> <Salt_Solvent>
?

> <Ready_Biodeg>
1.0

$$$$
100265
  -INDIGO-08031722522D

 27 27  0  0  0  0  0  0  0  0999 V2000
    2.7712   -0.0001    0.0000 C   0  0  0  0  0  0  0  0  0  0  0  0
    4.1569    0.8000    0.0000 C   0  0  0  0  0  0  0  0  0  0  0  0
    3.5446    2.2782    0.0000 H   0  0  0  0  0  0  0  0  0  0  0  0
    4.7693    2.2782    0.0000 H   0  0  0  0  0  0  0  0  0  0  0  0
    5.5426   -0.0001    0.0000 C   0  0  0  0  0  0  0  0  0  0  0  0
    6.9281    0.8000    0.0000 C   0  0  0  0  0  0  0  0  0  0  0  0
    8.3138    1.5999    0.0000 H   0  0  0  0  0  0  0  0  0  0  0  0
    8.3138   -0.0001    0.0000 H   0  0  0  0  0  0  0  0  0  0  0  0
    6.9281    2.4000    0.0000 H   0  0  0  0  0  0  0  0  0  0  0  0
    5.5426   -1.6001    0.0000 O   0  0  0  0  0  0  0  0  0  0  0  0
    1.3857    0.8000    0.0000 N   0  0  0  0  0  0  0  0  0  0  0  0
    1.3857    2.4000    0.0000 H   0  0  0  0  0  0  0  0  0  0  0  0
    0.0000   -0.0001    0.0000 C   0  0  0  0  0  0  0  0  0  0  0  0
   -1.3857    0.8000    0.0000 C   0  0  0  0  0  0  0  0  0  0  0  0
   -1.3857    2.4000    0.0000 C   0  0  0  0  0  0  0  0  0  0  0  0
   -1.3857    4.0000    0.0000 H   0  0  0  0  0  0  0  0  0  0  0  0
   -2.7712    3.2001    0.0000 H   0  0  0  0  0  0  0  0  0  0  0  0
    0.0000    3.2001    0.0000 H   0  0  0  0  0  0  0  0  0  0  0  0
   -2.7712    0.0001    0.0000 C   0  0  0  0  0  0  0  0  0  0  0  0
   -4.1569    0.8000    0.0000 H   0  0  0  0  0  0  0  0  0  0  0  0
   -2.7712   -1.6001    0.0000 C   0  0  0  0  0  0  0  0  0  0  0  0
   -4.1569   -2.4000    0.0000 H   0  0  0  0  0  0  0  0  0  0  0  0
   -1.3857   -2.4000    0.0000 C   0  0  0  0  0  0  0  0  0  0  0  0
   -1.3857   -4.0000    0.0000 H   0  0  0  0  0  0  0  0  0  0  0  0
    0.0000   -1.6001    0.0000 C   0  0  0  0  0  0  0  0  0  0  0  0
    1.3857   -2.4000    0.0000 H   0  0  0  0  0  0  0  0  0  0  0  0
    2.7712   -1.6001    0.0000 O   0  0  0  0  0  0  0  0  0  0  0  0
  1  2  1  0  0  0  0
  2  3  1  0  0  0  0
  2  4  1  0  0  0  0
  2  5  1  0  0  0  0
  5  6  1  0  0  0  0
  6  7  1  0  0  0  0
  6  8  1  0  0  0  0
  6  9  1  0  0  0  0
  5 10  2  0  0  0  0
  1 11  1  0  0  0  0
 11 12  1  0  0  0  0
 11 13  1  0  0  0  0
 13 14  1  0  0  0  0
 14 15  1  0  0  0  0
 15 16  1  0  0  0  0
 15 17  1  0  0  0  0
 15 18  1  0  0  0  0
 14 19  2  0  0  0  0
 19 20  1  0  0  0  0
 19 21  1  0  0  0  0
 21 22  1  0  0  0  0
 21 23  2  0  0  0  0
 23 24  1  0  0  0  0
 23 25  1  0  0  0  0
 25 13  2  0  0  0  0
 25 26  1  0  0  0  0
  1 27  2  0  0  0  0
M  END
> <ChemID>
100265

> <source_casrn>
93-68-5

> <CAS>
93-68-5

> <SMILES>
CC(=O)CC(=O)Nc1ccccc1C

> <NAME>
Butanamide, N-(2-methylphenyl)-3-oxo-

> <preferred_name>
N-(2-Methylphenyl)-3-oxobutanamide

> <iupac>
N-(2-methylphenyl)-3-oxobutanamide

> <MPID>
100275

> <dsstox_substance_id>
DTXSID3026562

> <Canonical_QSARr>
CC(=O)CC(=O)Nc1ccccc1C

> <InChI_Code_QSARr>
InChI=1S/C11H13NO2/c1-8-5-3-4-6-10(8)12-11(14)7-9(2)13/h3-6H,7H2,1-2H3,(H,12,14)

> <InChI Key_QSARr>
TVZIWRMELPWPPR-UHFFFAOYSA-N

> <Salt_Solvent>
?

> <Ready_Biodeg>
1.0

$$$$
100266
  -INDIGO-08031722522D

 22 22  0  0  0  0  0  0  0  0999 V2000
   -2.4001    1.3856    0.0000 Cl  0  0  0  0  0  0  0  0  0  0  0  0
   -3.2001    0.0000    0.0000 C   0  0  0  0  0  0  0  0  0  0  0  0
   -2.4001   -1.3856    0.0000 C   0  0  0  0  0  0  0  0  0  0  0  0
   -0.8000   -1.3856    0.0000 O   0  0  0  0  0  0  0  0  0  0  0  0
   -0.0000    0.0000    0.0000 C   0  0  0  0  0  0  0  0  0  0  0  0
   -1.3857    0.8000    0.0000 H   0  0  0  0  0  0  0  0  0  0  0  0
    1.3856   -0.8000    0.0000 C   0  0  0  0  0  0  0  0  0  0  0  0
    2.7713    0.0000    0.0000 O   0  0  0  0  0  0  0  0  0  0  0  0
    1.3856   -2.4000    0.0000 O   0  0  0  0  0  0  0  0  0  0  0  0
    2.7713   -3.2000    0.0000 H   0  0  0  0  0  0  0  0  0  0  0  0
    0.8000    1.3856    0.0000 C   0  0  0  0  0  0  0  0  0  0  0  0
    1.6000    2.7713    0.0000 H   0  0  0  0  0  0  0  0  0  0  0  0
    2.4000    1.3856    0.0000 H   0  0  0  0  0  0  0  0  0  0  0  0
   -0.0000    2.7713    0.0000 H   0  0  0  0  0  0  0  0  0  0  0  0
   -3.2001   -2.7713    0.0000 C   0  0  0  0  0  0  0  0  0  0  0  0
   -2.4001   -4.1569    0.0000 H   0  0  0  0  0  0  0  0  0  0  0  0
   -4.8000   -2.7713    0.0000 C   0  0  0  0  0  0  0  0  0  0  0  0
   -5.6000   -4.1569    0.0000 Cl  0  0  0  0  0  0  0  0  0  0  0  0
   -5.6000   -1.3856    0.0000 C   0  0  0  0  0  0  0  0  0  0  0  0
   -7.2000   -1.3856    0.0000 Cl  0  0  0  0  0  0  0  0  0  0  0  0
   -4.8000    0.0000    0.0000 C   0  0  0  0  0  0  0  0  0  0  0  0
   -5.6000    1.3856    0.0000 H   0  0  0  0  0  0  0  0  0  0  0  0
  1  2  1  0  0  0  0
  2  3  1  0  0  0  0
  3  4  1  0  0  0  0
  4  5  1  0  0  0  0
  5  6  1  0  0  0  0
  5  7  1  0  0  0  0
  7  8  2  0  0  0  0
  7  9  1  0  0  0  0
  9 10  1  0  0  0  0
  5 11  1  0  0  0  0
 11 12  1  0  0  0  0
 11 13  1  0  0  0  0
 11 14  1  0  0  0  0
  3 15  2  0  0  0  0
 15 16  1  0  0  0  0
 15 17  1  0  0  0  0
 17 18  1  0  0  0  0
 17 19  2  0  0  0  0
 19 20  1  0  0  0  0
 19 21  1  0  0  0  0
 21  2  2  0  0  0  0
 21 22  1  0  0  0  0
M  END
> <ChemID>
100266

> <source_casrn>
93-72-1

> <CAS>
93-72-1

> <SMILES>
CC(Oc1cc(Cl)c(Cl)cc1Cl)C(O)=O

> <NAME>
Silvex

> <preferred_name>
2-(2,4,5-Trichlorophenoxy)propionic acid

> <iupac>
2-(2,4,5-trichlorophenoxy)propanoic acid

> <MPID>
100276

> <dsstox_substance_id>
DTXSID0021387

> <Canonical_QSARr>
CC(Oc1cc(Cl)c(Cl)cc1Cl)C(O)=O

> <InChI_Code_QSARr>
InChI=1S/C9H7Cl3O3/c1-4(9(13)14)15-8-3-6(11)5(10)2-7(8)12/h2-4H,1H3,(H,13,14)

> <InChI Key_QSARr>
ZLSWBLPERHFHIS-UHFFFAOYSA-N

> <Salt_Solvent>
?

> <Ready_Biodeg>
0.0

$$$$
100267
  -INDIGO-08031722522D

 71 70  0  0  0  0  0  0  0  0999 V2000
  -12.5887   -0.5472    0.0000 N   0  0  0  0  0  0  0  0  0  0  0  0
  -11.0852   -0.0001    0.0000 C   0  0  0  0  0  0  0  0  0  0  0  0
   -9.6993   -0.8000    0.0000 C   0  0  0  0  0  0  0  0  0  0  0  0
   -9.0871   -2.2782    0.0000 H   0  0  0  0  0  0  0  0  0  0  0  0
  -10.3119   -2.2782    0.0000 H   0  0  0  0  0  0  0  0  0  0  0  0
   -8.3139   -0.0001    0.0000 C   0  0  0  0  0  0  0  0  0  0  0  0
   -8.9261    1.4782    0.0000 H   0  0  0  0  0  0  0  0  0  0  0  0
   -7.7017    1.4782    0.0000 H   0  0  0  0  0  0  0  0  0  0  0  0
   -6.9280   -0.8000    0.0000 C   0  0  0  0  0  0  0  0  0  0  0  0
   -6.3158   -2.2782    0.0000 H   0  0  0  0  0  0  0  0  0  0  0  0
   -7.5407   -2.2782    0.0000 H   0  0  0  0  0  0  0  0  0  0  0  0
   -5.5426   -0.0001    0.0000 C   0  0  0  0  0  0  0  0  0  0  0  0
   -6.1548    1.4782    0.0000 H   0  0  0  0  0  0  0  0  0  0  0  0
   -4.9304    1.4782    0.0000 H   0  0  0  0  0  0  0  0  0  0  0  0
   -4.1567   -0.8000    0.0000 C   0  0  0  0  0  0  0  0  0  0  0  0
   -3.5446   -2.2782    0.0000 H   0  0  0  0  0  0  0  0  0  0  0  0
   -4.7694   -2.2782    0.0000 H   0  0  0  0  0  0  0  0  0  0  0  0
   -2.7713   -0.0001    0.0000 C   0  0  0  0  0  0  0  0  0  0  0  0
   -3.3835    1.4782    0.0000 H   0  0  0  0  0  0  0  0  0  0  0  0
   -2.1591    1.4782    0.0000 H   0  0  0  0  0  0  0  0  0  0  0  0
   -1.3854   -0.8000    0.0000 C   0  0  0  0  0  0  0  0  0  0  0  0
   -0.7733   -2.2782    0.0000 H   0  0  0  0  0  0  0  0  0  0  0  0
   -1.9981   -2.2782    0.0000 H   0  0  0  0  0  0  0  0  0  0  0  0
   -0.0000   -0.0001    0.0000 C   0  0  0  0  0  0  0  0  0  0  0  0
   -0.6122    1.4782    0.0000 H   0  0  0  0  0  0  0  0  0  0  0  0
    0.6121    1.4782    0.0000 H   0  0  0  0  0  0  0  0  0  0  0  0
    1.3859   -0.8000    0.0000 C   0  0  0  0  0  0  0  0  0  0  0  0
    1.9980   -2.2782    0.0000 H   0  0  0  0  0  0  0  0  0  0  0  0
    0.7732   -2.2782    0.0000 H   0  0  0  0  0  0  0  0  0  0  0  0
    2.7713   -0.0001    0.0000 C   0  0  0  0  0  0  0  0  0  0  0  0
    2.1591    1.4782    0.0000 H   0  0  0  0  0  0  0  0  0  0  0  0
    3.3834    1.4782    0.0000 H   0  0  0  0  0  0  0  0  0  0  0  0
    4.1571   -0.8000    0.0000 C   0  0  0  0  0  0  0  0  0  0  0  0
    4.7693   -2.2782    0.0000 H   0  0  0  0  0  0  0  0  0  0  0  0
    3.5445   -2.2782    0.0000 H   0  0  0  0  0  0  0  0  0  0  0  0
    5.5425   -0.0001    0.0000 C   0  0  0  0  0  0  0  0  0  0  0  0
    4.9304    1.4782    0.0000 H   0  0  0  0  0  0  0  0  0  0  0  0
    6.1547    1.4782    0.0000 H   0  0  0  0  0  0  0  0  0  0  0  0
    6.9284   -0.8000    0.0000 C   0  0  0  0  0  0  0  0  0  0  0  0
    7.5406   -2.2782    0.0000 H   0  0  0  0  0  0  0  0  0  0  0  0
    6.3158   -2.2782    0.0000 H   0  0  0  0  0  0  0  0  0  0  0  0
    8.3138   -0.0001    0.0000 C   0  0  0  0  0  0  0  0  0  0  0  0
    7.7017    1.4782    0.0000 H   0  0  0  0  0  0  0  0  0  0  0  0
    8.9260    1.4782    0.0000 H   0  0  0  0  0  0  0  0  0  0  0  0
    9.6997   -0.8000    0.0000 C   0  0  0  0  0  0  0  0  0  0  0  0
   10.3119   -2.2782    0.0000 H   0  0  0  0  0  0  0  0  0  0  0  0
    9.0871   -2.2782    0.0000 H   0  0  0  0  0  0  0  0  0  0  0  0
   11.0851   -0.0001    0.0000 C   0  0  0  0  0  0  0  0  0  0  0  0
   10.4730    1.4782    0.0000 H   0  0  0  0  0  0  0  0  0  0  0  0
   11.6973    1.4782    0.0000 H   0  0  0  0  0  0  0  0  0  0  0  0
   12.4710   -0.8000    0.0000 C   0  0  0  0  0  0  0  0  0  0  0  0
   13.8564   -1.6000    0.0000 H   0  0  0  0  0  0  0  0  0  0  0  0
   13.8564   -0.0001    0.0000 H   0  0  0  0  0  0  0  0  0  0  0  0
   12.4710   -2.4000    0.0000 H   0  0  0  0  0  0  0  0  0  0  0  0
  -10.8074    1.5757    0.0000 O   0  0  0  0  0  0  0  0  0  0  0  0
  -13.8144    0.4813    0.0000 C   0  0  0  0  0  0  0  0  0  0  0  0
  -15.4129    0.5510    0.0000 H   0  0  0  0  0  0  0  0  0  0  0  0
  -14.9939   -0.5997    0.0000 H   0  0  0  0  0  0  0  0  0  0  0  0
  -13.5367    2.0569    0.0000 C   0  0  0  0  0  0  0  0  0  0  0  0
  -11.9378    1.9872    0.0000 H   0  0  0  0  0  0  0  0  0  0  0  0
  -12.3567    3.1378    0.0000 H   0  0  0  0  0  0  0  0  0  0  0  0
  -14.7620    3.0854    0.0000 O   0  0  0  0  0  0  0  0  0  0  0  0
  -14.4842    4.6611    0.0000 H   0  0  0  0  0  0  0  0  0  0  0  0
  -12.8664   -2.1229    0.0000 C   0  0  0  0  0  0  0  0  0  0  0  0
  -11.3407   -2.6041    0.0000 H   0  0  0  0  0  0  0  0  0  0  0  0
  -12.1277   -3.5422    0.0000 H   0  0  0  0  0  0  0  0  0  0  0  0
  -14.3699   -2.6702    0.0000 C   0  0  0  0  0  0  0  0  0  0  0  0
  -15.2296   -4.0196    0.0000 H   0  0  0  0  0  0  0  0  0  0  0  0
  -14.0237   -4.2322    0.0000 H   0  0  0  0  0  0  0  0  0  0  0  0
  -15.5957   -1.6417    0.0000 O   0  0  0  0  0  0  0  0  0  0  0  0
  -17.0992   -2.1889    0.0000 H   0  0  0  0  0  0  0  0  0  0  0  0
  1  2  1  0  0  0  0
  2  3  1  0  0  0  0
  3  4  1  0  0  0  0
  3  5  1  0  0  0  0
  3  6  1  0  0  0  0
  6  7  1  0  0  0  0
  6  8  1  0  0  0  0
  6  9  1  0  0  0  0
  9 10  1  0  0  0  0
  9 11  1  0  0  0  0
  9 12  1  0  0  0  0
 12 13  1  0  0  0  0
 12 14  1  0  0  0  0
 12 15  1  0  0  0  0
 15 16  1  0  0  0  0
 15 17  1  0  0  0  0
 15 18  1  0  0  0  0
 18 19  1  0  0  0  0
 18 20  1  0  0  0  0
 18 21  1  0  0  0  0
 21 22  1  0  0  0  0
 21 23  1  0  0  0  0
 21 24  1  0  0  0  0
 24 25  1  0  0  0  0
 24 26  1  0  0  0  0
 24 27  1  0  0  0  0
 27 28  1  0  0  0  0
 27 29  1  0  0  0  0
 27 30  1  0  0  0  0
 30 31  1  0  0  0  0
 30 32  1  0  0  0  0
 30 33  1  0  0  0  0
 33 34  1  0  0  0  0
 33 35  1  0  0  0  0
 33 36  1  0  0  0  0
 36 37  1  0  0  0  0
 36 38  1  0  0  0  0
 36 39  1  0  0  0  0
 39 40  1  0  0  0  0
 39 41  1  0  0  0  0
 39 42  1  0  0  0  0
 42 43  1  0  0  0  0
 42 44  1  0  0  0  0
 42 45  1  0  0  0  0
 45 46  1  0  0  0  0
 45 47  1  0  0  0  0
 45 48  1  0  0  0  0
 48 49  1  0  0  0  0
 48 50  1  0  0  0  0
 48 51  1  0  0  0  0
 51 52  1  0  0  0  0
 51 53  1  0  0  0  0
 51 54  1  0  0  0  0
  2 55  2  0  0  0  0
  1 56  1  0  0  0  0
 56 57  1  0  0  0  0
 56 58  1  0  0  0  0
 56 59  1  0  0  0  0
 59 60  1  0  0  0  0
 59 61  1  0  0  0  0
 59 62  1  0  0  0  0
 62 63  1  0  0  0  0
  1 64  1  0  0  0  0
 64 65  1  0  0  0  0
 64 66  1  0  0  0  0
 64 67  1  0  0  0  0
 67 68  1  0  0  0  0
 67 69  1  0  0  0  0
 67 70  1  0  0  0  0
 70 71  1  0  0  0  0
M  END
> <ChemID>
100267

> <source_casrn>
93-82-3

> <CAS>
93-82-3

> <SMILES>
CCCCCCCCCCCCCCCCCC(=O)N(CCO)CCO

> <NAME>
Octadecanamide, N,N-bis(2-hydroxyethyl)-

> <preferred_name>
Octadecanamide, N,N-bis(2-hydroxyethyl)-

> <iupac>
N,N-Bis(2-hydroxyethyl)octadecanamide

> <MPID>
100277

> <dsstox_substance_id>
DTXSID4059091

> <Canonical_QSARr>
CCCCCCCCCCCCCCCCCC(=O)N(CCO)CCO

> <InChI_Code_QSARr>
InChI=1S/C22H45NO3/c1-2-3-4-5-6-7-8-9-10-11-12-13-14-15-16-17-22(26)23(18-20-24)19-21-25/h24-25H,2-21H2,1H3

> <InChI Key_QSARr>
XGZOMURMPLSSKQ-UHFFFAOYSA-N

> <Salt_Solvent>
?

> <Ready_Biodeg>
1.0

$$$$
100269
  -INDIGO-08031722522D

 28 29  0  0  0  0  0  0  0  0999 V2000
   -5.5425   -1.6000    0.0000 O   0  0  0  0  0  0  0  0  0  0  0  0
   -5.5425    0.0000    0.0000 C   0  0  0  0  0  0  0  0  0  0  0  0
   -6.9282    0.8000    0.0000 C   0  0  0  0  0  0  0  0  0  0  0  0
   -6.9282    2.4000    0.0000 C   0  0  0  0  0  0  0  0  0  0  0  0
   -5.5425    3.2001    0.0000 H   0  0  0  0  0  0  0  0  0  0  0  0
   -8.3139    3.2001    0.0000 C   0  0  0  0  0  0  0  0  0  0  0  0
   -8.3139    4.8000    0.0000 H   0  0  0  0  0  0  0  0  0  0  0  0
   -9.6994    2.4000    0.0000 C   0  0  0  0  0  0  0  0  0  0  0  0
  -11.0851    3.2001    0.0000 H   0  0  0  0  0  0  0  0  0  0  0  0
   -9.6994    0.8000    0.0000 C   0  0  0  0  0  0  0  0  0  0  0  0
  -11.0851    0.0000    0.0000 H   0  0  0  0  0  0  0  0  0  0  0  0
   -8.3139    0.0000    0.0000 C   0  0  0  0  0  0  0  0  0  0  0  0
   -8.3139   -1.6000    0.0000 H   0  0  0  0  0  0  0  0  0  0  0  0
   -4.1568    0.8000    0.0000 O   0  0  0  0  0  0  0  0  0  0  0  0
   -2.7714    0.0000    0.0000 O   0  0  0  0  0  0  0  0  0  0  0  0
   -1.3857    0.8000    0.0000 C   0  0  0  0  0  0  0  0  0  0  0  0
   -1.3857    2.4000    0.0000 O   0  0  0  0  0  0  0  0  0  0  0  0
    0.0000    0.0000    0.0000 C   0  0  0  0  0  0  0  0  0  0  0  0
    0.0000   -1.6000    0.0000 C   0  0  0  0  0  0  0  0  0  0  0  0
   -1.3857   -2.4001    0.0000 H   0  0  0  0  0  0  0  0  0  0  0  0
    1.3857   -2.4001    0.0000 C   0  0  0  0  0  0  0  0  0  0  0  0
    1.3857   -4.0000    0.0000 H   0  0  0  0  0  0  0  0  0  0  0  0
    2.7712   -1.6000    0.0000 C   0  0  0  0  0  0  0  0  0  0  0  0
    4.1569   -2.4001    0.0000 H   0  0  0  0  0  0  0  0  0  0  0  0
    2.7712    0.0000    0.0000 C   0  0  0  0  0  0  0  0  0  0  0  0
    4.1569    0.8000    0.0000 H   0  0  0  0  0  0  0  0  0  0  0  0
    1.3857    0.8000    0.0000 C   0  0  0  0  0  0  0  0  0  0  0  0
    1.3857    2.4000    0.0000 H   0  0  0  0  0  0  0  0  0  0  0  0
  1  2  2  0  0  0  0
  2  3  1  0  0  0  0
  3  4  1  0  0  0  0
  4  5  1  0  0  0  0
  4  6  2  0  0  0  0
  6  7  1  0  0  0  0
  6  8  1  0  0  0  0
  8  9  1  0  0  0  0
  8 10  2  0  0  0  0
 10 11  1  0  0  0  0
 10 12  1  0  0  0  0
 12  3  2  0  0  0  0
 12 13  1  0  0  0  0
  2 14  1  0  0  0  0
 14 15  1  0  0  0  0
 15 16  1  0  0  0  0
 16 17  2  0  0  0  0
 16 18  1  0  0  0  0
 18 19  1  0  0  0  0
 19 20  1  0  0  0  0
 19 21  2  0  0  0  0
 21 22  1  0  0  0  0
 21 23  1  0  0  0  0
 23 24  1  0  0  0  0
 23 25  2  0  0  0  0
 25 26  1  0  0  0  0
 25 27  1  0  0  0  0
 27 18  2  0  0  0  0
 27 28  1  0  0  0  0
M  END
> <ChemID>
100269

> <source_casrn>
94-36-0

> <CAS>
94-36-0

> <SMILES>
O=C(OOC(=O)c1ccccc1)c1ccccc1

> <NAME>
Peroxide, dibenzoyl

> <preferred_name>
Benzoyl peroxide

> <iupac>
diphenylperoxyanhydride

> <MPID>
100279

> <dsstox_substance_id>
DTXSID6024591

> <Canonical_QSARr>
O=C(OOC(=O)c1ccccc1)c1ccccc1

> <InChI_Code_QSARr>
InChI=1S/C14H10O4/c15-13(11-7-3-1-4-8-11)17-18-14(16)12-9-5-2-6-10-12/h1-10H

> <InChI Key_QSARr>
OMPJBNCRMGITSC-UHFFFAOYSA-N

> <Salt_Solvent>
?

> <Ready_Biodeg>
1.0

$$$$
100270
  -INDIGO-08031722522D

 17 18  0  0  0  0  0  0  0  0999 V2000
   -5.6000    1.3856    0.0000 O   0  0  0  0  0  0  0  0  0  0  0  0
   -4.8000   -0.0000    0.0000 N   0  0  0  0  0  0  0  0  0  0  0  0
   -3.2001   -0.0000    0.0000 C   0  0  0  0  0  0  0  0  0  0  0  0
   -2.4000    1.3856    0.0000 C   0  0  0  0  0  0  0  0  0  0  0  0
   -3.2001    2.7713    0.0000 H   0  0  0  0  0  0  0  0  0  0  0  0
   -0.8000    1.3856    0.0000 C   0  0  0  0  0  0  0  0  0  0  0  0
    0.0000   -0.0000    0.0000 C   0  0  0  0  0  0  0  0  0  0  0  0
    1.5651    0.3327    0.0000 N   0  0  0  0  0  0  0  0  0  0  0  0
    2.7541   -0.7380    0.0000 H   0  0  0  0  0  0  0  0  0  0  0  0
    1.7323    1.9239    0.0000 C   0  0  0  0  0  0  0  0  0  0  0  0
    3.1179    2.7239    0.0000 H   0  0  0  0  0  0  0  0  0  0  0  0
    0.2706    2.5746    0.0000 N   0  0  0  0  0  0  0  0  0  0  0  0
   -0.8000   -1.3856    0.0000 C   0  0  0  0  0  0  0  0  0  0  0  0
    0.0000   -2.7713    0.0000 H   0  0  0  0  0  0  0  0  0  0  0  0
   -2.4000   -1.3856    0.0000 C   0  0  0  0  0  0  0  0  0  0  0  0
   -3.2001   -2.7713    0.0000 H   0  0  0  0  0  0  0  0  0  0  0  0
   -5.6000   -1.3856    0.0000 O   0  0  0  0  0  0  0  0  0  0  0  0
  1  2  2  0  0  0  0
  2  3  1  0  0  0  0
  3  4  1  0  0  0  0
  4  5  1  0  0  0  0
  4  6  2  0  0  0  0
  6  7  1  0  0  0  0
  7  8  1  0  0  0  0
  8  9  1  0  0  0  0
  8 10  1  0  0  0  0
 10 11  1  0  0  0  0
 10 12  2  0  0  0  0
 12  6  1  0  0  0  0
  7 13  2  0  0  0  0
 13 14  1  0  0  0  0
 13 15  1  0  0  0  0
 15  3  2  0  0  0  0
 15 16  1  0  0  0  0
  2 17  1  0  0  0  0
M  CHG  2   2   1  17  -1
M  END
> <ChemID>
100270

> <source_casrn>
94-52-0

> <CAS>
94-52-0

> <SMILES>
[O-][N+](=O)c1cc2[n]c[nH]c2cc1

> <NAME>
1H-Benzimidazole, 5-nitro-

> <preferred_name>
6-Nitrobenzimidazole

> <iupac>
5-nitro-1H-benzimidazole

> <MPID>
100280

> <dsstox_substance_id>
DTXSID8020965

> <Canonical_QSARr>
[O-][N+](=O)c1cc2[n]c[nH]c2cc1

> <InChI_Code_QSARr>
InChI=1S/C7H5N3O2/c11-10(12)5-1-2-6-7(3-5)9-4-8-6/h1-4H,(H,8,9)

> <InChI Key_QSARr>
XPAZGLFMMUODDK-UHFFFAOYSA-N

> <Salt_Solvent>
?

> <Ready_Biodeg>
0.0

$$$$
100271
  -INDIGO-08031722522D

 19 19  0  0  0  0  0  0  0  0999 V2000
   -4.1569    0.8000    0.0000 C   0  0  0  0  0  0  0  0  0  0  0  0
   -4.1569    2.4000    0.0000 O   0  0  0  0  0  0  0  0  0  0  0  0
   -5.5425   -0.0000    0.0000 O   0  0  0  0  0  0  0  0  0  0  0  0
   -6.9282    0.8000    0.0000 H   0  0  0  0  0  0  0  0  0  0  0  0
   -2.7712   -0.0000    0.0000 C   0  0  0  0  0  0  0  0  0  0  0  0
   -2.1591   -1.4782    0.0000 H   0  0  0  0  0  0  0  0  0  0  0  0
   -3.3835   -1.4782    0.0000 H   0  0  0  0  0  0  0  0  0  0  0  0
   -1.3856    0.8000    0.0000 O   0  0  0  0  0  0  0  0  0  0  0  0
   -0.0001   -0.0000    0.0000 C   0  0  0  0  0  0  0  0  0  0  0  0
   -0.0001   -1.6000    0.0000 C   0  0  0  0  0  0  0  0  0  0  0  0
   -1.3857   -2.4000    0.0000 Cl  0  0  0  0  0  0  0  0  0  0  0  0
    1.3856   -2.4000    0.0000 C   0  0  0  0  0  0  0  0  0  0  0  0
    1.3856   -4.0000    0.0000 H   0  0  0  0  0  0  0  0  0  0  0  0
    2.7713   -1.6000    0.0000 C   0  0  0  0  0  0  0  0  0  0  0  0
    4.1569   -2.4000    0.0000 Cl  0  0  0  0  0  0  0  0  0  0  0  0
    2.7713   -0.0000    0.0000 C   0  0  0  0  0  0  0  0  0  0  0  0
    4.1569    0.8000    0.0000 H   0  0  0  0  0  0  0  0  0  0  0  0
    1.3856    0.8000    0.0000 C   0  0  0  0  0  0  0  0  0  0  0  0
    1.3856    2.4000    0.0000 H   0  0  0  0  0  0  0  0  0  0  0  0
  1  2  2  0  0  0  0
  1  3  1  0  0  0  0
  3  4  1  0  0  0  0
  1  5  1  0  0  0  0
  5  6  1  0  0  0  0
  5  7  1  0  0  0  0
  5  8  1  0  0  0  0
  8  9  1  0  0  0  0
  9 10  1  0  0  0  0
 10 11  1  0  0  0  0
 10 12  2  0  0  0  0
 12 13  1  0  0  0  0
 12 14  1  0  0  0  0
 14 15  1  0  0  0  0
 14 16  2  0  0  0  0
 16 17  1  0  0  0  0
 16 18  1  0  0  0  0
 18  9  2  0  0  0  0
 18 19  1  0  0  0  0
M  END
> <ChemID>
100271

> <source_casrn>
94-75-7

> <CAS>
94-75-7

> <SMILES>
OC(=O)COc1ccc(Cl)cc1Cl

> <NAME>
2,4-D

> <preferred_name>
2,4-Dichlorophenoxyacetic acid

> <iupac>
(2,4-dichlorophenoxy)acetic acid

> <MPID>
100281

> <dsstox_substance_id>
DTXSID0020442

> <Canonical_QSARr>
OC(=O)COc1ccc(Cl)cc1Cl

> <InChI_Code_QSARr>
InChI=1S/C8H6Cl2O3/c9-5-1-2-7(6(10)3-5)13-4-8(11)12/h1-3H,4H2,(H,11,12)

> <InChI Key_QSARr>
OVSKIKFHRZPJSS-UHFFFAOYSA-N

> <Salt_Solvent>
?

> <Ready_Biodeg>
0.0

$$$$
100274
  -INDIGO-08031722522D

 33 35  0  0  0  0  0  0  0  0999 V2000
    4.6738    1.6040    0.0000 N   0  0  0  0  0  0  0  0  0  0  0  0
    4.2327    0.0660    0.0000 C   0  0  0  0  0  0  0  0  0  0  0  0
    2.7291   -0.4813    0.0000 S   0  0  0  0  0  0  0  0  0  0  0  0
    1.5035    0.5472    0.0000 N   0  0  0  0  0  0  0  0  0  0  0  0
    1.7812    2.1230    0.0000 H   0  0  0  0  0  0  0  0  0  0  0  0
   -0.0001    0.0000    0.0000 C   0  0  0  0  0  0  0  0  0  0  0  0
    1.2257   -1.0285    0.0000 H   0  0  0  0  0  0  0  0  0  0  0  0
   -0.7999    1.3856    0.0000 C   0  0  0  0  0  0  0  0  0  0  0  0
    0.7034    1.9329    0.0000 H   0  0  0  0  0  0  0  0  0  0  0  0
   -1.0779    2.9614    0.0000 H   0  0  0  0  0  0  0  0  0  0  0  0
   -2.4000    1.3856    0.0000 C   0  0  0  0  0  0  0  0  0  0  0  0
   -2.1223    2.9614    0.0000 H   0  0  0  0  0  0  0  0  0  0  0  0
   -3.9036    1.9329    0.0000 H   0  0  0  0  0  0  0  0  0  0  0  0
   -3.2001    0.0000    0.0000 C   0  0  0  0  0  0  0  0  0  0  0  0
   -4.4257    1.0284    0.0000 H   0  0  0  0  0  0  0  0  0  0  0  0
   -4.4257   -1.0285    0.0000 H   0  0  0  0  0  0  0  0  0  0  0  0
   -2.4000   -1.3856    0.0000 C   0  0  0  0  0  0  0  0  0  0  0  0
   -3.9036   -1.9328    0.0000 H   0  0  0  0  0  0  0  0  0  0  0  0
   -2.1223   -2.9613    0.0000 H   0  0  0  0  0  0  0  0  0  0  0  0
   -0.7999   -1.3856    0.0000 C   0  0  0  0  0  0  0  0  0  0  0  0
   -1.0779   -2.9613    0.0000 H   0  0  0  0  0  0  0  0  0  0  0  0
    0.7034   -1.9328    0.0000 H   0  0  0  0  0  0  0  0  0  0  0  0
    5.5591   -0.8287    0.0000 S   0  0  0  0  0  0  0  0  0  0  0  0
    6.8200    0.1564    0.0000 C   0  0  0  0  0  0  0  0  0  0  0  0
    6.2727    1.6599    0.0000 C   0  0  0  0  0  0  0  0  0  0  0  0
    7.3011    2.8855    0.0000 C   0  0  0  0  0  0  0  0  0  0  0  0
    6.7541    4.3890    0.0000 H   0  0  0  0  0  0  0  0  0  0  0  0
    8.8769    2.6077    0.0000 C   0  0  0  0  0  0  0  0  0  0  0  0
    9.9053    3.8334    0.0000 H   0  0  0  0  0  0  0  0  0  0  0  0
    9.4242    1.1042    0.0000 C   0  0  0  0  0  0  0  0  0  0  0  0
   10.9998    0.8264    0.0000 H   0  0  0  0  0  0  0  0  0  0  0  0
    8.3956   -0.1215    0.0000 C   0  0  0  0  0  0  0  0  0  0  0  0
    8.9428   -1.6250    0.0000 H   0  0  0  0  0  0  0  0  0  0  0  0
  1  2  2  0  0  0  0
  2  3  1  0  0  0  0
  3  4  1  0  0  0  0
  4  5  1  0  0  0  0
  4  6  1  0  0  0  0
  6  7  1  0  0  0  0
  6  8  1  0  0  0  0
  8  9  1  0  0  0  0
  8 10  1  0  0  0  0
  8 11  1  0  0  0  0
 11 12  1  0  0  0  0
 11 13  1  0  0  0  0
 11 14  1  0  0  0  0
 14 15  1  0  0  0  0
 14 16  1  0  0  0  0
 14 17  1  0  0  0  0
 17 18  1  0  0  0  0
 17 19  1  0  0  0  0
 17 20  1  0  0  0  0
 20  6  1  0  0  0  0
 20 21  1  0  0  0  0
 20 22  1  0  0  0  0
  2 23  1  0  0  0  0
 23 24  1  0  0  0  0
 24 25  1  0  0  0  0
 25  1  1  0  0  0  0
 25 26  2  0  0  0  0
 26 27  1  0  0  0  0
 26 28  1  0  0  0  0
 28 29  1  0  0  0  0
 28 30  2  0  0  0  0
 30 31  1  0  0  0  0
 30 32  1  0  0  0  0
 32 24  2  0  0  0  0
 32 33  1  0  0  0  0
M  END
> <ChemID>
100274

> <source_casrn>
95-33-0

> <CAS>
95-33-0

> <SMILES>
C1CCCCC1NSc1[n]c2ccccc2[s]1

> <NAME>
2-Benzothiazolesulfenamide, N-cyclohexyl-

> <preferred_name>
N-Cyclohexyl-2-benzothiazolesulfenamide

> <iupac>
N-(1,3-benzothiazol-2-ylsulfanyl)cyclohexanamine

> <MPID>
100283

> <dsstox_substance_id>
DTXSID5020360

> <Canonical_QSARr>
C1CCCCC1NSc1[n]c2ccccc2[s]1

> <InChI_Code_QSARr>
InChI=1S/C13H16N2S2/c1-2-6-10(7-3-1)15-17-13-14-11-8-4-5-9-12(11)16-13/h4-5,8-10,15H,1-3,6-7H2

> <InChI Key_QSARr>
DEQZTKGFXNUBJL-UHFFFAOYSA-N

> <Salt_Solvent>
?

> <Ready_Biodeg>
0.0

$$$$
100275
  -INDIGO-08031722522D

 18 18  0  0  0  0  0  0  0  0999 V2000
    1.3856    2.4000    0.0000 C   0  0  0  0  0  0  0  0  0  0  0  0
    1.3856    4.0000    0.0000 H   0  0  0  0  0  0  0  0  0  0  0  0
    0.0000    1.6000    0.0000 C   0  0  0  0  0  0  0  0  0  0  0  0
   -1.3856    2.4000    0.0000 C   0  0  0  0  0  0  0  0  0  0  0  0
   -2.7713    3.2000    0.0000 H   0  0  0  0  0  0  0  0  0  0  0  0
   -1.3856    4.0000    0.0000 H   0  0  0  0  0  0  0  0  0  0  0  0
   -2.7713    1.6000    0.0000 H   0  0  0  0  0  0  0  0  0  0  0  0
    0.0000    0.0000    0.0000 C   0  0  0  0  0  0  0  0  0  0  0  0
   -1.3856   -0.8000    0.0000 C   0  0  0  0  0  0  0  0  0  0  0  0
   -2.7713   -1.6000    0.0000 H   0  0  0  0  0  0  0  0  0  0  0  0
   -1.3856   -2.4000    0.0000 H   0  0  0  0  0  0  0  0  0  0  0  0
   -2.7713    0.0000    0.0000 H   0  0  0  0  0  0  0  0  0  0  0  0
    1.3856   -0.8000    0.0000 C   0  0  0  0  0  0  0  0  0  0  0  0
    1.3856   -2.4000    0.0000 H   0  0  0  0  0  0  0  0  0  0  0  0
    2.7713    0.0000    0.0000 C   0  0  0  0  0  0  0  0  0  0  0  0
    4.1569   -0.8000    0.0000 H   0  0  0  0  0  0  0  0  0  0  0  0
    2.7713    1.6000    0.0000 C   0  0  0  0  0  0  0  0  0  0  0  0
    4.1569    2.4000    0.0000 H   0  0  0  0  0  0  0  0  0  0  0  0
  1  2  1  0  0  0  0
  1  3  1  0  0  0  0
  3  4  1  0  0  0  0
  4  5  1  0  0  0  0
  4  6  1  0  0  0  0
  4  7  1  0  0  0  0
  3  8  2  0  0  0  0
  8  9  1  0  0  0  0
  9 10  1  0  0  0  0
  9 11  1  0  0  0  0
  9 12  1  0  0  0  0
  8 13  1  0  0  0  0
 13 14  1  0  0  0  0
 13 15  2  0  0  0  0
 15 16  1  0  0  0  0
 15 17  1  0  0  0  0
 17  1  2  0  0  0  0
 17 18  1  0  0  0  0
M  END
> <ChemID>
100275

> <source_casrn>
95-47-6

> <CAS>
95-47-6

> <SMILES>
Cc1ccccc1C

> <NAME>
Benzene, 1,2-dimethyl-

> <preferred_name>
o-Xylene

> <iupac>
C8H10

> <MPID>
100284

> <dsstox_substance_id>
DTXSID3021807

> <Canonical_QSARr>
Cc1ccccc1C

> <InChI_Code_QSARr>
InChI=1S/C8H10/c1-7-5-3-4-6-8(7)2/h3-6H,1-2H3

> <InChI Key_QSARr>
CTQNGGLPUBDAKN-UHFFFAOYSA-N

> <Salt_Solvent>
?

> <Ready_Biodeg>
1.0

$$$$
100276
  -INDIGO-08031722522D

 16 16  0  0  0  0  0  0  0  0999 V2000
   -1.3856    2.4000    0.0000 O   0  0  0  0  0  0  0  0  0  0  0  0
   -1.3856    4.0000    0.0000 H   0  0  0  0  0  0  0  0  0  0  0  0
    0.0000    1.6000    0.0000 C   0  0  0  0  0  0  0  0  0  0  0  0
    0.0000    0.0000    0.0000 C   0  0  0  0  0  0  0  0  0  0  0  0
   -1.3856   -0.8000    0.0000 C   0  0  0  0  0  0  0  0  0  0  0  0
   -2.7713   -1.6000    0.0000 H   0  0  0  0  0  0  0  0  0  0  0  0
   -1.3856   -2.4000    0.0000 H   0  0  0  0  0  0  0  0  0  0  0  0
   -2.7713    0.0000    0.0000 H   0  0  0  0  0  0  0  0  0  0  0  0
    1.3856   -0.8000    0.0000 C   0  0  0  0  0  0  0  0  0  0  0  0
    1.3856   -2.4000    0.0000 H   0  0  0  0  0  0  0  0  0  0  0  0
    2.7713    0.0000    0.0000 C   0  0  0  0  0  0  0  0  0  0  0  0
    4.1569   -0.8000    0.0000 H   0  0  0  0  0  0  0  0  0  0  0  0
    2.7713    1.6000    0.0000 C   0  0  0  0  0  0  0  0  0  0  0  0
    4.1569    2.4000    0.0000 H   0  0  0  0  0  0  0  0  0  0  0  0
    1.3856    2.4000    0.0000 C   0  0  0  0  0  0  0  0  0  0  0  0
    1.3856    4.0000    0.0000 H   0  0  0  0  0  0  0  0  0  0  0  0
  1  2  1  0  0  0  0
  1  3  1  0  0  0  0
  3  4  1  0  0  0  0
  4  5  1  0  0  0  0
  5  6  1  0  0  0  0
  5  7  1  0  0  0  0
  5  8  1  0  0  0  0
  4  9  2  0  0  0  0
  9 10  1  0  0  0  0
  9 11  1  0  0  0  0
 11 12  1  0  0  0  0
 11 13  2  0  0  0  0
 13 14  1  0  0  0  0
 13 15  1  0  0  0  0
 15  3  2  0  0  0  0
 15 16  1  0  0  0  0
M  END
> <ChemID>
100276

> <source_casrn>
95-48-7

> <CAS>
95-48-7

> <SMILES>
Cc1ccccc1O

> <NAME>
2-Cresol

> <preferred_name>
o-Cresol

> <iupac>
2-methylphenol

> <MPID>
100285

> <dsstox_substance_id>
DTXSID8021808

> <Canonical_QSARr>
Cc1ccccc1O

> <InChI_Code_QSARr>
InChI=1S/C7H8O/c1-6-4-2-3-5-7(6)8/h2-5,8H,1H3

> <InChI Key_QSARr>
QWVGKYWNOKOFNN-UHFFFAOYSA-N

> <Salt_Solvent>
?

> <Ready_Biodeg>
1.0

$$$$
100278
  -INDIGO-08031722522D

 12 12  0  0  0  0  0  0  0  0999 V2000
    0.8000    1.3856    0.0000 Cl  0  0  0  0  0  0  0  0  0  0  0  0
   -0.0000   -0.0000    0.0000 C   0  0  0  0  0  0  0  0  0  0  0  0
    0.8000   -1.3857    0.0000 C   0  0  0  0  0  0  0  0  0  0  0  0
    2.4000   -1.3857    0.0000 Cl  0  0  0  0  0  0  0  0  0  0  0  0
   -0.0000   -2.7713    0.0000 C   0  0  0  0  0  0  0  0  0  0  0  0
    0.8000   -4.1569    0.0000 H   0  0  0  0  0  0  0  0  0  0  0  0
   -1.6000   -2.7713    0.0000 C   0  0  0  0  0  0  0  0  0  0  0  0
   -2.4000   -4.1569    0.0000 H   0  0  0  0  0  0  0  0  0  0  0  0
   -2.4000   -1.3856    0.0000 C   0  0  0  0  0  0  0  0  0  0  0  0
   -4.0000   -1.3856    0.0000 H   0  0  0  0  0  0  0  0  0  0  0  0
   -1.6000   -0.0000    0.0000 C   0  0  0  0  0  0  0  0  0  0  0  0
   -2.4000    1.3856    0.0000 H   0  0  0  0  0  0  0  0  0  0  0  0
  1  2  1  0  0  0  0
  2  3  1  0  0  0  0
  3  4  1  0  0  0  0
  3  5  2  0  0  0  0
  5  6  1  0  0  0  0
  5  7  1  0  0  0  0
  7  8  1  0  0  0  0
  7  9  2  0  0  0  0
  9 10  1  0  0  0  0
  9 11  1  0  0  0  0
 11  2  2  0  0  0  0
 11 12  1  0  0  0  0
M  END
> <ChemID>
100278

> <source_casrn>
95-50-1

> <CAS>
95-50-1

> <SMILES>
Clc1ccccc1Cl

> <NAME>
Benzene, 1,2-dichloro-

> <preferred_name>
1,2-Dichlorobenzene

> <iupac>
1,2-dichlorobenzene

> <MPID>
100287

> <dsstox_substance_id>
DTXSID6020430

> <Canonical_QSARr>
Clc1ccccc1Cl

> <InChI_Code_QSARr>
InChI=1S/C6H4Cl2/c7-5-3-1-2-4-6(5)8/h1-4H

> <InChI Key_QSARr>
RFFLAFLAYFXFSW-UHFFFAOYSA-N

> <Salt_Solvent>
?

> <Ready_Biodeg>
0.0

$$$$
100279
  -INDIGO-08031722522D

 14 14  0  0  0  0  0  0  0  0999 V2000
    1.6000   -0.0000    0.0000 N   0  0  0  0  0  0  0  0  0  0  0  0
    2.4000    1.3856    0.0000 H   0  0  0  0  0  0  0  0  0  0  0  0
    2.4000   -1.3856    0.0000 H   0  0  0  0  0  0  0  0  0  0  0  0
    0.0000   -0.0000    0.0000 C   0  0  0  0  0  0  0  0  0  0  0  0
   -0.8000    1.3856    0.0000 C   0  0  0  0  0  0  0  0  0  0  0  0
    0.0000    2.7713    0.0000 Cl  0  0  0  0  0  0  0  0  0  0  0  0
   -2.4000    1.3856    0.0000 C   0  0  0  0  0  0  0  0  0  0  0  0
   -3.2000    2.7713    0.0000 H   0  0  0  0  0  0  0  0  0  0  0  0
   -3.2000   -0.0000    0.0000 C   0  0  0  0  0  0  0  0  0  0  0  0
   -4.8000   -0.0000    0.0000 H   0  0  0  0  0  0  0  0  0  0  0  0
   -2.4000   -1.3856    0.0000 C   0  0  0  0  0  0  0  0  0  0  0  0
   -3.2000   -2.7713    0.0000 H   0  0  0  0  0  0  0  0  0  0  0  0
   -0.8000   -1.3856    0.0000 C   0  0  0  0  0  0  0  0  0  0  0  0
    0.0000   -2.7713    0.0000 H   0  0  0  0  0  0  0  0  0  0  0  0
  1  2  1  0  0  0  0
  1  3  1  0  0  0  0
  1  4  1  0  0  0  0
  4  5  1  0  0  0  0
  5  6  1  0  0  0  0
  5  7  2  0  0  0  0
  7  8  1  0  0  0  0
  7  9  1  0  0  0  0
  9 10  1  0  0  0  0
  9 11  2  0  0  0  0
 11 12  1  0  0  0  0
 11 13  1  0  0  0  0
 13  4  2  0  0  0  0
 13 14  1  0  0  0  0
M  END
> <ChemID>
100279

> <source_casrn>
95-51-2

> <CAS>
95-51-2

> <SMILES>
Nc1ccccc1Cl

> <NAME>
Benzenamine, 2-chloro-

> <preferred_name>
2-Chloroaniline

> <iupac>
2-chloroaniline

> <MPID>
100288

> <dsstox_substance_id>
DTXSID2021810

> <Canonical_QSARr>
Nc1ccccc1Cl

> <InChI_Code_QSARr>
InChI=1S/C6H6ClN/c7-5-3-1-2-4-6(5)8/h1-4H,8H2

> <InChI Key_QSARr>
AKCRQHGQIJBRMN-UHFFFAOYSA-N

> <Salt_Solvent>
?

> <Ready_Biodeg>
0.0

$$$$
100280
  -INDIGO-08031722522D

 17 17  0  0  0  0  0  0  0  0999 V2000
   -1.3856    2.4000    0.0000 N   0  0  0  0  0  0  0  0  0  0  0  0
   -1.3856    4.0000    0.0000 H   0  0  0  0  0  0  0  0  0  0  0  0
   -2.7713    1.6000    0.0000 H   0  0  0  0  0  0  0  0  0  0  0  0
    0.0000    1.6000    0.0000 C   0  0  0  0  0  0  0  0  0  0  0  0
    0.0000    0.0000    0.0000 C   0  0  0  0  0  0  0  0  0  0  0  0
   -1.3856   -0.8000    0.0000 C   0  0  0  0  0  0  0  0  0  0  0  0
   -2.7713   -1.6000    0.0000 H   0  0  0  0  0  0  0  0  0  0  0  0
   -1.3856   -2.4000    0.0000 H   0  0  0  0  0  0  0  0  0  0  0  0
   -2.7713    0.0000    0.0000 H   0  0  0  0  0  0  0  0  0  0  0  0
    1.3856   -0.8000    0.0000 C   0  0  0  0  0  0  0  0  0  0  0  0
    1.3856   -2.4000    0.0000 H   0  0  0  0  0  0  0  0  0  0  0  0
    2.7713    0.0000    0.0000 C   0  0  0  0  0  0  0  0  0  0  0  0
    4.1569   -0.8000    0.0000 H   0  0  0  0  0  0  0  0  0  0  0  0
    2.7713    1.6000    0.0000 C   0  0  0  0  0  0  0  0  0  0  0  0
    4.1569    2.4000    0.0000 H   0  0  0  0  0  0  0  0  0  0  0  0
    1.3856    2.4000    0.0000 C   0  0  0  0  0  0  0  0  0  0  0  0
    1.3856    4.0000    0.0000 H   0  0  0  0  0  0  0  0  0  0  0  0
  1  2  1  0  0  0  0
  1  3  1  0  0  0  0
  1  4  1  0  0  0  0
  4  5  1  0  0  0  0
  5  6  1  0  0  0  0
  6  7  1  0  0  0  0
  6  8  1  0  0  0  0
  6  9  1  0  0  0  0
  5 10  2  0  0  0  0
 10 11  1  0  0  0  0
 10 12  1  0  0  0  0
 12 13  1  0  0  0  0
 12 14  2  0  0  0  0
 14 15  1  0  0  0  0
 14 16  1  0  0  0  0
 16  4  2  0  0  0  0
 16 17  1  0  0  0  0
M  END
> <ChemID>
100280

> <source_casrn>
95-53-4

> <CAS>
95-53-4

> <SMILES>
Cc1ccccc1N

> <NAME>
Benzenamine, 2-methyl-

> <preferred_name>
2-Methylaniline

> <iupac>
2-methylaniline

> <MPID>
100289

> <dsstox_substance_id>
DTXSID1026164

> <Canonical_QSARr>
Cc1ccccc1N

> <InChI_Code_QSARr>
InChI=1S/C7H9N/c1-6-4-2-3-5-7(6)8/h2-5H,8H2,1H3

> <InChI Key_QSARr>
RNVCVTLRINQCPJ-UHFFFAOYSA-N

> <Salt_Solvent>
?

> <Ready_Biodeg>
1.0

$$$$
100282
  -INDIGO-08031722522D

 15 15  0  0  0  0  0  0  0  0999 V2000
   -1.3856    2.4000    0.0000 O   0  0  0  0  0  0  0  0  0  0  0  0
   -1.3856    4.0000    0.0000 H   0  0  0  0  0  0  0  0  0  0  0  0
    0.0000    1.6000    0.0000 C   0  0  0  0  0  0  0  0  0  0  0  0
    0.0000    0.0000    0.0000 C   0  0  0  0  0  0  0  0  0  0  0  0
   -1.3856   -0.8000    0.0000 N   0  0  0  0  0  0  0  0  0  0  0  0
   -1.3856   -2.4000    0.0000 H   0  0  0  0  0  0  0  0  0  0  0  0
   -2.7713    0.0000    0.0000 H   0  0  0  0  0  0  0  0  0  0  0  0
    1.3856   -0.8000    0.0000 C   0  0  0  0  0  0  0  0  0  0  0  0
    1.3856   -2.4000    0.0000 H   0  0  0  0  0  0  0  0  0  0  0  0
    2.7713    0.0000    0.0000 C   0  0  0  0  0  0  0  0  0  0  0  0
    4.1569   -0.8000    0.0000 H   0  0  0  0  0  0  0  0  0  0  0  0
    2.7713    1.6000    0.0000 C   0  0  0  0  0  0  0  0  0  0  0  0
    4.1569    2.4000    0.0000 H   0  0  0  0  0  0  0  0  0  0  0  0
    1.3856    2.4000    0.0000 C   0  0  0  0  0  0  0  0  0  0  0  0
    1.3856    4.0000    0.0000 H   0  0  0  0  0  0  0  0  0  0  0  0
  1  2  1  0  0  0  0
  1  3  1  0  0  0  0
  3  4  1  0  0  0  0
  4  5  1  0  0  0  0
  5  6  1  0  0  0  0
  5  7  1  0  0  0  0
  4  8  2  0  0  0  0
  8  9  1  0  0  0  0
  8 10  1  0  0  0  0
 10 11  1  0  0  0  0
 10 12  2  0  0  0  0
 12 13  1  0  0  0  0
 12 14  1  0  0  0  0
 14  3  2  0  0  0  0
 14 15  1  0  0  0  0
M  END
> <ChemID>
100282

> <source_casrn>
95-55-6

> <CAS>
95-55-6

> <SMILES>
Nc1ccccc1O

> <NAME>
Phenol, 2-amino-

> <preferred_name>
2-Aminophenol

> <iupac>
2-aminophenol

> <MPID>
100291

> <dsstox_substance_id>
DTXSID8024498

> <Canonical_QSARr>
Nc1ccccc1O

> <InChI_Code_QSARr>
InChI=1S/C6H7NO/c7-5-3-1-2-4-6(5)8/h1-4,8H,7H2

> <InChI Key_QSARr>
CDAWCLOXVUBKRW-UHFFFAOYSA-N

> <Salt_Solvent>
?

> <Ready_Biodeg>
0.0

$$$$
100283
  -INDIGO-08031722522D

 13 13  0  0  0  0  0  0  0  0999 V2000
    1.6000   -0.0000    0.0000 C   0  0  0  0  0  0  0  0  0  0  0  0
    2.4000   -1.3857    0.0000 C   0  0  0  0  0  0  0  0  0  0  0  0
    4.0000   -1.3857    0.0000 H   0  0  0  0  0  0  0  0  0  0  0  0
    1.6000   -2.7713    0.0000 C   0  0  0  0  0  0  0  0  0  0  0  0
    2.4000   -4.1569    0.0000 H   0  0  0  0  0  0  0  0  0  0  0  0
    0.0000   -2.7713    0.0000 C   0  0  0  0  0  0  0  0  0  0  0  0
   -0.8000   -4.1569    0.0000 H   0  0  0  0  0  0  0  0  0  0  0  0
   -0.8000   -1.3856    0.0000 C   0  0  0  0  0  0  0  0  0  0  0  0
   -2.4000   -1.3856    0.0000 H   0  0  0  0  0  0  0  0  0  0  0  0
    0.0000   -0.0000    0.0000 C   0  0  0  0  0  0  0  0  0  0  0  0
   -0.8000    1.3856    0.0000 O   0  0  0  0  0  0  0  0  0  0  0  0
   -2.4000    1.3856    0.0000 H   0  0  0  0  0  0  0  0  0  0  0  0
    2.4000    1.3856    0.0000 Br  0  0  0  0  0  0  0  0  0  0  0  0
  1  2  1  0  0  0  0
  2  3  1  0  0  0  0
  2  4  2  0  0  0  0
  4  5  1  0  0  0  0
  4  6  1  0  0  0  0
  6  7  1  0  0  0  0
  6  8  2  0  0  0  0
  8  9  1  0  0  0  0
  8 10  1  0  0  0  0
 10  1  2  0  0  0  0
 10 11  1  0  0  0  0
 11 12  1  0  0  0  0
  1 13  1  0  0  0  0
M  END
> <ChemID>
100283

> <source_casrn>
95-56-7

> <CAS>
95-56-7

> <SMILES>
Oc1ccccc1Br

> <NAME>
Phenol, 2-bromo-

> <preferred_name>
2-Bromophenol

> <iupac>
2-bromophenol

> <MPID>
100292

> <dsstox_substance_id>
DTXSID8052641

> <Canonical_QSARr>
Oc1ccccc1Br

> <InChI_Code_QSARr>
InChI=1S/C6H5BrO/c7-5-3-1-2-4-6(5)8/h1-4,8H

> <InChI Key_QSARr>
VADKRMSMGWJZCF-UHFFFAOYSA-N

> <Salt_Solvent>
?

> <Ready_Biodeg>
0.0

$$$$
100284
  -INDIGO-08031722522D

 13 13  0  0  0  0  0  0  0  0999 V2000
    0.8000    1.3856    0.0000 O   0  0  0  0  0  0  0  0  0  0  0  0
    2.4000    1.3856    0.0000 H   0  0  0  0  0  0  0  0  0  0  0  0
   -0.0000   -0.0000    0.0000 C   0  0  0  0  0  0  0  0  0  0  0  0
    0.8000   -1.3857    0.0000 C   0  0  0  0  0  0  0  0  0  0  0  0
    2.4000   -1.3857    0.0000 H   0  0  0  0  0  0  0  0  0  0  0  0
   -0.0000   -2.7713    0.0000 C   0  0  0  0  0  0  0  0  0  0  0  0
    0.8000   -4.1569    0.0000 H   0  0  0  0  0  0  0  0  0  0  0  0
   -1.6000   -2.7713    0.0000 C   0  0  0  0  0  0  0  0  0  0  0  0
   -2.4000   -4.1569    0.0000 H   0  0  0  0  0  0  0  0  0  0  0  0
   -2.4000   -1.3856    0.0000 C   0  0  0  0  0  0  0  0  0  0  0  0
   -4.0000   -1.3856    0.0000 H   0  0  0  0  0  0  0  0  0  0  0  0
   -1.6000   -0.0000    0.0000 C   0  0  0  0  0  0  0  0  0  0  0  0
   -2.4000    1.3856    0.0000 Cl  0  0  0  0  0  0  0  0  0  0  0  0
  1  2  1  0  0  0  0
  1  3  1  0  0  0  0
  3  4  1  0  0  0  0
  4  5  1  0  0  0  0
  4  6  2  0  0  0  0
  6  7  1  0  0  0  0
  6  8  1  0  0  0  0
  8  9  1  0  0  0  0
  8 10  2  0  0  0  0
 10 11  1  0  0  0  0
 10 12  1  0  0  0  0
 12  3  2  0  0  0  0
 12 13  1  0  0  0  0
M  END
> <ChemID>
100284

> <source_casrn>
95-57-8

> <CAS>
95-57-8

> <SMILES>
Oc1ccccc1Cl

> <NAME>
2-Chlorophenol

> <preferred_name>
2-Chlorophenol

> <iupac>
2-chlorophenol

> <MPID>
100293

> <dsstox_substance_id>
DTXSID5021544

> <Canonical_QSARr>
Oc1ccccc1Cl

> <InChI_Code_QSARr>
InChI=1S/C6H5ClO/c7-5-3-1-2-4-6(5)8/h1-4,8H

> <InChI Key_QSARr>
ISPYQTSUDJAMAB-UHFFFAOYSA-N

> <Salt_Solvent>
?

> <Ready_Biodeg>
0.0

$$$$
100286
  -INDIGO-08031722522D

 20 20  0  0  0  0  0  0  0  0999 V2000
    1.3857    0.8000    0.0000 C   0  0  0  0  0  0  0  0  0  0  0  0
    2.7713    1.6000    0.0000 H   0  0  0  0  0  0  0  0  0  0  0  0
    1.3857    2.4000    0.0000 H   0  0  0  0  0  0  0  0  0  0  0  0
    2.7713   -0.0000    0.0000 H   0  0  0  0  0  0  0  0  0  0  0  0
    0.0000   -0.0000    0.0000 C   0  0  0  0  0  0  0  0  0  0  0  0
   -1.3857    0.8000    0.0000 C   0  0  0  0  0  0  0  0  0  0  0  0
   -1.3857    2.4000    0.0000 H   0  0  0  0  0  0  0  0  0  0  0  0
   -2.7713   -0.0000    0.0000 C   0  0  0  0  0  0  0  0  0  0  0  0
   -4.1570    0.8000    0.0000 N   0  0  0  0  0  0  0  0  0  0  0  0
   -5.5426   -0.0000    0.0000 H   0  0  0  0  0  0  0  0  0  0  0  0
   -4.1569    2.4000    0.0000 H   0  0  0  0  0  0  0  0  0  0  0  0
   -2.7713   -1.6000    0.0000 C   0  0  0  0  0  0  0  0  0  0  0  0
   -4.1569   -2.4000    0.0000 H   0  0  0  0  0  0  0  0  0  0  0  0
   -1.3856   -2.4000    0.0000 C   0  0  0  0  0  0  0  0  0  0  0  0
   -1.3856   -4.0000    0.0000 H   0  0  0  0  0  0  0  0  0  0  0  0
    0.0000   -1.6000    0.0000 C   0  0  0  0  0  0  0  0  0  0  0  0
    1.3857   -2.4000    0.0000 C   0  0  0  0  0  0  0  0  0  0  0  0
    2.7713   -3.2000    0.0000 H   0  0  0  0  0  0  0  0  0  0  0  0
    1.3857   -4.0000    0.0000 H   0  0  0  0  0  0  0  0  0  0  0  0
    2.7713   -1.6000    0.0000 H   0  0  0  0  0  0  0  0  0  0  0  0
  1  2  1  0  0  0  0
  1  3  1  0  0  0  0
  1  4  1  0  0  0  0
  1  5  1  0  0  0  0
  5  6  1  0  0  0  0
  6  7  1  0  0  0  0
  6  8  2  0  0  0  0
  8  9  1  0  0  0  0
  9 10  1  0  0  0  0
  9 11  1  0  0  0  0
  8 12  1  0  0  0  0
 12 13  1  0  0  0  0
 12 14  2  0  0  0  0
 14 15  1  0  0  0  0
 14 16  1  0  0  0  0
 16  5  2  0  0  0  0
 16 17  1  0  0  0  0
 17 18  1  0  0  0  0
 17 19  1  0  0  0  0
 17 20  1  0  0  0  0
M  END
> <ChemID>
100286

> <source_casrn>
95-64-7

> <CAS>
95-64-7

> <SMILES>
Cc1cc(N)ccc1C

> <NAME>
Benzenamine, 3,4-dimethyl-

> <preferred_name>
3,4-Dimethylaniline

> <iupac>
3,4-dimethylaniline

> <MPID>
100295

> <dsstox_substance_id>
DTXSID3026308

> <Canonical_QSARr>
Cc1cc(N)ccc1C

> <InChI_Code_QSARr>
InChI=1S/C8H11N/c1-6-3-4-8(9)5-7(6)2/h3-5H,9H2,1-2H3

> <InChI Key_QSARr>
DOLQYFPDPKPQSS-UHFFFAOYSA-N

> <Salt_Solvent>
?

> <Ready_Biodeg>
1.0

$$$$
100287
  -INDIGO-08031722522D

 19 19  0  0  0  0  0  0  0  0999 V2000
    1.3857    0.8000    0.0000 C   0  0  0  0  0  0  0  0  0  0  0  0
    1.3857    2.4000    0.0000 H   0  0  0  0  0  0  0  0  0  0  0  0
    0.0000   -0.0000    0.0000 C   0  0  0  0  0  0  0  0  0  0  0  0
   -1.3856    0.8000    0.0000 C   0  0  0  0  0  0  0  0  0  0  0  0
   -2.7713    1.6000    0.0000 H   0  0  0  0  0  0  0  0  0  0  0  0
   -1.3857    2.4000    0.0000 H   0  0  0  0  0  0  0  0  0  0  0  0
   -2.7713   -0.0000    0.0000 H   0  0  0  0  0  0  0  0  0  0  0  0
    0.0000   -1.6000    0.0000 C   0  0  0  0  0  0  0  0  0  0  0  0
   -1.3856   -2.4000    0.0000 C   0  0  0  0  0  0  0  0  0  0  0  0
   -2.7713   -3.2000    0.0000 H   0  0  0  0  0  0  0  0  0  0  0  0
   -1.3856   -4.0000    0.0000 H   0  0  0  0  0  0  0  0  0  0  0  0
   -2.7713   -1.6000    0.0000 H   0  0  0  0  0  0  0  0  0  0  0  0
    1.3857   -2.4000    0.0000 C   0  0  0  0  0  0  0  0  0  0  0  0
    1.3857   -4.0000    0.0000 H   0  0  0  0  0  0  0  0  0  0  0  0
    2.7713   -1.6000    0.0000 C   0  0  0  0  0  0  0  0  0  0  0  0
    4.1570   -2.4000    0.0000 H   0  0  0  0  0  0  0  0  0  0  0  0
    2.7713   -0.0000    0.0000 C   0  0  0  0  0  0  0  0  0  0  0  0
    4.1570    0.8000    0.0000 O   0  0  0  0  0  0  0  0  0  0  0  0
    5.5426   -0.0000    0.0000 H   0  0  0  0  0  0  0  0  0  0  0  0
  1  2  1  0  0  0  0
  1  3  1  0  0  0  0
  3  4  1  0  0  0  0
  4  5  1  0  0  0  0
  4  6  1  0  0  0  0
  4  7  1  0  0  0  0
  3  8  2  0  0  0  0
  8  9  1  0  0  0  0
  9 10  1  0  0  0  0
  9 11  1  0  0  0  0
  9 12  1  0  0  0  0
  8 13  1  0  0  0  0
 13 14  1  0  0  0  0
 13 15  2  0  0  0  0
 15 16  1  0  0  0  0
 15 17  1  0  0  0  0
 17  1  2  0  0  0  0
 17 18  1  0  0  0  0
 18 19  1  0  0  0  0
M  END
> <ChemID>
100287

> <source_casrn>
95-65-8

> <CAS>
95-65-8

> <SMILES>
Cc1cc(O)ccc1C

> <NAME>
3,4-DIMETHYLPHENOL

> <preferred_name>
3,4-Dimethylphenol

> <iupac>
3,4-dimethylphenol

> <MPID>
100296

> <dsstox_substance_id>
DTXSID4024062

> <Canonical_QSARr>
Cc1cc(O)ccc1C

> <InChI_Code_QSARr>
InChI=1S/C8H10O/c1-6-3-4-8(9)5-7(6)2/h3-5,9H,1-2H3

> <InChI Key_QSARr>
YCOXTKKNXUZSKD-UHFFFAOYSA-N

> <Salt_Solvent>
?

> <Ready_Biodeg>
1.0

$$$$
100288
  -INDIGO-08031722522D

 20 20  0  0  0  0  0  0  0  0999 V2000
    1.3856   -2.4000    0.0000 N   0  0  0  0  0  0  0  0  0  0  0  0
    1.3856   -4.0000    0.0000 H   0  0  0  0  0  0  0  0  0  0  0  0
    2.7713   -1.6000    0.0000 H   0  0  0  0  0  0  0  0  0  0  0  0
    0.0000   -1.6000    0.0000 C   0  0  0  0  0  0  0  0  0  0  0  0
    0.0000   -0.0000    0.0000 C   0  0  0  0  0  0  0  0  0  0  0  0
    1.3857    0.8000    0.0000 C   0  0  0  0  0  0  0  0  0  0  0  0
    2.7713    1.6000    0.0000 H   0  0  0  0  0  0  0  0  0  0  0  0
    1.3857    2.4000    0.0000 H   0  0  0  0  0  0  0  0  0  0  0  0
    2.7713   -0.0000    0.0000 H   0  0  0  0  0  0  0  0  0  0  0  0
   -1.3857    0.8000    0.0000 C   0  0  0  0  0  0  0  0  0  0  0  0
   -1.3856    2.4000    0.0000 H   0  0  0  0  0  0  0  0  0  0  0  0
   -2.7713   -0.0000    0.0000 C   0  0  0  0  0  0  0  0  0  0  0  0
   -4.1570    0.8000    0.0000 C   0  0  0  0  0  0  0  0  0  0  0  0
   -5.5426    1.6000    0.0000 H   0  0  0  0  0  0  0  0  0  0  0  0
   -5.5426   -0.0000    0.0000 H   0  0  0  0  0  0  0  0  0  0  0  0
   -4.1570    2.4000    0.0000 H   0  0  0  0  0  0  0  0  0  0  0  0
   -2.7713   -1.6000    0.0000 C   0  0  0  0  0  0  0  0  0  0  0  0
   -4.1570   -2.4000    0.0000 H   0  0  0  0  0  0  0  0  0  0  0  0
   -1.3857   -2.4000    0.0000 C   0  0  0  0  0  0  0  0  0  0  0  0
   -1.3856   -4.0000    0.0000 H   0  0  0  0  0  0  0  0  0  0  0  0
  1  2  1  0  0  0  0
  1  3  1  0  0  0  0
  1  4  1  0  0  0  0
  4  5  1  0  0  0  0
  5  6  1  0  0  0  0
  6  7  1  0  0  0  0
  6  8  1  0  0  0  0
  6  9  1  0  0  0  0
  5 10  2  0  0  0  0
 10 11  1  0  0  0  0
 10 12  1  0  0  0  0
 12 13  1  0  0  0  0
 13 14  1  0  0  0  0
 13 15  1  0  0  0  0
 13 16  1  0  0  0  0
 12 17  2  0  0  0  0
 17 18  1  0  0  0  0
 17 19  1  0  0  0  0
 19  4  2  0  0  0  0
 19 20  1  0  0  0  0
M  END
> <ChemID>
100288

> <source_casrn>
95-68-1

> <CAS>
95-68-1

> <SMILES>
Cc1cc(C)c(N)cc1

> <NAME>
Benzenamine, 2,4-dimethyl-

> <preferred_name>
2,4-Dimethylaniline

> <iupac>
2,4-dimethylaniline

> <MPID>
100297

> <dsstox_substance_id>
DTXSID8026305

> <Canonical_QSARr>
Cc1cc(C)c(N)cc1

> <InChI_Code_QSARr>
InChI=1S/C8H11N/c1-6-3-4-8(9)7(2)5-6/h3-5H,9H2,1-2H3

> <InChI Key_QSARr>
CZZZABOKJQXEBO-UHFFFAOYSA-N

> <Salt_Solvent>
?

> <Ready_Biodeg>
0.0

$$$$
100290
  -INDIGO-08031722522D

 18 18  0  0  0  0  0  0  0  0999 V2000
    0.0000   -0.0000    0.0000 C   0  0  0  0  0  0  0  0  0  0  0  0
   -0.8000    1.3856    0.0000 C   0  0  0  0  0  0  0  0  0  0  0  0
    0.0000    2.7713    0.0000 H   0  0  0  0  0  0  0  0  0  0  0  0
   -2.4000    1.3856    0.0000 C   0  0  0  0  0  0  0  0  0  0  0  0
   -3.2000    2.7713    0.0000 H   0  0  0  0  0  0  0  0  0  0  0  0
   -3.2000   -0.0000    0.0000 C   0  0  0  0  0  0  0  0  0  0  0  0
   -4.7999   -0.0000    0.0000 C   0  0  0  0  0  0  0  0  0  0  0  0
   -6.4000   -0.0000    0.0000 H   0  0  0  0  0  0  0  0  0  0  0  0
   -5.6000   -1.3856    0.0000 H   0  0  0  0  0  0  0  0  0  0  0  0
   -5.6000    1.3856    0.0000 H   0  0  0  0  0  0  0  0  0  0  0  0
   -2.4000   -1.3856    0.0000 C   0  0  0  0  0  0  0  0  0  0  0  0
   -3.2000   -2.7713    0.0000 Cl  0  0  0  0  0  0  0  0  0  0  0  0
   -0.8000   -1.3856    0.0000 C   0  0  0  0  0  0  0  0  0  0  0  0
    0.0000   -2.7713    0.0000 H   0  0  0  0  0  0  0  0  0  0  0  0
    1.6001   -0.0000    0.0000 C   0  0  0  0  0  0  0  0  0  0  0  0
    3.2000   -0.0000    0.0000 H   0  0  0  0  0  0  0  0  0  0  0  0
    2.4000   -1.3856    0.0000 H   0  0  0  0  0  0  0  0  0  0  0  0
    2.4000    1.3856    0.0000 H   0  0  0  0  0  0  0  0  0  0  0  0
  1  2  1  0  0  0  0
  2  3  1  0  0  0  0
  2  4  2  0  0  0  0
  4  5  1  0  0  0  0
  4  6  1  0  0  0  0
  6  7  1  0  0  0  0
  7  8  1  0  0  0  0
  7  9  1  0  0  0  0
  7 10  1  0  0  0  0
  6 11  2  0  0  0  0
 11 12  1  0  0  0  0
 11 13  1  0  0  0  0
 13  1  2  0  0  0  0
 13 14  1  0  0  0  0
  1 15  1  0  0  0  0
 15 16  1  0  0  0  0
 15 17  1  0  0  0  0
 15 18  1  0  0  0  0
M  END
> <ChemID>
100290

> <source_casrn>
95-72-7

> <CAS>
95-72-7

> <SMILES>
Cc1cc(Cl)c(C)cc1

> <NAME>
2-Chloro-p-xylene

> <preferred_name>
Benzene, 2-chloro-1,4-dimethyl-

> <iupac>
2-Chloro-1,4-dimethylbenzene

> <MPID>
100299

> <dsstox_substance_id>
DTXSID9059125

> <Canonical_QSARr>
Cc1cc(Cl)c(C)cc1

> <InChI_Code_QSARr>
InChI=1S/C8H9Cl/c1-6-3-4-7(2)8(9)5-6/h3-5H,1-2H3

> <InChI Key_QSARr>
KZNRNQGTVRTDPN-UHFFFAOYSA-N

> <Salt_Solvent>
?

> <Ready_Biodeg>
0.0

$$$$
100291
  -INDIGO-08031722522D

 14 14  0  0  0  0  0  0  0  0999 V2000
    1.6000   -0.0000    0.0000 N   0  0  0  0  0  0  0  0  0  0  0  0
    2.4000    1.3856    0.0000 H   0  0  0  0  0  0  0  0  0  0  0  0
    2.4000   -1.3856    0.0000 H   0  0  0  0  0  0  0  0  0  0  0  0
    0.0000   -0.0000    0.0000 C   0  0  0  0  0  0  0  0  0  0  0  0
   -0.8000    1.3856    0.0000 C   0  0  0  0  0  0  0  0  0  0  0  0
    0.0000    2.7713    0.0000 H   0  0  0  0  0  0  0  0  0  0  0  0
   -2.4000    1.3856    0.0000 C   0  0  0  0  0  0  0  0  0  0  0  0
   -3.2000    2.7713    0.0000 Cl  0  0  0  0  0  0  0  0  0  0  0  0
   -3.2000   -0.0000    0.0000 C   0  0  0  0  0  0  0  0  0  0  0  0
   -4.8000   -0.0000    0.0000 Cl  0  0  0  0  0  0  0  0  0  0  0  0
   -2.4000   -1.3856    0.0000 C   0  0  0  0  0  0  0  0  0  0  0  0
   -3.2000   -2.7713    0.0000 H   0  0  0  0  0  0  0  0  0  0  0  0
   -0.8000   -1.3856    0.0000 C   0  0  0  0  0  0  0  0  0  0  0  0
    0.0000   -2.7713    0.0000 H   0  0  0  0  0  0  0  0  0  0  0  0
  1  2  1  0  0  0  0
  1  3  1  0  0  0  0
  1  4  1  0  0  0  0
  4  5  1  0  0  0  0
  5  6  1  0  0  0  0
  5  7  2  0  0  0  0
  7  8  1  0  0  0  0
  7  9  1  0  0  0  0
  9 10  1  0  0  0  0
  9 11  2  0  0  0  0
 11 12  1  0  0  0  0
 11 13  1  0  0  0  0
 13  4  2  0  0  0  0
 13 14  1  0  0  0  0
M  END
> <ChemID>
100291

> <source_casrn>
95-76-1

> <CAS>
95-76-1

> <SMILES>
Nc1cc(Cl)c(Cl)cc1

> <NAME>
Benzenamine, 3,4-dichloro-

> <preferred_name>
3,4-Dichloroaniline

> <iupac>
3,4-dichloroaniline

> <MPID>
100300

> <dsstox_substance_id>
DTXSID7021815

> <Canonical_QSARr>
Nc1cc(Cl)c(Cl)cc1

> <InChI_Code_QSARr>
InChI=1S/C6H5Cl2N/c7-5-2-1-4(9)3-6(5)8/h1-3H,9H2

> <InChI Key_QSARr>
SDYWXFYBZPNOFX-UHFFFAOYSA-N

> <Salt_Solvent>
?

> <Ready_Biodeg>
0.0

$$$$
100292
  -INDIGO-08031722522D

 13 13  0  0  0  0  0  0  0  0999 V2000
   -4.0000   -1.3857    0.0000 Cl  0  0  0  0  0  0  0  0  0  0  0  0
   -2.4000   -1.3857    0.0000 C   0  0  0  0  0  0  0  0  0  0  0  0
   -1.6000   -0.0000    0.0000 C   0  0  0  0  0  0  0  0  0  0  0  0
   -2.4000    1.3856    0.0000 H   0  0  0  0  0  0  0  0  0  0  0  0
   -0.0000   -0.0000    0.0000 C   0  0  0  0  0  0  0  0  0  0  0  0
    0.8000    1.3856    0.0000 O   0  0  0  0  0  0  0  0  0  0  0  0
    2.4000    1.3856    0.0000 H   0  0  0  0  0  0  0  0  0  0  0  0
    0.8000   -1.3857    0.0000 C   0  0  0  0  0  0  0  0  0  0  0  0
    2.4000   -1.3857    0.0000 H   0  0  0  0  0  0  0  0  0  0  0  0
   -0.0000   -2.7713    0.0000 C   0  0  0  0  0  0  0  0  0  0  0  0
    0.8000   -4.1569    0.0000 H   0  0  0  0  0  0  0  0  0  0  0  0
   -1.6000   -2.7713    0.0000 C   0  0  0  0  0  0  0  0  0  0  0  0
   -2.4000   -4.1569    0.0000 Cl  0  0  0  0  0  0  0  0  0  0  0  0
  1  2  1  0  0  0  0
  2  3  1  0  0  0  0
  3  4  1  0  0  0  0
  3  5  2  0  0  0  0
  5  6  1  0  0  0  0
  6  7  1  0  0  0  0
  5  8  1  0  0  0  0
  8  9  1  0  0  0  0
  8 10  2  0  0  0  0
 10 11  1  0  0  0  0
 10 12  1  0  0  0  0
 12  2  2  0  0  0  0
 12 13  1  0  0  0  0
M  END
> <ChemID>
100292

> <source_casrn>
95-77-2

> <CAS>
95-77-2

> <SMILES>
Oc1cc(Cl)c(Cl)cc1

> <NAME>
3,4-Dichlorophenol

> <preferred_name>
3,4-Dichlorophenol

> <iupac>
3,4-dichlorophenol

> <MPID>
100301

> <dsstox_substance_id>
DTXSID7025005

> <Canonical_QSARr>
Oc1cc(Cl)c(Cl)cc1

> <InChI_Code_QSARr>
InChI=1S/C6H4Cl2O/c7-5-2-1-4(9)3-6(5)8/h1-3,9H

> <InChI Key_QSARr>
WDNBURPWRNALGP-UHFFFAOYSA-N

> <Salt_Solvent>
?

> <Ready_Biodeg>
0.0

$$$$
100294
  -INDIGO-08031722522D

 19 19  0  0  0  0  0  0  0  0999 V2000
   -1.3856    2.4000    0.0000 N   0  0  0  0  0  0  0  0  0  0  0  0
   -1.3856    4.0000    0.0000 H   0  0  0  0  0  0  0  0  0  0  0  0
   -2.7713    1.6000    0.0000 H   0  0  0  0  0  0  0  0  0  0  0  0
    0.0000    1.6000    0.0000 C   0  0  0  0  0  0  0  0  0  0  0  0
    0.0000    0.0000    0.0000 C   0  0  0  0  0  0  0  0  0  0  0  0
   -1.3857   -0.8000    0.0000 C   0  0  0  0  0  0  0  0  0  0  0  0
   -2.7713   -1.6000    0.0000 H   0  0  0  0  0  0  0  0  0  0  0  0
   -1.3857   -2.4000    0.0000 H   0  0  0  0  0  0  0  0  0  0  0  0
   -2.7713    0.0000    0.0000 H   0  0  0  0  0  0  0  0  0  0  0  0
    1.3857   -0.8000    0.0000 C   0  0  0  0  0  0  0  0  0  0  0  0
    1.3857   -2.4000    0.0000 H   0  0  0  0  0  0  0  0  0  0  0  0
    2.7713    0.0000    0.0000 C   0  0  0  0  0  0  0  0  0  0  0  0
    4.1570   -0.8000    0.0000 H   0  0  0  0  0  0  0  0  0  0  0  0
    2.7713    1.6000    0.0000 C   0  0  0  0  0  0  0  0  0  0  0  0
    4.1570    2.4000    0.0000 N   0  0  0  0  0  0  0  0  0  0  0  0
    5.5426    1.6000    0.0000 H   0  0  0  0  0  0  0  0  0  0  0  0
    4.1570    4.0000    0.0000 H   0  0  0  0  0  0  0  0  0  0  0  0
    1.3857    2.4000    0.0000 C   0  0  0  0  0  0  0  0  0  0  0  0
    1.3856    4.0000    0.0000 H   0  0  0  0  0  0  0  0  0  0  0  0
  1  2  1  0  0  0  0
  1  3  1  0  0  0  0
  1  4  1  0  0  0  0
  4  5  1  0  0  0  0
  5  6  1  0  0  0  0
  6  7  1  0  0  0  0
  6  8  1  0  0  0  0
  6  9  1  0  0  0  0
  5 10  2  0  0  0  0
 10 11  1  0  0  0  0
 10 12  1  0  0  0  0
 12 13  1  0  0  0  0
 12 14  2  0  0  0  0
 14 15  1  0  0  0  0
 15 16  1  0  0  0  0
 15 17  1  0  0  0  0
 14 18  1  0  0  0  0
 18  4  2  0  0  0  0
 18 19  1  0  0  0  0
M  END
> <ChemID>
100294

> <source_casrn>
95-80-7

> <CAS>
95-80-7

> <SMILES>
Cc1ccc(N)cc1N

> <NAME>
1,3-Benzenediamine, 4-methyl-

> <preferred_name>
2,4-Diaminotoluene

> <iupac>
4-methylbenzene-1,3-diamine

> <MPID>
100303

> <dsstox_substance_id>
DTXSID4020402

> <Canonical_QSARr>
Cc1ccc(N)cc1N

> <InChI_Code_QSARr>
InChI=1S/C7H10N2/c1-5-2-3-6(8)4-7(5)9/h2-4H,8-9H2,1H3

> <InChI Key_QSARr>
VOZKAJLKRJDJLL-UHFFFAOYSA-N

> <Salt_Solvent>
?

> <Ready_Biodeg>
0.0

$$$$
100295
  -INDIGO-08031722522D

 14 14  0  0  0  0  0  0  0  0999 V2000
    1.6000   -0.0000    0.0000 N   0  0  0  0  0  0  0  0  0  0  0  0
    2.4000    1.3856    0.0000 H   0  0  0  0  0  0  0  0  0  0  0  0
    2.4000   -1.3856    0.0000 H   0  0  0  0  0  0  0  0  0  0  0  0
    0.0000   -0.0000    0.0000 C   0  0  0  0  0  0  0  0  0  0  0  0
   -0.8000    1.3856    0.0000 C   0  0  0  0  0  0  0  0  0  0  0  0
    0.0000    2.7713    0.0000 Cl  0  0  0  0  0  0  0  0  0  0  0  0
   -2.4000    1.3856    0.0000 C   0  0  0  0  0  0  0  0  0  0  0  0
   -3.2000    2.7713    0.0000 H   0  0  0  0  0  0  0  0  0  0  0  0
   -3.2000   -0.0000    0.0000 C   0  0  0  0  0  0  0  0  0  0  0  0
   -4.8000   -0.0000    0.0000 H   0  0  0  0  0  0  0  0  0  0  0  0
   -2.4000   -1.3856    0.0000 C   0  0  0  0  0  0  0  0  0  0  0  0
   -3.2000   -2.7713    0.0000 Cl  0  0  0  0  0  0  0  0  0  0  0  0
   -0.8000   -1.3856    0.0000 C   0  0  0  0  0  0  0  0  0  0  0  0
    0.0000   -2.7713    0.0000 H   0  0  0  0  0  0  0  0  0  0  0  0
  1  2  1  0  0  0  0
  1  3  1  0  0  0  0
  1  4  1  0  0  0  0
  4  5  1  0  0  0  0
  5  6  1  0  0  0  0
  5  7  2  0  0  0  0
  7  8  1  0  0  0  0
  7  9  1  0  0  0  0
  9 10  1  0  0  0  0
  9 11  2  0  0  0  0
 11 12  1  0  0  0  0
 11 13  1  0  0  0  0
 13  4  2  0  0  0  0
 13 14  1  0  0  0  0
M  END
> <ChemID>
100295

> <source_casrn>
95-82-9

> <CAS>
95-82-9

> <SMILES>
Nc1cc(Cl)ccc1Cl

> <NAME>
Benzenamine, 2,5-dichloro-

> <preferred_name>
2,5-Dichloroaniline

> <iupac>
2,5-dichloroaniline

> <MPID>
100304

> <dsstox_substance_id>
DTXSID6024967

> <Canonical_QSARr>
Nc1cc(Cl)ccc1Cl

> <InChI_Code_QSARr>
InChI=1S/C6H5Cl2N/c7-4-1-2-5(8)6(9)3-4/h1-3H,9H2

> <InChI Key_QSARr>
AVYGCQXNNJPXSS-UHFFFAOYSA-N

> <Salt_Solvent>
?

> <Ready_Biodeg>
0.0

$$$$
100296
  -INDIGO-08031722522D

 14 14  0  0  0  0  0  0  0  0999 V2000
    1.6000    2.7713    0.0000 C   0  0  0  0  0  0  0  0  0  0  0  0
    2.4000    1.3856    0.0000 C   0  0  0  0  0  0  0  0  0  0  0  0
    4.0000    1.3856    0.0000 O   0  0  0  0  0  0  0  0  0  0  0  0
    4.8000    2.7713    0.0000 H   0  0  0  0  0  0  0  0  0  0  0  0
    1.6000    0.0000    0.0000 C   0  0  0  0  0  0  0  0  0  0  0  0
    2.4000   -1.3856    0.0000 H   0  0  0  0  0  0  0  0  0  0  0  0
    0.0000    0.0000    0.0000 C   0  0  0  0  0  0  0  0  0  0  0  0
   -0.8000   -1.3856    0.0000 O   0  0  0  0  0  0  0  0  0  0  0  0
   -2.4000   -1.3856    0.0000 H   0  0  0  0  0  0  0  0  0  0  0  0
   -0.8000    1.3857    0.0000 C   0  0  0  0  0  0  0  0  0  0  0  0
   -2.4000    1.3857    0.0000 H   0  0  0  0  0  0  0  0  0  0  0  0
    0.0000    2.7713    0.0000 C   0  0  0  0  0  0  0  0  0  0  0  0
   -0.8000    4.1569    0.0000 H   0  0  0  0  0  0  0  0  0  0  0  0
    2.4000    4.1569    0.0000 Cl  0  0  0  0  0  0  0  0  0  0  0  0
  1  2  1  0  0  0  0
  2  3  1  0  0  0  0
  3  4  1  0  0  0  0
  2  5  2  0  0  0  0
  5  6  1  0  0  0  0
  5  7  1  0  0  0  0
  7  8  1  0  0  0  0
  8  9  1  0  0  0  0
  7 10  2  0  0  0  0
 10 11  1  0  0  0  0
 10 12  1  0  0  0  0
 12  1  2  0  0  0  0
 12 13  1  0  0  0  0
  1 14  1  0  0  0  0
M  END
> <ChemID>
100296

> <source_casrn>
95-88-5

> <CAS>
95-88-5

> <SMILES>
Oc1cc(O)c(Cl)cc1

> <NAME>
4-Chlororesorcinol

> <preferred_name>
4-Chlororesorcinol

> <iupac>
4-chlorobenzene-1,3-diol

> <MPID>
100305

> <dsstox_substance_id>
DTXSID8052643

> <Canonical_QSARr>
Oc1cc(O)c(Cl)cc1

> <InChI_Code_QSARr>
InChI=1S/C6H5ClO2/c7-5-2-1-4(8)3-6(5)9/h1-3,8-9H

> <InChI Key_QSARr>
JQVAPEJNIZULEK-UHFFFAOYSA-N

> <Salt_Solvent>
?

> <Ready_Biodeg>
0.0

$$$$
100298
  -INDIGO-08031722522D

 13 13  0  0  0  0  0  0  0  0999 V2000
    0.0000    2.7713    0.0000 Cl  0  0  0  0  0  0  0  0  0  0  0  0
   -0.8000    1.3856    0.0000 C   0  0  0  0  0  0  0  0  0  0  0  0
    0.0000   -0.0000    0.0000 C   0  0  0  0  0  0  0  0  0  0  0  0
    1.6000   -0.0000    0.0000 O   0  0  0  0  0  0  0  0  0  0  0  0
    2.4000    1.3856    0.0000 H   0  0  0  0  0  0  0  0  0  0  0  0
   -0.8000   -1.3856    0.0000 C   0  0  0  0  0  0  0  0  0  0  0  0
    0.0000   -2.7713    0.0000 H   0  0  0  0  0  0  0  0  0  0  0  0
   -2.4000   -1.3856    0.0000 C   0  0  0  0  0  0  0  0  0  0  0  0
   -3.2000   -2.7713    0.0000 Cl  0  0  0  0  0  0  0  0  0  0  0  0
   -3.2000   -0.0000    0.0000 C   0  0  0  0  0  0  0  0  0  0  0  0
   -4.8000   -0.0000    0.0000 Cl  0  0  0  0  0  0  0  0  0  0  0  0
   -2.4000    1.3856    0.0000 C   0  0  0  0  0  0  0  0  0  0  0  0
   -3.2000    2.7713    0.0000 H   0  0  0  0  0  0  0  0  0  0  0  0
  1  2  1  0  0  0  0
  2  3  1  0  0  0  0
  3  4  1  0  0  0  0
  4  5  1  0  0  0  0
  3  6  2  0  0  0  0
  6  7  1  0  0  0  0
  6  8  1  0  0  0  0
  8  9  1  0  0  0  0
  8 10  2  0  0  0  0
 10 11  1  0  0  0  0
 10 12  1  0  0  0  0
 12  2  2  0  0  0  0
 12 13  1  0  0  0  0
M  END
> <ChemID>
100298

> <source_casrn>
95-95-4

> <CAS>
95-95-4

> <SMILES>
Oc1cc(Cl)c(Cl)cc1Cl

> <NAME>
Phenol, 2,4,5-trichloro-

> <preferred_name>
2,4,5-Trichlorophenol

> <iupac>
C6H3Cl3O

> <MPID>
100307

> <dsstox_substance_id>
DTXSID4024359

> <Canonical_QSARr>
Oc1cc(Cl)c(Cl)cc1Cl

> <InChI_Code_QSARr>
InChI=1S/C6H3Cl3O/c7-3-1-5(9)6(10)2-4(3)8/h1-2,10H

> <InChI Key_QSARr>
LHJGJYXLEPZJPM-UHFFFAOYSA-N

> <Salt_Solvent>
?

> <Ready_Biodeg>
0.0

$$$$
100299
  -INDIGO-08031722522D

 17 18  0  0  0  0  0  0  0  0999 V2000
    1.5035   -0.5472    0.0000 C   0  0  0  0  0  0  0  0  0  0  0  0
    2.3035    0.8384    0.0000 H   0  0  0  0  0  0  0  0  0  0  0  0
    2.7292   -1.5757    0.0000 H   0  0  0  0  0  0  0  0  0  0  0  0
   -0.0000   -0.0000    0.0000 C   0  0  0  0  0  0  0  0  0  0  0  0
    0.2779    1.5757    0.0000 H   0  0  0  0  0  0  0  0  0  0  0  0
   -1.6001   -0.0000    0.0000 C   0  0  0  0  0  0  0  0  0  0  0  0
   -2.3999    1.3856    0.0000 C   0  0  0  0  0  0  0  0  0  0  0  0
   -1.6001    2.7713    0.0000 H   0  0  0  0  0  0  0  0  0  0  0  0
   -4.0000    1.3856    0.0000 C   0  0  0  0  0  0  0  0  0  0  0  0
   -4.8000    2.7713    0.0000 H   0  0  0  0  0  0  0  0  0  0  0  0
   -4.8000   -0.0000    0.0000 C   0  0  0  0  0  0  0  0  0  0  0  0
   -6.4000   -0.0000    0.0000 H   0  0  0  0  0  0  0  0  0  0  0  0
   -4.0000   -1.3856    0.0000 C   0  0  0  0  0  0  0  0  0  0  0  0
   -4.8000   -2.7713    0.0000 H   0  0  0  0  0  0  0  0  0  0  0  0
   -2.3999   -1.3856    0.0000 C   0  0  0  0  0  0  0  0  0  0  0  0
   -1.6001   -2.7713    0.0000 H   0  0  0  0  0  0  0  0  0  0  0  0
    0.2779   -1.5757    0.0000 O   0  0  0  0  0  0  0  0  0  0  0  0
  1  2  1  0  0  0  0
  1  3  1  0  0  0  0
  1  4  1  0  0  0  0
  4  5  1  0  0  0  0
  4  6  1  0  0  0  0
  6  7  1  0  0  0  0
  7  8  1  0  0  0  0
  7  9  2  0  0  0  0
  9 10  1  0  0  0  0
  9 11  1  0  0  0  0
 11 12  1  0  0  0  0
 11 13  2  0  0  0  0
 13 14  1  0  0  0  0
 13 15  1  0  0  0  0
 15  6  2  0  0  0  0
 15 16  1  0  0  0  0
  4 17  1  0  0  0  0
 17  1  1  0  0  0  0
M  END
> <ChemID>
100299

> <source_casrn>
96-09-3

> <CAS>
96-09-3

> <SMILES>
C1OC1c1ccccc1

> <NAME>
Oxirane, phenyl-

> <preferred_name>
Styrene oxide

> <iupac>
2-phenyloxirane

> <MPID>
100308

> <dsstox_substance_id>
DTXSID2021286

> <Canonical_QSARr>
C1OC1c1ccccc1

> <InChI_Code_QSARr>
InChI=1S/C8H8O/c1-2-4-7(5-3-1)8-6-9-8/h1-5,8H,6H2

> <InChI Key_QSARr>
AWMVMTVKBNGEAK-UHFFFAOYSA-N

> <Salt_Solvent>
?

> <Ready_Biodeg>
1.0

$$$$
100300
  -INDIGO-08031722522D

 11 10  0  0  0  0  0  0  0  0999 V2000
   -0.6123   -1.4782    0.0000 Br  0  0  0  0  0  0  0  0  0  0  0  0
    0.0000    0.0000    0.0000 C   0  0  0  0  0  0  0  0  0  0  0  0
    0.6123   -1.4782    0.0000 H   0  0  0  0  0  0  0  0  0  0  0  0
   -1.3856    0.8000    0.0000 C   0  0  0  0  0  0  0  0  0  0  0  0
   -2.7713    1.6000    0.0000 H   0  0  0  0  0  0  0  0  0  0  0  0
   -2.7713    0.0000    0.0000 H   0  0  0  0  0  0  0  0  0  0  0  0
   -1.3856    2.4000    0.0000 Cl  0  0  0  0  0  0  0  0  0  0  0  0
    1.3856    0.8000    0.0000 C   0  0  0  0  0  0  0  0  0  0  0  0
    2.7713    1.6000    0.0000 H   0  0  0  0  0  0  0  0  0  0  0  0
    2.7713    0.0000    0.0000 H   0  0  0  0  0  0  0  0  0  0  0  0
    1.3856    2.4000    0.0000 Br  0  0  0  0  0  0  0  0  0  0  0  0
  1  2  1  0  0  0  0
  2  3  1  0  0  0  0
  2  4  1  0  0  0  0
  4  5  1  0  0  0  0
  4  6  1  0  0  0  0
  4  7  1  0  0  0  0
  2  8  1  0  0  0  0
  8  9  1  0  0  0  0
  8 10  1  0  0  0  0
  8 11  1  0  0  0  0
M  END
> <ChemID>
100300

> <source_casrn>
96-12-8

> <CAS>
96-12-8

> <SMILES>
ClCC(Br)CBr

> <NAME>
Propane, 1,2-dibromo-3-chloro-

> <preferred_name>
1,2-Dibromo-3-chloropropane

> <iupac>
1,2-dibromo-3-chloropropane

> <MPID>
100309

> <dsstox_substance_id>
DTXSID3020413

> <Canonical_QSARr>
ClCC(Br)CBr

> <InChI_Code_QSARr>
InChI=1S/C3H5Br2Cl/c4-1-3(5)2-6/h3H,1-2H2

> <InChI Key_QSARr>
WBEJYOJJBDISQU-UHFFFAOYSA-N

> <Salt_Solvent>
?

> <Ready_Biodeg>
0.0

$$$$
100302
  -INDIGO-08031722522D

 16 15  0  0  0  0  0  0  0  0999 V2000
    1.3856    0.8000    0.0000 C   0  0  0  0  0  0  0  0  0  0  0  0
    2.7713    1.6000    0.0000 H   0  0  0  0  0  0  0  0  0  0  0  0
    2.7713    0.0000    0.0000 H   0  0  0  0  0  0  0  0  0  0  0  0
    1.3856    2.4000    0.0000 H   0  0  0  0  0  0  0  0  0  0  0  0
    0.0000    0.0000    0.0000 C   0  0  0  0  0  0  0  0  0  0  0  0
   -0.6122   -1.4782    0.0000 H   0  0  0  0  0  0  0  0  0  0  0  0
    0.6122   -1.4782    0.0000 H   0  0  0  0  0  0  0  0  0  0  0  0
   -1.3857    0.8000    0.0000 C   0  0  0  0  0  0  0  0  0  0  0  0
   -1.3857    2.4000    0.0000 O   0  0  0  0  0  0  0  0  0  0  0  0
   -2.7713    0.0000    0.0000 C   0  0  0  0  0  0  0  0  0  0  0  0
   -3.3835   -1.4782    0.0000 H   0  0  0  0  0  0  0  0  0  0  0  0
   -2.1590   -1.4782    0.0000 H   0  0  0  0  0  0  0  0  0  0  0  0
   -4.1569    0.8000    0.0000 C   0  0  0  0  0  0  0  0  0  0  0  0
   -5.5426    1.6000    0.0000 H   0  0  0  0  0  0  0  0  0  0  0  0
   -5.5426    0.0000    0.0000 H   0  0  0  0  0  0  0  0  0  0  0  0
   -4.1569    2.4000    0.0000 H   0  0  0  0  0  0  0  0  0  0  0  0
  1  2  1  0  0  0  0
  1  3  1  0  0  0  0
  1  4  1  0  0  0  0
  1  5  1  0  0  0  0
  5  6  1  0  0  0  0
  5  7  1  0  0  0  0
  5  8  1  0  0  0  0
  8  9  2  0  0  0  0
  8 10  1  0  0  0  0
 10 11  1  0  0  0  0
 10 12  1  0  0  0  0
 10 13  1  0  0  0  0
 13 14  1  0  0  0  0
 13 15  1  0  0  0  0
 13 16  1  0  0  0  0
M  END
> <ChemID>
100302

> <source_casrn>
96-22-0

> <CAS>
96-22-0

> <SMILES>
CCC(=O)CC

> <NAME>
DIETHYLKETONE

> <preferred_name>
3-Pentanone

> <iupac>
pentan-3-one

> <MPID>
100311

> <dsstox_substance_id>
DTXSID6021820

> <Canonical_QSARr>
CCC(=O)CC

> <InChI_Code_QSARr>
InChI=1S/C5H10O/c1-3-5(6)4-2/h3-4H2,1-2H3

> <InChI Key_QSARr>
FDPIMTJIUBPUKL-UHFFFAOYSA-N

> <Salt_Solvent>
?

> <Ready_Biodeg>
1.0

$$$$
100303
  -INDIGO-08031722522D

 12 11  0  0  0  0  0  0  0  0999 V2000
    0.0000    1.6000    0.0000 O   0  0  0  0  0  0  0  0  0  0  0  0
    1.3856    2.4000    0.0000 H   0  0  0  0  0  0  0  0  0  0  0  0
    0.0000    0.0000    0.0000 C   0  0  0  0  0  0  0  0  0  0  0  0
    0.0000   -1.6000    0.0000 H   0  0  0  0  0  0  0  0  0  0  0  0
   -1.6000    0.0000    0.0000 C   0  0  0  0  0  0  0  0  0  0  0  0
   -3.2000    0.0000    0.0000 H   0  0  0  0  0  0  0  0  0  0  0  0
   -2.4000   -1.3856    0.0000 H   0  0  0  0  0  0  0  0  0  0  0  0
   -2.4000    1.3856    0.0000 Cl  0  0  0  0  0  0  0  0  0  0  0  0
    1.6000    0.0000    0.0000 C   0  0  0  0  0  0  0  0  0  0  0  0
    3.2000    0.0000    0.0000 H   0  0  0  0  0  0  0  0  0  0  0  0
    2.4000   -1.3856    0.0000 H   0  0  0  0  0  0  0  0  0  0  0  0
    2.4000    1.3856    0.0000 Cl  0  0  0  0  0  0  0  0  0  0  0  0
  1  2  1  0  0  0  0
  1  3  1  0  0  0  0
  3  4  1  0  0  0  0
  3  5  1  0  0  0  0
  5  6  1  0  0  0  0
  5  7  1  0  0  0  0
  5  8  1  0  0  0  0
  3  9  1  0  0  0  0
  9 10  1  0  0  0  0
  9 11  1  0  0  0  0
  9 12  1  0  0  0  0
M  END
> <ChemID>
100303

> <source_casrn>
96-23-1

> <CAS>
96-23-1

> <SMILES>
OC(CCl)CCl

> <NAME>
2-Propanol, 1,3-dichloro-

> <preferred_name>
1,3-Dichloro-2-propanol

> <iupac>
1,3-dichloropropan-2-ol

> <MPID>
100312

> <dsstox_substance_id>
DTXSID6025010

> <Canonical_QSARr>
OC(CCl)CCl

> <InChI_Code_QSARr>
InChI=1S/C3H6Cl2O/c4-1-3(6)2-5/h3,6H,1-2H2

> <InChI Key_QSARr>
DEWLEGDTCGBNGU-UHFFFAOYSA-N

> <Salt_Solvent>
?

> <Ready_Biodeg>
1.0

$$$$
100304
  -INDIGO-08031722522D

 13 12  0  0  0  0  0  0  0  0999 V2000
   -0.0000    1.6000    0.0000 O   0  0  0  0  0  0  0  0  0  0  0  0
    1.3857    2.4000    0.0000 H   0  0  0  0  0  0  0  0  0  0  0  0
   -0.0000    0.0000    0.0000 C   0  0  0  0  0  0  0  0  0  0  0  0
   -0.0000   -1.6000    0.0000 H   0  0  0  0  0  0  0  0  0  0  0  0
   -1.6000    0.0000    0.0000 C   0  0  0  0  0  0  0  0  0  0  0  0
   -1.8089    1.5863    0.0000 H   0  0  0  0  0  0  0  0  0  0  0  0
   -2.8694    0.9740    0.0000 H   0  0  0  0  0  0  0  0  0  0  0  0
   -2.4000   -1.3856    0.0000 O   0  0  0  0  0  0  0  0  0  0  0  0
   -4.0000   -1.3856    0.0000 H   0  0  0  0  0  0  0  0  0  0  0  0
    1.6000    0.0000    0.0000 C   0  0  0  0  0  0  0  0  0  0  0  0
    3.2000    0.0000    0.0000 H   0  0  0  0  0  0  0  0  0  0  0  0
    2.4000    1.3856    0.0000 H   0  0  0  0  0  0  0  0  0  0  0  0
    2.4000   -1.3856    0.0000 Cl  0  0  0  0  0  0  0  0  0  0  0  0
  1  2  1  0  0  0  0
  1  3  1  0  0  0  0
  3  4  1  0  0  0  0
  3  5  1  0  0  0  0
  5  6  1  0  0  0  0
  5  7  1  0  0  0  0
  5  8  1  0  0  0  0
  8  9  1  0  0  0  0
  3 10  1  0  0  0  0
 10 11  1  0  0  0  0
 10 12  1  0  0  0  0
 10 13  1  0  0  0  0
M  END
> <ChemID>
100304

> <source_casrn>
96-24-2

> <CAS>
96-24-2

> <SMILES>
OCC(O)CCl

> <NAME>
1,2-Propanediol, 3-chloro-

> <preferred_name>
3-Chloro-1,2-propanediol

> <iupac>
3-chloropropane-1,2-diol

> <MPID>
100313

> <dsstox_substance_id>
DTXSID4020664

> <Canonical_QSARr>
OCC(O)CCl

> <InChI_Code_QSARr>
InChI=1S/C3H7ClO2/c4-1-3(6)2-5/h3,5-6H,1-2H2

> <InChI Key_QSARr>
SSZWWUDQMAHNAQ-UHFFFAOYSA-N

> <Salt_Solvent>
?

> <Ready_Biodeg>
1.0

$$$$
100306
  -INDIGO-08031722522D

 12 11  0  0  0  0  0  0  0  0999 V2000
    2.7713    0.0000    0.0000 C   0  0  0  0  0  0  0  0  0  0  0  0
    4.1569   -0.8000    0.0000 H   0  0  0  0  0  0  0  0  0  0  0  0
    4.1569    0.8000    0.0000 H   0  0  0  0  0  0  0  0  0  0  0  0
    2.7713   -1.6000    0.0000 H   0  0  0  0  0  0  0  0  0  0  0  0
    1.3856    0.8000    0.0000 O   0  0  0  0  0  0  0  0  0  0  0  0
    0.0001    0.0000    0.0000 C   0  0  0  0  0  0  0  0  0  0  0  0
    0.0001   -1.6000    0.0000 O   0  0  0  0  0  0  0  0  0  0  0  0
   -1.3856    0.8000    0.0000 C   0  0  0  0  0  0  0  0  0  0  0  0
   -1.3856    2.4000    0.0000 H   0  0  0  0  0  0  0  0  0  0  0  0
   -2.7713    0.0000    0.0000 C   0  0  0  0  0  0  0  0  0  0  0  0
   -4.1569    0.8000    0.0000 H   0  0  0  0  0  0  0  0  0  0  0  0
   -2.7713   -1.6000    0.0000 H   0  0  0  0  0  0  0  0  0  0  0  0
  1  2  1  0  0  0  0
  1  3  1  0  0  0  0
  1  4  1  0  0  0  0
  1  5  1  0  0  0  0
  5  6  1  0  0  0  0
  6  7  2  0  0  0  0
  6  8  1  0  0  0  0
  8  9  1  0  0  0  0
  8 10  2  0  0  0  0
 10 11  1  0  0  0  0
 10 12  1  0  0  0  0
M  END
> <ChemID>
100306

> <source_casrn>
96-33-3

> <CAS>
96-33-3

> <SMILES>
COC(=O)C=C

> <NAME>
2-Propenoic acid, methyl ester

> <preferred_name>
Methyl acrylate

> <iupac>
methyl prop-2-enoate

> <MPID>
100315

> <dsstox_substance_id>
DTXSID0024183

> <Canonical_QSARr>
COC(=O)C=C

> <InChI_Code_QSARr>
InChI=1S/C4H6O2/c1-3-4(5)6-2/h3H,1H2,2H3

> <InChI Key_QSARr>
BAPJBEWLBFYGME-UHFFFAOYSA-N

> <Salt_Solvent>
?

> <Ready_Biodeg>
1.0

$$$$
100307
  -INDIGO-08031722522D

 11 10  0  0  0  0  0  0  0  0999 V2000
    1.3856   -0.8000    0.0000 C   0  0  0  0  0  0  0  0  0  0  0  0
    1.3856   -2.4000    0.0000 O   0  0  0  0  0  0  0  0  0  0  0  0
    2.7713    0.0000    0.0000 O   0  0  0  0  0  0  0  0  0  0  0  0
    4.1569   -0.8000    0.0000 C   0  0  0  0  0  0  0  0  0  0  0  0
    5.5426   -1.6000    0.0000 H   0  0  0  0  0  0  0  0  0  0  0  0
    5.5426    0.0000    0.0000 H   0  0  0  0  0  0  0  0  0  0  0  0
    4.1569   -2.4000    0.0000 H   0  0  0  0  0  0  0  0  0  0  0  0
    0.0000    0.0000    0.0000 C   0  0  0  0  0  0  0  0  0  0  0  0
   -1.3856    0.8000    0.0000 H   0  0  0  0  0  0  0  0  0  0  0  0
    0.0000    1.6000    0.0000 H   0  0  0  0  0  0  0  0  0  0  0  0
   -1.3856   -0.8000    0.0000 Cl  0  0  0  0  0  0  0  0  0  0  0  0
  1  2  2  0  0  0  0
  1  3  1  0  0  0  0
  3  4  1  0  0  0  0
  4  5  1  0  0  0  0
  4  6  1  0  0  0  0
  4  7  1  0  0  0  0
  1  8  1  0  0  0  0
  8  9  1  0  0  0  0
  8 10  1  0  0  0  0
  8 11  1  0  0  0  0
M  END
> <ChemID>
100307

> <source_casrn>
96-34-4

> <CAS>
96-34-4

> <SMILES>
COC(=O)CCl

> <NAME>
Acetic acid, chloro-, methyl ester

> <preferred_name>
Methyl chloroacetate

> <iupac>
methyl chloroacetate

> <MPID>
100316

> <dsstox_substance_id>
DTXSID9041576

> <Canonical_QSARr>
COC(=O)CCl

> <InChI_Code_QSARr>
InChI=1S/C3H5ClO2/c1-6-3(5)2-4/h2H2,1H3

> <InChI Key_QSARr>
QABLOFMHHSOFRJ-UHFFFAOYSA-N

> <Salt_Solvent>
?

> <Ready_Biodeg>
1.0

$$$$
100308
  -INDIGO-08031722522D

 12 12  0  0  0  0  0  0  0  0999 V2000
   -3.3856    2.3830    0.0000 O   0  0  0  0  0  0  0  0  0  0  0  0
   -1.9239    1.7323    0.0000 C   0  0  0  0  0  0  0  0  0  0  0  0
   -1.5912    0.1672    0.0000 C   0  0  0  0  0  0  0  0  0  0  0  0
   -3.1825    0.0000    0.0000 H   0  0  0  0  0  0  0  0  0  0  0  0
   -1.5912   -1.4328    0.0000 H   0  0  0  0  0  0  0  0  0  0  0  0
    0.0000    0.0000    0.0000 C   0  0  0  0  0  0  0  0  0  0  0  0
   -0.3327   -1.5650    0.0000 H   0  0  0  0  0  0  0  0  0  0  0  0
    1.5217   -0.4944    0.0000 H   0  0  0  0  0  0  0  0  0  0  0  0
    0.6508    1.4617    0.0000 C   0  0  0  0  0  0  0  0  0  0  0  0
    2.0364    0.6617    0.0000 H   0  0  0  0  0  0  0  0  0  0  0  0
    1.5912    2.7561    0.0000 H   0  0  0  0  0  0  0  0  0  0  0  0
   -0.5383    2.5323    0.0000 O   0  0  0  0  0  0  0  0  0  0  0  0
  1  2  2  0  0  0  0
  2  3  1  0  0  0  0
  3  4  1  0  0  0  0
  3  5  1  0  0  0  0
  3  6  1  0  0  0  0
  6  7  1  0  0  0  0
  6  8  1  0  0  0  0
  6  9  1  0  0  0  0
  9 10  1  0  0  0  0
  9 11  1  0  0  0  0
  9 12  1  0  0  0  0
 12  2  1  0  0  0  0
M  END
> <ChemID>
100308

> <source_casrn>
96-48-0

> <CAS>
96-48-0

> <SMILES>
O=C1CCCO1

> <NAME>
2(3H)-Furanone, dihydro-

> <preferred_name>
4-Butyrolactone

> <iupac>
dihydrofuran-2(3H)-one

> <MPID>
100317

> <dsstox_substance_id>
DTXSID6020224

> <Canonical_QSARr>
O=C1CCCO1

> <InChI_Code_QSARr>
InChI=1S/C4H6O2/c5-4-2-1-3-6-4/h1-3H2

> <InChI Key_QSARr>
YEJRWHAVMIAJKC-UHFFFAOYSA-N

> <Salt_Solvent>
?

> <Ready_Biodeg>
1.0

$$$$
100310
  -INDIGO-08031722522D

 13 13  0  0  0  0  0  0  0  0999 V2000
   -0.4944    1.5217    0.0000 C   0  0  0  0  0  0  0  0  0  0  0  0
    0.4460    2.8161    0.0000 H   0  0  0  0  0  0  0  0  0  0  0  0
   -0.0001   -0.0000    0.0000 N   0  0  0  0  0  0  0  0  0  0  0  0
    1.5217   -0.4944    0.0000 C   0  0  0  0  0  0  0  0  0  0  0  0
    3.0434   -0.9889    0.0000 H   0  0  0  0  0  0  0  0  0  0  0  0
    2.7108    0.5762    0.0000 H   0  0  0  0  0  0  0  0  0  0  0  0
    1.8544   -2.0594    0.0000 H   0  0  0  0  0  0  0  0  0  0  0  0
   -1.2944   -0.9405    0.0000 C   0  0  0  0  0  0  0  0  0  0  0  0
   -1.2944   -2.5405    0.0000 H   0  0  0  0  0  0  0  0  0  0  0  0
   -2.5888   -0.0000    0.0000 C   0  0  0  0  0  0  0  0  0  0  0  0
   -4.1105   -0.4944    0.0000 H   0  0  0  0  0  0  0  0  0  0  0  0
   -2.0944    1.5217    0.0000 C   0  0  0  0  0  0  0  0  0  0  0  0
   -3.0349    2.8161    0.0000 H   0  0  0  0  0  0  0  0  0  0  0  0
  1  2  1  0  0  0  0
  1  3  1  0  0  0  0
  3  4  1  0  0  0  0
  4  5  1  0  0  0  0
  4  6  1  0  0  0  0
  4  7  1  0  0  0  0
  3  8  1  0  0  0  0
  8  9  1  0  0  0  0
  8 10  2  0  0  0  0
 10 11  1  0  0  0  0
 10 12  1  0  0  0  0
 12  1  2  0  0  0  0
 12 13  1  0  0  0  0
M  END
> <ChemID>
100310

> <source_casrn>
96-54-8

> <CAS>
96-54-8

> <SMILES>
C[n]1cccc1

> <NAME>
N-Methylpyrrole

> <preferred_name>
1-Methylpyrrole

> <iupac>
1-methyl-1H-pyrrole

> <MPID>
100319

> <dsstox_substance_id>
DTXSID3052648

> <Canonical_QSARr>
C[n]1cccc1

> <InChI_Code_QSARr>
InChI=1S/C5H7N/c1-6-4-2-3-5-6/h2-5H,1H3

> <InChI Key_QSARr>
OXHNLMTVIGZXSG-UHFFFAOYSA-N

> <Salt_Solvent>
?

> <Ready_Biodeg>
1.0

$$$$
100311
  -INDIGO-08031722522D

 55 56  0  0  0  0  0  0  0  0999 V2000
    1.3857   -0.8001    0.0000 C   0  0  0  0  0  0  0  0  0  0  0  0
    1.3857   -2.4001    0.0000 H   0  0  0  0  0  0  0  0  0  0  0  0
    0.1599   -1.8284    0.0000 H   0  0  0  0  0  0  0  0  0  0  0  0
    1.6635    0.7757    0.0000 H   0  0  0  0  0  0  0  0  0  0  0  0
    0.0000    0.0000    0.0000 C   0  0  0  0  0  0  0  0  0  0  0  0
    0.8000    1.3857    0.0000 C   0  0  0  0  0  0  0  0  0  0  0  0
    2.3757    1.6635    0.0000 C   0  0  0  0  0  0  0  0  0  0  0  0
    3.4041    0.4378    0.0000 H   0  0  0  0  0  0  0  0  0  0  0  0
    2.9229    3.1670    0.0000 C   0  0  0  0  0  0  0  0  0  0  0  0
    4.4985    3.4448    0.0000 S   0  0  0  0  0  0  0  0  0  0  0  0
    5.8844    2.6449    0.0000 C   0  0  0  0  0  0  0  0  0  0  0  0
    5.8844    1.0447    0.0000 C   0  0  0  0  0  0  0  0  0  0  0  0
    4.4985    0.2448    0.0000 H   0  0  0  0  0  0  0  0  0  0  0  0
    7.2700    0.2448    0.0000 C   0  0  0  0  0  0  0  0  0  0  0  0
    7.2700   -1.3552    0.0000 C   0  0  0  0  0  0  0  0  0  0  0  0
    7.2700   -2.9552    0.0000 C   0  0  0  0  0  0  0  0  0  0  0  0
    7.2700   -4.5552    0.0000 H   0  0  0  0  0  0  0  0  0  0  0  0
    6.0443   -3.9837    0.0000 H   0  0  0  0  0  0  0  0  0  0  0  0
    8.4955   -3.9837    0.0000 H   0  0  0  0  0  0  0  0  0  0  0  0
    5.6698   -1.3552    0.0000 C   0  0  0  0  0  0  0  0  0  0  0  0
    4.8699   -2.7408    0.0000 H   0  0  0  0  0  0  0  0  0  0  0  0
    4.0699   -1.3552    0.0000 H   0  0  0  0  0  0  0  0  0  0  0  0
    6.2171   -2.8587    0.0000 H   0  0  0  0  0  0  0  0  0  0  0  0
    8.8699   -1.3552    0.0000 C   0  0  0  0  0  0  0  0  0  0  0  0
   10.4456   -1.0774    0.0000 H   0  0  0  0  0  0  0  0  0  0  0  0
    9.8983   -2.5809    0.0000 H   0  0  0  0  0  0  0  0  0  0  0  0
    8.3227   -2.8587    0.0000 H   0  0  0  0  0  0  0  0  0  0  0  0
    8.6556    1.0447    0.0000 C   0  0  0  0  0  0  0  0  0  0  0  0
   10.0412    0.2448    0.0000 O   0  0  0  0  0  0  0  0  0  0  0  0
   11.4268    1.0449    0.0000 H   0  0  0  0  0  0  0  0  0  0  0  0
    8.6556    2.6449    0.0000 C   0  0  0  0  0  0  0  0  0  0  0  0
   10.0412    3.4448    0.0000 H   0  0  0  0  0  0  0  0  0  0  0  0
    7.2700    3.4448    0.0000 C   0  0  0  0  0  0  0  0  0  0  0  0
    7.2700    5.0448    0.0000 C   0  0  0  0  0  0  0  0  0  0  0  0
    7.2700    6.6448    0.0000 H   0  0  0  0  0  0  0  0  0  0  0  0
    8.6556    5.8449    0.0000 H   0  0  0  0  0  0  0  0  0  0  0  0
    5.8844    5.8447    0.0000 H   0  0  0  0  0  0  0  0  0  0  0  0
    1.8944    4.3927    0.0000 C   0  0  0  0  0  0  0  0  0  0  0  0
    2.4416    5.8962    0.0000 C   0  0  0  0  0  0  0  0  0  0  0  0
    2.9888    7.3997    0.0000 H   0  0  0  0  0  0  0  0  0  0  0  0
    1.4132    7.1218    0.0000 H   0  0  0  0  0  0  0  0  0  0  0  0
    4.0173    6.1740    0.0000 H   0  0  0  0  0  0  0  0  0  0  0  0
    0.3188    4.1148    0.0000 C   0  0  0  0  0  0  0  0  0  0  0  0
   -0.7097    5.3405    0.0000 H   0  0  0  0  0  0  0  0  0  0  0  0
   -0.2285    2.6113    0.0000 C   0  0  0  0  0  0  0  0  0  0  0  0
   -1.8284    2.6113    0.0000 O   0  0  0  0  0  0  0  0  0  0  0  0
   -2.6285    3.9970    0.0000 H   0  0  0  0  0  0  0  0  0  0  0  0
   -0.7999   -1.3856    0.0000 C   0  0  0  0  0  0  0  0  0  0  0  0
   -1.6001   -2.7713    0.0000 H   0  0  0  0  0  0  0  0  0  0  0  0
   -0.2527   -2.8891    0.0000 H   0  0  0  0  0  0  0  0  0  0  0  0
   -2.3758   -1.6635    0.0000 H   0  0  0  0  0  0  0  0  0  0  0  0
   -1.3856    0.7999    0.0000 C   0  0  0  0  0  0  0  0  0  0  0  0
   -2.6113    1.8284    0.0000 H   0  0  0  0  0  0  0  0  0  0  0  0
   -2.8891    0.2528    0.0000 H   0  0  0  0  0  0  0  0  0  0  0  0
   -1.6634   -0.7756    0.0000 H   0  0  0  0  0  0  0  0  0  0  0  0
  1  2  1  0  0  0  0
  1  3  1  0  0  0  0
  1  4  1  0  0  0  0
  1  5  1  0  0  0  0
  5  6  1  0  0  0  0
  6  7  1  0  0  0  0
  7  8  1  0  0  0  0
  7  9  2  0  0  0  0
  9 10  1  0  0  0  0
 10 11  1  0  0  0  0
 11 12  1  0  0  0  0
 12 13  1  0  0  0  0
 12 14  2  0  0  0  0
 14 15  1  0  0  0  0
 15 16  1  0  0  0  0
 16 17  1  0  0  0  0
 16 18  1  0  0  0  0
 16 19  1  0  0  0  0
 15 20  1  0  0  0  0
 20 21  1  0  0  0  0
 20 22  1  0  0  0  0
 20 23  1  0  0  0  0
 15 24  1  0  0  0  0
 24 25  1  0  0  0  0
 24 26  1  0  0  0  0
 24 27  1  0  0  0  0
 14 28  1  0  0  0  0
 28 29  1  0  0  0  0
 29 30  1  0  0  0  0
 28 31  2  0  0  0  0
 31 32  1  0  0  0  0
 31 33  1  0  0  0  0
 33 11  2  0  0  0  0
 33 34  1  0  0  0  0
 34 35  1  0  0  0  0
 34 36  1  0  0  0  0
 34 37  1  0  0  0  0
  9 38  1  0  0  0  0
 38 39  1  0  0  0  0
 39 40  1  0  0  0  0
 39 41  1  0  0  0  0
 39 42  1  0  0  0  0
 38 43  2  0  0  0  0
 43 44  1  0  0  0  0
 43 45  1  0  0  0  0
 45  6  2  0  0  0  0
 45 46  1  0  0  0  0
 46 47  1  0  0  0  0
  5 48  1  0  0  0  0
 48 49  1  0  0  0  0
 48 50  1  0  0  0  0
 48 51  1  0  0  0  0
  5 52  1  0  0  0  0
 52 53  1  0  0  0  0
 52 54  1  0  0  0  0
 52 55  1  0  0  0  0
M  END
> <ChemID>
100311

> <source_casrn>
96-69-5

> <CAS>
96-69-5

> <SMILES>
Oc(c(cc(Sc(c(cc(O)c1C(C)(C)C)C)c1)c2C)C(C)(C)C)c2

> <NAME>
Phenol, 4,4'-thiobis 2-(1,1-dimethylethyl)-5-methyl-

> <preferred_name>
4,4'-Thiobis(6-tert-butyl-m-cresol)

> <iupac>
4,4'-sulfanediylbis(2-tert-butyl-5-methylphenol)

> <MPID>
100320

> <dsstox_substance_id>
DTXSID4021341

> <Canonical_QSARr>
CC(C)(C)c1cc(Sc2cc(c(O)cc2C)C(C)(C)C)c(C)cc1O

> <InChI_Code_QSARr>
InChI=1S/C22H30O2S/c1-13-9-17(23)15(21(3,4)5)11-19(13)25-20-12-16(22(6,7)8)18(24)10-14(20)2/h9-12,23-24H,1-8H3

> <InChI Key_QSARr>
HXIQYSLFEXIOAV-UHFFFAOYSA-N

> <Salt_Solvent>
?

> <Ready_Biodeg>
0.0

$$$$
100312
  -INDIGO-08031722522D

 37 37  0  0  0  0  0  0  0  0999 V2000
   -1.3856    2.4000    0.0000 C   0  0  0  0  0  0  0  0  0  0  0  0
   -0.0000    3.2000    0.0000 O   0  0  0  0  0  0  0  0  0  0  0  0
   -0.0000    4.8000    0.0000 H   0  0  0  0  0  0  0  0  0  0  0  0
   -1.3856    0.8000    0.0000 C   0  0  0  0  0  0  0  0  0  0  0  0
   -0.0000   -0.0000    0.0000 C   0  0  0  0  0  0  0  0  0  0  0  0
    1.3856   -0.8000    0.0000 C   0  0  0  0  0  0  0  0  0  0  0  0
    2.7713   -1.6001    0.0000 H   0  0  0  0  0  0  0  0  0  0  0  0
    2.8891   -0.2528    0.0000 H   0  0  0  0  0  0  0  0  0  0  0  0
    1.6635   -2.3757    0.0000 H   0  0  0  0  0  0  0  0  0  0  0  0
    0.8000    1.3856    0.0000 C   0  0  0  0  0  0  0  0  0  0  0  0
    1.3472    2.8892    0.0000 H   0  0  0  0  0  0  0  0  0  0  0  0
    2.3757    1.6634    0.0000 H   0  0  0  0  0  0  0  0  0  0  0  0
    1.8285    0.1600    0.0000 H   0  0  0  0  0  0  0  0  0  0  0  0
   -0.8000   -1.3857    0.0000 C   0  0  0  0  0  0  0  0  0  0  0  0
   -1.8285   -2.6113    0.0000 H   0  0  0  0  0  0  0  0  0  0  0  0
   -0.2527   -2.8891    0.0000 H   0  0  0  0  0  0  0  0  0  0  0  0
    0.7756   -1.6635    0.0000 H   0  0  0  0  0  0  0  0  0  0  0  0
   -2.7712   -0.0000    0.0000 C   0  0  0  0  0  0  0  0  0  0  0  0
   -2.7712   -1.6001    0.0000 H   0  0  0  0  0  0  0  0  0  0  0  0
   -4.1570    0.8000    0.0000 C   0  0  0  0  0  0  0  0  0  0  0  0
   -5.5425   -0.0000    0.0000 C   0  0  0  0  0  0  0  0  0  0  0  0
   -6.9281   -0.8000    0.0000 C   0  0  0  0  0  0  0  0  0  0  0  0
   -8.3139   -1.6001    0.0000 H   0  0  0  0  0  0  0  0  0  0  0  0
   -8.4317   -0.2528    0.0000 H   0  0  0  0  0  0  0  0  0  0  0  0
   -7.2061   -2.3757    0.0000 H   0  0  0  0  0  0  0  0  0  0  0  0
   -6.3425    1.3856    0.0000 C   0  0  0  0  0  0  0  0  0  0  0  0
   -6.8898    2.8892    0.0000 H   0  0  0  0  0  0  0  0  0  0  0  0
   -7.9183    1.6634    0.0000 H   0  0  0  0  0  0  0  0  0  0  0  0
   -7.3711    0.1600    0.0000 H   0  0  0  0  0  0  0  0  0  0  0  0
   -4.7426   -1.3857    0.0000 C   0  0  0  0  0  0  0  0  0  0  0  0
   -3.7140   -2.6113    0.0000 H   0  0  0  0  0  0  0  0  0  0  0  0
   -5.2898   -2.8891    0.0000 H   0  0  0  0  0  0  0  0  0  0  0  0
   -6.3182   -1.6635    0.0000 H   0  0  0  0  0  0  0  0  0  0  0  0
   -4.1570    2.4000    0.0000 C   0  0  0  0  0  0  0  0  0  0  0  0
   -5.5425    3.2000    0.0000 H   0  0  0  0  0  0  0  0  0  0  0  0
   -2.7712    3.2000    0.0000 C   0  0  0  0  0  0  0  0  0  0  0  0
   -2.7712    4.8000    0.0000 H   0  0  0  0  0  0  0  0  0  0  0  0
  1  2  1  0  0  0  0
  2  3  1  0  0  0  0
  1  4  1  0  0  0  0
  4  5  1  0  0  0  0
  5  6  1  0  0  0  0
  6  7  1  0  0  0  0
  6  8  1  0  0  0  0
  6  9  1  0  0  0  0
  5 10  1  0  0  0  0
 10 11  1  0  0  0  0
 10 12  1  0  0  0  0
 10 13  1  0  0  0  0
  5 14  1  0  0  0  0
 14 15  1  0  0  0  0
 14 16  1  0  0  0  0
 14 17  1  0  0  0  0
  4 18  2  0  0  0  0
 18 19  1  0  0  0  0
 18 20  1  0  0  0  0
 20 21  1  0  0  0  0
 21 22  1  0  0  0  0
 22 23  1  0  0  0  0
 22 24  1  0  0  0  0
 22 25  1  0  0  0  0
 21 26  1  0  0  0  0
 26 27  1  0  0  0  0
 26 28  1  0  0  0  0
 26 29  1  0  0  0  0
 21 30  1  0  0  0  0
 30 31  1  0  0  0  0
 30 32  1  0  0  0  0
 30 33  1  0  0  0  0
 20 34  2  0  0  0  0
 34 35  1  0  0  0  0
 34 36  1  0  0  0  0
 36  1  2  0  0  0  0
 36 37  1  0  0  0  0
M  END
> <ChemID>
100312

> <source_casrn>
96-76-4

> <CAS>
96-76-4

> <SMILES>
CC(C)(C)c1cc(ccc1O)C(C)(C)C

> <NAME>
Phenol, 2,4-bis(1,1-dimethylethyl)-

> <preferred_name>
2,4-Di-tert-butylphenol

> <iupac>
2,4-di-tert-butylphenol

> <MPID>
100321

> <dsstox_substance_id>
DTXSID2026602

> <Canonical_QSARr>
CC(C)(C)c1cc(ccc1O)C(C)(C)C

> <InChI_Code_QSARr>
InChI=1S/C14H22O/c1-13(2,3)10-7-8-12(15)11(9-10)14(4,5)6/h7-9,15H,1-6H3

> <InChI Key_QSARr>
ICKWICRCANNIBI-UHFFFAOYSA-N

> <Salt_Solvent>
?

> <Ready_Biodeg>
0.0

$$$$
100314
  -INDIGO-08031722522D

 16 16  0  0  0  0  0  0  0  0999 V2000
    4.1570    2.4000    0.0000 Cl  0  0  0  0  0  0  0  0  0  0  0  0
    2.7713    1.6000    0.0000 C   0  0  0  0  0  0  0  0  0  0  0  0
    2.7713    0.0000    0.0000 C   0  0  0  0  0  0  0  0  0  0  0  0
    4.1570   -0.8000    0.0000 N   0  0  0  0  0  0  0  0  0  0  0  0
    5.5426    0.0000    0.0000 O   0  0  0  0  0  0  0  0  0  0  0  0
    4.1570   -2.4000    0.0000 O   0  0  0  0  0  0  0  0  0  0  0  0
    1.3857   -0.8000    0.0000 C   0  0  0  0  0  0  0  0  0  0  0  0
    1.3857   -2.4000    0.0000 H   0  0  0  0  0  0  0  0  0  0  0  0
    0.0000    0.0000    0.0000 C   0  0  0  0  0  0  0  0  0  0  0  0
   -1.3857   -0.8000    0.0000 N   0  0  0  0  0  0  0  0  0  0  0  0
   -2.7713    0.0000    0.0000 O   0  0  0  0  0  0  0  0  0  0  0  0
   -1.3857   -2.4000    0.0000 O   0  0  0  0  0  0  0  0  0  0  0  0
    0.0000    1.6000    0.0000 C   0  0  0  0  0  0  0  0  0  0  0  0
   -1.3856    2.4000    0.0000 H   0  0  0  0  0  0  0  0  0  0  0  0
    1.3857    2.4000    0.0000 C   0  0  0  0  0  0  0  0  0  0  0  0
    1.3857    4.0000    0.0000 H   0  0  0  0  0  0  0  0  0  0  0  0
  1  2  1  0  0  0  0
  2  3  1  0  0  0  0
  3  4  1  0  0  0  0
  4  5  2  0  0  0  0
  4  6  1  0  0  0  0
  3  7  2  0  0  0  0
  7  8  1  0  0  0  0
  7  9  1  0  0  0  0
  9 10  1  0  0  0  0
 10 11  2  0  0  0  0
 10 12  1  0  0  0  0
  9 13  2  0  0  0  0
 13 14  1  0  0  0  0
 13 15  1  0  0  0  0
 15  2  2  0  0  0  0
 15 16  1  0  0  0  0
M  CHG  4   4   1   6  -1  10   1  12  -1
M  END
> <ChemID>
100314

> <source_casrn>
97-00-7

> <CAS>
97-00-7

> <SMILES>
[O-][N+](=O)c1cc(ccc1Cl)[N+]([O-])=O

> <NAME>
Benzene, 1-chloro-2,4-dinitro-

> <preferred_name>
1-Chloro-2,4-dinitrobenzene

> <iupac>
1-chloro-2,4-dinitrobenzene

> <MPID>
100323

> <dsstox_substance_id>
DTXSID6020278

> <Canonical_QSARr>
[O-][N+](=O)c1cc(ccc1Cl)[N+]([O-])=O

> <InChI_Code_QSARr>
InChI=1S/C6H3ClN2O4/c7-5-2-1-4(8(10)11)3-6(5)9(12)13/h1-3H

> <InChI Key_QSARr>
VYZAHLCBVHPDDF-UHFFFAOYSA-N

> <Salt_Solvent>
?

> <Ready_Biodeg>
0.0

$$$$
100315
  -INDIGO-08031722522D

 27 28  0  0  0  0  0  0  0  0999 V2000
    2.0570    2.4513    0.0000 O   0  0  0  0  0  0  0  0  0  0  0  0
    3.0855    3.6770    0.0000 H   0  0  0  0  0  0  0  0  0  0  0  0
    2.6041    0.9478    0.0000 C   0  0  0  0  0  0  0  0  0  0  0  0
    4.1799    0.6700    0.0000 C   0  0  0  0  0  0  0  0  0  0  0  0
    5.2083    1.8957    0.0000 H   0  0  0  0  0  0  0  0  0  0  0  0
    4.7270   -0.8335    0.0000 C   0  0  0  0  0  0  0  0  0  0  0  0
    6.3028   -1.1113    0.0000 H   0  0  0  0  0  0  0  0  0  0  0  0
    3.6986   -2.0592    0.0000 C   0  0  0  0  0  0  0  0  0  0  0  0
    4.2459   -3.5626    0.0000 Cl  0  0  0  0  0  0  0  0  0  0  0  0
    2.1230   -1.7813    0.0000 C   0  0  0  0  0  0  0  0  0  0  0  0
    1.0945   -3.0071    0.0000 H   0  0  0  0  0  0  0  0  0  0  0  0
    1.5757   -0.2779    0.0000 C   0  0  0  0  0  0  0  0  0  0  0  0
    0.0001   -0.0000    0.0000 C   0  0  0  0  0  0  0  0  0  0  0  0
    0.3462    1.5621    0.0000 H   0  0  0  0  0  0  0  0  0  0  0  0
   -0.8597    1.3495    0.0000 H   0  0  0  0  0  0  0  0  0  0  0  0
   -1.3857   -0.8000    0.0000 C   0  0  0  0  0  0  0  0  0  0  0  0
   -1.3857   -2.4000    0.0000 C   0  0  0  0  0  0  0  0  0  0  0  0
    0.0001   -3.2001    0.0000 H   0  0  0  0  0  0  0  0  0  0  0  0
   -2.7713   -3.2001    0.0000 C   0  0  0  0  0  0  0  0  0  0  0  0
   -2.7713   -4.8000    0.0000 Cl  0  0  0  0  0  0  0  0  0  0  0  0
   -4.1569   -2.4000    0.0000 C   0  0  0  0  0  0  0  0  0  0  0  0
   -5.5426   -3.2001    0.0000 H   0  0  0  0  0  0  0  0  0  0  0  0
   -4.1569   -0.8000    0.0000 C   0  0  0  0  0  0  0  0  0  0  0  0
   -5.5426   -0.0000    0.0000 H   0  0  0  0  0  0  0  0  0  0  0  0
   -2.7713   -0.0000    0.0000 C   0  0  0  0  0  0  0  0  0  0  0  0
   -2.7713    1.6000    0.0000 O   0  0  0  0  0  0  0  0  0  0  0  0
   -4.1569    2.4001    0.0000 H   0  0  0  0  0  0  0  0  0  0  0  0
  1  2  1  0  0  0  0
  1  3  1  0  0  0  0
  3  4  1  0  0  0  0
  4  5  1  0  0  0  0
  4  6  2  0  0  0  0
  6  7  1  0  0  0  0
  6  8  1  0  0  0  0
  8  9  1  0  0  0  0
  8 10  2  0  0  0  0
 10 11  1  0  0  0  0
 10 12  1  0  0  0  0
 12  3  2  0  0  0  0
 12 13  1  0  0  0  0
 13 14  1  0  0  0  0
 13 15  1  0  0  0  0
 13 16  1  0  0  0  0
 16 17  1  0  0  0  0
 17 18  1  0  0  0  0
 17 19  2  0  0  0  0
 19 20  1  0  0  0  0
 19 21  1  0  0  0  0
 21 22  1  0  0  0  0
 21 23  2  0  0  0  0
 23 24  1  0  0  0  0
 23 25  1  0  0  0  0
 25 16  2  0  0  0  0
 25 26  1  0  0  0  0
 26 27  1  0  0  0  0
M  END
> <ChemID>
100315

> <source_casrn>
97-23-4

> <CAS>
97-23-4

> <SMILES>
Oc(c(cc(c1)Cl)Cc(c(O)ccc2Cl)c2)c1

> <NAME>
Phenol, 2,2'-methylenebis 4-chloro-

> <preferred_name>
Dichlorophen

> <iupac>
2,2'-methanediylbis(4-chlorophenol)

> <MPID>
100324

> <dsstox_substance_id>
DTXSID6021824

> <Canonical_QSARr>
Oc1ccc(Cl)cc1Cc1cc(Cl)ccc1O

> <InChI_Code_QSARr>
InChI=1S/C13H10Cl2O2/c14-10-1-3-12(16)8(6-10)5-9-7-11(15)2-4-13(9)17/h1-4,6-7,16-17H,5H2

> <InChI Key_QSARr>
MDNWOSOZYLHTCG-UHFFFAOYSA-N

> <Salt_Solvent>
?

> <Ready_Biodeg>
0.0

$$$$
100316
  -INDIGO-08031722522D

 20 20  0  0  0  0  0  0  0  0999 V2000
    0.0000    1.5999    0.0000 C   0  0  0  0  0  0  0  0  0  0  0  0
    1.3857    2.4000    0.0000 C   0  0  0  0  0  0  0  0  0  0  0  0
    1.3857    4.0000    0.0000 H   0  0  0  0  0  0  0  0  0  0  0  0
    2.7713    1.6001    0.0000 C   0  0  0  0  0  0  0  0  0  0  0  0
    4.1570    2.4000    0.0000 H   0  0  0  0  0  0  0  0  0  0  0  0
    2.7713   -0.0001    0.0000 C   0  0  0  0  0  0  0  0  0  0  0  0
    4.1570   -0.8000    0.0000 N   0  0  0  0  0  0  0  0  0  0  0  0
    5.5426   -0.0001    0.0000 O   0  0  0  0  0  0  0  0  0  0  0  0
    4.1570   -2.4000    0.0000 O   0  0  0  0  0  0  0  0  0  0  0  0
    1.3857   -0.8000    0.0000 C   0  0  0  0  0  0  0  0  0  0  0  0
    1.3857   -2.4000    0.0000 H   0  0  0  0  0  0  0  0  0  0  0  0
    0.0000   -0.0001    0.0000 C   0  0  0  0  0  0  0  0  0  0  0  0
   -1.3856   -0.8000    0.0000 O   0  0  0  0  0  0  0  0  0  0  0  0
   -1.3856   -2.4000    0.0000 C   0  0  0  0  0  0  0  0  0  0  0  0
   -2.7713   -3.2001    0.0000 H   0  0  0  0  0  0  0  0  0  0  0  0
   -1.3856   -4.0000    0.0000 H   0  0  0  0  0  0  0  0  0  0  0  0
   -2.7713   -1.6001    0.0000 H   0  0  0  0  0  0  0  0  0  0  0  0
   -1.3856    2.4000    0.0000 N   0  0  0  0  0  0  0  0  0  0  0  0
   -1.3856    4.0000    0.0000 H   0  0  0  0  0  0  0  0  0  0  0  0
   -2.7713    1.5999    0.0000 H   0  0  0  0  0  0  0  0  0  0  0  0
  1  2  1  0  0  0  0
  2  3  1  0  0  0  0
  2  4  2  0  0  0  0
  4  5  1  0  0  0  0
  4  6  1  0  0  0  0
  6  7  1  0  0  0  0
  7  8  1  0  0  0  0
  7  9  2  0  0  0  0
  6 10  2  0  0  0  0
 10 11  1  0  0  0  0
 10 12  1  0  0  0  0
 12  1  2  0  0  0  0
 12 13  1  0  0  0  0
 13 14  1  0  0  0  0
 14 15  1  0  0  0  0
 14 16  1  0  0  0  0
 14 17  1  0  0  0  0
  1 18  1  0  0  0  0
 18 19  1  0  0  0  0
 18 20  1  0  0  0  0
M  CHG  2   7   1   8  -1
M  END
> <ChemID>
100316

> <source_casrn>
97-52-9

> <CAS>
97-52-9

> <SMILES>
COc1cc(ccc1N)[N+]([O-])=O

> <NAME>
Benzenamine, 2-methoxy-4-nitro-

> <preferred_name>
2-Methoxy-4-nitroaniline

> <iupac>
2-methoxy-4-nitroaniline

> <MPID>
100325

> <dsstox_substance_id>
DTXSID0038700

> <Canonical_QSARr>
COc1cc(ccc1N)[N+]([O-])=O

> <InChI_Code_QSARr>
InChI=1S/C7H8N2O3/c1-12-7-4-5(9(10)11)2-3-6(7)8/h2-4H,8H2,1H3

> <InChI Key_QSARr>
GVBHRNIWBGTNQA-UHFFFAOYSA-N

> <Salt_Solvent>
?

> <Ready_Biodeg>
0.0

$$$$
100318
  -INDIGO-08031722522D

 11 11  0  0  0  0  0  0  0  0999 V2000
    2.2421    1.6289    0.0000 O   0  0  0  0  0  0  0  0  0  0  0  0
    1.5912    0.1672    0.0000 C   0  0  0  0  0  0  0  0  0  0  0  0
    2.5317   -1.1271    0.0000 H   0  0  0  0  0  0  0  0  0  0  0  0
   -0.0000    0.0000    0.0000 C   0  0  0  0  0  0  0  0  0  0  0  0
   -1.0706    1.1891    0.0000 C   0  0  0  0  0  0  0  0  0  0  0  0
   -0.7379    2.7541    0.0000 H   0  0  0  0  0  0  0  0  0  0  0  0
   -2.5322    0.5383    0.0000 C   0  0  0  0  0  0  0  0  0  0  0  0
   -3.9179    1.3382    0.0000 H   0  0  0  0  0  0  0  0  0  0  0  0
   -2.3650   -1.0530    0.0000 C   0  0  0  0  0  0  0  0  0  0  0  0
   -3.5541   -2.1236    0.0000 H   0  0  0  0  0  0  0  0  0  0  0  0
   -0.8000   -1.3856    0.0000 O   0  0  0  0  0  0  0  0  0  0  0  0
  1  2  2  0  0  0  0
  2  3  1  0  0  0  0
  2  4  1  0  0  0  0
  4  5  2  0  0  0  0
  5  6  1  0  0  0  0
  5  7  1  0  0  0  0
  7  8  1  0  0  0  0
  7  9  2  0  0  0  0
  9 10  1  0  0  0  0
  9 11  1  0  0  0  0
 11  4  1  0  0  0  0
M  END
> <ChemID>
100318

> <source_casrn>
98-01-1

> <CAS>
98-01-1

> <SMILES>
O=Cc1ccco1

> <NAME>
2-Furancarboxaldehyde

> <preferred_name>
Furfural

> <iupac>
furan-2-carbaldehyde

> <MPID>
100327

> <dsstox_substance_id>
DTXSID1020647

> <Canonical_QSARr>
O=Cc1ccco1

> <InChI_Code_QSARr>
InChI=1S/C5H4O2/c6-4-5-2-1-3-7-5/h1-4H

> <InChI Key_QSARr>
HYBBIBNJHNGZAN-UHFFFAOYSA-N

> <Salt_Solvent>
?

> <Ready_Biodeg>
1.0

$$$$
100319
  -INDIGO-08031722522D

 24 24  0  0  0  0  0  0  0  0999 V2000
   -1.5999    0.0000    0.0000 C   0  0  0  0  0  0  0  0  0  0  0  0
   -2.4000    1.3857    0.0000 C   0  0  0  0  0  0  0  0  0  0  0  0
   -1.5999    2.7713    0.0000 H   0  0  0  0  0  0  0  0  0  0  0  0
   -4.0000    1.3857    0.0000 C   0  0  0  0  0  0  0  0  0  0  0  0
   -4.7999    2.7713    0.0000 H   0  0  0  0  0  0  0  0  0  0  0  0
   -4.8001    0.0000    0.0000 C   0  0  0  0  0  0  0  0  0  0  0  0
   -6.4000    0.0000    0.0000 H   0  0  0  0  0  0  0  0  0  0  0  0
   -4.0000   -1.3857    0.0000 C   0  0  0  0  0  0  0  0  0  0  0  0
   -4.8001   -2.7713    0.0000 H   0  0  0  0  0  0  0  0  0  0  0  0
   -2.4000   -1.3857    0.0000 C   0  0  0  0  0  0  0  0  0  0  0  0
   -1.5999   -2.7713    0.0000 H   0  0  0  0  0  0  0  0  0  0  0  0
    0.0000    0.0000    0.0000 C   0  0  0  0  0  0  0  0  0  0  0  0
    1.6001   -0.0000    0.0000 C   0  0  0  0  0  0  0  0  0  0  0  0
    3.2000   -0.0000    0.0000 H   0  0  0  0  0  0  0  0  0  0  0  0
    2.6284   -1.2256    0.0000 H   0  0  0  0  0  0  0  0  0  0  0  0
    2.6284    1.2256    0.0000 H   0  0  0  0  0  0  0  0  0  0  0  0
    0.0000    1.6000    0.0000 C   0  0  0  0  0  0  0  0  0  0  0  0
   -0.2779    3.1757    0.0000 H   0  0  0  0  0  0  0  0  0  0  0  0
    1.2257    2.6285    0.0000 H   0  0  0  0  0  0  0  0  0  0  0  0
    1.5035    1.0527    0.0000 H   0  0  0  0  0  0  0  0  0  0  0  0
    0.0000   -1.6000    0.0000 C   0  0  0  0  0  0  0  0  0  0  0  0
   -0.2779   -3.1757    0.0000 H   0  0  0  0  0  0  0  0  0  0  0  0
    1.2257   -2.6285    0.0000 H   0  0  0  0  0  0  0  0  0  0  0  0
    1.5035   -1.0527    0.0000 H   0  0  0  0  0  0  0  0  0  0  0  0
  1  2  1  0  0  0  0
  2  3  1  0  0  0  0
  2  4  2  0  0  0  0
  4  5  1  0  0  0  0
  4  6  1  0  0  0  0
  6  7  1  0  0  0  0
  6  8  2  0  0  0  0
  8  9  1  0  0  0  0
  8 10  1  0  0  0  0
 10  1  2  0  0  0  0
 10 11  1  0  0  0  0
  1 12  1  0  0  0  0
 12 13  1  0  0  0  0
 13 14  1  0  0  0  0
 13 15  1  0  0  0  0
 13 16  1  0  0  0  0
 12 17  1  0  0  0  0
 17 18  1  0  0  0  0
 17 19  1  0  0  0  0
 17 20  1  0  0  0  0
 12 21  1  0  0  0  0
 21 22  1  0  0  0  0
 21 23  1  0  0  0  0
 21 24  1  0  0  0  0
M  END
> <ChemID>
100319

> <source_casrn>
98-06-6

> <CAS>
98-06-6

> <SMILES>
CC(C)(C)c1ccccc1

> <NAME>
t-Butylbenzene

> <preferred_name>
tert-Butylbenzene

> <iupac>
tert-butylbenzene

> <MPID>
100328

> <dsstox_substance_id>
DTXSID3047138

> <Canonical_QSARr>
CC(C)(C)c1ccccc1

> <InChI_Code_QSARr>
InChI=1S/C10H14/c1-10(2,3)9-7-5-4-6-8-9/h4-8H,1-3H3

> <InChI Key_QSARr>
YTZKOQUCBOVLHL-UHFFFAOYSA-N

> <Salt_Solvent>
?

> <Ready_Biodeg>
1.0

$$$$
100320
  -INDIGO-08031722522D

 15 15  0  0  0  0  0  0  0  0999 V2000
   -2.4001    1.3856    0.0000 Cl  0  0  0  0  0  0  0  0  0  0  0  0
   -1.6000   -0.0000    0.0000 C   0  0  0  0  0  0  0  0  0  0  0  0
    0.0000   -0.0000    0.0000 C   0  0  0  0  0  0  0  0  0  0  0  0
    0.8001    1.3856    0.0000 C   0  0  0  0  0  0  0  0  0  0  0  0
    0.0000    2.7713    0.0000 H   0  0  0  0  0  0  0  0  0  0  0  0
    2.4001    1.3856    0.0000 C   0  0  0  0  0  0  0  0  0  0  0  0
    3.2000    2.7713    0.0000 H   0  0  0  0  0  0  0  0  0  0  0  0
    3.2000   -0.0000    0.0000 C   0  0  0  0  0  0  0  0  0  0  0  0
    4.8000   -0.0000    0.0000 H   0  0  0  0  0  0  0  0  0  0  0  0
    2.4001   -1.3856    0.0000 C   0  0  0  0  0  0  0  0  0  0  0  0
    3.2000   -2.7713    0.0000 H   0  0  0  0  0  0  0  0  0  0  0  0
    0.8001   -1.3856    0.0000 C   0  0  0  0  0  0  0  0  0  0  0  0
    0.0000   -2.7713    0.0000 H   0  0  0  0  0  0  0  0  0  0  0  0
   -3.2000   -0.0000    0.0000 Cl  0  0  0  0  0  0  0  0  0  0  0  0
   -2.3999   -1.3856    0.0000 Cl  0  0  0  0  0  0  0  0  0  0  0  0
  1  2  1  0  0  0  0
  2  3  1  0  0  0  0
  3  4  1  0  0  0  0
  4  5  1  0  0  0  0
  4  6  2  0  0  0  0
  6  7  1  0  0  0  0
  6  8  1  0  0  0  0
  8  9  1  0  0  0  0
  8 10  2  0  0  0  0
 10 11  1  0  0  0  0
 10 12  1  0  0  0  0
 12  3  2  0  0  0  0
 12 13  1  0  0  0  0
  2 14  1  0  0  0  0
  2 15  1  0  0  0  0
M  END
> <ChemID>
100320

> <source_casrn>
98-07-7

> <CAS>
98-07-7

> <SMILES>
ClC(Cl)(Cl)c1ccccc1

> <NAME>
Benzene, (trichloromethyl)-

> <preferred_name>
Benzotrichloride

> <iupac>
(trichloromethyl)benzene

> <MPID>
100329

> <dsstox_substance_id>
DTXSID1020148

> <Canonical_QSARr>
ClC(Cl)(Cl)c1ccccc1

> <InChI_Code_QSARr>
InChI=1S/C7H5Cl3/c8-7(9,10)6-4-2-1-3-5-6/h1-5H

> <InChI Key_QSARr>
XEMRAKSQROQPBR-UHFFFAOYSA-N

> <Salt_Solvent>
?

> <Ready_Biodeg>
1.0

$$$$
100322
  -INDIGO-08031722522D

 17 17  0  0  0  0  0  0  0  0999 V2000
   -0.0000   -0.0000    0.0000 C   0  0  0  0  0  0  0  0  0  0  0  0
   -0.8000    1.3856    0.0000 C   0  0  0  0  0  0  0  0  0  0  0  0
   -0.0000    2.7713    0.0000 H   0  0  0  0  0  0  0  0  0  0  0  0
   -2.4000    1.3856    0.0000 C   0  0  0  0  0  0  0  0  0  0  0  0
   -3.2001    2.7713    0.0000 H   0  0  0  0  0  0  0  0  0  0  0  0
   -3.2001   -0.0000    0.0000 C   0  0  0  0  0  0  0  0  0  0  0  0
   -4.8000   -0.0000    0.0000 H   0  0  0  0  0  0  0  0  0  0  0  0
   -2.4000   -1.3856    0.0000 C   0  0  0  0  0  0  0  0  0  0  0  0
   -3.2001   -2.7713    0.0000 H   0  0  0  0  0  0  0  0  0  0  0  0
   -0.8000   -1.3856    0.0000 C   0  0  0  0  0  0  0  0  0  0  0  0
   -0.0000   -2.7713    0.0000 H   0  0  0  0  0  0  0  0  0  0  0  0
    1.6000   -0.0000    0.0000 S   0  0  0  0  0  0  0  0  0  0  0  0
    3.2000   -0.0000    0.0000 N   0  0  0  0  0  0  0  0  0  0  0  0
    4.0000   -1.3856    0.0000 H   0  0  0  0  0  0  0  0  0  0  0  0
    4.0000    1.3856    0.0000 H   0  0  0  0  0  0  0  0  0  0  0  0
    1.6000    1.6000    0.0000 O   0  0  0  0  0  0  0  0  0  0  0  0
    1.6000   -1.6000    0.0000 O   0  0  0  0  0  0  0  0  0  0  0  0
  1  2  1  0  0  0  0
  2  3  1  0  0  0  0
  2  4  2  0  0  0  0
  4  5  1  0  0  0  0
  4  6  1  0  0  0  0
  6  7  1  0  0  0  0
  6  8  2  0  0  0  0
  8  9  1  0  0  0  0
  8 10  1  0  0  0  0
 10  1  2  0  0  0  0
 10 11  1  0  0  0  0
  1 12  1  0  0  0  0
 12 13  1  0  0  0  0
 13 14  1  0  0  0  0
 13 15  1  0  0  0  0
 12 16  2  0  0  0  0
 12 17  2  0  0  0  0
M  END
> <ChemID>
100322

> <source_casrn>
98-10-2

> <CAS>
98-10-2

> <SMILES>
NS(=O)(=O)c1ccccc1

> <NAME>
Benzenesulfonamide

> <preferred_name>
Benzenesulfonamide

> <iupac>
Benzenesulfonamide

> <MPID>
100331

> <dsstox_substance_id>
DTXSID1059159

> <Canonical_QSARr>
NS(=O)(=O)c1ccccc1

> <InChI_Code_QSARr>
InChI=1S/C6H7NO2S/c7-10(8,9)6-4-2-1-3-5-6/h1-5H,(H2,7,8,9)

> <InChI Key_QSARr>
KHBQMWCZKVMBLN-UHFFFAOYSA-N

> <Salt_Solvent>
?

> <Ready_Biodeg>
0.0

$$$$
100323
  -INDIGO-08031722522D

 16 16  0  0  0  0  0  0  0  0999 V2000
    0.5857    2.1856    0.0000 O   0  0  0  0  0  0  0  0  0  0  0  0
    1.3856    0.8000    0.0000 S   0  0  0  0  0  0  0  0  0  0  0  0
    2.1856   -0.5856    0.0000 O   0  0  0  0  0  0  0  0  0  0  0  0
    2.7713    1.6000    0.0000 O   0  0  0  0  0  0  0  0  0  0  0  0
    4.1569    0.8000    0.0000 H   0  0  0  0  0  0  0  0  0  0  0  0
    0.0001   -0.0000    0.0000 C   0  0  0  0  0  0  0  0  0  0  0  0
    0.0001   -1.6000    0.0000 C   0  0  0  0  0  0  0  0  0  0  0  0
    1.3856   -2.4000    0.0000 H   0  0  0  0  0  0  0  0  0  0  0  0
   -1.3856   -2.4000    0.0000 C   0  0  0  0  0  0  0  0  0  0  0  0
   -1.3856   -4.0000    0.0000 H   0  0  0  0  0  0  0  0  0  0  0  0
   -2.7712   -1.6000    0.0000 C   0  0  0  0  0  0  0  0  0  0  0  0
   -4.1569   -2.4000    0.0000 H   0  0  0  0  0  0  0  0  0  0  0  0
   -2.7712   -0.0000    0.0000 C   0  0  0  0  0  0  0  0  0  0  0  0
   -4.1569    0.8000    0.0000 H   0  0  0  0  0  0  0  0  0  0  0  0
   -1.3856    0.8000    0.0000 C   0  0  0  0  0  0  0  0  0  0  0  0
   -1.3856    2.4000    0.0000 H   0  0  0  0  0  0  0  0  0  0  0  0
  1  2  2  0  0  0  0
  2  3  2  0  0  0  0
  2  4  1  0  0  0  0
  4  5  1  0  0  0  0
  2  6  1  0  0  0  0
  6  7  1  0  0  0  0
  7  8  1  0  0  0  0
  7  9  2  0  0  0  0
  9 10  1  0  0  0  0
  9 11  1  0  0  0  0
 11 12  1  0  0  0  0
 11 13  2  0  0  0  0
 13 14  1  0  0  0  0
 13 15  1  0  0  0  0
 15  6  2  0  0  0  0
 15 16  1  0  0  0  0
M  END
> <ChemID>
100323

> <source_casrn>
98-11-3

> <CAS>
98-11-3

> <SMILES>
O=S(=O)(O)c(cccc1)c1

> <NAME>
Benzene sulfonic acid

> <preferred_name>
Benzenesulfonic acid

> <iupac>
benzenesulfonic acid

> <MPID>
100332

> <dsstox_substance_id>
DTXSID9024568

> <Canonical_QSARr>
OS(=O)(=O)c1ccccc1

> <InChI_Code_QSARr>
InChI=1S/C6H6O3S/c7-10(8,9)6-4-2-1-3-5-6/h1-5H,(H,7,8,9)

> <InChI Key_QSARr>
SRSXLGNVWSONIS-UHFFFAOYSA-N

> <Salt_Solvent>
?

> <Ready_Biodeg>
1.0

$$$$
100324
  -INDIGO-08031722522D

 15 15  0  0  0  0  0  0  0  0999 V2000
    2.4001    1.3856    0.0000 F   0  0  0  0  0  0  0  0  0  0  0  0
    1.6000   -0.0000    0.0000 C   0  0  0  0  0  0  0  0  0  0  0  0
    3.2000   -0.0000    0.0000 F   0  0  0  0  0  0  0  0  0  0  0  0
    2.4001   -1.3856    0.0000 F   0  0  0  0  0  0  0  0  0  0  0  0
    0.0000   -0.0000    0.0000 C   0  0  0  0  0  0  0  0  0  0  0  0
   -0.7999    1.3856    0.0000 C   0  0  0  0  0  0  0  0  0  0  0  0
    0.0000    2.7713    0.0000 H   0  0  0  0  0  0  0  0  0  0  0  0
   -2.4001    1.3856    0.0000 C   0  0  0  0  0  0  0  0  0  0  0  0
   -3.2000    2.7713    0.0000 H   0  0  0  0  0  0  0  0  0  0  0  0
   -3.2000   -0.0000    0.0000 C   0  0  0  0  0  0  0  0  0  0  0  0
   -4.8000   -0.0000    0.0000 H   0  0  0  0  0  0  0  0  0  0  0  0
   -2.4001   -1.3856    0.0000 C   0  0  0  0  0  0  0  0  0  0  0  0
   -3.2000   -2.7713    0.0000 Cl  0  0  0  0  0  0  0  0  0  0  0  0
   -0.8001   -1.3856    0.0000 C   0  0  0  0  0  0  0  0  0  0  0  0
    0.0000   -2.7713    0.0000 H   0  0  0  0  0  0  0  0  0  0  0  0
  1  2  1  0  0  0  0
  2  3  1  0  0  0  0
  2  4  1  0  0  0  0
  2  5  1  0  0  0  0
  5  6  1  0  0  0  0
  6  7  1  0  0  0  0
  6  8  2  0  0  0  0
  8  9  1  0  0  0  0
  8 10  1  0  0  0  0
 10 11  1  0  0  0  0
 10 12  2  0  0  0  0
 12 13  1  0  0  0  0
 12 14  1  0  0  0  0
 14  5  2  0  0  0  0
 14 15  1  0  0  0  0
M  END
> <ChemID>
100324

> <source_casrn>
98-15-7

> <CAS>
98-15-7

> <SMILES>
FC(F)(F)c1cccc(Cl)c1

> <NAME>
Benzene, 1-chloro-3-(trifluoromethyl)-

> <preferred_name>
3-Chlorobenzotrifluoride

> <iupac>
1-chloro-3-(trifluoromethyl)benzene

> <MPID>
100333

> <dsstox_substance_id>
DTXSID4024773

> <Canonical_QSARr>
FC(F)(F)c1cccc(Cl)c1

> <InChI_Code_QSARr>
InChI=1S/C7H4ClF3/c8-6-3-1-2-5(4-6)7(9,10)11/h1-4H

> <InChI Key_QSARr>
YTCGOUNVIAWCMG-UHFFFAOYSA-N

> <Salt_Solvent>
?

> <Ready_Biodeg>
0.0

$$$$
100326
  -INDIGO-08031722522D

 20 20  0  0  0  0  0  0  0  0999 V2000
   -0.0001   -0.0000    0.0000 C   0  0  0  0  0  0  0  0  0  0  0  0
   -0.0001   -1.6000    0.0000 C   0  0  0  0  0  0  0  0  0  0  0  0
    1.3856   -2.4000    0.0000 H   0  0  0  0  0  0  0  0  0  0  0  0
   -1.3856   -2.4000    0.0000 C   0  0  0  0  0  0  0  0  0  0  0  0
   -1.3856   -4.0000    0.0000 H   0  0  0  0  0  0  0  0  0  0  0  0
   -2.7712   -1.6000    0.0000 C   0  0  0  0  0  0  0  0  0  0  0  0
   -4.1569   -2.4000    0.0000 H   0  0  0  0  0  0  0  0  0  0  0  0
   -2.7712   -0.0000    0.0000 C   0  0  0  0  0  0  0  0  0  0  0  0
   -4.1569    0.8000    0.0000 S   0  0  0  0  0  0  0  0  0  0  0  0
   -4.9570   -0.5856    0.0000 O   0  0  0  0  0  0  0  0  0  0  0  0
   -5.5425    1.6000    0.0000 O   0  0  0  0  0  0  0  0  0  0  0  0
   -6.9282    0.8000    0.0000 H   0  0  0  0  0  0  0  0  0  0  0  0
   -3.3570    2.1856    0.0000 O   0  0  0  0  0  0  0  0  0  0  0  0
   -1.3856    0.8000    0.0000 C   0  0  0  0  0  0  0  0  0  0  0  0
   -1.3856    2.4000    0.0000 H   0  0  0  0  0  0  0  0  0  0  0  0
    1.3856    0.8000    0.0000 S   0  0  0  0  0  0  0  0  0  0  0  0
    2.1857   -0.5856    0.0000 O   0  0  0  0  0  0  0  0  0  0  0  0
    2.7713    1.6000    0.0000 O   0  0  0  0  0  0  0  0  0  0  0  0
    4.1569    0.8000    0.0000 H   0  0  0  0  0  0  0  0  0  0  0  0
    0.5857    2.1856    0.0000 O   0  0  0  0  0  0  0  0  0  0  0  0
  1  2  1  0  0  0  0
  2  3  1  0  0  0  0
  2  4  2  0  0  0  0
  4  5  1  0  0  0  0
  4  6  1  0  0  0  0
  6  7  1  0  0  0  0
  6  8  2  0  0  0  0
  8  9  1  0  0  0  0
  9 10  2  0  0  0  0
  9 11  1  0  0  0  0
 11 12  1  0  0  0  0
  9 13  2  0  0  0  0
  8 14  1  0  0  0  0
 14  1  2  0  0  0  0
 14 15  1  0  0  0  0
  1 16  1  0  0  0  0
 16 17  2  0  0  0  0
 16 18  1  0  0  0  0
 18 19  1  0  0  0  0
 16 20  2  0  0  0  0
M  END
> <ChemID>
100326

> <source_casrn>
98-48-6

> <CAS>
98-48-6

> <SMILES>
OS(=O)(=O)c1cc(ccc1)S(O)(=O)=O

> <NAME>
1,3-Benzenedisulfonic acid

> <preferred_name>
Benzene-1,3-disulfonic acid

> <iupac>
benzene-1,3-disulfonic acid

> <MPID>
100335

> <dsstox_substance_id>
DTXSID8045060

> <Canonical_QSARr>
OS(=O)(=O)c1cc(ccc1)S(O)(=O)=O

> <InChI_Code_QSARr>
InChI=1S/C6H6O6S2/c7-13(8,9)5-2-1-3-6(4-5)14(10,11)12/h1-4H,(H,7,8,9)(H,10,11,12)

> <InChI Key_QSARr>
WRUAHXANJKHFIL-UHFFFAOYSA-N

> <Salt_Solvent>
?

> <Ready_Biodeg>
0.0

$$$$
100327
  -INDIGO-08031722522D

 27 27  0  0  0  0  0  0  0  0999 V2000
   -1.5999    0.0000    0.0000 C   0  0  0  0  0  0  0  0  0  0  0  0
   -2.3999    1.3857    0.0000 C   0  0  0  0  0  0  0  0  0  0  0  0
   -1.5999    2.7713    0.0000 H   0  0  0  0  0  0  0  0  0  0  0  0
   -4.0001    1.3857    0.0000 C   0  0  0  0  0  0  0  0  0  0  0  0
   -4.8000    2.7713    0.0000 H   0  0  0  0  0  0  0  0  0  0  0  0
   -4.8000    0.0000    0.0000 C   0  0  0  0  0  0  0  0  0  0  0  0
   -6.4000    0.0000    0.0000 C   0  0  0  0  0  0  0  0  0  0  0  0
   -8.0000    0.0000    0.0000 H   0  0  0  0  0  0  0  0  0  0  0  0
   -7.2000   -1.3857    0.0000 H   0  0  0  0  0  0  0  0  0  0  0  0
   -7.2000    1.3857    0.0000 H   0  0  0  0  0  0  0  0  0  0  0  0
   -4.0001   -1.3857    0.0000 C   0  0  0  0  0  0  0  0  0  0  0  0
   -4.8000   -2.7713    0.0000 H   0  0  0  0  0  0  0  0  0  0  0  0
   -2.3999   -1.3857    0.0000 C   0  0  0  0  0  0  0  0  0  0  0  0
   -1.5999   -2.7713    0.0000 H   0  0  0  0  0  0  0  0  0  0  0  0
    0.0000    0.0000    0.0000 C   0  0  0  0  0  0  0  0  0  0  0  0
    1.6000   -0.0000    0.0000 C   0  0  0  0  0  0  0  0  0  0  0  0
    3.2000   -0.0000    0.0000 H   0  0  0  0  0  0  0  0  0  0  0  0
    2.6285   -1.2256    0.0000 H   0  0  0  0  0  0  0  0  0  0  0  0
    2.6285    1.2256    0.0000 H   0  0  0  0  0  0  0  0  0  0  0  0
    0.0000    1.6000    0.0000 C   0  0  0  0  0  0  0  0  0  0  0  0
   -0.2778    3.1757    0.0000 H   0  0  0  0  0  0  0  0  0  0  0  0
    1.2258    2.6285    0.0000 H   0  0  0  0  0  0  0  0  0  0  0  0
    1.5035    1.0527    0.0000 H   0  0  0  0  0  0  0  0  0  0  0  0
    0.0000   -1.6000    0.0000 C   0  0  0  0  0  0  0  0  0  0  0  0
   -0.2778   -3.1757    0.0000 H   0  0  0  0  0  0  0  0  0  0  0  0
    1.2258   -2.6285    0.0000 H   0  0  0  0  0  0  0  0  0  0  0  0
    1.5035   -1.0527    0.0000 H   0  0  0  0  0  0  0  0  0  0  0  0
  1  2  1  0  0  0  0
  2  3  1  0  0  0  0
  2  4  2  0  0  0  0
  4  5  1  0  0  0  0
  4  6  1  0  0  0  0
  6  7  1  0  0  0  0
  7  8  1  0  0  0  0
  7  9  1  0  0  0  0
  7 10  1  0  0  0  0
  6 11  2  0  0  0  0
 11 12  1  0  0  0  0
 11 13  1  0  0  0  0
 13  1  2  0  0  0  0
 13 14  1  0  0  0  0
  1 15  1  0  0  0  0
 15 16  1  0  0  0  0
 16 17  1  0  0  0  0
 16 18  1  0  0  0  0
 16 19  1  0  0  0  0
 15 20  1  0  0  0  0
 20 21  1  0  0  0  0
 20 22  1  0  0  0  0
 20 23  1  0  0  0  0
 15 24  1  0  0  0  0
 24 25  1  0  0  0  0
 24 26  1  0  0  0  0
 24 27  1  0  0  0  0
M  END
> <ChemID>
100327

> <source_casrn>
98-51-1

> <CAS>
98-51-1

> <SMILES>
Cc1ccc(cc1)C(C)(C)C

> <NAME>
Benzene, 1-(1,1-dimethylethyl)-4-methyl-

> <preferred_name>
4-tert-Butyltoluene

> <iupac>
1-tert-butyl-4-methylbenzene

> <MPID>
100336

> <dsstox_substance_id>
DTXSID1024704

> <Canonical_QSARr>
Cc1ccc(cc1)C(C)(C)C

> <InChI_Code_QSARr>
InChI=1S/C11H16/c1-9-5-7-10(8-6-9)11(2,3)4/h5-8H,1-4H3

> <InChI Key_QSARr>
QCWXDVFBZVHKLV-UHFFFAOYSA-N

> <Salt_Solvent>
?

> <Ready_Biodeg>
1.0

$$$$
100328
  -INDIGO-08031722522D

 25 25  0  0  0  0  0  0  0  0999 V2000
    0.0001    0.0000    0.0000 C   0  0  0  0  0  0  0  0  0  0  0  0
    1.6000    0.0000    0.0000 C   0  0  0  0  0  0  0  0  0  0  0  0
    2.4000    1.3857    0.0000 C   0  0  0  0  0  0  0  0  0  0  0  0
    1.6000    2.7713    0.0000 H   0  0  0  0  0  0  0  0  0  0  0  0
    3.9999    1.3857    0.0000 C   0  0  0  0  0  0  0  0  0  0  0  0
    4.8001    2.7713    0.0000 H   0  0  0  0  0  0  0  0  0  0  0  0
    4.8001    0.0000    0.0000 C   0  0  0  0  0  0  0  0  0  0  0  0
    6.4000    0.0000    0.0000 O   0  0  0  0  0  0  0  0  0  0  0  0
    7.2000    1.3857    0.0000 H   0  0  0  0  0  0  0  0  0  0  0  0
    3.9999   -1.3857    0.0000 C   0  0  0  0  0  0  0  0  0  0  0  0
    4.8001   -2.7713    0.0000 H   0  0  0  0  0  0  0  0  0  0  0  0
    2.4000   -1.3857    0.0000 C   0  0  0  0  0  0  0  0  0  0  0  0
    1.6000   -2.7713    0.0000 H   0  0  0  0  0  0  0  0  0  0  0  0
   -1.6000   -0.0000    0.0000 C   0  0  0  0  0  0  0  0  0  0  0  0
   -3.2000   -0.0000    0.0000 H   0  0  0  0  0  0  0  0  0  0  0  0
   -2.6284    1.2256    0.0000 H   0  0  0  0  0  0  0  0  0  0  0  0
   -2.6284   -1.2256    0.0000 H   0  0  0  0  0  0  0  0  0  0  0  0
    0.0001    1.6000    0.0000 C   0  0  0  0  0  0  0  0  0  0  0  0
    0.2778    3.1757    0.0000 H   0  0  0  0  0  0  0  0  0  0  0  0
   -1.2257    2.6285    0.0000 H   0  0  0  0  0  0  0  0  0  0  0  0
   -1.5036    1.0527    0.0000 H   0  0  0  0  0  0  0  0  0  0  0  0
    0.0001   -1.6000    0.0000 C   0  0  0  0  0  0  0  0  0  0  0  0
    0.2778   -3.1757    0.0000 H   0  0  0  0  0  0  0  0  0  0  0  0
   -1.2257   -2.6285    0.0000 H   0  0  0  0  0  0  0  0  0  0  0  0
   -1.5036   -1.0527    0.0000 H   0  0  0  0  0  0  0  0  0  0  0  0
  1  2  1  0  0  0  0
  2  3  1  0  0  0  0
  3  4  1  0  0  0  0
  3  5  2  0  0  0  0
  5  6  1  0  0  0  0
  5  7  1  0  0  0  0
  7  8  1  0  0  0  0
  8  9  1  0  0  0  0
  7 10  2  0  0  0  0
 10 11  1  0  0  0  0
 10 12  1  0  0  0  0
 12  2  2  0  0  0  0
 12 13  1  0  0  0  0
  1 14  1  0  0  0  0
 14 15  1  0  0  0  0
 14 16  1  0  0  0  0
 14 17  1  0  0  0  0
  1 18  1  0  0  0  0
 18 19  1  0  0  0  0
 18 20  1  0  0  0  0
 18 21  1  0  0  0  0
  1 22  1  0  0  0  0
 22 23  1  0  0  0  0
 22 24  1  0  0  0  0
 22 25  1  0  0  0  0
M  END
> <ChemID>
100328

> <source_casrn>
98-54-4

> <CAS>
98-54-4

> <SMILES>
CC(C)(C)c1ccc(O)cc1

> <NAME>
Phenol, 4-(1,1-dimethylethyl)-

> <preferred_name>
4-tert-Butylphenol

> <iupac>
4-tert-butylphenol

> <MPID>
100337

> <dsstox_substance_id>
DTXSID1020221

> <Canonical_QSARr>
CC(C)(C)c1ccc(O)cc1

> <InChI_Code_QSARr>
InChI=1S/C10H14O/c1-10(2,3)8-4-6-9(11)7-5-8/h4-7,11H,1-3H3

> <InChI Key_QSARr>
QHPQWRBYOIRBIT-UHFFFAOYSA-N

> <Salt_Solvent>
?

> <Ready_Biodeg>
0.0

$$$$
100330
  -INDIGO-08031722522D

 18 18  0  0  0  0  0  0  0  0999 V2000
    0.0000   -0.0000    0.0000 C   0  0  0  0  0  0  0  0  0  0  0  0
   -0.8000    1.3856    0.0000 C   0  0  0  0  0  0  0  0  0  0  0  0
    0.0000    2.7713    0.0000 H   0  0  0  0  0  0  0  0  0  0  0  0
   -2.4000    1.3856    0.0000 C   0  0  0  0  0  0  0  0  0  0  0  0
   -3.2000    2.7713    0.0000 H   0  0  0  0  0  0  0  0  0  0  0  0
   -3.2000   -0.0000    0.0000 C   0  0  0  0  0  0  0  0  0  0  0  0
   -4.7999   -0.0000    0.0000 C   0  0  0  0  0  0  0  0  0  0  0  0
   -6.4000   -0.0000    0.0000 H   0  0  0  0  0  0  0  0  0  0  0  0
   -5.6000   -1.3856    0.0000 H   0  0  0  0  0  0  0  0  0  0  0  0
   -5.6000    1.3856    0.0000 H   0  0  0  0  0  0  0  0  0  0  0  0
   -2.4000   -1.3856    0.0000 C   0  0  0  0  0  0  0  0  0  0  0  0
   -3.2000   -2.7713    0.0000 H   0  0  0  0  0  0  0  0  0  0  0  0
   -0.8000   -1.3856    0.0000 C   0  0  0  0  0  0  0  0  0  0  0  0
    0.0000   -2.7713    0.0000 H   0  0  0  0  0  0  0  0  0  0  0  0
    1.6001   -0.0000    0.0000 S   0  0  0  0  0  0  0  0  0  0  0  0
    3.2000   -0.0000    0.0000 Cl  0  0  0  0  0  0  0  0  0  0  0  0
    1.6001    1.6000    0.0000 O   0  0  0  0  0  0  0  0  0  0  0  0
    1.6001   -1.6000    0.0000 O   0  0  0  0  0  0  0  0  0  0  0  0
  1  2  1  0  0  0  0
  2  3  1  0  0  0  0
  2  4  2  0  0  0  0
  4  5  1  0  0  0  0
  4  6  1  0  0  0  0
  6  7  1  0  0  0  0
  7  8  1  0  0  0  0
  7  9  1  0  0  0  0
  7 10  1  0  0  0  0
  6 11  2  0  0  0  0
 11 12  1  0  0  0  0
 11 13  1  0  0  0  0
 13  1  2  0  0  0  0
 13 14  1  0  0  0  0
  1 15  1  0  0  0  0
 15 16  1  0  0  0  0
 15 17  2  0  0  0  0
 15 18  2  0  0  0  0
M  END
> <ChemID>
100330

> <source_casrn>
98-59-9

> <CAS>
98-59-9

> <SMILES>
Cc1ccc(cc1)S(=O)(=O)Cl

> <NAME>
Benzenesulfonyl chloride, 4-methyl-

> <preferred_name>
p-Toluenesulfonyl chloride

> <iupac>
4-methylbenzenesulfonyl chloride

> <MPID>
100339

> <dsstox_substance_id>
DTXSID1052660

> <Canonical_QSARr>
Cc1ccc(cc1)S(=O)(=O)Cl

> <InChI_Code_QSARr>
InChI=1S/C7H7ClO2S/c1-6-2-4-7(5-3-6)11(8,9)10/h2-5H,1H3

> <InChI Key_QSARr>
YYROPELSRYBVMQ-UHFFFAOYSA-N

> <Salt_Solvent>
?

> <Ready_Biodeg>
1.0

$$$$
100331
  -INDIGO-08031722522D

 16 16  0  0  0  0  0  0  0  0999 V2000
   -1.3856    0.8000    0.0000 S   0  0  0  0  0  0  0  0  0  0  0  0
   -0.0001   -0.0000    0.0000 C   0  0  0  0  0  0  0  0  0  0  0  0
   -0.0001   -1.6000    0.0000 C   0  0  0  0  0  0  0  0  0  0  0  0
   -1.3856   -2.4000    0.0000 H   0  0  0  0  0  0  0  0  0  0  0  0
    1.3856   -2.4000    0.0000 C   0  0  0  0  0  0  0  0  0  0  0  0
    1.3856   -4.0000    0.0000 H   0  0  0  0  0  0  0  0  0  0  0  0
    2.7712   -1.6000    0.0000 C   0  0  0  0  0  0  0  0  0  0  0  0
    4.1569   -2.4000    0.0000 Cl  0  0  0  0  0  0  0  0  0  0  0  0
    2.7712   -0.0000    0.0000 C   0  0  0  0  0  0  0  0  0  0  0  0
    4.1569    0.8000    0.0000 H   0  0  0  0  0  0  0  0  0  0  0  0
    1.3856    0.8000    0.0000 C   0  0  0  0  0  0  0  0  0  0  0  0
    1.3856    2.4000    0.0000 H   0  0  0  0  0  0  0  0  0  0  0  0
   -2.1856   -0.5856    0.0000 O   0  0  0  0  0  0  0  0  0  0  0  0
   -0.5857    2.1856    0.0000 O   0  0  0  0  0  0  0  0  0  0  0  0
   -2.7713    1.6000    0.0000 O   0  0  0  0  0  0  0  0  0  0  0  0
   -4.1569    0.8000    0.0000 H   0  0  0  0  0  0  0  0  0  0  0  0
  1  2  1  0  0  0  0
  2  3  1  0  0  0  0
  3  4  1  0  0  0  0
  3  5  2  0  0  0  0
  5  6  1  0  0  0  0
  5  7  1  0  0  0  0
  7  8  1  0  0  0  0
  7  9  2  0  0  0  0
  9 10  1  0  0  0  0
  9 11  1  0  0  0  0
 11  2  2  0  0  0  0
 11 12  1  0  0  0  0
  1 13  2  0  0  0  0
  1 14  2  0  0  0  0
  1 15  1  0  0  0  0
 15 16  1  0  0  0  0
M  END
> <ChemID>
100331

> <source_casrn>
98-66-8

> <CAS>
98-66-8

> <SMILES>
OS(=O)(=O)c1ccc(Cl)cc1

> <NAME>
Benzenesulfonic acid, 4-chloro-

> <preferred_name>
4-Chlorobenzenesulfonic acid

> <iupac>
4-chlorobenzenesulfonic acid

> <MPID>
100340

> <dsstox_substance_id>
DTXSID7044473

> <Canonical_QSARr>
OS(=O)(=O)c1ccc(Cl)cc1

> <InChI_Code_QSARr>
InChI=1S/C6H5ClO3S/c7-5-1-3-6(4-2-5)11(8,9)10/h1-4H,(H,8,9,10)

> <InChI Key_QSARr>
RJWBTWIBUIGANW-UHFFFAOYSA-N

> <Salt_Solvent>
?

> <Ready_Biodeg>
1.0

$$$$
100332
  -INDIGO-08031722522D

 17 17  0  0  0  0  0  0  0  0999 V2000
   -1.6000   -0.0000    0.0000 S   0  0  0  0  0  0  0  0  0  0  0  0
   -0.0000   -0.0000    0.0000 C   0  0  0  0  0  0  0  0  0  0  0  0
    0.8001    1.3856    0.0000 C   0  0  0  0  0  0  0  0  0  0  0  0
   -0.0000    2.7713    0.0000 H   0  0  0  0  0  0  0  0  0  0  0  0
    2.4000    1.3856    0.0000 C   0  0  0  0  0  0  0  0  0  0  0  0
    3.2000    2.7713    0.0000 H   0  0  0  0  0  0  0  0  0  0  0  0
    3.2000   -0.0000    0.0000 C   0  0  0  0  0  0  0  0  0  0  0  0
    4.8000   -0.0000    0.0000 O   0  0  0  0  0  0  0  0  0  0  0  0
    5.6000    1.3856    0.0000 H   0  0  0  0  0  0  0  0  0  0  0  0
    2.4000   -1.3856    0.0000 C   0  0  0  0  0  0  0  0  0  0  0  0
    3.2000   -2.7713    0.0000 H   0  0  0  0  0  0  0  0  0  0  0  0
    0.8001   -1.3856    0.0000 C   0  0  0  0  0  0  0  0  0  0  0  0
   -0.0000   -2.7713    0.0000 H   0  0  0  0  0  0  0  0  0  0  0  0
   -1.6000    1.6000    0.0000 O   0  0  0  0  0  0  0  0  0  0  0  0
   -1.6000   -1.6000    0.0000 O   0  0  0  0  0  0  0  0  0  0  0  0
   -3.2000   -0.0000    0.0000 O   0  0  0  0  0  0  0  0  0  0  0  0
   -4.0000   -1.3856    0.0000 H   0  0  0  0  0  0  0  0  0  0  0  0
  1  2  1  0  0  0  0
  2  3  1  0  0  0  0
  3  4  1  0  0  0  0
  3  5  2  0  0  0  0
  5  6  1  0  0  0  0
  5  7  1  0  0  0  0
  7  8  1  0  0  0  0
  8  9  1  0  0  0  0
  7 10  2  0  0  0  0
 10 11  1  0  0  0  0
 10 12  1  0  0  0  0
 12  2  2  0  0  0  0
 12 13  1  0  0  0  0
  1 14  2  0  0  0  0
  1 15  2  0  0  0  0
  1 16  1  0  0  0  0
 16 17  1  0  0  0  0
M  END
> <ChemID>
100332

> <source_casrn>
98-67-9

> <CAS>
98-67-9

> <SMILES>
Oc1ccc(cc1)S(O)(=O)=O

> <NAME>
Benzenesulfonic acid, 4-hydroxy-

> <preferred_name>
4-Phenolsulfonic acid

> <iupac>
4-hydroxybenzenesulfonic acid

> <MPID>
100341

> <dsstox_substance_id>
DTXSID1046421

> <Canonical_QSARr>
Oc1ccc(cc1)S(O)(=O)=O

> <InChI_Code_QSARr>
InChI=1S/C6H6O4S/c7-5-1-3-6(4-2-5)11(8,9)10/h1-4,7H,(H,8,9,10)

> <InChI Key_QSARr>
FEPBITJSIHRMRT-UHFFFAOYSA-N

> <Salt_Solvent>
?

> <Ready_Biodeg>
1.0

$$$$
100334
  -INDIGO-08031722522D

 21 21  0  0  0  0  0  0  0  0999 V2000
   -2.4000    1.3857    0.0000 C   0  0  0  0  0  0  0  0  0  0  0  0
   -1.6000    2.7713    0.0000 H   0  0  0  0  0  0  0  0  0  0  0  0
   -4.0000    1.3857    0.0000 C   0  0  0  0  0  0  0  0  0  0  0  0
   -4.8000    2.7713    0.0000 H   0  0  0  0  0  0  0  0  0  0  0  0
   -4.8000    0.0000    0.0000 C   0  0  0  0  0  0  0  0  0  0  0  0
   -6.4000    0.0000    0.0000 H   0  0  0  0  0  0  0  0  0  0  0  0
   -4.0000   -1.3856    0.0000 C   0  0  0  0  0  0  0  0  0  0  0  0
   -4.8000   -2.7713    0.0000 H   0  0  0  0  0  0  0  0  0  0  0  0
   -2.4000   -1.3856    0.0000 C   0  0  0  0  0  0  0  0  0  0  0  0
   -1.6000   -2.7713    0.0000 H   0  0  0  0  0  0  0  0  0  0  0  0
   -1.6000    0.0000    0.0000 C   0  0  0  0  0  0  0  0  0  0  0  0
   -0.0001    0.0000    0.0000 C   0  0  0  0  0  0  0  0  0  0  0  0
   -0.0001    1.6000    0.0000 H   0  0  0  0  0  0  0  0  0  0  0  0
    1.5757    0.2778    0.0000 C   0  0  0  0  0  0  0  0  0  0  0  0
    3.1514    0.5557    0.0000 H   0  0  0  0  0  0  0  0  0  0  0  0
    2.1229    1.7813    0.0000 H   0  0  0  0  0  0  0  0  0  0  0  0
    2.6041   -0.9478    0.0000 H   0  0  0  0  0  0  0  0  0  0  0  0
   -0.0001   -1.6000    0.0000 C   0  0  0  0  0  0  0  0  0  0  0  0
   -0.0001   -3.2000    0.0000 H   0  0  0  0  0  0  0  0  0  0  0  0
    1.3857   -2.4000    0.0000 H   0  0  0  0  0  0  0  0  0  0  0  0
    1.3857   -0.8000    0.0000 H   0  0  0  0  0  0  0  0  0  0  0  0
  1  2  1  0  0  0  0
  1  3  1  0  0  0  0
  3  4  1  0  0  0  0
  3  5  2  0  0  0  0
  5  6  1  0  0  0  0
  5  7  1  0  0  0  0
  7  8  1  0  0  0  0
  7  9  2  0  0  0  0
  9 10  1  0  0  0  0
  9 11  1  0  0  0  0
 11  1  2  0  0  0  0
 11 12  1  0  0  0  0
 12 13  1  0  0  0  0
 12 14  1  0  0  0  0
 14 15  1  0  0  0  0
 14 16  1  0  0  0  0
 14 17  1  0  0  0  0
 12 18  1  0  0  0  0
 18 19  1  0  0  0  0
 18 20  1  0  0  0  0
 18 21  1  0  0  0  0
M  END
> <ChemID>
100334

> <source_casrn>
98-82-8

> <CAS>
98-82-8

> <SMILES>
CC(C)c1ccccc1

> <NAME>
Cumene

> <preferred_name>
Cumene

> <iupac>
propan-2-ylbenzene

> <MPID>
100343

> <dsstox_substance_id>
DTXSID1021827

> <Canonical_QSARr>
CC(C)c1ccccc1

> <InChI_Code_QSARr>
InChI=1S/C9H12/c1-8(2)9-6-4-3-5-7-9/h3-8H,1-2H3

> <InChI Key_QSARr>
RWGFKTVRMDUZSP-UHFFFAOYSA-N

> <Salt_Solvent>
?

> <Ready_Biodeg>
1.0

$$$$
100335
  -INDIGO-08031722522D

 19 19  0  0  0  0  0  0  0  0999 V2000
    1.6000   -0.0000    0.0000 C   0  0  0  0  0  0  0  0  0  0  0  0
    2.4001   -1.3856    0.0000 C   0  0  0  0  0  0  0  0  0  0  0  0
    3.2000   -2.7713    0.0000 H   0  0  0  0  0  0  0  0  0  0  0  0
    4.0000   -1.3856    0.0000 H   0  0  0  0  0  0  0  0  0  0  0  0
    1.6000   -2.7713    0.0000 H   0  0  0  0  0  0  0  0  0  0  0  0
    2.4001    1.3856    0.0000 C   0  0  0  0  0  0  0  0  0  0  0  0
    4.0000    1.3856    0.0000 H   0  0  0  0  0  0  0  0  0  0  0  0
    1.6000    2.7713    0.0000 H   0  0  0  0  0  0  0  0  0  0  0  0
   -0.0000    0.0000    0.0000 C   0  0  0  0  0  0  0  0  0  0  0  0
   -0.8000    1.3856    0.0000 C   0  0  0  0  0  0  0  0  0  0  0  0
   -0.0000    2.7713    0.0000 H   0  0  0  0  0  0  0  0  0  0  0  0
   -2.4000    1.3856    0.0000 C   0  0  0  0  0  0  0  0  0  0  0  0
   -3.2001    2.7713    0.0000 H   0  0  0  0  0  0  0  0  0  0  0  0
   -3.2001    0.0000    0.0000 C   0  0  0  0  0  0  0  0  0  0  0  0
   -4.8000   -0.0000    0.0000 H   0  0  0  0  0  0  0  0  0  0  0  0
   -2.4000   -1.3856    0.0000 C   0  0  0  0  0  0  0  0  0  0  0  0
   -3.2001   -2.7713    0.0000 H   0  0  0  0  0  0  0  0  0  0  0  0
   -0.8000   -1.3856    0.0000 C   0  0  0  0  0  0  0  0  0  0  0  0
   -0.0000   -2.7713    0.0000 H   0  0  0  0  0  0  0  0  0  0  0  0
  1  2  1  0  0  0  0
  2  3  1  0  0  0  0
  2  4  1  0  0  0  0
  2  5  1  0  0  0  0
  1  6  2  0  0  0  0
  6  7  1  0  0  0  0
  6  8  1  0  0  0  0
  1  9  1  0  0  0  0
  9 10  1  0  0  0  0
 10 11  1  0  0  0  0
 10 12  2  0  0  0  0
 12 13  1  0  0  0  0
 12 14  1  0  0  0  0
 14 15  1  0  0  0  0
 14 16  2  0  0  0  0
 16 17  1  0  0  0  0
 16 18  1  0  0  0  0
 18  9  2  0  0  0  0
 18 19  1  0  0  0  0
M  END
> <ChemID>
100335

> <source_casrn>
98-83-9

> <CAS>
98-83-9

> <SMILES>
CC(=C)c1ccccc1

> <NAME>
Benzene, (1-methylethenyl)-

> <preferred_name>
alpha-Methylstyrene

> <iupac>
prop-1-en-2-ylbenzene

> <MPID>
100344

> <dsstox_substance_id>
DTXSID9025661

> <Canonical_QSARr>
CC(=C)c1ccccc1

> <InChI_Code_QSARr>
InChI=1S/C9H10/c1-8(2)9-6-4-3-5-7-9/h3-7H,1H2,2H3

> <InChI Key_QSARr>
XYLMUPLGERFSHI-UHFFFAOYSA-N

> <Salt_Solvent>
?

> <Ready_Biodeg>
0.0

$$$$
100336
  -INDIGO-08031722522D

 19 19  0  0  0  0  0  0  0  0999 V2000
    4.8001    0.0000    0.0000 C   0  0  0  0  0  0  0  0  0  0  0  0
    6.4000   -0.0000    0.0000 H   0  0  0  0  0  0  0  0  0  0  0  0
    4.0000    1.3856    0.0000 C   0  0  0  0  0  0  0  0  0  0  0  0
    4.8001    2.7713    0.0000 H   0  0  0  0  0  0  0  0  0  0  0  0
    2.4000    1.3856    0.0000 C   0  0  0  0  0  0  0  0  0  0  0  0
    1.6001    2.7713    0.0000 H   0  0  0  0  0  0  0  0  0  0  0  0
    1.6001    0.0000    0.0000 C   0  0  0  0  0  0  0  0  0  0  0  0
    0.0000   -0.0000    0.0000 C   0  0  0  0  0  0  0  0  0  0  0  0
    0.0000   -1.6000    0.0000 H   0  0  0  0  0  0  0  0  0  0  0  0
    0.0000    1.6000    0.0000 O   0  0  0  0  0  0  0  0  0  0  0  0
   -1.3856    2.4000    0.0000 H   0  0  0  0  0  0  0  0  0  0  0  0
   -1.5999   -0.0000    0.0000 C   0  0  0  0  0  0  0  0  0  0  0  0
   -3.2000   -0.0000    0.0000 H   0  0  0  0  0  0  0  0  0  0  0  0
   -2.4000   -1.3856    0.0000 H   0  0  0  0  0  0  0  0  0  0  0  0
   -2.4000    1.3856    0.0000 H   0  0  0  0  0  0  0  0  0  0  0  0
    2.4000   -1.3856    0.0000 C   0  0  0  0  0  0  0  0  0  0  0  0
    1.6001   -2.7713    0.0000 H   0  0  0  0  0  0  0  0  0  0  0  0
    4.0000   -1.3856    0.0000 C   0  0  0  0  0  0  0  0  0  0  0  0
    4.8001   -2.7713    0.0000 H   0  0  0  0  0  0  0  0  0  0  0  0
  1  2  1  0  0  0  0
  1  3  1  0  0  0  0
  3  4  1  0  0  0  0
  3  5  2  0  0  0  0
  5  6  1  0  0  0  0
  5  7  1  0  0  0  0
  7  8  1  0  0  0  0
  8  9  1  0  0  0  0
  8 10  1  0  0  0  0
 10 11  1  0  0  0  0
  8 12  1  0  0  0  0
 12 13  1  0  0  0  0
 12 14  1  0  0  0  0
 12 15  1  0  0  0  0
  7 16  2  0  0  0  0
 16 17  1  0  0  0  0
 16 18  1  0  0  0  0
 18  1  2  0  0  0  0
 18 19  1  0  0  0  0
M  END
> <ChemID>
100336

> <source_casrn>
98-85-1

> <CAS>
98-85-1

> <SMILES>
OC(c(cccc1)c1)C

> <NAME>
2-Methylbenzyl alcohol

> <preferred_name>
alpha-Methylbenzyl alcohol

> <iupac>
1-phenylethanol

> <MPID>
100345

> <dsstox_substance_id>
DTXSID1020859

> <Canonical_QSARr>
CC(O)c1ccccc1

> <InChI_Code_QSARr>
InChI=1S/C8H10O/c1-7(9)8-5-3-2-4-6-8/h2-7,9H,1H3

> <InChI Key_QSARr>
WAPNOHKVXSQRPX-UHFFFAOYSA-N

> <Salt_Solvent>
?

> <Ready_Biodeg>
1.0

$$$$
100338
  -INDIGO-08031722522D

 15 15  0  0  0  0  0  0  0  0999 V2000
    0.0000   -0.0000    0.0000 C   0  0  0  0  0  0  0  0  0  0  0  0
   -0.8001    1.3856    0.0000 C   0  0  0  0  0  0  0  0  0  0  0  0
    0.0000    2.7713    0.0000 H   0  0  0  0  0  0  0  0  0  0  0  0
   -2.4001    1.3856    0.0000 C   0  0  0  0  0  0  0  0  0  0  0  0
   -3.2000    2.7713    0.0000 H   0  0  0  0  0  0  0  0  0  0  0  0
   -3.2000   -0.0000    0.0000 C   0  0  0  0  0  0  0  0  0  0  0  0
   -4.8000   -0.0000    0.0000 H   0  0  0  0  0  0  0  0  0  0  0  0
   -2.4001   -1.3856    0.0000 C   0  0  0  0  0  0  0  0  0  0  0  0
   -3.2000   -2.7713    0.0000 H   0  0  0  0  0  0  0  0  0  0  0  0
   -0.8001   -1.3856    0.0000 C   0  0  0  0  0  0  0  0  0  0  0  0
    0.0000   -2.7713    0.0000 H   0  0  0  0  0  0  0  0  0  0  0  0
    1.6000   -0.0000    0.0000 C   0  0  0  0  0  0  0  0  0  0  0  0
    3.2000   -0.0000    0.0000 H   0  0  0  0  0  0  0  0  0  0  0  0
    2.4001   -1.3856    0.0000 Cl  0  0  0  0  0  0  0  0  0  0  0  0
    2.4001    1.3856    0.0000 Cl  0  0  0  0  0  0  0  0  0  0  0  0
  1  2  1  0  0  0  0
  2  3  1  0  0  0  0
  2  4  2  0  0  0  0
  4  5  1  0  0  0  0
  4  6  1  0  0  0  0
  6  7  1  0  0  0  0
  6  8  2  0  0  0  0
  8  9  1  0  0  0  0
  8 10  1  0  0  0  0
 10  1  2  0  0  0  0
 10 11  1  0  0  0  0
  1 12  1  0  0  0  0
 12 13  1  0  0  0  0
 12 14  1  0  0  0  0
 12 15  1  0  0  0  0
M  END
> <ChemID>
100338

> <source_casrn>
98-87-3

> <CAS>
98-87-3

> <SMILES>
ClC(Cl)c1ccccc1

> <NAME>
Benzene, (dichloromethyl)-

> <preferred_name>
Benzal chloride

> <iupac>
(dichloromethyl)benzene

> <MPID>
100347

> <dsstox_substance_id>
DTXSID6025014

> <Canonical_QSARr>
ClC(Cl)c1ccccc1

> <InChI_Code_QSARr>
InChI=1S/C7H6Cl2/c8-7(9)6-4-2-1-3-5-6/h1-5,7H

> <InChI Key_QSARr>
CAHQGWAXKLQREW-UHFFFAOYSA-N

> <Salt_Solvent>
?

> <Ready_Biodeg>
1.0

$$$$
100339
  -INDIGO-08031722522D

 14 14  0  0  0  0  0  0  0  0999 V2000
   -2.4000   -1.3856    0.0000 O   0  0  0  0  0  0  0  0  0  0  0  0
   -1.6000   -0.0000    0.0000 N   0  0  0  0  0  0  0  0  0  0  0  0
    0.0000   -0.0000    0.0000 C   0  0  0  0  0  0  0  0  0  0  0  0
    0.8000    1.3856    0.0000 C   0  0  0  0  0  0  0  0  0  0  0  0
    0.0000    2.7713    0.0000 H   0  0  0  0  0  0  0  0  0  0  0  0
    2.4000    1.3856    0.0000 C   0  0  0  0  0  0  0  0  0  0  0  0
    3.2000    2.7713    0.0000 H   0  0  0  0  0  0  0  0  0  0  0  0
    3.2000   -0.0000    0.0000 C   0  0  0  0  0  0  0  0  0  0  0  0
    4.8000   -0.0000    0.0000 H   0  0  0  0  0  0  0  0  0  0  0  0
    2.4000   -1.3856    0.0000 C   0  0  0  0  0  0  0  0  0  0  0  0
    3.2000   -2.7713    0.0000 H   0  0  0  0  0  0  0  0  0  0  0  0
    0.8000   -1.3856    0.0000 C   0  0  0  0  0  0  0  0  0  0  0  0
    0.0000   -2.7713    0.0000 H   0  0  0  0  0  0  0  0  0  0  0  0
   -2.4000    1.3856    0.0000 O   0  0  0  0  0  0  0  0  0  0  0  0
  1  2  2  0  0  0  0
  2  3  1  0  0  0  0
  3  4  1  0  0  0  0
  4  5  1  0  0  0  0
  4  6  2  0  0  0  0
  6  7  1  0  0  0  0
  6  8  1  0  0  0  0
  8  9  1  0  0  0  0
  8 10  2  0  0  0  0
 10 11  1  0  0  0  0
 10 12  1  0  0  0  0
 12  3  2  0  0  0  0
 12 13  1  0  0  0  0
  2 14  1  0  0  0  0
M  CHG  2   2   1  14  -1
M  END
> <ChemID>
100339

> <source_casrn>
98-95-3

> <CAS>
98-95-3

> <SMILES>
[O-][N+](=O)c1ccccc1

> <NAME>
Benzene, nitro-

> <preferred_name>
Nitrobenzene

> <iupac>
nitrobenzene

> <MPID>
100348

> <dsstox_substance_id>
DTXSID3020964

> <Canonical_QSARr>
[O-][N+](=O)c1ccccc1

> <InChI_Code_QSARr>
InChI=1S/C6H5NO2/c8-7(9)6-4-2-1-3-5-6/h1-5H

> <InChI Key_QSARr>
LQNUZADURLCDLV-UHFFFAOYSA-N

> <Salt_Solvent>
?

> <Ready_Biodeg>
0.0

$$$$
100340
  -INDIGO-08031722522D

 13 13  0  0  0  0  0  0  0  0999 V2000
    2.4001    1.3856    0.0000 O   0  0  0  0  0  0  0  0  0  0  0  0
    4.0000    1.3856    0.0000 H   0  0  0  0  0  0  0  0  0  0  0  0
    1.6000   -0.0000    0.0000 C   0  0  0  0  0  0  0  0  0  0  0  0
    2.4001   -1.3856    0.0000 O   0  0  0  0  0  0  0  0  0  0  0  0
   -0.0000   -0.0000    0.0000 C   0  0  0  0  0  0  0  0  0  0  0  0
   -0.8000    1.3856    0.0000 N   0  0  0  0  0  0  0  0  0  0  0  0
   -2.4000    1.3856    0.0000 C   0  0  0  0  0  0  0  0  0  0  0  0
   -3.2001    2.7713    0.0000 H   0  0  0  0  0  0  0  0  0  0  0  0
   -3.2001   -0.0000    0.0000 C   0  0  0  0  0  0  0  0  0  0  0  0
   -4.8000   -0.0000    0.0000 H   0  0  0  0  0  0  0  0  0  0  0  0
   -2.4000   -1.3856    0.0000 N   0  0  0  0  0  0  0  0  0  0  0  0
   -0.8000   -1.3856    0.0000 C   0  0  0  0  0  0  0  0  0  0  0  0
   -0.0000   -2.7713    0.0000 H   0  0  0  0  0  0  0  0  0  0  0  0
  1  2  1  0  0  0  0
  1  3  1  0  0  0  0
  3  4  2  0  0  0  0
  3  5  1  0  0  0  0
  5  6  1  0  0  0  0
  6  7  2  0  0  0  0
  7  8  1  0  0  0  0
  7  9  1  0  0  0  0
  9 10  1  0  0  0  0
  9 11  2  0  0  0  0
 11 12  1  0  0  0  0
 12  5  2  0  0  0  0
 12 13  1  0  0  0  0
M  END
> <ChemID>
100340

> <source_casrn>
98-97-5

> <CAS>
98-97-5

> <SMILES>
OC(=O)c1c[n]cc[n]1

> <NAME>
Pyrazinoic acid

> <preferred_name>
Pyrazinoic acid

> <iupac>
Pyrazine-2-carboxylic acid

> <MPID>
100349

> <dsstox_substance_id>
DTXSID30243367

> <Canonical_QSARr>
OC(=O)c1c[n]cc[n]1

> <InChI_Code_QSARr>
InChI=1S/C5H4N2O2/c8-5(9)4-3-6-1-2-7-4/h1-3H,(H,8,9)

> <InChI Key_QSARr>
NIPZZXUFJPQHNH-UHFFFAOYSA-N

> <Salt_Solvent>
?

> <Ready_Biodeg>
1.0

$$$$
100342
  -INDIGO-08031722522D

 18 18  0  0  0  0  0  0  0  0999 V2000
   -4.1570    2.4000    0.0000 O   0  0  0  0  0  0  0  0  0  0  0  0
   -4.1570    0.8000    0.0000 C   0  0  0  0  0  0  0  0  0  0  0  0
   -2.7713   -0.0000    0.0000 C   0  0  0  0  0  0  0  0  0  0  0  0
   -1.3856    0.8000    0.0000 C   0  0  0  0  0  0  0  0  0  0  0  0
   -1.3856    2.4000    0.0000 H   0  0  0  0  0  0  0  0  0  0  0  0
    0.0000   -0.0000    0.0000 C   0  0  0  0  0  0  0  0  0  0  0  0
    1.3857    0.8000    0.0000 C   0  0  0  0  0  0  0  0  0  0  0  0
    2.7713    1.6000    0.0000 H   0  0  0  0  0  0  0  0  0  0  0  0
    2.7713   -0.0000    0.0000 H   0  0  0  0  0  0  0  0  0  0  0  0
    1.3857    2.4000    0.0000 H   0  0  0  0  0  0  0  0  0  0  0  0
    0.0000   -1.6000    0.0000 C   0  0  0  0  0  0  0  0  0  0  0  0
    1.3857   -2.4000    0.0000 H   0  0  0  0  0  0  0  0  0  0  0  0
   -1.3856   -2.4000    0.0000 C   0  0  0  0  0  0  0  0  0  0  0  0
   -1.3856   -4.0000    0.0000 H   0  0  0  0  0  0  0  0  0  0  0  0
   -2.7713   -1.6000    0.0000 C   0  0  0  0  0  0  0  0  0  0  0  0
   -4.1570   -2.4000    0.0000 H   0  0  0  0  0  0  0  0  0  0  0  0
   -5.5426   -0.0000    0.0000 O   0  0  0  0  0  0  0  0  0  0  0  0
   -6.9282    0.8000    0.0000 H   0  0  0  0  0  0  0  0  0  0  0  0
  1  2  2  0  0  0  0
  2  3  1  0  0  0  0
  3  4  1  0  0  0  0
  4  5  1  0  0  0  0
  4  6  2  0  0  0  0
  6  7  1  0  0  0  0
  7  8  1  0  0  0  0
  7  9  1  0  0  0  0
  7 10  1  0  0  0  0
  6 11  1  0  0  0  0
 11 12  1  0  0  0  0
 11 13  2  0  0  0  0
 13 14  1  0  0  0  0
 13 15  1  0  0  0  0
 15  3  2  0  0  0  0
 15 16  1  0  0  0  0
  2 17  1  0  0  0  0
 17 18  1  0  0  0  0
M  END
> <ChemID>
100342

> <source_casrn>
99-04-7

> <CAS>
99-04-7

> <SMILES>
Cc1cc(ccc1)C(O)=O

> <NAME>
m-Methylbenzoic acid

> <preferred_name>
3-Methylbenzoic acid

> <iupac>
3-methylbenzoic acid

> <MPID>
100351

> <dsstox_substance_id>
DTXSID1021617

> <Canonical_QSARr>
Cc1cc(ccc1)C(O)=O

> <InChI_Code_QSARr>
InChI=1S/C8H8O2/c1-6-3-2-4-7(5-6)8(9)10/h2-5H,1H3,(H,9,10)

> <InChI Key_QSARr>
GPSDUZXPYCFOSQ-UHFFFAOYSA-N

> <Salt_Solvent>
?

> <Ready_Biodeg>
1.0

$$$$
100343
  -INDIGO-08031722522D

 17 17  0  0  0  0  0  0  0  0999 V2000
    1.3857    2.4000    0.0000 C   0  0  0  0  0  0  0  0  0  0  0  0
    1.3857    4.0000    0.0000 H   0  0  0  0  0  0  0  0  0  0  0  0
   -0.0001    1.6000    0.0000 C   0  0  0  0  0  0  0  0  0  0  0  0
   -1.3857    2.4000    0.0000 H   0  0  0  0  0  0  0  0  0  0  0  0
   -0.0001    0.0000    0.0000 C   0  0  0  0  0  0  0  0  0  0  0  0
   -1.3857   -0.8000    0.0000 C   0  0  0  0  0  0  0  0  0  0  0  0
   -1.3857   -2.4000    0.0000 O   0  0  0  0  0  0  0  0  0  0  0  0
   -2.7713    0.0000    0.0000 O   0  0  0  0  0  0  0  0  0  0  0  0
   -4.1569   -0.8000    0.0000 H   0  0  0  0  0  0  0  0  0  0  0  0
    1.3857   -0.8000    0.0000 C   0  0  0  0  0  0  0  0  0  0  0  0
    1.3857   -2.4000    0.0000 H   0  0  0  0  0  0  0  0  0  0  0  0
    2.7713    0.0000    0.0000 C   0  0  0  0  0  0  0  0  0  0  0  0
    4.1569   -0.8000    0.0000 N   0  0  0  0  0  0  0  0  0  0  0  0
    5.5426    0.0000    0.0000 H   0  0  0  0  0  0  0  0  0  0  0  0
    4.1569   -2.4000    0.0000 H   0  0  0  0  0  0  0  0  0  0  0  0
    2.7713    1.6000    0.0000 C   0  0  0  0  0  0  0  0  0  0  0  0
    4.1569    2.4000    0.0000 H   0  0  0  0  0  0  0  0  0  0  0  0
  1  2  1  0  0  0  0
  1  3  1  0  0  0  0
  3  4  1  0  0  0  0
  3  5  2  0  0  0  0
  5  6  1  0  0  0  0
  6  7  2  0  0  0  0
  6  8  1  0  0  0  0
  8  9  1  0  0  0  0
  5 10  1  0  0  0  0
 10 11  1  0  0  0  0
 10 12  2  0  0  0  0
 12 13  1  0  0  0  0
 13 14  1  0  0  0  0
 13 15  1  0  0  0  0
 12 16  1  0  0  0  0
 16  1  2  0  0  0  0
 16 17  1  0  0  0  0
M  END
> <ChemID>
100343

> <source_casrn>
99-05-8

> <CAS>
99-05-8

> <SMILES>
Nc1cc(ccc1)C(O)=O

> <NAME>
3-Aminobenzoic acid

> <preferred_name>
Benzoic acid, 3-amino-

> <iupac>
3-Aminobenzoic acid

> <MPID>
100352

> <dsstox_substance_id>
DTXSID3059183

> <Canonical_QSARr>
Nc1cc(ccc1)C(O)=O

> <InChI_Code_QSARr>
InChI=1S/C7H7NO2/c8-6-3-1-2-5(4-6)7(9)10/h1-4H,8H2,(H,9,10)

> <InChI Key_QSARr>
XFDUHJPVQKIXHO-UHFFFAOYSA-N

> <Salt_Solvent>
?

> <Ready_Biodeg>
0.0

$$$$
100344
  -INDIGO-08031722522D

 16 16  0  0  0  0  0  0  0  0999 V2000
   -2.4001    1.3856    0.0000 O   0  0  0  0  0  0  0  0  0  0  0  0
   -1.6000   -0.0000    0.0000 C   0  0  0  0  0  0  0  0  0  0  0  0
    0.0000   -0.0000    0.0000 C   0  0  0  0  0  0  0  0  0  0  0  0
    0.8000    1.3856    0.0000 C   0  0  0  0  0  0  0  0  0  0  0  0
    0.0000    2.7713    0.0000 H   0  0  0  0  0  0  0  0  0  0  0  0
    2.4000    1.3856    0.0000 C   0  0  0  0  0  0  0  0  0  0  0  0
    3.2001    2.7713    0.0000 O   0  0  0  0  0  0  0  0  0  0  0  0
    4.8000    2.7713    0.0000 H   0  0  0  0  0  0  0  0  0  0  0  0
    3.2001   -0.0000    0.0000 C   0  0  0  0  0  0  0  0  0  0  0  0
    4.8000   -0.0000    0.0000 H   0  0  0  0  0  0  0  0  0  0  0  0
    2.4000   -1.3856    0.0000 C   0  0  0  0  0  0  0  0  0  0  0  0
    3.2001   -2.7713    0.0000 H   0  0  0  0  0  0  0  0  0  0  0  0
    0.8000   -1.3856    0.0000 C   0  0  0  0  0  0  0  0  0  0  0  0
    0.0000   -2.7713    0.0000 H   0  0  0  0  0  0  0  0  0  0  0  0
   -2.4001   -1.3856    0.0000 O   0  0  0  0  0  0  0  0  0  0  0  0
   -4.0000   -1.3856    0.0000 H   0  0  0  0  0  0  0  0  0  0  0  0
  1  2  2  0  0  0  0
  2  3  1  0  0  0  0
  3  4  1  0  0  0  0
  4  5  1  0  0  0  0
  4  6  2  0  0  0  0
  6  7  1  0  0  0  0
  7  8  1  0  0  0  0
  6  9  1  0  0  0  0
  9 10  1  0  0  0  0
  9 11  2  0  0  0  0
 11 12  1  0  0  0  0
 11 13  1  0  0  0  0
 13  3  2  0  0  0  0
 13 14  1  0  0  0  0
  2 15  1  0  0  0  0
 15 16  1  0  0  0  0
M  END
> <ChemID>
100344

> <source_casrn>
99-06-9

> <CAS>
99-06-9

> <SMILES>
Oc1cccc(c1)C(O)=O

> <NAME>
m-Hydroxybenzoic acid

> <preferred_name>
3-Hydroxybenzoic acid

> <iupac>
3-hydroxybenzoic acid

> <MPID>
100353

> <dsstox_substance_id>
DTXSID6021610

> <Canonical_QSARr>
Oc1cccc(c1)C(O)=O

> <InChI_Code_QSARr>
InChI=1S/C7H6O3/c8-6-3-1-2-5(4-6)7(9)10/h1-4,8H,(H,9,10)

> <InChI Key_QSARr>
IJFXRHURBJZNAO-UHFFFAOYSA-N

> <Salt_Solvent>
?

> <Ready_Biodeg>
1.0

$$$$
100346
  -INDIGO-08031722522D

 16 16  0  0  0  0  0  0  0  0999 V2000
    1.3857    0.8000    0.0000 N   0  0  0  0  0  0  0  0  0  0  0  0
    2.7713   -0.0000    0.0000 O   0  0  0  0  0  0  0  0  0  0  0  0
    1.3856    2.4000    0.0000 O   0  0  0  0  0  0  0  0  0  0  0  0
    0.0000   -0.0000    0.0000 C   0  0  0  0  0  0  0  0  0  0  0  0
    0.0000   -1.6000    0.0000 C   0  0  0  0  0  0  0  0  0  0  0  0
    1.3857   -2.4000    0.0000 H   0  0  0  0  0  0  0  0  0  0  0  0
   -1.3856   -2.4000    0.0000 C   0  0  0  0  0  0  0  0  0  0  0  0
   -1.3856   -4.0000    0.0000 H   0  0  0  0  0  0  0  0  0  0  0  0
   -2.7713   -1.6000    0.0000 C   0  0  0  0  0  0  0  0  0  0  0  0
   -4.1570   -2.4000    0.0000 H   0  0  0  0  0  0  0  0  0  0  0  0
   -2.7713   -0.0000    0.0000 C   0  0  0  0  0  0  0  0  0  0  0  0
   -4.1569    0.8000    0.0000 N   0  0  0  0  0  0  0  0  0  0  0  0
   -5.5426   -0.0000    0.0000 H   0  0  0  0  0  0  0  0  0  0  0  0
   -4.1569    2.4000    0.0000 H   0  0  0  0  0  0  0  0  0  0  0  0
   -1.3856    0.8000    0.0000 C   0  0  0  0  0  0  0  0  0  0  0  0
   -1.3856    2.4000    0.0000 H   0  0  0  0  0  0  0  0  0  0  0  0
  1  2  2  0  0  0  0
  1  3  1  0  0  0  0
  1  4  1  0  0  0  0
  4  5  1  0  0  0  0
  5  6  1  0  0  0  0
  5  7  2  0  0  0  0
  7  8  1  0  0  0  0
  7  9  1  0  0  0  0
  9 10  1  0  0  0  0
  9 11  2  0  0  0  0
 11 12  1  0  0  0  0
 12 13  1  0  0  0  0
 12 14  1  0  0  0  0
 11 15  1  0  0  0  0
 15  4  2  0  0  0  0
 15 16  1  0  0  0  0
M  CHG  2   1   1   3  -1
M  END
> <ChemID>
100346

> <source_casrn>
99-09-2

> <CAS>
99-09-2

> <SMILES>
Nc1cc(ccc1)[N+]([O-])=O

> <NAME>
Benzenamine, 3-nitro-

> <preferred_name>
3-Nitroaniline

> <iupac>
3-nitroaniline

> <MPID>
100355

> <dsstox_substance_id>
DTXSID6025725

> <Canonical_QSARr>
Nc1cc(ccc1)[N+]([O-])=O

> <InChI_Code_QSARr>
InChI=1S/C6H6N2O2/c7-5-2-1-3-6(4-5)8(9)10/h1-4H,7H2

> <InChI Key_QSARr>
XJCVRTZCHMZPBD-UHFFFAOYSA-N

> <Salt_Solvent>
?

> <Ready_Biodeg>
0.0

$$$$
100347
  -INDIGO-08031722522D

 16 16  0  0  0  0  0  0  0  0999 V2000
   -2.4000   -1.3856    0.0000 O   0  0  0  0  0  0  0  0  0  0  0  0
   -1.5999   -0.0000    0.0000 N   0  0  0  0  0  0  0  0  0  0  0  0
    0.0001   -0.0000    0.0000 C   0  0  0  0  0  0  0  0  0  0  0  0
    0.8000    1.3856    0.0000 C   0  0  0  0  0  0  0  0  0  0  0  0
    0.0001    2.7713    0.0000 H   0  0  0  0  0  0  0  0  0  0  0  0
    2.4000    1.3856    0.0000 C   0  0  0  0  0  0  0  0  0  0  0  0
    3.2001    2.7713    0.0000 Cl  0  0  0  0  0  0  0  0  0  0  0  0
    3.2001   -0.0000    0.0000 C   0  0  0  0  0  0  0  0  0  0  0  0
    4.8001   -0.0000    0.0000 N   0  0  0  0  0  0  0  0  0  0  0  0
    5.6000    1.3856    0.0000 H   0  0  0  0  0  0  0  0  0  0  0  0
    5.6000   -1.3856    0.0000 H   0  0  0  0  0  0  0  0  0  0  0  0
    2.4000   -1.3856    0.0000 C   0  0  0  0  0  0  0  0  0  0  0  0
    3.2001   -2.7713    0.0000 Cl  0  0  0  0  0  0  0  0  0  0  0  0
    0.8000   -1.3856    0.0000 C   0  0  0  0  0  0  0  0  0  0  0  0
    0.0001   -2.7713    0.0000 H   0  0  0  0  0  0  0  0  0  0  0  0
   -2.4000    1.3856    0.0000 O   0  0  0  0  0  0  0  0  0  0  0  0
  1  2  2  0  0  0  0
  2  3  1  0  0  0  0
  3  4  1  0  0  0  0
  4  5  1  0  0  0  0
  4  6  2  0  0  0  0
  6  7  1  0  0  0  0
  6  8  1  0  0  0  0
  8  9  1  0  0  0  0
  9 10  1  0  0  0  0
  9 11  1  0  0  0  0
  8 12  2  0  0  0  0
 12 13  1  0  0  0  0
 12 14  1  0  0  0  0
 14  3  2  0  0  0  0
 14 15  1  0  0  0  0
  2 16  1  0  0  0  0
M  CHG  2   2   1  16  -1
M  END
> <ChemID>
100347

> <source_casrn>
99-30-9

> <CAS>
99-30-9

> <SMILES>
Nc1c(Cl)cc(cc1Cl)[N+]([O-])=O

> <NAME>
2,6-Dichloro-4-nitroaniline

> <preferred_name>
Dicloran

> <iupac>
2,6-dichloro-4-nitroaniline

> <MPID>
100356

> <dsstox_substance_id>
DTXSID2020426

> <Canonical_QSARr>
Nc1c(Cl)cc(cc1Cl)[N+]([O-])=O

> <InChI_Code_QSARr>
InChI=1S/C6H4Cl2N2O2/c7-4-1-3(10(11)12)2-5(8)6(4)9/h1-2H,9H2

> <InChI Key_QSARr>
BIXZHMJUSMUDOQ-UHFFFAOYSA-N

> <Salt_Solvent>
?

> <Ready_Biodeg>
0.0

$$$$
100348
  -INDIGO-08031722522D

 19 19  0  0  0  0  0  0  0  0999 V2000
    0.0001    1.6000    0.0000 C   0  0  0  0  0  0  0  0  0  0  0  0
    1.3857    2.4000    0.0000 H   0  0  0  0  0  0  0  0  0  0  0  0
    0.0001    0.0000    0.0000 C   0  0  0  0  0  0  0  0  0  0  0  0
    1.3857   -0.8000    0.0000 C   0  0  0  0  0  0  0  0  0  0  0  0
    1.3857   -2.4000    0.0000 O   0  0  0  0  0  0  0  0  0  0  0  0
    2.7713    0.0000    0.0000 O   0  0  0  0  0  0  0  0  0  0  0  0
    4.1569   -0.8000    0.0000 H   0  0  0  0  0  0  0  0  0  0  0  0
   -1.3857   -0.8000    0.0000 C   0  0  0  0  0  0  0  0  0  0  0  0
   -1.3857   -2.4000    0.0000 H   0  0  0  0  0  0  0  0  0  0  0  0
   -2.7713    0.0000    0.0000 C   0  0  0  0  0  0  0  0  0  0  0  0
   -4.1569   -0.8000    0.0000 N   0  0  0  0  0  0  0  0  0  0  0  0
   -5.5426    0.0000    0.0000 O   0  0  0  0  0  0  0  0  0  0  0  0
   -4.1569   -2.4000    0.0000 O   0  0  0  0  0  0  0  0  0  0  0  0
   -2.7713    1.6000    0.0000 C   0  0  0  0  0  0  0  0  0  0  0  0
   -4.1569    2.4000    0.0000 H   0  0  0  0  0  0  0  0  0  0  0  0
   -1.3857    2.4000    0.0000 C   0  0  0  0  0  0  0  0  0  0  0  0
   -1.3857    4.0000    0.0000 N   0  0  0  0  0  0  0  0  0  0  0  0
   -2.7713    4.8000    0.0000 O   0  0  0  0  0  0  0  0  0  0  0  0
    0.0001    4.8000    0.0000 O   0  0  0  0  0  0  0  0  0  0  0  0
  1  2  1  0  0  0  0
  1  3  1  0  0  0  0
  3  4  1  0  0  0  0
  4  5  2  0  0  0  0
  4  6  1  0  0  0  0
  6  7  1  0  0  0  0
  3  8  2  0  0  0  0
  8  9  1  0  0  0  0
  8 10  1  0  0  0  0
 10 11  1  0  0  0  0
 11 12  2  0  0  0  0
 11 13  1  0  0  0  0
 10 14  2  0  0  0  0
 14 15  1  0  0  0  0
 14 16  1  0  0  0  0
 16  1  2  0  0  0  0
 16 17  1  0  0  0  0
 17 18  2  0  0  0  0
 17 19  1  0  0  0  0
M  CHG  4  11   1  13  -1  17   1  19  -1
M  END
> <ChemID>
100348

> <source_casrn>
99-34-3

> <CAS>
99-34-3

> <SMILES>
[O-][N+](=O)c1cc(cc(c1)[N+]([O-])=O)C(O)=O

> <NAME>
3,5-DINITROBENZOIC ACID

> <preferred_name>
3,5-Dinitrobenzoic acid

> <iupac>
3,5-Dinitrobenzoic acid

> <MPID>
100357

> <dsstox_substance_id>
DTXSID7059195

> <Canonical_QSARr>
[O-][N+](=O)c1cc(cc(c1)[N+]([O-])=O)C(O)=O

> <InChI_Code_QSARr>
InChI=1S/C7H4N2O6/c10-7(11)4-1-5(8(12)13)3-6(2-4)9(14)15/h1-3H,(H,10,11)

> <InChI Key_QSARr>
VYWYYJYRVSBHJQ-UHFFFAOYSA-N

> <Salt_Solvent>
?

> <Ready_Biodeg>
0.0

$$$$
100350
  -INDIGO-08031722522D

 14 14  0  0  0  0  0  0  0  0999 V2000
    1.6000   -0.0000    0.0000 N   0  0  0  0  0  0  0  0  0  0  0  0
    2.4000    1.3856    0.0000 O   0  0  0  0  0  0  0  0  0  0  0  0
    2.4000   -1.3856    0.0000 O   0  0  0  0  0  0  0  0  0  0  0  0
    0.0000   -0.0000    0.0000 C   0  0  0  0  0  0  0  0  0  0  0  0
   -0.8000    1.3856    0.0000 C   0  0  0  0  0  0  0  0  0  0  0  0
    0.0000    2.7713    0.0000 H   0  0  0  0  0  0  0  0  0  0  0  0
   -2.4000    1.3856    0.0000 C   0  0  0  0  0  0  0  0  0  0  0  0
   -3.2000    2.7713    0.0000 H   0  0  0  0  0  0  0  0  0  0  0  0
   -3.2000   -0.0000    0.0000 C   0  0  0  0  0  0  0  0  0  0  0  0
   -4.8000   -0.0000    0.0000 Cl  0  0  0  0  0  0  0  0  0  0  0  0
   -2.4000   -1.3856    0.0000 C   0  0  0  0  0  0  0  0  0  0  0  0
   -3.2000   -2.7713    0.0000 Cl  0  0  0  0  0  0  0  0  0  0  0  0
   -0.8000   -1.3856    0.0000 C   0  0  0  0  0  0  0  0  0  0  0  0
    0.0000   -2.7713    0.0000 H   0  0  0  0  0  0  0  0  0  0  0  0
  1  2  2  0  0  0  0
  1  3  1  0  0  0  0
  1  4  1  0  0  0  0
  4  5  1  0  0  0  0
  5  6  1  0  0  0  0
  5  7  2  0  0  0  0
  7  8  1  0  0  0  0
  7  9  1  0  0  0  0
  9 10  1  0  0  0  0
  9 11  2  0  0  0  0
 11 12  1  0  0  0  0
 11 13  1  0  0  0  0
 13  4  2  0  0  0  0
 13 14  1  0  0  0  0
M  CHG  2   1   1   3  -1
M  END
> <ChemID>
100350

> <source_casrn>
99-54-7

> <CAS>
99-54-7

> <SMILES>
[O-][N+](=O)c1cc(Cl)c(Cl)cc1

> <NAME>
Benzene, 1,2-dichloro-4-nitro-

> <preferred_name>
3,4-Dichloronitrobenzene

> <iupac>
1,2-dichloro-4-nitrobenzene

> <MPID>
100359

> <dsstox_substance_id>
DTXSID8024999

> <Canonical_QSARr>
[O-][N+](=O)c1cc(Cl)c(Cl)cc1

> <InChI_Code_QSARr>
InChI=1S/C6H3Cl2NO2/c7-5-2-1-4(9(10)11)3-6(5)8/h1-3H

> <InChI Key_QSARr>
NTBYINQTYWZXLH-UHFFFAOYSA-N

> <Salt_Solvent>
?

> <Ready_Biodeg>
0.0

$$$$
100351
  -INDIGO-08031722522D

 16 16  0  0  0  0  0  0  0  0999 V2000
    0.0000   -0.0000    0.0000 C   0  0  0  0  0  0  0  0  0  0  0  0
    0.0000   -1.6000    0.0000 C   0  0  0  0  0  0  0  0  0  0  0  0
    1.3857   -2.4000    0.0000 H   0  0  0  0  0  0  0  0  0  0  0  0
   -1.3856   -2.4000    0.0000 C   0  0  0  0  0  0  0  0  0  0  0  0
   -1.3856   -4.0000    0.0000 H   0  0  0  0  0  0  0  0  0  0  0  0
   -2.7713   -1.6000    0.0000 C   0  0  0  0  0  0  0  0  0  0  0  0
   -4.1570   -2.4000    0.0000 H   0  0  0  0  0  0  0  0  0  0  0  0
   -2.7713   -0.0000    0.0000 C   0  0  0  0  0  0  0  0  0  0  0  0
   -4.1569    0.8000    0.0000 N   0  0  0  0  0  0  0  0  0  0  0  0
   -5.5426   -0.0000    0.0000 O   0  0  0  0  0  0  0  0  0  0  0  0
   -4.1569    2.4000    0.0000 O   0  0  0  0  0  0  0  0  0  0  0  0
   -1.3856    0.8000    0.0000 C   0  0  0  0  0  0  0  0  0  0  0  0
   -1.3856    2.4000    0.0000 H   0  0  0  0  0  0  0  0  0  0  0  0
    1.3857    0.8000    0.0000 N   0  0  0  0  0  0  0  0  0  0  0  0
    2.7713   -0.0000    0.0000 O   0  0  0  0  0  0  0  0  0  0  0  0
    1.3857    2.4000    0.0000 O   0  0  0  0  0  0  0  0  0  0  0  0
  1  2  1  0  0  0  0
  2  3  1  0  0  0  0
  2  4  2  0  0  0  0
  4  5  1  0  0  0  0
  4  6  1  0  0  0  0
  6  7  1  0  0  0  0
  6  8  2  0  0  0  0
  8  9  1  0  0  0  0
  9 10  1  0  0  0  0
  9 11  2  0  0  0  0
  8 12  1  0  0  0  0
 12  1  2  0  0  0  0
 12 13  1  0  0  0  0
  1 14  1  0  0  0  0
 14 15  1  0  0  0  0
 14 16  2  0  0  0  0
M  CHG  4   9   1  10  -1  14   1  15  -1
M  END
> <ChemID>
100351

> <source_casrn>
99-65-0

> <CAS>
99-65-0

> <SMILES>
[O-][N+](=O)c1cc(ccc1)[N+]([O-])=O

> <NAME>
Benzene, 1,3-dinitro-

> <preferred_name>
1,3-Dinitrobenzene

> <iupac>
1,3-dinitrobenzene

> <MPID>
100360

> <dsstox_substance_id>
DTXSID9024065

> <Canonical_QSARr>
[O-][N+](=O)c1cc(ccc1)[N+]([O-])=O

> <InChI_Code_QSARr>
InChI=1S/C6H4N2O4/c9-7(10)5-2-1-3-6(4-5)8(11)12/h1-4H

> <InChI Key_QSARr>
WDCYWAQPCXBPJA-UHFFFAOYSA-N

> <Salt_Solvent>
?

> <Ready_Biodeg>
0.0

$$$$
100352
  -INDIGO-08031722522D

 26 25  0  0  0  0  0  0  0  0999 V2000
    0.0001    1.6000    0.0000 C   0  0  0  0  0  0  0  0  0  0  0  0
    1.2256    2.6284    0.0000 O   0  0  0  0  0  0  0  0  0  0  0  0
   -1.2256    2.6284    0.0000 O   0  0  0  0  0  0  0  0  0  0  0  0
   -0.9479    4.2042    0.0000 H   0  0  0  0  0  0  0  0  0  0  0  0
    0.0001    0.0000    0.0000 C   0  0  0  0  0  0  0  0  0  0  0  0
    0.0001   -1.6000    0.0000 H   0  0  0  0  0  0  0  0  0  0  0  0
   -1.6001    0.0000    0.0000 C   0  0  0  0  0  0  0  0  0  0  0  0
   -2.8693    0.9740    0.0000 H   0  0  0  0  0  0  0  0  0  0  0  0
   -1.8089    1.5863    0.0000 H   0  0  0  0  0  0  0  0  0  0  0  0
   -2.4000   -1.3856    0.0000 C   0  0  0  0  0  0  0  0  0  0  0  0
   -1.1306   -2.3596    0.0000 H   0  0  0  0  0  0  0  0  0  0  0  0
   -2.1912   -2.9720    0.0000 H   0  0  0  0  0  0  0  0  0  0  0  0
   -4.0000   -1.3856    0.0000 C   0  0  0  0  0  0  0  0  0  0  0  0
   -5.6000   -1.3856    0.0000 H   0  0  0  0  0  0  0  0  0  0  0  0
   -4.8000   -2.7712    0.0000 H   0  0  0  0  0  0  0  0  0  0  0  0
   -4.8000    0.0000    0.0000 H   0  0  0  0  0  0  0  0  0  0  0  0
    1.6001    0.0000    0.0000 C   0  0  0  0  0  0  0  0  0  0  0  0
    1.8089    1.5863    0.0000 H   0  0  0  0  0  0  0  0  0  0  0  0
    2.8693    0.9740    0.0000 H   0  0  0  0  0  0  0  0  0  0  0  0
    2.4000   -1.3856    0.0000 C   0  0  0  0  0  0  0  0  0  0  0  0
    2.1912   -2.9720    0.0000 H   0  0  0  0  0  0  0  0  0  0  0  0
    1.1306   -2.3596    0.0000 H   0  0  0  0  0  0  0  0  0  0  0  0
    4.0000   -1.3856    0.0000 C   0  0  0  0  0  0  0  0  0  0  0  0
    5.6000   -1.3856    0.0000 H   0  0  0  0  0  0  0  0  0  0  0  0
    4.8000   -2.7712    0.0000 H   0  0  0  0  0  0  0  0  0  0  0  0
    4.8000    0.0000    0.0000 H   0  0  0  0  0  0  0  0  0  0  0  0
  1  2  2  0  0  0  0
  1  3  1  0  0  0  0
  3  4  1  0  0  0  0
  1  5  1  0  0  0  0
  5  6  1  0  0  0  0
  5  7  1  0  0  0  0
  7  8  1  0  0  0  0
  7  9  1  0  0  0  0
  7 10  1  0  0  0  0
 10 11  1  0  0  0  0
 10 12  1  0  0  0  0
 10 13  1  0  0  0  0
 13 14  1  0  0  0  0
 13 15  1  0  0  0  0
 13 16  1  0  0  0  0
  5 17  1  0  0  0  0
 17 18  1  0  0  0  0
 17 19  1  0  0  0  0
 17 20  1  0  0  0  0
 20 21  1  0  0  0  0
 20 22  1  0  0  0  0
 20 23  1  0  0  0  0
 23 24  1  0  0  0  0
 23 25  1  0  0  0  0
 23 26  1  0  0  0  0
M  END
> <ChemID>
100352

> <source_casrn>
99-66-1

> <CAS>
99-66-1

> <SMILES>
CCCC(CCC)C(O)=O

> <NAME>
Valproic acid

> <preferred_name>
Valproic acid

> <iupac>
C8H16O2

> <MPID>
100361

> <dsstox_substance_id>
DTXSID6023733

> <Canonical_QSARr>
CCCC(CCC)C(O)=O

> <InChI_Code_QSARr>
InChI=1S/C8H16O2/c1-3-5-7(6-4-2)8(9)10/h7H,3-6H2,1-2H3,(H,9,10)

> <InChI Key_QSARr>
NIJJYAXOARWZEE-UHFFFAOYSA-N

> <Salt_Solvent>
?

> <Ready_Biodeg>
1.0

$$$$
100354
  -INDIGO-08031722522D

 30 30  0  0  0  0  0  0  0  0999 V2000
    4.3713    1.6000    0.0000 C   0  0  0  0  0  0  0  0  0  0  0  0
    5.9713    1.6000    0.0000 H   0  0  0  0  0  0  0  0  0  0  0  0
    5.1713    2.9856    0.0000 H   0  0  0  0  0  0  0  0  0  0  0  0
    5.1713    0.2143    0.0000 H   0  0  0  0  0  0  0  0  0  0  0  0
    2.7713    1.6000    0.0000 C   0  0  0  0  0  0  0  0  0  0  0  0
    3.3185    3.1035    0.0000 H   0  0  0  0  0  0  0  0  0  0  0  0
    2.7713   -0.0000    0.0000 C   0  0  0  0  0  0  0  0  0  0  0  0
    4.3469    0.2778    0.0000 H   0  0  0  0  0  0  0  0  0  0  0  0
    3.3185   -1.5035    0.0000 H   0  0  0  0  0  0  0  0  0  0  0  0
    1.3857   -0.8000    0.0000 C   0  0  0  0  0  0  0  0  0  0  0  0
    2.4141   -2.0257    0.0000 H   0  0  0  0  0  0  0  0  0  0  0  0
    0.3572   -2.0257    0.0000 H   0  0  0  0  0  0  0  0  0  0  0  0
   -0.0000   -0.0000    0.0000 C   0  0  0  0  0  0  0  0  0  0  0  0
   -0.5472   -1.5035    0.0000 H   0  0  0  0  0  0  0  0  0  0  0  0
   -1.5758    0.2778    0.0000 C   0  0  0  0  0  0  0  0  0  0  0  0
   -1.5758    1.3222    0.0000 H   0  0  0  0  0  0  0  0  0  0  0  0
   -2.9613    1.0778    0.0000 C   0  0  0  0  0  0  0  0  0  0  0  0
   -4.3470    1.8778    0.0000 H   0  0  0  0  0  0  0  0  0  0  0  0
   -4.3470    0.2778    0.0000 H   0  0  0  0  0  0  0  0  0  0  0  0
   -2.9613    2.6779    0.0000 H   0  0  0  0  0  0  0  0  0  0  0  0
   -2.3757   -1.1078    0.0000 C   0  0  0  0  0  0  0  0  0  0  0  0
   -3.1757   -2.4934    0.0000 H   0  0  0  0  0  0  0  0  0  0  0  0
   -1.5758   -2.4934    0.0000 H   0  0  0  0  0  0  0  0  0  0  0  0
   -3.9757   -1.1078    0.0000 H   0  0  0  0  0  0  0  0  0  0  0  0
   -0.0000    1.6000    0.0000 C   0  0  0  0  0  0  0  0  0  0  0  0
   -1.0285    1.7813    0.0000 H   0  0  0  0  0  0  0  0  0  0  0  0
   -0.5472    3.1035    0.0000 H   0  0  0  0  0  0  0  0  0  0  0  0
    1.3857    2.4000    0.0000 C   0  0  0  0  0  0  0  0  0  0  0  0
    0.3572    3.6257    0.0000 H   0  0  0  0  0  0  0  0  0  0  0  0
    2.4141    3.6257    0.0000 H   0  0  0  0  0  0  0  0  0  0  0  0
  1  2  1  0  0  0  0
  1  3  1  0  0  0  0
  1  4  1  0  0  0  0
  1  5  1  0  0  0  0
  5  6  1  0  0  0  0
  5  7  1  0  0  0  0
  7  8  1  0  0  0  0
  7  9  1  0  0  0  0
  7 10  1  0  0  0  0
 10 11  1  0  0  0  0
 10 12  1  0  0  0  0
 10 13  1  0  0  0  0
 13 14  1  0  0  0  0
 13 15  1  0  0  0  0
 15 16  1  0  0  0  0
 15 17  1  0  0  0  0
 17 18  1  0  0  0  0
 17 19  1  0  0  0  0
 17 20  1  0  0  0  0
 15 21  1  0  0  0  0
 21 22  1  0  0  0  0
 21 23  1  0  0  0  0
 21 24  1  0  0  0  0
 13 25  1  0  0  0  0
 25 26  1  0  0  0  0
 25 27  1  0  0  0  0
 25 28  1  0  0  0  0
 28  5  1  0  0  0  0
 28 29  1  0  0  0  0
 28 30  1  0  0  0  0
M  END
> <ChemID>
100354

> <source_casrn>
99-82-1

> <CAS>
99-82-1

> <SMILES>
CC(C)C1CCC(C)CC1

> <NAME>
Cyclohexane, 1-methyl-4-(1-methylethyl)-

> <preferred_name>
p-Menthane

> <iupac>
1-methyl-4-(propan-2-yl)cyclohexane

> <MPID>
100363

> <dsstox_substance_id>
DTXSID9025530

> <Canonical_QSARr>
CC(C)C1CCC(C)CC1

> <InChI_Code_QSARr>
InChI=1S/C10H20/c1-8(2)10-6-4-9(3)5-7-10/h8-10H,4-7H2,1-3H3

> <InChI Key_QSARr>
CFJYNSNXFXLKNS-UHFFFAOYSA-N

> <Salt_Solvent>
?

> <Ready_Biodeg>
1.0

$$$$
100355
  -INDIGO-08031722522D

 26 26  0  0  0  0  0  0  0  0999 V2000
   -1.6000   -0.0000    0.0000 C   0  0  0  0  0  0  0  0  0  0  0  0
   -2.4001    1.3857    0.0000 C   0  0  0  0  0  0  0  0  0  0  0  0
   -1.6000    2.7713    0.0000 H   0  0  0  0  0  0  0  0  0  0  0  0
   -4.0001    1.3857    0.0000 C   0  0  0  0  0  0  0  0  0  0  0  0
   -3.7222    2.9613    0.0000 H   0  0  0  0  0  0  0  0  0  0  0  0
   -5.5034    1.9329    0.0000 H   0  0  0  0  0  0  0  0  0  0  0  0
   -4.8000   -0.0000    0.0000 C   0  0  0  0  0  0  0  0  0  0  0  0
   -6.4000   -0.0000    0.0000 C   0  0  0  0  0  0  0  0  0  0  0  0
   -8.0000   -0.0000    0.0000 H   0  0  0  0  0  0  0  0  0  0  0  0
   -7.2001   -1.3856    0.0000 H   0  0  0  0  0  0  0  0  0  0  0  0
   -7.2001    1.3857    0.0000 H   0  0  0  0  0  0  0  0  0  0  0  0
   -4.0001   -1.3856    0.0000 C   0  0  0  0  0  0  0  0  0  0  0  0
   -4.8000   -2.7713    0.0000 H   0  0  0  0  0  0  0  0  0  0  0  0
   -2.4001   -1.3856    0.0000 C   0  0  0  0  0  0  0  0  0  0  0  0
   -2.6778   -2.9613    0.0000 H   0  0  0  0  0  0  0  0  0  0  0  0
   -1.0143   -2.1856    0.0000 H   0  0  0  0  0  0  0  0  0  0  0  0
    0.0000   -0.0000    0.0000 C   0  0  0  0  0  0  0  0  0  0  0  0
    0.0000   -1.6000    0.0000 H   0  0  0  0  0  0  0  0  0  0  0  0
    1.5757   -0.2778    0.0000 C   0  0  0  0  0  0  0  0  0  0  0  0
    3.1514   -0.5557    0.0000 H   0  0  0  0  0  0  0  0  0  0  0  0
    2.6042    0.9478    0.0000 H   0  0  0  0  0  0  0  0  0  0  0  0
    2.1229   -1.7813    0.0000 H   0  0  0  0  0  0  0  0  0  0  0  0
    0.0000    1.6000    0.0000 C   0  0  0  0  0  0  0  0  0  0  0  0
    0.0000    3.2000    0.0000 H   0  0  0  0  0  0  0  0  0  0  0  0
    1.3856    2.4000    0.0000 H   0  0  0  0  0  0  0  0  0  0  0  0
    1.3856    0.8000    0.0000 H   0  0  0  0  0  0  0  0  0  0  0  0
  1  2  2  0  0  0  0
  2  3  1  0  0  0  0
  2  4  1  0  0  0  0
  4  5  1  0  0  0  0
  4  6  1  0  0  0  0
  4  7  1  0  0  0  0
  7  8  1  0  0  0  0
  8  9  1  0  0  0  0
  8 10  1  0  0  0  0
  8 11  1  0  0  0  0
  7 12  2  0  0  0  0
 12 13  1  0  0  0  0
 12 14  1  0  0  0  0
 14  1  1  0  0  0  0
 14 15  1  0  0  0  0
 14 16  1  0  0  0  0
  1 17  1  0  0  0  0
 17 18  1  0  0  0  0
 17 19  1  0  0  0  0
 19 20  1  0  0  0  0
 19 21  1  0  0  0  0
 19 22  1  0  0  0  0
 17 23  1  0  0  0  0
 23 24  1  0  0  0  0
 23 25  1  0  0  0  0
 23 26  1  0  0  0  0
M  END
> <ChemID>
100355

> <source_casrn>
99-85-4

> <CAS>
99-85-4

> <SMILES>
CC1CC=C(CC=1)C(C)C

> <NAME>
1,4-Cyclohexadiene, 1-methyl-4-(1-methylethyl)-

> <preferred_name>
gamma-Terpinene

> <iupac>
1-methyl-4-(propan-2-yl)cyclohexa-1,4-diene

> <MPID>
100364

> <dsstox_substance_id>
DTXSID6041210

> <Canonical_QSARr>
CC1CC=C(CC=1)C(C)C

> <InChI_Code_QSARr>
InChI=1S/C10H16/c1-8(2)10-6-4-9(3)5-7-10/h4,7-8H,5-6H2,1-3H3

> <InChI Key_QSARr>
YKFLAYDHMOASIY-UHFFFAOYSA-N

> <Salt_Solvent>
?

> <Ready_Biodeg>
1.0

$$$$
100356
  -INDIGO-08031722522D

 24 24  0  0  0  0  0  0  0  0999 V2000
    4.8000    0.0000    0.0000 C   0  0  0  0  0  0  0  0  0  0  0  0
    4.0001    1.3856    0.0000 C   0  0  0  0  0  0  0  0  0  0  0  0
    4.8000    2.7713    0.0000 H   0  0  0  0  0  0  0  0  0  0  0  0
    2.4001    1.3856    0.0000 C   0  0  0  0  0  0  0  0  0  0  0  0
    1.6000    2.7713    0.0000 H   0  0  0  0  0  0  0  0  0  0  0  0
    1.6000    0.0000    0.0000 C   0  0  0  0  0  0  0  0  0  0  0  0
   -0.0000    0.0000    0.0000 C   0  0  0  0  0  0  0  0  0  0  0  0
   -0.0000   -1.6000    0.0000 H   0  0  0  0  0  0  0  0  0  0  0  0
   -1.5757   -0.2778    0.0000 C   0  0  0  0  0  0  0  0  0  0  0  0
   -3.1514   -0.5557    0.0000 H   0  0  0  0  0  0  0  0  0  0  0  0
   -2.1229   -1.7813    0.0000 H   0  0  0  0  0  0  0  0  0  0  0  0
   -2.6042    0.9478    0.0000 H   0  0  0  0  0  0  0  0  0  0  0  0
   -0.0000    1.6000    0.0000 C   0  0  0  0  0  0  0  0  0  0  0  0
   -0.0000    3.2000    0.0000 H   0  0  0  0  0  0  0  0  0  0  0  0
   -1.3856    2.4000    0.0000 H   0  0  0  0  0  0  0  0  0  0  0  0
   -1.3856    0.8000    0.0000 H   0  0  0  0  0  0  0  0  0  0  0  0
    2.4001   -1.3857    0.0000 C   0  0  0  0  0  0  0  0  0  0  0  0
    1.6000   -2.7713    0.0000 H   0  0  0  0  0  0  0  0  0  0  0  0
    4.0001   -1.3857    0.0000 C   0  0  0  0  0  0  0  0  0  0  0  0
    4.8000   -2.7713    0.0000 H   0  0  0  0  0  0  0  0  0  0  0  0
    6.4000    0.0000    0.0000 C   0  0  0  0  0  0  0  0  0  0  0  0
    8.0000    0.0000    0.0000 H   0  0  0  0  0  0  0  0  0  0  0  0
    7.2001   -1.3857    0.0000 H   0  0  0  0  0  0  0  0  0  0  0  0
    7.2001    1.3856    0.0000 H   0  0  0  0  0  0  0  0  0  0  0  0
  1  2  1  0  0  0  0
  2  3  1  0  0  0  0
  2  4  2  0  0  0  0
  4  5  1  0  0  0  0
  4  6  1  0  0  0  0
  6  7  1  0  0  0  0
  7  8  1  0  0  0  0
  7  9  1  0  0  0  0
  9 10  1  0  0  0  0
  9 11  1  0  0  0  0
  9 12  1  0  0  0  0
  7 13  1  0  0  0  0
 13 14  1  0  0  0  0
 13 15  1  0  0  0  0
 13 16  1  0  0  0  0
  6 17  2  0  0  0  0
 17 18  1  0  0  0  0
 17 19  1  0  0  0  0
 19  1  2  0  0  0  0
 19 20  1  0  0  0  0
  1 21  1  0  0  0  0
 21 22  1  0  0  0  0
 21 23  1  0  0  0  0
 21 24  1  0  0  0  0
M  END
> <ChemID>
100356

> <source_casrn>
99-87-6

> <CAS>
99-87-6

> <SMILES>
Cc1ccc(cc1)C(C)C

> <NAME>
Benzene, 1-methyl-4-(1-methylethyl)-

> <preferred_name>
p-Cymene

> <iupac>
1-methyl-4-(propan-2-yl)benzene

> <MPID>
100365

> <dsstox_substance_id>
DTXSID3026645

> <Canonical_QSARr>
Cc1ccc(cc1)C(C)C

> <InChI_Code_QSARr>
InChI=1S/C10H14/c1-8(2)10-6-4-9(3)5-7-10/h4-8H,1-3H3

> <InChI Key_QSARr>
HFPZCAJZSCWRBC-UHFFFAOYSA-N

> <Salt_Solvent>
?

> <Ready_Biodeg>
1.0

$$$$
100358
  -INDIGO-08031722522D

 18 18  0  0  0  0  0  0  0  0999 V2000
    1.6000   -0.0000    0.0000 C   0  0  0  0  0  0  0  0  0  0  0  0
    2.4001   -1.3856    0.0000 C   0  0  0  0  0  0  0  0  0  0  0  0
    3.2000   -2.7713    0.0000 H   0  0  0  0  0  0  0  0  0  0  0  0
    4.0000   -1.3856    0.0000 H   0  0  0  0  0  0  0  0  0  0  0  0
    1.6000   -2.7713    0.0000 H   0  0  0  0  0  0  0  0  0  0  0  0
    2.4001    1.3856    0.0000 O   0  0  0  0  0  0  0  0  0  0  0  0
    0.0000    0.0000    0.0000 C   0  0  0  0  0  0  0  0  0  0  0  0
   -0.7999    1.3856    0.0000 C   0  0  0  0  0  0  0  0  0  0  0  0
    0.0000    2.7713    0.0000 H   0  0  0  0  0  0  0  0  0  0  0  0
   -2.4000    1.3856    0.0000 C   0  0  0  0  0  0  0  0  0  0  0  0
   -3.2000    2.7713    0.0000 H   0  0  0  0  0  0  0  0  0  0  0  0
   -3.2000    0.0000    0.0000 C   0  0  0  0  0  0  0  0  0  0  0  0
   -4.8000   -0.0000    0.0000 O   0  0  0  0  0  0  0  0  0  0  0  0
   -5.6000    1.3856    0.0000 H   0  0  0  0  0  0  0  0  0  0  0  0
   -2.4000   -1.3856    0.0000 C   0  0  0  0  0  0  0  0  0  0  0  0
   -3.2000   -2.7713    0.0000 H   0  0  0  0  0  0  0  0  0  0  0  0
   -0.7999   -1.3856    0.0000 C   0  0  0  0  0  0  0  0  0  0  0  0
    0.0000   -2.7713    0.0000 H   0  0  0  0  0  0  0  0  0  0  0  0
  1  2  1  0  0  0  0
  2  3  1  0  0  0  0
  2  4  1  0  0  0  0
  2  5  1  0  0  0  0
  1  6  2  0  0  0  0
  1  7  1  0  0  0  0
  7  8  1  0  0  0  0
  8  9  1  0  0  0  0
  8 10  2  0  0  0  0
 10 11  1  0  0  0  0
 10 12  1  0  0  0  0
 12 13  1  0  0  0  0
 13 14  1  0  0  0  0
 12 15  2  0  0  0  0
 15 16  1  0  0  0  0
 15 17  1  0  0  0  0
 17  7  2  0  0  0  0
 17 18  1  0  0  0  0
M  END
> <ChemID>
100358

> <source_casrn>
99-93-4

> <CAS>
99-93-4

> <SMILES>
CC(=O)c1ccc(O)cc1

> <NAME>
P-HYDROXYACETOPHENONE

> <preferred_name>
4-Hydroxyacetophenone

> <iupac>
1-(4-hydroxyphenyl)ethanone

> <MPID>
100367

> <dsstox_substance_id>
DTXSID0029133

> <Canonical_QSARr>
CC(=O)c1ccc(O)cc1

> <InChI_Code_QSARr>
InChI=1S/C8H8O2/c1-6(9)7-2-4-8(10)5-3-7/h2-5,10H,1H3

> <InChI Key_QSARr>
TXFPEBPIARQUIG-UHFFFAOYSA-N

> <Salt_Solvent>
?

> <Ready_Biodeg>
1.0

$$$$
100359
  -INDIGO-08031722522D

 18 18  0  0  0  0  0  0  0  0999 V2000
    1.6000   -0.0000    0.0000 C   0  0  0  0  0  0  0  0  0  0  0  0
    3.2000   -0.0000    0.0000 H   0  0  0  0  0  0  0  0  0  0  0  0
    2.4000   -1.3856    0.0000 H   0  0  0  0  0  0  0  0  0  0  0  0
    2.4000    1.3856    0.0000 H   0  0  0  0  0  0  0  0  0  0  0  0
   -0.0001   -0.0000    0.0000 C   0  0  0  0  0  0  0  0  0  0  0  0
   -0.8000    1.3856    0.0000 C   0  0  0  0  0  0  0  0  0  0  0  0
   -0.0001    2.7713    0.0000 H   0  0  0  0  0  0  0  0  0  0  0  0
   -2.4000    1.3856    0.0000 C   0  0  0  0  0  0  0  0  0  0  0  0
   -3.2000    2.7713    0.0000 H   0  0  0  0  0  0  0  0  0  0  0  0
   -3.2000   -0.0000    0.0000 C   0  0  0  0  0  0  0  0  0  0  0  0
   -4.8001   -0.0000    0.0000 C   0  0  0  0  0  0  0  0  0  0  0  0
   -5.6000    1.3856    0.0000 O   0  0  0  0  0  0  0  0  0  0  0  0
   -7.2000    1.3856    0.0000 H   0  0  0  0  0  0  0  0  0  0  0  0
   -5.6000   -1.3856    0.0000 O   0  0  0  0  0  0  0  0  0  0  0  0
   -2.4000   -1.3856    0.0000 C   0  0  0  0  0  0  0  0  0  0  0  0
   -3.2000   -2.7713    0.0000 H   0  0  0  0  0  0  0  0  0  0  0  0
   -0.8000   -1.3856    0.0000 C   0  0  0  0  0  0  0  0  0  0  0  0
   -0.0001   -2.7713    0.0000 H   0  0  0  0  0  0  0  0  0  0  0  0
  1  2  1  0  0  0  0
  1  3  1  0  0  0  0
  1  4  1  0  0  0  0
  1  5  1  0  0  0  0
  5  6  1  0  0  0  0
  6  7  1  0  0  0  0
  6  8  2  0  0  0  0
  8  9  1  0  0  0  0
  8 10  1  0  0  0  0
 10 11  1  0  0  0  0
 11 12  1  0  0  0  0
 12 13  1  0  0  0  0
 11 14  2  0  0  0  0
 10 15  2  0  0  0  0
 15 16  1  0  0  0  0
 15 17  1  0  0  0  0
 17  5  2  0  0  0  0
 17 18  1  0  0  0  0
M  END
> <ChemID>
100359

> <source_casrn>
99-94-5

> <CAS>
99-94-5

> <SMILES>
Cc1ccc(cc1)C(O)=O

> <NAME>
p-Methylbenzoic acid

> <preferred_name>
4-Methylbenzoic acid

> <iupac>
4-methylbenzoic acid

> <MPID>
100368

> <dsstox_substance_id>
DTXSID6021618

> <Canonical_QSARr>
Cc1ccc(cc1)C(O)=O

> <InChI_Code_QSARr>
InChI=1S/C8H8O2/c1-6-2-4-7(5-3-6)8(9)10/h2-5H,1H3,(H,9,10)

> <InChI Key_QSARr>
LPNBBFKOUUSUDB-UHFFFAOYSA-N

> <Salt_Solvent>
?

> <Ready_Biodeg>
1.0

$$$$
100360
  -INDIGO-08031722522D

 16 16  0  0  0  0  0  0  0  0999 V2000
   -1.3857    0.8000    0.0000 C   0  0  0  0  0  0  0  0  0  0  0  0
   -1.3857    2.4000    0.0000 O   0  0  0  0  0  0  0  0  0  0  0  0
   -0.0001   -0.0000    0.0000 C   0  0  0  0  0  0  0  0  0  0  0  0
   -0.0001   -1.6000    0.0000 C   0  0  0  0  0  0  0  0  0  0  0  0
   -1.3857   -2.4000    0.0000 H   0  0  0  0  0  0  0  0  0  0  0  0
    1.3857   -2.4000    0.0000 C   0  0  0  0  0  0  0  0  0  0  0  0
    1.3857   -4.0000    0.0000 H   0  0  0  0  0  0  0  0  0  0  0  0
    2.7713   -1.6000    0.0000 C   0  0  0  0  0  0  0  0  0  0  0  0
    4.1569   -2.4000    0.0000 O   0  0  0  0  0  0  0  0  0  0  0  0
    5.5426   -1.6000    0.0000 H   0  0  0  0  0  0  0  0  0  0  0  0
    2.7713   -0.0000    0.0000 C   0  0  0  0  0  0  0  0  0  0  0  0
    4.1569    0.8000    0.0000 H   0  0  0  0  0  0  0  0  0  0  0  0
    1.3857    0.8000    0.0000 C   0  0  0  0  0  0  0  0  0  0  0  0
    1.3857    2.4000    0.0000 H   0  0  0  0  0  0  0  0  0  0  0  0
   -2.7713   -0.0000    0.0000 O   0  0  0  0  0  0  0  0  0  0  0  0
   -4.1569    0.8000    0.0000 H   0  0  0  0  0  0  0  0  0  0  0  0
  1  2  2  0  0  0  0
  1  3  1  0  0  0  0
  3  4  1  0  0  0  0
  4  5  1  0  0  0  0
  4  6  2  0  0  0  0
  6  7  1  0  0  0  0
  6  8  1  0  0  0  0
  8  9  1  0  0  0  0
  9 10  1  0  0  0  0
  8 11  2  0  0  0  0
 11 12  1  0  0  0  0
 11 13  1  0  0  0  0
 13  3  2  0  0  0  0
 13 14  1  0  0  0  0
  1 15  1  0  0  0  0
 15 16  1  0  0  0  0
M  END
> <ChemID>
100360

> <source_casrn>
99-96-7

> <CAS>
99-96-7

> <SMILES>
Oc1ccc(cc1)C(O)=O

> <NAME>
4-Hydroxybenzoic acid

> <preferred_name>
4-Hydroxybenzoic acid

> <iupac>
4-hydroxybenzoic acid

> <MPID>
100369

> <dsstox_substance_id>
DTXSID3026647

> <Canonical_QSARr>
Oc1ccc(cc1)C(O)=O

> <InChI_Code_QSARr>
InChI=1S/C7H6O3/c8-6-3-1-5(2-4-6)7(9)10/h1-4,8H,(H,9,10)

> <InChI Key_QSARr>
FJKROLUGYXJWQN-UHFFFAOYSA-N

> <Salt_Solvent>
?

> <Ready_Biodeg>
1.0

$$$$
100362
  -INDIGO-08031722522D

 14 14  0  0  0  0  0  0  0  0999 V2000
   -2.4000   -1.3856    0.0000 O   0  0  0  0  0  0  0  0  0  0  0  0
   -1.6000   -0.0000    0.0000 N   0  0  0  0  0  0  0  0  0  0  0  0
    0.0000   -0.0000    0.0000 C   0  0  0  0  0  0  0  0  0  0  0  0
    0.8000    1.3856    0.0000 C   0  0  0  0  0  0  0  0  0  0  0  0
    0.0000    2.7713    0.0000 H   0  0  0  0  0  0  0  0  0  0  0  0
    2.4000    1.3856    0.0000 C   0  0  0  0  0  0  0  0  0  0  0  0
    3.2000    2.7713    0.0000 H   0  0  0  0  0  0  0  0  0  0  0  0
    3.2000   -0.0000    0.0000 C   0  0  0  0  0  0  0  0  0  0  0  0
    4.8000   -0.0000    0.0000 Cl  0  0  0  0  0  0  0  0  0  0  0  0
    2.4000   -1.3856    0.0000 C   0  0  0  0  0  0  0  0  0  0  0  0
    3.2000   -2.7713    0.0000 H   0  0  0  0  0  0  0  0  0  0  0  0
    0.8000   -1.3856    0.0000 C   0  0  0  0  0  0  0  0  0  0  0  0
    0.0000   -2.7713    0.0000 H   0  0  0  0  0  0  0  0  0  0  0  0
   -2.4000    1.3856    0.0000 O   0  0  0  0  0  0  0  0  0  0  0  0
  1  2  2  0  0  0  0
  2  3  1  0  0  0  0
  3  4  1  0  0  0  0
  4  5  1  0  0  0  0
  4  6  2  0  0  0  0
  6  7  1  0  0  0  0
  6  8  1  0  0  0  0
  8  9  1  0  0  0  0
  8 10  2  0  0  0  0
 10 11  1  0  0  0  0
 10 12  1  0  0  0  0
 12  3  2  0  0  0  0
 12 13  1  0  0  0  0
  2 14  1  0  0  0  0
M  CHG  2   2   1  14  -1
M  END
> <ChemID>
100362

> <source_casrn>
100-00-5

> <CAS>
100-00-5

> <SMILES>
[O-][N+](=O)c1ccc(Cl)cc1

> <NAME>
Benzene, 1-chloro-4-nitro-

> <preferred_name>
1-Chloro-4-nitrobenzene

> <iupac>
1-chloro-4-nitrobenzene

> <MPID>
100371

> <dsstox_substance_id>
DTXSID5020281

> <Canonical_QSARr>
[O-][N+](=O)c1ccc(Cl)cc1

> <InChI_Code_QSARr>
InChI=1S/C6H4ClNO2/c7-5-1-3-6(4-2-5)8(9)10/h1-4H

> <InChI Key_QSARr>
CZGCEKJOLUNIFY-UHFFFAOYSA-N

> <Salt_Solvent>
?

> <Ready_Biodeg>
0.0

$$$$
100363
  -INDIGO-08031722522D

 16 16  0  0  0  0  0  0  0  0999 V2000
   -2.4000   -1.3856    0.0000 O   0  0  0  0  0  0  0  0  0  0  0  0
   -1.5999   -0.0000    0.0000 N   0  0  0  0  0  0  0  0  0  0  0  0
    0.0001   -0.0000    0.0000 C   0  0  0  0  0  0  0  0  0  0  0  0
    0.8000    1.3856    0.0000 C   0  0  0  0  0  0  0  0  0  0  0  0
    0.0001    2.7713    0.0000 H   0  0  0  0  0  0  0  0  0  0  0  0
    2.4000    1.3856    0.0000 C   0  0  0  0  0  0  0  0  0  0  0  0
    3.2001    2.7713    0.0000 H   0  0  0  0  0  0  0  0  0  0  0  0
    3.2001   -0.0000    0.0000 C   0  0  0  0  0  0  0  0  0  0  0  0
    4.8001   -0.0000    0.0000 N   0  0  0  0  0  0  0  0  0  0  0  0
    5.6000    1.3856    0.0000 H   0  0  0  0  0  0  0  0  0  0  0  0
    5.6000   -1.3856    0.0000 H   0  0  0  0  0  0  0  0  0  0  0  0
    2.4000   -1.3856    0.0000 C   0  0  0  0  0  0  0  0  0  0  0  0
    3.2001   -2.7713    0.0000 H   0  0  0  0  0  0  0  0  0  0  0  0
    0.8000   -1.3856    0.0000 C   0  0  0  0  0  0  0  0  0  0  0  0
    0.0001   -2.7713    0.0000 H   0  0  0  0  0  0  0  0  0  0  0  0
   -2.4000    1.3856    0.0000 O   0  0  0  0  0  0  0  0  0  0  0  0
  1  2  2  0  0  0  0
  2  3  1  0  0  0  0
  3  4  1  0  0  0  0
  4  5  1  0  0  0  0
  4  6  2  0  0  0  0
  6  7  1  0  0  0  0
  6  8  1  0  0  0  0
  8  9  1  0  0  0  0
  9 10  1  0  0  0  0
  9 11  1  0  0  0  0
  8 12  2  0  0  0  0
 12 13  1  0  0  0  0
 12 14  1  0  0  0  0
 14  3  2  0  0  0  0
 14 15  1  0  0  0  0
  2 16  1  0  0  0  0
M  CHG  2   2   1  16  -1
M  END
> <ChemID>
100363

> <source_casrn>
100-01-6

> <CAS>
100-01-6

> <SMILES>
Nc1ccc(cc1)[N+]([O-])=O

> <NAME>
Benzenamine, 4-nitro-

> <preferred_name>
4-Nitroaniline

> <iupac>
4-nitroaniline

> <MPID>
100372

> <dsstox_substance_id>
DTXSID8020961

> <Canonical_QSARr>
Nc1ccc(cc1)[N+]([O-])=O

> <InChI_Code_QSARr>
InChI=1S/C6H6N2O2/c7-5-1-3-6(4-2-5)8(9)10/h1-4H,7H2

> <InChI Key_QSARr>
TYMLOMAKGOJONV-UHFFFAOYSA-N

> <Salt_Solvent>
?

> <Ready_Biodeg>
0.0

$$$$
100364
  -INDIGO-08031722522D

 15 15  0  0  0  0  0  0  0  0999 V2000
    4.8001   -0.0000    0.0000 O   0  0  0  0  0  0  0  0  0  0  0  0
    5.6000    1.3856    0.0000 H   0  0  0  0  0  0  0  0  0  0  0  0
    3.2001   -0.0000    0.0000 C   0  0  0  0  0  0  0  0  0  0  0  0
    2.4000    1.3856    0.0000 C   0  0  0  0  0  0  0  0  0  0  0  0
    3.2001    2.7713    0.0000 H   0  0  0  0  0  0  0  0  0  0  0  0
    0.8000    1.3856    0.0000 C   0  0  0  0  0  0  0  0  0  0  0  0
    0.0001    2.7713    0.0000 H   0  0  0  0  0  0  0  0  0  0  0  0
    0.0001   -0.0000    0.0000 C   0  0  0  0  0  0  0  0  0  0  0  0
   -1.5999   -0.0000    0.0000 N   0  0  0  0  0  0  0  0  0  0  0  0
   -2.4000    1.3856    0.0000 O   0  0  0  0  0  0  0  0  0  0  0  0
   -2.4000   -1.3856    0.0000 O   0  0  0  0  0  0  0  0  0  0  0  0
    0.8000   -1.3856    0.0000 C   0  0  0  0  0  0  0  0  0  0  0  0
    0.0001   -2.7713    0.0000 H   0  0  0  0  0  0  0  0  0  0  0  0
    2.4000   -1.3856    0.0000 C   0  0  0  0  0  0  0  0  0  0  0  0
    3.2001   -2.7713    0.0000 H   0  0  0  0  0  0  0  0  0  0  0  0
  1  2  1  0  0  0  0
  1  3  1  0  0  0  0
  3  4  1  0  0  0  0
  4  5  1  0  0  0  0
  4  6  2  0  0  0  0
  6  7  1  0  0  0  0
  6  8  1  0  0  0  0
  8  9  1  0  0  0  0
  9 10  2  0  0  0  0
  9 11  1  0  0  0  0
  8 12  2  0  0  0  0
 12 13  1  0  0  0  0
 12 14  1  0  0  0  0
 14  3  2  0  0  0  0
 14 15  1  0  0  0  0
M  CHG  2   9   1  11  -1
M  END
> <ChemID>
100364

> <source_casrn>
100-02-7

> <CAS>
100-02-7

> <SMILES>
[O-][N+](=O)c1ccc(O)cc1

> <NAME>
4-Nitrophenol

> <preferred_name>
4-Nitrophenol

> <iupac>
4-nitrophenol

> <MPID>
100373

> <dsstox_substance_id>
DTXSID0021834

> <Canonical_QSARr>
[O-][N+](=O)c1ccc(O)cc1

> <InChI_Code_QSARr>
InChI=1S/C6H5NO3/c8-6-3-1-5(2-4-6)7(9)10/h1-4,8H

> <InChI Key_QSARr>
BTJIUGUIPKRLHP-UHFFFAOYSA-N

> <Salt_Solvent>
?

> <Ready_Biodeg>
0.0

$$$$
100366
  -INDIGO-08031722522D

 18 18  0  0  0  0  0  0  0  0999 V2000
    3.2000   -0.0000    0.0000 C   0  0  0  0  0  0  0  0  0  0  0  0
    2.4000    1.3856    0.0000 C   0  0  0  0  0  0  0  0  0  0  0  0
    3.2000    2.7713    0.0000 H   0  0  0  0  0  0  0  0  0  0  0  0
    0.8001    1.3856    0.0000 C   0  0  0  0  0  0  0  0  0  0  0  0
   -0.0000    2.7713    0.0000 H   0  0  0  0  0  0  0  0  0  0  0  0
   -0.0000   -0.0000    0.0000 C   0  0  0  0  0  0  0  0  0  0  0  0
   -1.6000   -0.0000    0.0000 O   0  0  0  0  0  0  0  0  0  0  0  0
   -2.4001    1.3856    0.0000 C   0  0  0  0  0  0  0  0  0  0  0  0
   -4.0000    1.3856    0.0000 H   0  0  0  0  0  0  0  0  0  0  0  0
   -3.2000    2.7713    0.0000 H   0  0  0  0  0  0  0  0  0  0  0  0
   -3.2000   -0.0000    0.0000 H   0  0  0  0  0  0  0  0  0  0  0  0
    0.8001   -1.3856    0.0000 C   0  0  0  0  0  0  0  0  0  0  0  0
   -0.0000   -2.7713    0.0000 H   0  0  0  0  0  0  0  0  0  0  0  0
    2.4000   -1.3856    0.0000 C   0  0  0  0  0  0  0  0  0  0  0  0
    3.2000   -2.7713    0.0000 H   0  0  0  0  0  0  0  0  0  0  0  0
    4.8000   -0.0000    0.0000 N   0  0  0  0  0  0  0  0  0  0  0  0
    5.6000   -1.3856    0.0000 O   0  0  0  0  0  0  0  0  0  0  0  0
    5.6000    1.3856    0.0000 O   0  0  0  0  0  0  0  0  0  0  0  0
  1  2  1  0  0  0  0
  2  3  1  0  0  0  0
  2  4  2  0  0  0  0
  4  5  1  0  0  0  0
  4  6  1  0  0  0  0
  6  7  1  0  0  0  0
  7  8  1  0  0  0  0
  8  9  1  0  0  0  0
  8 10  1  0  0  0  0
  8 11  1  0  0  0  0
  6 12  2  0  0  0  0
 12 13  1  0  0  0  0
 12 14  1  0  0  0  0
 14  1  2  0  0  0  0
 14 15  1  0  0  0  0
  1 16  1  0  0  0  0
 16 17  2  0  0  0  0
 16 18  1  0  0  0  0
M  CHG  2  16   1  18  -1
M  END
> <ChemID>
100366

> <source_casrn>
100-17-4

> <CAS>
100-17-4

> <SMILES>
COc1ccc(cc1)[N+]([O-])=O

> <NAME>
Benzene, 1-methoxy-4-nitro-

> <preferred_name>
p-Nitroanisole

> <iupac>
1-Methoxy-4-nitrobenzene

> <MPID>
100375

> <dsstox_substance_id>
DTXSID9059208

> <Canonical_QSARr>
COc1ccc(cc1)[N+]([O-])=O

> <InChI_Code_QSARr>
InChI=1S/C7H7NO3/c1-11-7-4-2-6(3-5-7)8(9)10/h2-5H,1H3

> <InChI Key_QSARr>
BNUHAJGCKIQFGE-UHFFFAOYSA-N

> <Salt_Solvent>
?

> <Ready_Biodeg>
0.0

$$$$
100367
  -INDIGO-08031722522D

 30 30  0  0  0  0  0  0  0  0999 V2000
   -1.6000    0.0000    0.0000 C   0  0  0  0  0  0  0  0  0  0  0  0
   -2.4000    1.3856    0.0000 C   0  0  0  0  0  0  0  0  0  0  0  0
   -1.6000    2.7713    0.0000 H   0  0  0  0  0  0  0  0  0  0  0  0
   -4.0000    1.3856    0.0000 C   0  0  0  0  0  0  0  0  0  0  0  0
   -4.8000    2.7713    0.0000 H   0  0  0  0  0  0  0  0  0  0  0  0
   -4.8000    0.0000    0.0000 C   0  0  0  0  0  0  0  0  0  0  0  0
   -6.4001    0.0000    0.0000 C   0  0  0  0  0  0  0  0  0  0  0  0
   -6.4001   -1.6000    0.0000 H   0  0  0  0  0  0  0  0  0  0  0  0
   -7.9757   -0.2779    0.0000 C   0  0  0  0  0  0  0  0  0  0  0  0
   -9.5514   -0.5557    0.0000 H   0  0  0  0  0  0  0  0  0  0  0  0
   -8.5229   -1.7813    0.0000 H   0  0  0  0  0  0  0  0  0  0  0  0
   -9.0042    0.9478    0.0000 H   0  0  0  0  0  0  0  0  0  0  0  0
   -6.4001    1.6000    0.0000 C   0  0  0  0  0  0  0  0  0  0  0  0
   -6.4001    3.2000    0.0000 H   0  0  0  0  0  0  0  0  0  0  0  0
   -7.7856    2.4000    0.0000 H   0  0  0  0  0  0  0  0  0  0  0  0
   -7.7856    0.8000    0.0000 H   0  0  0  0  0  0  0  0  0  0  0  0
   -4.0000   -1.3856    0.0000 C   0  0  0  0  0  0  0  0  0  0  0  0
   -4.8000   -2.7713    0.0000 H   0  0  0  0  0  0  0  0  0  0  0  0
   -2.4000   -1.3856    0.0000 C   0  0  0  0  0  0  0  0  0  0  0  0
   -1.6000   -2.7713    0.0000 H   0  0  0  0  0  0  0  0  0  0  0  0
    0.0001    0.0000    0.0000 C   0  0  0  0  0  0  0  0  0  0  0  0
    0.0001    1.6000    0.0000 H   0  0  0  0  0  0  0  0  0  0  0  0
    1.5757    0.2779    0.0000 C   0  0  0  0  0  0  0  0  0  0  0  0
    3.1514    0.5557    0.0000 H   0  0  0  0  0  0  0  0  0  0  0  0
    2.1229    1.7813    0.0000 H   0  0  0  0  0  0  0  0  0  0  0  0
    2.6042   -0.9478    0.0000 H   0  0  0  0  0  0  0  0  0  0  0  0
    0.0001   -1.6000    0.0000 C   0  0  0  0  0  0  0  0  0  0  0  0
    0.0001   -3.2000    0.0000 H   0  0  0  0  0  0  0  0  0  0  0  0
    1.3856   -2.4000    0.0000 H   0  0  0  0  0  0  0  0  0  0  0  0
    1.3856   -0.8000    0.0000 H   0  0  0  0  0  0  0  0  0  0  0  0
  1  2  1  0  0  0  0
  2  3  1  0  0  0  0
  2  4  2  0  0  0  0
  4  5  1  0  0  0  0
  4  6  1  0  0  0  0
  6  7  1  0  0  0  0
  7  8  1  0  0  0  0
  7  9  1  0  0  0  0
  9 10  1  0  0  0  0
  9 11  1  0  0  0  0
  9 12  1  0  0  0  0
  7 13  1  0  0  0  0
 13 14  1  0  0  0  0
 13 15  1  0  0  0  0
 13 16  1  0  0  0  0
  6 17  2  0  0  0  0
 17 18  1  0  0  0  0
 17 19  1  0  0  0  0
 19  1  2  0  0  0  0
 19 20  1  0  0  0  0
  1 21  1  0  0  0  0
 21 22  1  0  0  0  0
 21 23  1  0  0  0  0
 23 24  1  0  0  0  0
 23 25  1  0  0  0  0
 23 26  1  0  0  0  0
 21 27  1  0  0  0  0
 27 28  1  0  0  0  0
 27 29  1  0  0  0  0
 27 30  1  0  0  0  0
M  END
> <ChemID>
100367

> <source_casrn>
100-18-5

> <CAS>
100-18-5

> <SMILES>
CC(C)c1ccc(cc1)C(C)C

> <NAME>
Benzene, 1,4-bis(1-methylethyl)-

> <preferred_name>
1,4-Diisopropylbenzene

> <iupac>
1,4-di(propan-2-yl)benzene

> <MPID>
100376

> <dsstox_substance_id>
DTXSID2026652

> <Canonical_QSARr>
CC(C)c1ccc(cc1)C(C)C

> <InChI_Code_QSARr>
InChI=1S/C12H18/c1-9(2)11-5-7-12(8-6-11)10(3)4/h5-10H,1-4H3

> <InChI Key_QSARr>
SPPWGCYEYAMHDT-UHFFFAOYSA-N

> <Salt_Solvent>
?

> <Ready_Biodeg>
0.0

$$$$
100368
  -INDIGO-08031722522D

 18 18  0  0  0  0  0  0  0  0999 V2000
    1.6000   -0.0000    0.0000 C   0  0  0  0  0  0  0  0  0  0  0  0
    2.4000    1.3856    0.0000 O   0  0  0  0  0  0  0  0  0  0  0  0
    2.4000   -1.3856    0.0000 O   0  0  0  0  0  0  0  0  0  0  0  0
    4.0000   -1.3856    0.0000 H   0  0  0  0  0  0  0  0  0  0  0  0
    0.0001   -0.0000    0.0000 C   0  0  0  0  0  0  0  0  0  0  0  0
   -0.7999    1.3856    0.0000 C   0  0  0  0  0  0  0  0  0  0  0  0
    0.0001    2.7713    0.0000 H   0  0  0  0  0  0  0  0  0  0  0  0
   -2.4001    1.3856    0.0000 C   0  0  0  0  0  0  0  0  0  0  0  0
   -3.2001    2.7713    0.0000 H   0  0  0  0  0  0  0  0  0  0  0  0
   -3.2001   -0.0000    0.0000 C   0  0  0  0  0  0  0  0  0  0  0  0
   -4.8000   -0.0000    0.0000 C   0  0  0  0  0  0  0  0  0  0  0  0
   -5.6000    1.3856    0.0000 O   0  0  0  0  0  0  0  0  0  0  0  0
   -7.2000    1.3856    0.0000 H   0  0  0  0  0  0  0  0  0  0  0  0
   -5.6000   -1.3856    0.0000 O   0  0  0  0  0  0  0  0  0  0  0  0
   -2.4001   -1.3856    0.0000 C   0  0  0  0  0  0  0  0  0  0  0  0
   -3.2001   -2.7713    0.0000 H   0  0  0  0  0  0  0  0  0  0  0  0
   -0.7999   -1.3856    0.0000 C   0  0  0  0  0  0  0  0  0  0  0  0
    0.0001   -2.7713    0.0000 H   0  0  0  0  0  0  0  0  0  0  0  0
  1  2  2  0  0  0  0
  1  3  1  0  0  0  0
  3  4  1  0  0  0  0
  1  5  1  0  0  0  0
  5  6  1  0  0  0  0
  6  7  1  0  0  0  0
  6  8  2  0  0  0  0
  8  9  1  0  0  0  0
  8 10  1  0  0  0  0
 10 11  1  0  0  0  0
 11 12  1  0  0  0  0
 12 13  1  0  0  0  0
 11 14  2  0  0  0  0
 10 15  2  0  0  0  0
 15 16  1  0  0  0  0
 15 17  1  0  0  0  0
 17  5  2  0  0  0  0
 17 18  1  0  0  0  0
M  END
> <ChemID>
100368

> <source_casrn>
100-21-0

> <CAS>
100-21-0

> <SMILES>
OC(=O)c1ccc(cc1)C(O)=O

> <NAME>
1,4-Benzenedicarboxylic acid

> <preferred_name>
Terephthalic acid

> <iupac>
benzene-1,4-dicarboxylic acid

> <MPID>
100377

> <dsstox_substance_id>
DTXSID6026080

> <Canonical_QSARr>
OC(=O)c1ccc(cc1)C(O)=O

> <InChI_Code_QSARr>
InChI=1S/C8H6O4/c9-7(10)5-1-2-6(4-3-5)8(11)12/h1-4H,(H,9,10)(H,11,12)

> <InChI Key_QSARr>
KKEYFWRCBNTPAC-UHFFFAOYSA-N

> <Salt_Solvent>
?

> <Ready_Biodeg>
1.0

$$$$
100370
  -INDIGO-08031722522D

 20 20  0  0  0  0  0  0  0  0999 V2000
    2.7713   -0.0000    0.0000 C   0  0  0  0  0  0  0  0  0  0  0  0
    4.1569   -0.8000    0.0000 H   0  0  0  0  0  0  0  0  0  0  0  0
    2.7713    1.6000    0.0000 H   0  0  0  0  0  0  0  0  0  0  0  0
    1.3856   -0.8000    0.0000 C   0  0  0  0  0  0  0  0  0  0  0  0
    1.6634   -2.3757    0.0000 H   0  0  0  0  0  0  0  0  0  0  0  0
   -0.0000   -0.0000    0.0000 C   0  0  0  0  0  0  0  0  0  0  0  0
    1.2257    1.0285    0.0000 H   0  0  0  0  0  0  0  0  0  0  0  0
   -0.8000    1.3857    0.0000 C   0  0  0  0  0  0  0  0  0  0  0  0
    0.7034    1.9329    0.0000 H   0  0  0  0  0  0  0  0  0  0  0  0
   -1.0778    2.9613    0.0000 H   0  0  0  0  0  0  0  0  0  0  0  0
   -2.4000    1.3857    0.0000 C   0  0  0  0  0  0  0  0  0  0  0  0
   -2.1221    2.9613    0.0000 H   0  0  0  0  0  0  0  0  0  0  0  0
   -3.9036    1.9329    0.0000 H   0  0  0  0  0  0  0  0  0  0  0  0
   -3.2000   -0.0000    0.0000 C   0  0  0  0  0  0  0  0  0  0  0  0
   -4.8000   -0.0000    0.0000 H   0  0  0  0  0  0  0  0  0  0  0  0
   -2.4000   -1.3857    0.0000 C   0  0  0  0  0  0  0  0  0  0  0  0
   -3.2000   -2.7713    0.0000 H   0  0  0  0  0  0  0  0  0  0  0  0
   -0.8000   -1.3857    0.0000 C   0  0  0  0  0  0  0  0  0  0  0  0
   -1.0778   -2.9613    0.0000 H   0  0  0  0  0  0  0  0  0  0  0  0
    0.7034   -1.9329    0.0000 H   0  0  0  0  0  0  0  0  0  0  0  0
  1  2  1  0  0  0  0
  1  3  1  0  0  0  0
  1  4  2  0  0  0  0
  4  5  1  0  0  0  0
  4  6  1  0  0  0  0
  6  7  1  0  0  0  0
  6  8  1  0  0  0  0
  8  9  1  0  0  0  0
  8 10  1  0  0  0  0
  8 11  1  0  0  0  0
 11 12  1  0  0  0  0
 11 13  1  0  0  0  0
 11 14  1  0  0  0  0
 14 15  1  0  0  0  0
 14 16  2  0  0  0  0
 16 17  1  0  0  0  0
 16 18  1  0  0  0  0
 18  6  1  0  0  0  0
 18 19  1  0  0  0  0
 18 20  1  0  0  0  0
M  END
> <ChemID>
100370

> <source_casrn>
100-40-3

> <CAS>
100-40-3

> <SMILES>
C=CC1CC=CCC1

> <NAME>
Cyclohexene, 4-ethenyl-

> <preferred_name>
4-Vinylcyclohexene

> <iupac>
4-ethenylcyclohexene

> <MPID>
100379

> <dsstox_substance_id>
DTXSID3021437

> <Canonical_QSARr>
C=CC1CC=CCC1

> <InChI_Code_QSARr>
InChI=1S/C8H12/c1-2-8-6-4-3-5-7-8/h2-4,8H,1,5-7H2

> <InChI Key_QSARr>
BBDKZWKEPDTENS-UHFFFAOYSA-N

> <Salt_Solvent>
?

> <Ready_Biodeg>
0.0

$$$$
100371
  -INDIGO-08031722522D

 16 16  0  0  0  0  0  0  0  0999 V2000
    2.7713   -0.0000    0.0000 C   0  0  0  0  0  0  0  0  0  0  0  0
    4.1569    0.8000    0.0000 H   0  0  0  0  0  0  0  0  0  0  0  0
    2.7713   -1.6000    0.0000 H   0  0  0  0  0  0  0  0  0  0  0  0
    1.3856    0.8000    0.0000 C   0  0  0  0  0  0  0  0  0  0  0  0
    1.3856    2.4000    0.0000 H   0  0  0  0  0  0  0  0  0  0  0  0
    0.0001   -0.0000    0.0000 C   0  0  0  0  0  0  0  0  0  0  0  0
    0.0001   -1.6000    0.0000 C   0  0  0  0  0  0  0  0  0  0  0  0
    1.3856   -2.4000    0.0000 H   0  0  0  0  0  0  0  0  0  0  0  0
   -1.3856   -2.4000    0.0000 C   0  0  0  0  0  0  0  0  0  0  0  0
   -1.3856   -4.0000    0.0000 H   0  0  0  0  0  0  0  0  0  0  0  0
   -2.7712   -1.6000    0.0000 C   0  0  0  0  0  0  0  0  0  0  0  0
   -4.1569   -2.4000    0.0000 H   0  0  0  0  0  0  0  0  0  0  0  0
   -2.7712   -0.0000    0.0000 C   0  0  0  0  0  0  0  0  0  0  0  0
   -4.1569    0.8000    0.0000 H   0  0  0  0  0  0  0  0  0  0  0  0
   -1.3856    0.8000    0.0000 C   0  0  0  0  0  0  0  0  0  0  0  0
   -1.3856    2.4000    0.0000 H   0  0  0  0  0  0  0  0  0  0  0  0
  1  2  1  0  0  0  0
  1  3  1  0  0  0  0
  1  4  2  0  0  0  0
  4  5  1  0  0  0  0
  4  6  1  0  0  0  0
  6  7  1  0  0  0  0
  7  8  1  0  0  0  0
  7  9  2  0  0  0  0
  9 10  1  0  0  0  0
  9 11  1  0  0  0  0
 11 12  1  0  0  0  0
 11 13  2  0  0  0  0
 13 14  1  0  0  0  0
 13 15  1  0  0  0  0
 15  6  2  0  0  0  0
 15 16  1  0  0  0  0
M  END
> <ChemID>
100371

> <source_casrn>
100-42-5

> <CAS>
100-42-5

> <SMILES>
C=Cc1ccccc1

> <NAME>
Benzene, ethenyl-

> <preferred_name>
Styrene

> <iupac>
ethenylbenzene

> <MPID>
100380

> <dsstox_substance_id>
DTXSID2021284

> <Canonical_QSARr>
C=Cc1ccccc1

> <InChI_Code_QSARr>
InChI=1S/C8H8/c1-2-8-6-4-3-5-7-8/h2-7H,1H2

> <InChI Key_QSARr>
PPBRXRYQALVLMV-UHFFFAOYSA-N

> <Salt_Solvent>
?

> <Ready_Biodeg>
1.0

$$$$
100372
  -INDIGO-08031722522D

 15 15  0  0  0  0  0  0  0  0999 V2000
    3.2000   -0.0000    0.0000 N   0  0  0  0  0  0  0  0  0  0  0  0
    2.4000    1.3856    0.0000 C   0  0  0  0  0  0  0  0  0  0  0  0
    3.2000    2.7713    0.0000 H   0  0  0  0  0  0  0  0  0  0  0  0
    0.8000    1.3856    0.0000 C   0  0  0  0  0  0  0  0  0  0  0  0
   -0.0000    2.7713    0.0000 H   0  0  0  0  0  0  0  0  0  0  0  0
   -0.0000   -0.0000    0.0000 C   0  0  0  0  0  0  0  0  0  0  0  0
   -1.6000   -0.0000    0.0000 C   0  0  0  0  0  0  0  0  0  0  0  0
   -2.4000   -1.3856    0.0000 H   0  0  0  0  0  0  0  0  0  0  0  0
   -2.4000    1.3856    0.0000 C   0  0  0  0  0  0  0  0  0  0  0  0
   -4.0000    1.3856    0.0000 H   0  0  0  0  0  0  0  0  0  0  0  0
   -1.6000    2.7713    0.0000 H   0  0  0  0  0  0  0  0  0  0  0  0
    0.8000   -1.3856    0.0000 C   0  0  0  0  0  0  0  0  0  0  0  0
   -0.0000   -2.7713    0.0000 H   0  0  0  0  0  0  0  0  0  0  0  0
    2.4000   -1.3856    0.0000 C   0  0  0  0  0  0  0  0  0  0  0  0
    3.2000   -2.7713    0.0000 H   0  0  0  0  0  0  0  0  0  0  0  0
  1  2  1  0  0  0  0
  2  3  1  0  0  0  0
  2  4  2  0  0  0  0
  4  5  1  0  0  0  0
  4  6  1  0  0  0  0
  6  7  1  0  0  0  0
  7  8  1  0  0  0  0
  7  9  2  0  0  0  0
  9 10  1  0  0  0  0
  9 11  1  0  0  0  0
  6 12  2  0  0  0  0
 12 13  1  0  0  0  0
 12 14  1  0  0  0  0
 14  1  2  0  0  0  0
 14 15  1  0  0  0  0
M  END
> <ChemID>
100372

> <source_casrn>
100-43-6

> <CAS>
100-43-6

> <SMILES>
C=Cc1cc[n]cc1

> <NAME>
Pyridine, 4-ethenyl-

> <preferred_name>
4-Vinylpyridine

> <iupac>
4-vinylpyridine

> <MPID>
100381

> <dsstox_substance_id>
DTXSID0051499

> <Canonical_QSARr>
C=Cc1cc[n]cc1

> <InChI_Code_QSARr>
InChI=1S/C7H7N/c1-2-7-3-5-8-6-4-7/h2-6H,1H2

> <InChI Key_QSARr>
KFDVPJUYSDEJTH-UHFFFAOYSA-N

> <Salt_Solvent>
?

> <Ready_Biodeg>
0.0

$$$$
100374
  -INDIGO-08031722522D

 17 17  0  0  0  0  0  0  0  0999 V2000
    2.4001   -1.3856    0.0000 N   0  0  0  0  0  0  0  0  0  0  0  0
    4.0000   -1.3856    0.0000 H   0  0  0  0  0  0  0  0  0  0  0  0
    1.6000   -2.7713    0.0000 H   0  0  0  0  0  0  0  0  0  0  0  0
    1.6000   -0.0000    0.0000 C   0  0  0  0  0  0  0  0  0  0  0  0
    1.8088    1.5863    0.0000 H   0  0  0  0  0  0  0  0  0  0  0  0
    2.8694    0.9740    0.0000 H   0  0  0  0  0  0  0  0  0  0  0  0
   -0.0000    0.0000    0.0000 C   0  0  0  0  0  0  0  0  0  0  0  0
   -0.8000    1.3856    0.0000 C   0  0  0  0  0  0  0  0  0  0  0  0
   -0.0000    2.7713    0.0000 H   0  0  0  0  0  0  0  0  0  0  0  0
   -2.4000    1.3856    0.0000 C   0  0  0  0  0  0  0  0  0  0  0  0
   -3.2001    2.7713    0.0000 H   0  0  0  0  0  0  0  0  0  0  0  0
   -3.2001    0.0000    0.0000 C   0  0  0  0  0  0  0  0  0  0  0  0
   -4.8000   -0.0000    0.0000 H   0  0  0  0  0  0  0  0  0  0  0  0
   -2.4000   -1.3856    0.0000 C   0  0  0  0  0  0  0  0  0  0  0  0
   -3.2001   -2.7713    0.0000 H   0  0  0  0  0  0  0  0  0  0  0  0
   -0.8000   -1.3856    0.0000 C   0  0  0  0  0  0  0  0  0  0  0  0
   -0.0000   -2.7713    0.0000 H   0  0  0  0  0  0  0  0  0  0  0  0
  1  2  1  0  0  0  0
  1  3  1  0  0  0  0
  1  4  1  0  0  0  0
  4  5  1  0  0  0  0
  4  6  1  0  0  0  0
  4  7  1  0  0  0  0
  7  8  1  0  0  0  0
  8  9  1  0  0  0  0
  8 10  2  0  0  0  0
 10 11  1  0  0  0  0
 10 12  1  0  0  0  0
 12 13  1  0  0  0  0
 12 14  2  0  0  0  0
 14 15  1  0  0  0  0
 14 16  1  0  0  0  0
 16  7  2  0  0  0  0
 16 17  1  0  0  0  0
M  END
> <ChemID>
100374

> <source_casrn>
100-46-9

> <CAS>
100-46-9

> <SMILES>
NCc1ccccc1

> <NAME>
Benzenemethanamine

> <preferred_name>
Benzylamine

> <iupac>
1-phenylmethanamine

> <MPID>
100383

> <dsstox_substance_id>
DTXSID5021839

> <Canonical_QSARr>
NCc1ccccc1

> <InChI_Code_QSARr>
InChI=1S/C7H9N/c8-6-7-4-2-1-3-5-7/h1-5H,6,8H2

> <InChI Key_QSARr>
WGQKYBSKWIADBV-UHFFFAOYSA-N

> <Salt_Solvent>
?

> <Ready_Biodeg>
1.0

$$$$
100375
  -INDIGO-08031722522D

 13 13  0  0  0  0  0  0  0  0999 V2000
   -3.2000   -0.0000    0.0000 N   0  0  0  0  0  0  0  0  0  0  0  0
   -1.6000   -0.0000    0.0000 C   0  0  0  0  0  0  0  0  0  0  0  0
    0.0000   -0.0000    0.0000 C   0  0  0  0  0  0  0  0  0  0  0  0
    0.8001    1.3856    0.0000 C   0  0  0  0  0  0  0  0  0  0  0  0
    0.0000    2.7713    0.0000 H   0  0  0  0  0  0  0  0  0  0  0  0
    2.4001    1.3856    0.0000 C   0  0  0  0  0  0  0  0  0  0  0  0
    3.2000    2.7713    0.0000 H   0  0  0  0  0  0  0  0  0  0  0  0
    3.2000   -0.0000    0.0000 C   0  0  0  0  0  0  0  0  0  0  0  0
    4.8000   -0.0000    0.0000 H   0  0  0  0  0  0  0  0  0  0  0  0
    2.4001   -1.3856    0.0000 C   0  0  0  0  0  0  0  0  0  0  0  0
    3.2000   -2.7713    0.0000 H   0  0  0  0  0  0  0  0  0  0  0  0
    0.8001   -1.3856    0.0000 C   0  0  0  0  0  0  0  0  0  0  0  0
    0.0000   -2.7713    0.0000 H   0  0  0  0  0  0  0  0  0  0  0  0
  1  2  3  0  0  0  0
  2  3  1  0  0  0  0
  3  4  1  0  0  0  0
  4  5  1  0  0  0  0
  4  6  2  0  0  0  0
  6  7  1  0  0  0  0
  6  8  1  0  0  0  0
  8  9  1  0  0  0  0
  8 10  2  0  0  0  0
 10 11  1  0  0  0  0
 10 12  1  0  0  0  0
 12  3  2  0  0  0  0
 12 13  1  0  0  0  0
M  END
> <ChemID>
100375

> <source_casrn>
100-47-0

> <CAS>
100-47-0

> <SMILES>
N#Cc1ccccc1

> <NAME>
Benzonitrile

> <preferred_name>
Benzonitrile

> <iupac>
benzonitrile

> <MPID>
100384

> <dsstox_substance_id>
DTXSID7021491

> <Canonical_QSARr>
N#Cc1ccccc1

> <InChI_Code_QSARr>
InChI=1S/C7H5N/c8-6-7-4-2-1-3-5-7/h1-5H

> <InChI Key_QSARr>
JFDZBHWFFUWGJE-UHFFFAOYSA-N

> <Salt_Solvent>
?

> <Ready_Biodeg>
1.0

$$$$
100376
  -INDIGO-08031722522D

 16 16  0  0  0  0  0  0  0  0999 V2000
    2.4001   -1.3856    0.0000 O   0  0  0  0  0  0  0  0  0  0  0  0
    4.0000   -1.3856    0.0000 H   0  0  0  0  0  0  0  0  0  0  0  0
    1.6000   -0.0000    0.0000 C   0  0  0  0  0  0  0  0  0  0  0  0
    1.8088    1.5863    0.0000 H   0  0  0  0  0  0  0  0  0  0  0  0
    2.8694    0.9740    0.0000 H   0  0  0  0  0  0  0  0  0  0  0  0
   -0.0000   -0.0000    0.0000 C   0  0  0  0  0  0  0  0  0  0  0  0
   -0.8000    1.3856    0.0000 C   0  0  0  0  0  0  0  0  0  0  0  0
   -0.0000    2.7713    0.0000 H   0  0  0  0  0  0  0  0  0  0  0  0
   -2.4000    1.3856    0.0000 C   0  0  0  0  0  0  0  0  0  0  0  0
   -3.2001    2.7713    0.0000 H   0  0  0  0  0  0  0  0  0  0  0  0
   -3.2001   -0.0000    0.0000 C   0  0  0  0  0  0  0  0  0  0  0  0
   -4.8000   -0.0000    0.0000 H   0  0  0  0  0  0  0  0  0  0  0  0
   -2.4000   -1.3856    0.0000 C   0  0  0  0  0  0  0  0  0  0  0  0
   -3.2001   -2.7713    0.0000 H   0  0  0  0  0  0  0  0  0  0  0  0
   -0.8000   -1.3856    0.0000 C   0  0  0  0  0  0  0  0  0  0  0  0
   -0.0000   -2.7713    0.0000 H   0  0  0  0  0  0  0  0  0  0  0  0
  1  2  1  0  0  0  0
  1  3  1  0  0  0  0
  3  4  1  0  0  0  0
  3  5  1  0  0  0  0
  3  6  1  0  0  0  0
  6  7  1  0  0  0  0
  7  8  1  0  0  0  0
  7  9  2  0  0  0  0
  9 10  1  0  0  0  0
  9 11  1  0  0  0  0
 11 12  1  0  0  0  0
 11 13  2  0  0  0  0
 13 14  1  0  0  0  0
 13 15  1  0  0  0  0
 15  6  2  0  0  0  0
 15 16  1  0  0  0  0
M  END
> <ChemID>
100376

> <source_casrn>
100-51-6

> <CAS>
100-51-6

> <SMILES>
OCc1ccccc1

> <NAME>
Benzyl alcohol

> <preferred_name>
Benzyl alcohol

> <iupac>
phenylmethanol

> <MPID>
100385

> <dsstox_substance_id>
DTXSID5020152

> <Canonical_QSARr>
OCc1ccccc1

> <InChI_Code_QSARr>
InChI=1S/C7H8O/c8-6-7-4-2-1-3-5-7/h1-5,8H,6H2

> <InChI Key_QSARr>
WVDDGKGOMKODPV-UHFFFAOYSA-N

> <Salt_Solvent>
?

> <Ready_Biodeg>
1.0

$$$$
100378
  -INDIGO-08031722522D

 17 17  0  0  0  0  0  0  0  0999 V2000
    3.2001   -0.0000    0.0000 C   0  0  0  0  0  0  0  0  0  0  0  0
    4.8000   -0.0000    0.0000 H   0  0  0  0  0  0  0  0  0  0  0  0
    2.4000    1.3856    0.0000 C   0  0  0  0  0  0  0  0  0  0  0  0
    3.2001    2.7713    0.0000 H   0  0  0  0  0  0  0  0  0  0  0  0
    0.8000    1.3856    0.0000 C   0  0  0  0  0  0  0  0  0  0  0  0
    0.0000    2.7713    0.0000 H   0  0  0  0  0  0  0  0  0  0  0  0
    0.0000   -0.0000    0.0000 C   0  0  0  0  0  0  0  0  0  0  0  0
   -1.6000   -0.0000    0.0000 N   0  0  0  0  0  0  0  0  0  0  0  0
   -2.4001   -1.3856    0.0000 H   0  0  0  0  0  0  0  0  0  0  0  0
   -2.4001    1.3856    0.0000 C   0  0  0  0  0  0  0  0  0  0  0  0
   -3.2000    2.7713    0.0000 H   0  0  0  0  0  0  0  0  0  0  0  0
   -4.0000    1.3856    0.0000 H   0  0  0  0  0  0  0  0  0  0  0  0
   -1.6000    2.7713    0.0000 H   0  0  0  0  0  0  0  0  0  0  0  0
    0.8000   -1.3856    0.0000 C   0  0  0  0  0  0  0  0  0  0  0  0
    0.0000   -2.7713    0.0000 H   0  0  0  0  0  0  0  0  0  0  0  0
    2.4000   -1.3856    0.0000 C   0  0  0  0  0  0  0  0  0  0  0  0
    3.2001   -2.7713    0.0000 H   0  0  0  0  0  0  0  0  0  0  0  0
  1  2  1  0  0  0  0
  1  3  1  0  0  0  0
  3  4  1  0  0  0  0
  3  5  2  0  0  0  0
  5  6  1  0  0  0  0
  5  7  1  0  0  0  0
  7  8  1  0  0  0  0
  8  9  1  0  0  0  0
  8 10  1  0  0  0  0
 10 11  1  0  0  0  0
 10 12  1  0  0  0  0
 10 13  1  0  0  0  0
  7 14  2  0  0  0  0
 14 15  1  0  0  0  0
 14 16  1  0  0  0  0
 16  1  2  0  0  0  0
 16 17  1  0  0  0  0
M  END
> <ChemID>
100378

> <source_casrn>
100-61-8

> <CAS>
100-61-8

> <SMILES>
CNc1ccccc1

> <NAME>
N-Methylaniline

> <preferred_name>
N-Methylaniline

> <iupac>
N-methylaniline

> <MPID>
100387

> <dsstox_substance_id>
DTXSID9021841

> <Canonical_QSARr>
CNc1ccccc1

> <InChI_Code_QSARr>
InChI=1S/C7H9N/c1-8-7-5-3-2-4-6-7/h2-6,8H,1H3

> <InChI Key_QSARr>
AFBPFSWMIHJQDM-UHFFFAOYSA-N

> <Salt_Solvent>
?

> <Ready_Biodeg>
0.0

$$$$
100379
  -INDIGO-08031722522D

 16 16  0  0  0  0  0  0  0  0999 V2000
    0.0001   -0.0000    0.0000 C   0  0  0  0  0  0  0  0  0  0  0  0
    1.3856    0.8000    0.0000 O   0  0  0  0  0  0  0  0  0  0  0  0
    2.7713   -0.0000    0.0000 C   0  0  0  0  0  0  0  0  0  0  0  0
    4.1569    0.8000    0.0000 H   0  0  0  0  0  0  0  0  0  0  0  0
    4.1569   -0.8000    0.0000 H   0  0  0  0  0  0  0  0  0  0  0  0
    2.7713    1.6000    0.0000 H   0  0  0  0  0  0  0  0  0  0  0  0
    0.0001   -1.6000    0.0000 C   0  0  0  0  0  0  0  0  0  0  0  0
    1.3856   -2.4000    0.0000 H   0  0  0  0  0  0  0  0  0  0  0  0
   -1.3856   -2.4000    0.0000 C   0  0  0  0  0  0  0  0  0  0  0  0
   -1.3856   -4.0000    0.0000 H   0  0  0  0  0  0  0  0  0  0  0  0
   -2.7712   -1.6000    0.0000 C   0  0  0  0  0  0  0  0  0  0  0  0
   -4.1569   -2.4000    0.0000 H   0  0  0  0  0  0  0  0  0  0  0  0
   -2.7712   -0.0000    0.0000 C   0  0  0  0  0  0  0  0  0  0  0  0
   -4.1569    0.8000    0.0000 H   0  0  0  0  0  0  0  0  0  0  0  0
   -1.3856    0.8000    0.0000 C   0  0  0  0  0  0  0  0  0  0  0  0
   -1.3856    2.4000    0.0000 H   0  0  0  0  0  0  0  0  0  0  0  0
  1  2  1  0  0  0  0
  2  3  1  0  0  0  0
  3  4  1  0  0  0  0
  3  5  1  0  0  0  0
  3  6  1  0  0  0  0
  1  7  1  0  0  0  0
  7  8  1  0  0  0  0
  7  9  2  0  0  0  0
  9 10  1  0  0  0  0
  9 11  1  0  0  0  0
 11 12  1  0  0  0  0
 11 13  2  0  0  0  0
 13 14  1  0  0  0  0
 13 15  1  0  0  0  0
 15  1  2  0  0  0  0
 15 16  1  0  0  0  0
M  END
> <ChemID>
100379

> <source_casrn>
100-66-3

> <CAS>
100-66-3

> <SMILES>
COc1ccccc1

> <NAME>
Anisole

> <preferred_name>
Anisole

> <iupac>
methoxybenzene

> <MPID>
100388

> <dsstox_substance_id>
DTXSID4041608

> <Canonical_QSARr>
COc1ccccc1

> <InChI_Code_QSARr>
InChI=1S/C7H8O/c1-8-7-5-3-2-4-6-7/h2-6H,1H3

> <InChI Key_QSARr>
RDOXTESZEPMUJZ-UHFFFAOYSA-N

> <Salt_Solvent>
?

> <Ready_Biodeg>
1.0

$$$$
100380
  -INDIGO-08031722522D

 15 15  0  0  0  0  0  0  0  0999 V2000
    0.8000    1.3856    0.0000 N   0  0  0  0  0  0  0  0  0  0  0  0
    2.4000    1.3856    0.0000 C   0  0  0  0  0  0  0  0  0  0  0  0
    3.2001    2.7713    0.0000 H   0  0  0  0  0  0  0  0  0  0  0  0
    3.2001   -0.0000    0.0000 C   0  0  0  0  0  0  0  0  0  0  0  0
    4.8000    0.0000    0.0000 H   0  0  0  0  0  0  0  0  0  0  0  0
    2.4000   -1.3856    0.0000 C   0  0  0  0  0  0  0  0  0  0  0  0
    3.2001   -2.7713    0.0000 H   0  0  0  0  0  0  0  0  0  0  0  0
    0.8000   -1.3856    0.0000 C   0  0  0  0  0  0  0  0  0  0  0  0
    0.0000   -2.7713    0.0000 H   0  0  0  0  0  0  0  0  0  0  0  0
    0.0000   -0.0000    0.0000 C   0  0  0  0  0  0  0  0  0  0  0  0
   -1.6000    0.0000    0.0000 C   0  0  0  0  0  0  0  0  0  0  0  0
   -2.4001   -1.3856    0.0000 H   0  0  0  0  0  0  0  0  0  0  0  0
   -2.4001    1.3856    0.0000 C   0  0  0  0  0  0  0  0  0  0  0  0
   -4.0000    1.3856    0.0000 H   0  0  0  0  0  0  0  0  0  0  0  0
   -1.6000    2.7713    0.0000 H   0  0  0  0  0  0  0  0  0  0  0  0
  1  2  1  0  0  0  0
  2  3  1  0  0  0  0
  2  4  2  0  0  0  0
  4  5  1  0  0  0  0
  4  6  1  0  0  0  0
  6  7  1  0  0  0  0
  6  8  2  0  0  0  0
  8  9  1  0  0  0  0
  8 10  1  0  0  0  0
 10  1  2  0  0  0  0
 10 11  1  0  0  0  0
 11 12  1  0  0  0  0
 11 13  2  0  0  0  0
 13 14  1  0  0  0  0
 13 15  1  0  0  0  0
M  END
> <ChemID>
100380

> <source_casrn>
100-69-6

> <CAS>
100-69-6

> <SMILES>
C=Cc1cccc[n]1

> <NAME>
Pyridine, 2-ethenyl-

> <preferred_name>
2-Vinylpyridine

> <iupac>
2-ethenylpyridine

> <MPID>
100389

> <dsstox_substance_id>
DTXSID1026667

> <Canonical_QSARr>
C=Cc1cccc[n]1

> <InChI_Code_QSARr>
InChI=1S/C7H7N/c1-2-7-5-3-4-6-8-7/h2-6H,1H2

> <InChI Key_QSARr>
KGIGUEBEKRSTEW-UHFFFAOYSA-N

> <Salt_Solvent>
?

> <Ready_Biodeg>
0.0

$$$$
100382
  -INDIGO-08031722522D

 29 30  0  0  0  0  0  0  0  0999 V2000
    4.2459   -3.5627    0.0000 Cl  0  0  0  0  0  0  0  0  0  0  0  0
    3.6986   -2.0591    0.0000 C   0  0  0  0  0  0  0  0  0  0  0  0
    4.7272   -0.8335    0.0000 C   0  0  0  0  0  0  0  0  0  0  0  0
    6.3027   -1.1113    0.0000 N   0  0  0  0  0  0  0  0  0  0  0  0
    7.3312    0.1143    0.0000 H   0  0  0  0  0  0  0  0  0  0  0  0
    6.8499   -2.6148    0.0000 H   0  0  0  0  0  0  0  0  0  0  0  0
    4.1799    0.6700    0.0000 C   0  0  0  0  0  0  0  0  0  0  0  0
    5.2083    1.8957    0.0000 H   0  0  0  0  0  0  0  0  0  0  0  0
    2.6042    0.9479    0.0000 C   0  0  0  0  0  0  0  0  0  0  0  0
    2.0570    2.4513    0.0000 H   0  0  0  0  0  0  0  0  0  0  0  0
    1.5757   -0.2778    0.0000 C   0  0  0  0  0  0  0  0  0  0  0  0
   -0.0001    0.0000    0.0000 C   0  0  0  0  0  0  0  0  0  0  0  0
   -0.8598    1.3494    0.0000 H   0  0  0  0  0  0  0  0  0  0  0  0
    0.3463    1.5621    0.0000 H   0  0  0  0  0  0  0  0  0  0  0  0
   -1.3857   -0.8000    0.0000 C   0  0  0  0  0  0  0  0  0  0  0  0
   -1.3857   -2.4000    0.0000 C   0  0  0  0  0  0  0  0  0  0  0  0
   -0.0001   -3.2000    0.0000 H   0  0  0  0  0  0  0  0  0  0  0  0
   -2.7712   -3.2000    0.0000 C   0  0  0  0  0  0  0  0  0  0  0  0
   -2.7712   -4.8000    0.0000 Cl  0  0  0  0  0  0  0  0  0  0  0  0
   -4.1568   -2.4000    0.0000 C   0  0  0  0  0  0  0  0  0  0  0  0
   -5.5426   -3.2000    0.0000 N   0  0  0  0  0  0  0  0  0  0  0  0
   -5.5426   -4.8000    0.0000 H   0  0  0  0  0  0  0  0  0  0  0  0
   -6.9282   -2.4000    0.0000 H   0  0  0  0  0  0  0  0  0  0  0  0
   -4.1568   -0.8000    0.0000 C   0  0  0  0  0  0  0  0  0  0  0  0
   -5.5426    0.0000    0.0000 H   0  0  0  0  0  0  0  0  0  0  0  0
   -2.7712    0.0000    0.0000 C   0  0  0  0  0  0  0  0  0  0  0  0
   -2.7712    1.6000    0.0000 H   0  0  0  0  0  0  0  0  0  0  0  0
    2.1229   -1.7813    0.0000 C   0  0  0  0  0  0  0  0  0  0  0  0
    1.0944   -3.0071    0.0000 H   0  0  0  0  0  0  0  0  0  0  0  0
  1  2  1  0  0  0  0
  2  3  1  0  0  0  0
  3  4  1  0  0  0  0
  4  5  1  0  0  0  0
  4  6  1  0  0  0  0
  3  7  2  0  0  0  0
  7  8  1  0  0  0  0
  7  9  1  0  0  0  0
  9 10  1  0  0  0  0
  9 11  2  0  0  0  0
 11 12  1  0  0  0  0
 12 13  1  0  0  0  0
 12 14  1  0  0  0  0
 12 15  1  0  0  0  0
 15 16  1  0  0  0  0
 16 17  1  0  0  0  0
 16 18  2  0  0  0  0
 18 19  1  0  0  0  0
 18 20  1  0  0  0  0
 20 21  1  0  0  0  0
 21 22  1  0  0  0  0
 21 23  1  0  0  0  0
 20 24  2  0  0  0  0
 24 25  1  0  0  0  0
 24 26  1  0  0  0  0
 26 15  2  0  0  0  0
 26 27  1  0  0  0  0
 11 28  1  0  0  0  0
 28  2  2  0  0  0  0
 28 29  1  0  0  0  0
M  END
> <ChemID>
100382

> <source_casrn>
101-14-4

> <CAS>
101-14-4

> <SMILES>
Nc(c(cc(c1)Cc(ccc(N)c2Cl)c2)Cl)c1

> <NAME>
Benzenamine, 4,4'-methylenebis 2-chloro-

> <preferred_name>
4,4'-Methylenebis(2-chloroaniline)

> <iupac>
4,4'-methanediylbis(2-chloroaniline)

> <MPID>
100391

> <dsstox_substance_id>
DTXSID5020865

> <Canonical_QSARr>
Nc1ccc(Cc2cc(Cl)c(N)cc2)cc1Cl

> <InChI_Code_QSARr>
InChI=1S/C13H12Cl2N2/c14-10-6-8(1-3-12(10)16)5-9-2-4-13(17)11(15)7-9/h1-4,6-7H,5,16-17H2

> <InChI Key_QSARr>
IBOFVQJTBBUKMU-UHFFFAOYSA-N

> <Salt_Solvent>
?

> <Ready_Biodeg>
0.0

$$$$
100383
  -INDIGO-08031722522D

 26 26  0  0  0  0  0  0  0  0999 V2000
    2.7713   -1.6000    0.0000 O   0  0  0  0  0  0  0  0  0  0  0  0
    2.7713   -0.0001    0.0000 C   0  0  0  0  0  0  0  0  0  0  0  0
    4.1569    0.8000    0.0000 N   0  0  0  0  0  0  0  0  0  0  0  0
    4.1569    2.4000    0.0000 H   0  0  0  0  0  0  0  0  0  0  0  0
    5.5426    0.0001    0.0000 C   0  0  0  0  0  0  0  0  0  0  0  0
    6.9283    0.8000    0.0000 C   0  0  0  0  0  0  0  0  0  0  0  0
    6.9283    2.4000    0.0000 H   0  0  0  0  0  0  0  0  0  0  0  0
    8.3138    0.0001    0.0000 C   0  0  0  0  0  0  0  0  0  0  0  0
    9.6995    0.8000    0.0000 H   0  0  0  0  0  0  0  0  0  0  0  0
    8.3138   -1.6000    0.0000 C   0  0  0  0  0  0  0  0  0  0  0  0
    9.6995   -2.4000    0.0000 H   0  0  0  0  0  0  0  0  0  0  0  0
    6.9283   -2.4000    0.0000 C   0  0  0  0  0  0  0  0  0  0  0  0
    6.9283   -4.0000    0.0000 Cl  0  0  0  0  0  0  0  0  0  0  0  0
    5.5426   -1.6000    0.0000 C   0  0  0  0  0  0  0  0  0  0  0  0
    4.1569   -2.4000    0.0000 H   0  0  0  0  0  0  0  0  0  0  0  0
    1.3856    0.8000    0.0000 O   0  0  0  0  0  0  0  0  0  0  0  0
   -0.0001   -0.0001    0.0000 C   0  0  0  0  0  0  0  0  0  0  0  0
    0.7999   -1.3856    0.0000 H   0  0  0  0  0  0  0  0  0  0  0  0
   -1.3856   -0.8000    0.0000 C   0  0  0  0  0  0  0  0  0  0  0  0
   -2.7713   -1.6000    0.0000 H   0  0  0  0  0  0  0  0  0  0  0  0
   -2.7713    0.0001    0.0000 H   0  0  0  0  0  0  0  0  0  0  0  0
   -1.3856   -2.4000    0.0000 H   0  0  0  0  0  0  0  0  0  0  0  0
   -0.8000    1.3856    0.0000 C   0  0  0  0  0  0  0  0  0  0  0  0
   -1.6000    2.7713    0.0000 H   0  0  0  0  0  0  0  0  0  0  0  0
   -0.0001    2.7713    0.0000 H   0  0  0  0  0  0  0  0  0  0  0  0
   -2.4000    1.3856    0.0000 H   0  0  0  0  0  0  0  0  0  0  0  0
  1  2  2  0  0  0  0
  2  3  1  0  0  0  0
  3  4  1  0  0  0  0
  3  5  1  0  0  0  0
  5  6  1  0  0  0  0
  6  7  1  0  0  0  0
  6  8  2  0  0  0  0
  8  9  1  0  0  0  0
  8 10  1  0  0  0  0
 10 11  1  0  0  0  0
 10 12  2  0  0  0  0
 12 13  1  0  0  0  0
 12 14  1  0  0  0  0
 14  5  2  0  0  0  0
 14 15  1  0  0  0  0
  2 16  1  0  0  0  0
 16 17  1  0  0  0  0
 17 18  1  0  0  0  0
 17 19  1  0  0  0  0
 19 20  1  0  0  0  0
 19 21  1  0  0  0  0
 19 22  1  0  0  0  0
 17 23  1  0  0  0  0
 23 24  1  0  0  0  0
 23 25  1  0  0  0  0
 23 26  1  0  0  0  0
M  END
> <ChemID>
100383

> <source_casrn>
101-21-3

> <CAS>
101-21-3

> <SMILES>
CC(C)OC(=O)Nc1cccc(Cl)c1

> <NAME>
Chlorpropham

> <preferred_name>
Chlorpropham

> <iupac>
propan-2-yl (3-chlorophenyl)carbamate

> <MPID>
100392

> <dsstox_substance_id>
DTXSID7020764

> <Canonical_QSARr>
CC(C)OC(=O)Nc1cccc(Cl)c1

> <InChI_Code_QSARr>
InChI=1S/C10H12ClNO2/c1-7(2)14-10(13)12-9-5-3-4-8(11)6-9/h3-7H,1-2H3,(H,12,13)

> <InChI Key_QSARr>
CWJSHJJYOPWUGX-UHFFFAOYSA-N

> <Salt_Solvent>
?

> <Ready_Biodeg>
1.0

$$$$
100384
  -INDIGO-08031722522D

 23 24  0  0  0  0  0  0  0  0999 V2000
   -5.5068   -0.0072    0.0000 O   0  0  0  0  0  0  0  0  0  0  0  0
   -4.1730    0.8764    0.0000 N   0  0  0  0  0  0  0  0  0  0  0  0
   -2.7408    0.1632    0.0000 N   0  0  0  0  0  0  0  0  0  0  0  0
   -1.3473    0.0326    0.0000 C   0  0  0  0  0  0  0  0  0  0  0  0
   -1.4115    0.4323    0.0000 H   0  0  0  0  0  0  0  0  0  0  0  0
   -1.9069    0.3324    0.0000 H   0  0  0  0  0  0  0  0  0  0  0  0
    0.2143    1.0736    0.0000 N   0  0  0  0  0  0  0  0  0  0  0  0
   -0.6898    2.6368    0.0000 C   0  0  0  0  0  0  0  0  0  0  0  0
    0.7354    3.3639    0.0000 H   0  0  0  0  0  0  0  0  0  0  0  0
   -1.3411    4.0982    0.0000 H   0  0  0  0  0  0  0  0  0  0  0  0
   -2.1791    2.0649    0.0000 N   0  0  0  0  0  0  0  0  0  0  0  0
   -0.9615    1.6231    0.0000 C   0  0  0  0  0  0  0  0  0  0  0  0
   -2.3880    0.8988    0.0000 H   0  0  0  0  0  0  0  0  0  0  0  0
   -1.3662    1.6325    0.0000 H   0  0  0  0  0  0  0  0  0  0  0  0
    0.0000   -0.0000    0.0000 N   0  0  0  0  0  0  0  0  0  0  0  0
    1.4964    0.5663    0.0000 C   0  0  0  0  0  0  0  0  0  0  0  0
    2.4509   -0.7178    0.0000 H   0  0  0  0  0  0  0  0  0  0  0  0
    2.4700    1.8360    0.0000 H   0  0  0  0  0  0  0  0  0  0  0  0
   -1.6332   -1.0496    0.0000 C   0  0  0  0  0  0  0  0  0  0  0  0
   -2.8737   -2.0603    0.0000 H   0  0  0  0  0  0  0  0  0  0  0  0
   -0.6939   -2.3448    0.0000 H   0  0  0  0  0  0  0  0  0  0  0  0
   -3.7791    2.0498    0.0000 N   0  0  0  0  0  0  0  0  0  0  0  0
   -4.5920    3.4280    0.0000 O   0  0  0  0  0  0  0  0  0  0  0  0
  1  2  2  0  0  0  0
  2  3  1  0  0  0  0
  3  4  1  0  0  0  0
  4  5  1  0  0  0  0
  4  6  1  0  0  0  0
  4  7  1  0  0  0  0
  7  8  1  0  0  0  0
  8  9  1  0  0  0  0
  8 10  1  0  0  0  0
  8 11  1  0  0  0  0
 11 12  1  0  0  0  0
 12 13  1  0  0  0  0
 12 14  1  0  0  0  0
 12 15  1  0  0  0  0
 15 16  1  0  0  0  0
 16  7  1  0  0  0  0
 16 17  1  0  0  0  0
 16 18  1  0  0  0  0
 15 19  1  0  0  0  0
 19  3  1  0  0  0  0
 19 20  1  0  0  0  0
 19 21  1  0  0  0  0
 11 22  1  0  0  0  0
 22 23  2  0  0  0  0
M  END
> <ChemID>
100384

> <source_casrn>
101-25-7

> <CAS>
101-25-7

> <SMILES>
O=NN(CN(CN1CN2N=O)C2)C1

> <NAME>
1,3,5,7-Tetraazabicyclo 3.3.1 nonane, 3,7-dinitroso-

> <preferred_name>
N,N-Dinitrosopentamethylenetetramine

> <iupac>
3,7-dinitroso-1,3,5,7-tetraazabicyclo[3.3.1]nonane

> <MPID>
100393

> <dsstox_substance_id>
DTXSID5020526

> <Canonical_QSARr>
O=NN1CN2CN(CN(C2)N=O)C1

> <InChI_Code_QSARr>
InChI=1S/C5H10N6O2/c12-6-10-2-8-1-9(4-10)5-11(3-8)7-13/h1-5H2

> <InChI Key_QSARr>
MWRWFPQBGSZWNV-UHFFFAOYSA-N

> <Salt_Solvent>
?

> <Ready_Biodeg>
1.0

$$$$
100386
  -INDIGO-08031722522D

 24 24  0  0  0  0  0  0  0  0999 V2000
   -1.5999    0.0000    0.0000 C   0  0  0  0  0  0  0  0  0  0  0  0
   -2.3999    1.3856    0.0000 N   0  0  0  0  0  0  0  0  0  0  0  0
   -1.5999    2.7713    0.0000 H   0  0  0  0  0  0  0  0  0  0  0  0
   -4.0001    1.3856    0.0000 C   0  0  0  0  0  0  0  0  0  0  0  0
   -4.8001    2.7713    0.0000 C   0  0  0  0  0  0  0  0  0  0  0  0
   -4.0001    4.1569    0.0000 H   0  0  0  0  0  0  0  0  0  0  0  0
   -6.4000    2.7713    0.0000 C   0  0  0  0  0  0  0  0  0  0  0  0
   -7.2000    4.1569    0.0000 H   0  0  0  0  0  0  0  0  0  0  0  0
   -7.2000    1.3856    0.0000 C   0  0  0  0  0  0  0  0  0  0  0  0
   -8.8000    1.3856    0.0000 H   0  0  0  0  0  0  0  0  0  0  0  0
   -6.4000    0.0000    0.0000 C   0  0  0  0  0  0  0  0  0  0  0  0
   -7.2000   -1.3856    0.0000 H   0  0  0  0  0  0  0  0  0  0  0  0
   -4.8001    0.0000    0.0000 C   0  0  0  0  0  0  0  0  0  0  0  0
   -4.0001   -1.3856    0.0000 H   0  0  0  0  0  0  0  0  0  0  0  0
    0.0000    0.0000    0.0000 N   0  0  0  0  0  0  0  0  0  0  0  0
    0.8000   -1.3856    0.0000 C   0  0  0  0  0  0  0  0  0  0  0  0
    1.6000   -2.7713    0.0000 H   0  0  0  0  0  0  0  0  0  0  0  0
    2.4000   -1.3856    0.0000 H   0  0  0  0  0  0  0  0  0  0  0  0
    0.0000   -2.7713    0.0000 H   0  0  0  0  0  0  0  0  0  0  0  0
    0.8000    1.3856    0.0000 C   0  0  0  0  0  0  0  0  0  0  0  0
    1.6000    2.7713    0.0000 H   0  0  0  0  0  0  0  0  0  0  0  0
    2.4000    1.3856    0.0000 H   0  0  0  0  0  0  0  0  0  0  0  0
    0.0000    2.7713    0.0000 H   0  0  0  0  0  0  0  0  0  0  0  0
   -2.3999   -1.3856    0.0000 O   0  0  0  0  0  0  0  0  0  0  0  0
  1  2  1  0  0  0  0
  2  3  1  0  0  0  0
  2  4  1  0  0  0  0
  4  5  1  0  0  0  0
  5  6  1  0  0  0  0
  5  7  2  0  0  0  0
  7  8  1  0  0  0  0
  7  9  1  0  0  0  0
  9 10  1  0  0  0  0
  9 11  2  0  0  0  0
 11 12  1  0  0  0  0
 11 13  1  0  0  0  0
 13  4  2  0  0  0  0
 13 14  1  0  0  0  0
  1 15  1  0  0  0  0
 15 16  1  0  0  0  0
 16 17  1  0  0  0  0
 16 18  1  0  0  0  0
 16 19  1  0  0  0  0
 15 20  1  0  0  0  0
 20 21  1  0  0  0  0
 20 22  1  0  0  0  0
 20 23  1  0  0  0  0
  1 24  2  0  0  0  0
M  END
> <ChemID>
100386

> <source_casrn>
101-42-8

> <CAS>
101-42-8

> <SMILES>
CN(C)C(=O)Nc1ccccc1

> <NAME>
Fenuron

> <preferred_name>
Fenuron

> <iupac>
1,1-dimethyl-3-phenylurea

> <MPID>
100395

> <dsstox_substance_id>
DTXSID7037551

> <Canonical_QSARr>
CN(C)C(=O)Nc1ccccc1

> <InChI_Code_QSARr>
InChI=1S/C9H12N2O/c1-11(2)9(12)10-8-6-4-3-5-7-8/h3-7H,1-2H3,(H,10,12)

> <InChI Key_QSARr>
XXOYNJXVWVNOOJ-UHFFFAOYSA-N

> <Salt_Solvent>
?

> <Ready_Biodeg>
1.0

$$$$
100387
  -INDIGO-08031722522D

 26 27  0  0  0  0  0  0  0  0999 V2000
    4.1568    2.4000    0.0000 C   0  0  0  0  0  0  0  0  0  0  0  0
    5.5426    3.2000    0.0000 O   0  0  0  0  0  0  0  0  0  0  0  0
    6.9282    2.4000    0.0000 H   0  0  0  0  0  0  0  0  0  0  0  0
    2.7713    3.2000    0.0000 C   0  0  0  0  0  0  0  0  0  0  0  0
    2.7713    4.8000    0.0000 H   0  0  0  0  0  0  0  0  0  0  0  0
    1.3857    2.4000    0.0000 C   0  0  0  0  0  0  0  0  0  0  0  0
    0.0001    3.2000    0.0000 H   0  0  0  0  0  0  0  0  0  0  0  0
    1.3857    0.8000    0.0000 C   0  0  0  0  0  0  0  0  0  0  0  0
    0.0001   -0.0000    0.0000 C   0  0  0  0  0  0  0  0  0  0  0  0
    0.8597   -1.3494    0.0000 H   0  0  0  0  0  0  0  0  0  0  0  0
   -0.3464   -1.5621    0.0000 H   0  0  0  0  0  0  0  0  0  0  0  0
   -1.5757    0.2778    0.0000 C   0  0  0  0  0  0  0  0  0  0  0  0
   -2.1230    1.7813    0.0000 C   0  0  0  0  0  0  0  0  0  0  0  0
   -1.0944    3.0071    0.0000 H   0  0  0  0  0  0  0  0  0  0  0  0
   -3.6986    2.0591    0.0000 C   0  0  0  0  0  0  0  0  0  0  0  0
   -4.2459    3.5627    0.0000 H   0  0  0  0  0  0  0  0  0  0  0  0
   -4.7270    0.8335    0.0000 C   0  0  0  0  0  0  0  0  0  0  0  0
   -6.3028    1.1113    0.0000 H   0  0  0  0  0  0  0  0  0  0  0  0
   -4.1799   -0.6700    0.0000 C   0  0  0  0  0  0  0  0  0  0  0  0
   -5.2083   -1.8957    0.0000 H   0  0  0  0  0  0  0  0  0  0  0  0
   -2.6041   -0.9479    0.0000 C   0  0  0  0  0  0  0  0  0  0  0  0
   -2.0570   -2.4513    0.0000 H   0  0  0  0  0  0  0  0  0  0  0  0
    2.7713   -0.0000    0.0000 C   0  0  0  0  0  0  0  0  0  0  0  0
    2.7713   -1.6000    0.0000 H   0  0  0  0  0  0  0  0  0  0  0  0
    4.1568    0.8000    0.0000 C   0  0  0  0  0  0  0  0  0  0  0  0
    5.5426   -0.0000    0.0000 H   0  0  0  0  0  0  0  0  0  0  0  0
  1  2  1  0  0  0  0
  2  3  1  0  0  0  0
  1  4  1  0  0  0  0
  4  5  1  0  0  0  0
  4  6  2  0  0  0  0
  6  7  1  0  0  0  0
  6  8  1  0  0  0  0
  8  9  1  0  0  0  0
  9 10  1  0  0  0  0
  9 11  1  0  0  0  0
  9 12  1  0  0  0  0
 12 13  1  0  0  0  0
 13 14  1  0  0  0  0
 13 15  2  0  0  0  0
 15 16  1  0  0  0  0
 15 17  1  0  0  0  0
 17 18  1  0  0  0  0
 17 19  2  0  0  0  0
 19 20  1  0  0  0  0
 19 21  1  0  0  0  0
 21 12  2  0  0  0  0
 21 22  1  0  0  0  0
  8 23  2  0  0  0  0
 23 24  1  0  0  0  0
 23 25  1  0  0  0  0
 25  1  2  0  0  0  0
 25 26  1  0  0  0  0
M  END
> <ChemID>
100387

> <source_casrn>
101-53-1

> <CAS>
101-53-1

> <SMILES>
Oc1ccc(Cc2ccccc2)cc1

> <NAME>
Phenol, 4-(phenylmethyl)-

> <preferred_name>
4-Benzylphenol

> <iupac>
4-benzylphenol

> <MPID>
100396

> <dsstox_substance_id>
DTXSID9047962

> <Canonical_QSARr>
Oc1ccc(Cc2ccccc2)cc1

> <InChI_Code_QSARr>
InChI=1S/C13H12O/c14-13-8-6-12(7-9-13)10-11-4-2-1-3-5-11/h1-9,14H,10H2

> <InChI Key_QSARr>
HJSPWKGEPDZNLK-UHFFFAOYSA-N

> <Salt_Solvent>
?

> <Ready_Biodeg>
0.0

$$$$
100388
  -INDIGO-08031722522D

 32 33  0  0  0  0  0  0  0  0999 V2000
   -4.7272   -0.8335    0.0000 O   0  0  0  0  0  0  0  0  0  0  0  0
   -3.1513   -0.5556    0.0000 C   0  0  0  0  0  0  0  0  0  0  0  0
   -2.6042    0.9479    0.0000 C   0  0  0  0  0  0  0  0  0  0  0  0
   -3.6327    2.1735    0.0000 H   0  0  0  0  0  0  0  0  0  0  0  0
   -1.0284    1.2257    0.0000 C   0  0  0  0  0  0  0  0  0  0  0  0
   -0.4813    2.7292    0.0000 H   0  0  0  0  0  0  0  0  0  0  0  0
    0.0001    0.0000    0.0000 C   0  0  0  0  0  0  0  0  0  0  0  0
    1.5757    0.2779    0.0000 N   0  0  0  0  0  0  0  0  0  0  0  0
    1.8534    1.8535    0.0000 H   0  0  0  0  0  0  0  0  0  0  0  0
    2.9613   -0.5221    0.0000 C   0  0  0  0  0  0  0  0  0  0  0  0
    4.3469    0.2779    0.0000 C   0  0  0  0  0  0  0  0  0  0  0  0
    4.3469    1.8779    0.0000 H   0  0  0  0  0  0  0  0  0  0  0  0
    5.7327   -0.5221    0.0000 C   0  0  0  0  0  0  0  0  0  0  0  0
    7.1183    0.2779    0.0000 H   0  0  0  0  0  0  0  0  0  0  0  0
    5.7327   -2.1222    0.0000 C   0  0  0  0  0  0  0  0  0  0  0  0
    7.1183   -2.9222    0.0000 O   0  0  0  0  0  0  0  0  0  0  0  0
    8.5039   -2.1222    0.0000 C   0  0  0  0  0  0  0  0  0  0  0  0
    9.8895   -2.9222    0.0000 H   0  0  0  0  0  0  0  0  0  0  0  0
    9.8895   -1.3222    0.0000 H   0  0  0  0  0  0  0  0  0  0  0  0
    8.5039   -3.7222    0.0000 H   0  0  0  0  0  0  0  0  0  0  0  0
    4.3469   -2.9222    0.0000 C   0  0  0  0  0  0  0  0  0  0  0  0
    4.3469   -4.5222    0.0000 H   0  0  0  0  0  0  0  0  0  0  0  0
    2.9613   -2.1222    0.0000 C   0  0  0  0  0  0  0  0  0  0  0  0
    1.5757   -2.9222    0.0000 H   0  0  0  0  0  0  0  0  0  0  0  0
   -0.5472   -1.5035    0.0000 C   0  0  0  0  0  0  0  0  0  0  0  0
    0.4812   -2.7292    0.0000 H   0  0  0  0  0  0  0  0  0  0  0  0
   -2.1228   -1.7813    0.0000 C   0  0  0  0  0  0  0  0  0  0  0  0
   -2.6702   -3.2849    0.0000 H   0  0  0  0  0  0  0  0  0  0  0  0
   -5.7556    0.3922    0.0000 C   0  0  0  0  0  0  0  0  0  0  0  0
   -7.3312    0.1143    0.0000 H   0  0  0  0  0  0  0  0  0  0  0  0
   -6.7839    1.6178    0.0000 H   0  0  0  0  0  0  0  0  0  0  0  0
   -6.3027   -1.1113    0.0000 H   0  0  0  0  0  0  0  0  0  0  0  0
  1  2  1  0  0  0  0
  2  3  1  0  0  0  0
  3  4  1  0  0  0  0
  3  5  2  0  0  0  0
  5  6  1  0  0  0  0
  5  7  1  0  0  0  0
  7  8  1  0  0  0  0
  8  9  1  0  0  0  0
  8 10  1  0  0  0  0
 10 11  1  0  0  0  0
 11 12  1  0  0  0  0
 11 13  2  0  0  0  0
 13 14  1  0  0  0  0
 13 15  1  0  0  0  0
 15 16  1  0  0  0  0
 16 17  1  0  0  0  0
 17 18  1  0  0  0  0
 17 19  1  0  0  0  0
 17 20  1  0  0  0  0
 15 21  2  0  0  0  0
 21 22  1  0  0  0  0
 21 23  1  0  0  0  0
 23 10  2  0  0  0  0
 23 24  1  0  0  0  0
  7 25  2  0  0  0  0
 25 26  1  0  0  0  0
 25 27  1  0  0  0  0
 27  2  2  0  0  0  0
 27 28  1  0  0  0  0
  1 29  1  0  0  0  0
 29 30  1  0  0  0  0
 29 31  1  0  0  0  0
 29 32  1  0  0  0  0
M  END
> <ChemID>
100388

> <source_casrn>
101-70-2

> <CAS>
101-70-2

> <SMILES>
COc1ccc(cc1)Nc1ccc(cc1)OC

> <NAME>
Benzenamine, 4-methoxy-N-(4-methoxyphenyl)-

> <preferred_name>
4,4'-Dimethoxydiphenylamine

> <iupac>
4-methoxy-N-(4-methoxyphenyl)aniline

> <MPID>
100397

> <dsstox_substance_id>
DTXSID3025093

> <Canonical_QSARr>
COc1ccc(cc1)Nc1ccc(cc1)OC

> <InChI_Code_QSARr>
InChI=1S/C14H15NO2/c1-16-13-7-3-11(4-8-13)15-12-5-9-14(17-2)10-6-12/h3-10,15H,1-2H3

> <InChI Key_QSARr>
VCOONNWIINSFBA-UHFFFAOYSA-N

> <Salt_Solvent>
?

> <Ready_Biodeg>
0.0

$$$$
100390
  -INDIGO-08031722522D

 29 30  0  0  0  0  0  0  0  0999 V2000
    4.7272   -0.8335    0.0000 C   0  0  0  0  0  0  0  0  0  0  0  0
    6.3027   -1.1113    0.0000 N   0  0  0  0  0  0  0  0  0  0  0  0
    7.3312    0.1143    0.0000 H   0  0  0  0  0  0  0  0  0  0  0  0
    6.8499   -2.6148    0.0000 H   0  0  0  0  0  0  0  0  0  0  0  0
    4.1799    0.6700    0.0000 C   0  0  0  0  0  0  0  0  0  0  0  0
    5.2083    1.8957    0.0000 H   0  0  0  0  0  0  0  0  0  0  0  0
    2.6042    0.9479    0.0000 C   0  0  0  0  0  0  0  0  0  0  0  0
    2.0570    2.4513    0.0000 H   0  0  0  0  0  0  0  0  0  0  0  0
    1.5757   -0.2778    0.0000 C   0  0  0  0  0  0  0  0  0  0  0  0
   -0.0001    0.0000    0.0000 C   0  0  0  0  0  0  0  0  0  0  0  0
   -0.8598    1.3494    0.0000 H   0  0  0  0  0  0  0  0  0  0  0  0
    0.3463    1.5621    0.0000 H   0  0  0  0  0  0  0  0  0  0  0  0
   -1.3857   -0.8000    0.0000 C   0  0  0  0  0  0  0  0  0  0  0  0
   -1.3857   -2.4000    0.0000 C   0  0  0  0  0  0  0  0  0  0  0  0
   -0.0001   -3.2000    0.0000 H   0  0  0  0  0  0  0  0  0  0  0  0
   -2.7712   -3.2000    0.0000 C   0  0  0  0  0  0  0  0  0  0  0  0
   -2.7712   -4.8000    0.0000 H   0  0  0  0  0  0  0  0  0  0  0  0
   -4.1568   -2.4000    0.0000 C   0  0  0  0  0  0  0  0  0  0  0  0
   -5.5426   -3.2000    0.0000 N   0  0  0  0  0  0  0  0  0  0  0  0
   -5.5426   -4.8000    0.0000 H   0  0  0  0  0  0  0  0  0  0  0  0
   -6.9282   -2.4000    0.0000 H   0  0  0  0  0  0  0  0  0  0  0  0
   -4.1568   -0.8000    0.0000 C   0  0  0  0  0  0  0  0  0  0  0  0
   -5.5426    0.0000    0.0000 H   0  0  0  0  0  0  0  0  0  0  0  0
   -2.7712    0.0000    0.0000 C   0  0  0  0  0  0  0  0  0  0  0  0
   -2.7712    1.6000    0.0000 H   0  0  0  0  0  0  0  0  0  0  0  0
    2.1229   -1.7813    0.0000 C   0  0  0  0  0  0  0  0  0  0  0  0
    1.0944   -3.0071    0.0000 H   0  0  0  0  0  0  0  0  0  0  0  0
    3.6986   -2.0591    0.0000 C   0  0  0  0  0  0  0  0  0  0  0  0
    4.2459   -3.5627    0.0000 H   0  0  0  0  0  0  0  0  0  0  0  0
  1  2  1  0  0  0  0
  2  3  1  0  0  0  0
  2  4  1  0  0  0  0
  1  5  1  0  0  0  0
  5  6  1  0  0  0  0
  5  7  2  0  0  0  0
  7  8  1  0  0  0  0
  7  9  1  0  0  0  0
  9 10  1  0  0  0  0
 10 11  1  0  0  0  0
 10 12  1  0  0  0  0
 10 13  1  0  0  0  0
 13 14  1  0  0  0  0
 14 15  1  0  0  0  0
 14 16  2  0  0  0  0
 16 17  1  0  0  0  0
 16 18  1  0  0  0  0
 18 19  1  0  0  0  0
 19 20  1  0  0  0  0
 19 21  1  0  0  0  0
 18 22  2  0  0  0  0
 22 23  1  0  0  0  0
 22 24  1  0  0  0  0
 24 13  2  0  0  0  0
 24 25  1  0  0  0  0
  9 26  2  0  0  0  0
 26 27  1  0  0  0  0
 26 28  1  0  0  0  0
 28  1  2  0  0  0  0
 28 29  1  0  0  0  0
M  END
> <ChemID>
100390

> <source_casrn>
101-77-9

> <CAS>
101-77-9

> <SMILES>
Nc1ccc(Cc2ccc(N)cc2)cc1

> <NAME>
Benzenamine, 4,4'-methylenebis-

> <preferred_name>
4,4'-Methylenedianiline

> <iupac>
C13H14N2

> <MPID>
100399

> <dsstox_substance_id>
DTXSID6022422

> <Canonical_QSARr>
Nc1ccc(Cc2ccc(N)cc2)cc1

> <InChI_Code_QSARr>
InChI=1S/C13H14N2/c14-12-5-1-10(2-6-12)9-11-3-7-13(15)8-4-11/h1-8H,9,14-15H2

> <InChI Key_QSARr>
YBRVSVVVWCFQMG-UHFFFAOYSA-N

> <Salt_Solvent>
?

> <Ready_Biodeg>
0.0

$$$$
100391
  -INDIGO-08031722522D

 27 28  0  0  0  0  0  0  0  0999 V2000
    4.7270   -0.8335    0.0000 N   0  0  0  0  0  0  0  0  0  0  0  0
    5.2742   -2.3370    0.0000 H   0  0  0  0  0  0  0  0  0  0  0  0
    5.7555    0.3922    0.0000 H   0  0  0  0  0  0  0  0  0  0  0  0
    3.1515   -0.5556    0.0000 C   0  0  0  0  0  0  0  0  0  0  0  0
    2.6043    0.9479    0.0000 C   0  0  0  0  0  0  0  0  0  0  0  0
    3.6326    2.1735    0.0000 H   0  0  0  0  0  0  0  0  0  0  0  0
    1.0285    1.2257    0.0000 C   0  0  0  0  0  0  0  0  0  0  0  0
    0.4813    2.7292    0.0000 H   0  0  0  0  0  0  0  0  0  0  0  0
   -0.0000    0.0000    0.0000 C   0  0  0  0  0  0  0  0  0  0  0  0
   -1.5758    0.2779    0.0000 O   0  0  0  0  0  0  0  0  0  0  0  0
   -2.9614   -0.5221    0.0000 C   0  0  0  0  0  0  0  0  0  0  0  0
   -2.9614   -2.1222    0.0000 C   0  0  0  0  0  0  0  0  0  0  0  0
   -1.5758   -2.9222    0.0000 H   0  0  0  0  0  0  0  0  0  0  0  0
   -4.3469   -2.9222    0.0000 C   0  0  0  0  0  0  0  0  0  0  0  0
   -4.3469   -4.5222    0.0000 H   0  0  0  0  0  0  0  0  0  0  0  0
   -5.7325   -2.1222    0.0000 C   0  0  0  0  0  0  0  0  0  0  0  0
   -7.1183   -2.9222    0.0000 N   0  0  0  0  0  0  0  0  0  0  0  0
   -8.5039   -2.1222    0.0000 H   0  0  0  0  0  0  0  0  0  0  0  0
   -7.1183   -4.5222    0.0000 H   0  0  0  0  0  0  0  0  0  0  0  0
   -5.7325   -0.5221    0.0000 C   0  0  0  0  0  0  0  0  0  0  0  0
   -7.1183    0.2779    0.0000 H   0  0  0  0  0  0  0  0  0  0  0  0
   -4.3469    0.2779    0.0000 C   0  0  0  0  0  0  0  0  0  0  0  0
   -4.3469    1.8779    0.0000 H   0  0  0  0  0  0  0  0  0  0  0  0
    0.5472   -1.5035    0.0000 C   0  0  0  0  0  0  0  0  0  0  0  0
   -0.4813   -2.7292    0.0000 H   0  0  0  0  0  0  0  0  0  0  0  0
    2.1230   -1.7813    0.0000 C   0  0  0  0  0  0  0  0  0  0  0  0
    2.6702   -3.2849    0.0000 H   0  0  0  0  0  0  0  0  0  0  0  0
  1  2  1  0  0  0  0
  1  3  1  0  0  0  0
  1  4  1  0  0  0  0
  4  5  1  0  0  0  0
  5  6  1  0  0  0  0
  5  7  2  0  0  0  0
  7  8  1  0  0  0  0
  7  9  1  0  0  0  0
  9 10  1  0  0  0  0
 10 11  1  0  0  0  0
 11 12  1  0  0  0  0
 12 13  1  0  0  0  0
 12 14  2  0  0  0  0
 14 15  1  0  0  0  0
 14 16  1  0  0  0  0
 16 17  1  0  0  0  0
 17 18  1  0  0  0  0
 17 19  1  0  0  0  0
 16 20  2  0  0  0  0
 20 21  1  0  0  0  0
 20 22  1  0  0  0  0
 22 11  2  0  0  0  0
 22 23  1  0  0  0  0
  9 24  2  0  0  0  0
 24 25  1  0  0  0  0
 24 26  1  0  0  0  0
 26  4  2  0  0  0  0
 26 27  1  0  0  0  0
M  END
> <ChemID>
100391

> <source_casrn>
101-80-4

> <CAS>
101-80-4

> <SMILES>
Nc1ccc(cc1)Oc1ccc(N)cc1

> <NAME>
4,4'-Oxybisbenzeneamine

> <preferred_name>
4,4'-Oxydianiline

> <iupac>
4,4'-oxydianiline

> <MPID>
100400

> <dsstox_substance_id>
DTXSID0021094

> <Canonical_QSARr>
Nc1ccc(cc1)Oc1ccc(N)cc1

> <InChI_Code_QSARr>
InChI=1S/C12H12N2O/c13-9-1-5-11(6-2-9)15-12-7-3-10(14)4-8-12/h1-8H,13-14H2

> <InChI Key_QSARr>
HLBLWEWZXPIGSM-UHFFFAOYSA-N

> <Salt_Solvent>
?

> <Ready_Biodeg>
0.0

$$$$
100392
  -INDIGO-08031722522D

 25 26  0  0  0  0  0  0  0  0999 V2000
   -0.0001    0.0000    0.0000 C   0  0  0  0  0  0  0  0  0  0  0  0
    0.8597    1.3494    0.0000 H   0  0  0  0  0  0  0  0  0  0  0  0
   -0.3462    1.5621    0.0000 H   0  0  0  0  0  0  0  0  0  0  0  0
   -1.5757   -0.2778    0.0000 C   0  0  0  0  0  0  0  0  0  0  0  0
   -2.1230   -1.7813    0.0000 C   0  0  0  0  0  0  0  0  0  0  0  0
   -1.0945   -3.0071    0.0000 H   0  0  0  0  0  0  0  0  0  0  0  0
   -3.6986   -2.0591    0.0000 C   0  0  0  0  0  0  0  0  0  0  0  0
   -4.2459   -3.5627    0.0000 H   0  0  0  0  0  0  0  0  0  0  0  0
   -4.7270   -0.8335    0.0000 C   0  0  0  0  0  0  0  0  0  0  0  0
   -6.3028   -1.1113    0.0000 H   0  0  0  0  0  0  0  0  0  0  0  0
   -4.1799    0.6700    0.0000 C   0  0  0  0  0  0  0  0  0  0  0  0
   -5.2083    1.8957    0.0000 H   0  0  0  0  0  0  0  0  0  0  0  0
   -2.6041    0.9479    0.0000 C   0  0  0  0  0  0  0  0  0  0  0  0
   -2.0570    2.4513    0.0000 H   0  0  0  0  0  0  0  0  0  0  0  0
    1.3857   -0.8000    0.0000 C   0  0  0  0  0  0  0  0  0  0  0  0
    1.3857   -2.4000    0.0000 C   0  0  0  0  0  0  0  0  0  0  0  0
   -0.0001   -3.2000    0.0000 H   0  0  0  0  0  0  0  0  0  0  0  0
    2.7713   -3.2000    0.0000 C   0  0  0  0  0  0  0  0  0  0  0  0
    2.7713   -4.8000    0.0000 H   0  0  0  0  0  0  0  0  0  0  0  0
    4.1569   -2.4000    0.0000 C   0  0  0  0  0  0  0  0  0  0  0  0
    5.5426   -3.2000    0.0000 H   0  0  0  0  0  0  0  0  0  0  0  0
    4.1569   -0.8000    0.0000 C   0  0  0  0  0  0  0  0  0  0  0  0
    5.5426    0.0000    0.0000 H   0  0  0  0  0  0  0  0  0  0  0  0
    2.7713    0.0000    0.0000 C   0  0  0  0  0  0  0  0  0  0  0  0
    2.7713    1.6000    0.0000 H   0  0  0  0  0  0  0  0  0  0  0  0
  1  2  1  0  0  0  0
  1  3  1  0  0  0  0
  1  4  1  0  0  0  0
  4  5  1  0  0  0  0
  5  6  1  0  0  0  0
  5  7  2  0  0  0  0
  7  8  1  0  0  0  0
  7  9  1  0  0  0  0
  9 10  1  0  0  0  0
  9 11  2  0  0  0  0
 11 12  1  0  0  0  0
 11 13  1  0  0  0  0
 13  4  2  0  0  0  0
 13 14  1  0  0  0  0
  1 15  1  0  0  0  0
 15 16  1  0  0  0  0
 16 17  1  0  0  0  0
 16 18  2  0  0  0  0
 18 19  1  0  0  0  0
 18 20  1  0  0  0  0
 20 21  1  0  0  0  0
 20 22  2  0  0  0  0
 22 23  1  0  0  0  0
 22 24  1  0  0  0  0
 24 15  2  0  0  0  0
 24 25  1  0  0  0  0
M  END
> <ChemID>
100392

> <source_casrn>
101-81-5

> <CAS>
101-81-5

> <SMILES>
C(c1ccccc1)c1ccccc1

> <NAME>
Benzene, 1,1'-methylenebis-

> <preferred_name>
Diphenylmethane

> <iupac>
1,1'-methanediyldibenzene

> <MPID>
100401

> <dsstox_substance_id>
DTXSID1041891

> <Canonical_QSARr>
C(c1ccccc1)c1ccccc1

> <InChI_Code_QSARr>
InChI=1S/C13H12/c1-3-7-12(8-4-1)11-13-9-5-2-6-10-13/h1-10H,11H2

> <InChI Key_QSARr>
CZZYITDELCSZES-UHFFFAOYSA-N

> <Salt_Solvent>
?

> <Ready_Biodeg>
0.0

$$$$
100394
  -INDIGO-08031722522D

 23 24  0  0  0  0  0  0  0  0999 V2000
   -0.5473   -1.5035    0.0000 C   0  0  0  0  0  0  0  0  0  0  0  0
    0.4812   -2.7292    0.0000 H   0  0  0  0  0  0  0  0  0  0  0  0
   -2.1229   -1.7813    0.0000 C   0  0  0  0  0  0  0  0  0  0  0  0
   -2.6702   -3.2849    0.0000 H   0  0  0  0  0  0  0  0  0  0  0  0
   -3.1513   -0.5556    0.0000 C   0  0  0  0  0  0  0  0  0  0  0  0
   -4.7271   -0.8335    0.0000 H   0  0  0  0  0  0  0  0  0  0  0  0
   -2.6042    0.9479    0.0000 C   0  0  0  0  0  0  0  0  0  0  0  0
   -3.6326    2.1735    0.0000 H   0  0  0  0  0  0  0  0  0  0  0  0
   -1.0284    1.2257    0.0000 C   0  0  0  0  0  0  0  0  0  0  0  0
   -0.4813    2.7292    0.0000 H   0  0  0  0  0  0  0  0  0  0  0  0
    0.0000    0.0000    0.0000 C   0  0  0  0  0  0  0  0  0  0  0  0
    1.5756    0.2779    0.0000 O   0  0  0  0  0  0  0  0  0  0  0  0
    2.9614   -0.5221    0.0000 C   0  0  0  0  0  0  0  0  0  0  0  0
    2.9614   -2.1222    0.0000 C   0  0  0  0  0  0  0  0  0  0  0  0
    1.5756   -2.9222    0.0000 H   0  0  0  0  0  0  0  0  0  0  0  0
    4.3470   -2.9222    0.0000 C   0  0  0  0  0  0  0  0  0  0  0  0
    4.3470   -4.5222    0.0000 H   0  0  0  0  0  0  0  0  0  0  0  0
    5.7326   -2.1222    0.0000 C   0  0  0  0  0  0  0  0  0  0  0  0
    7.1183   -2.9222    0.0000 H   0  0  0  0  0  0  0  0  0  0  0  0
    5.7326   -0.5221    0.0000 C   0  0  0  0  0  0  0  0  0  0  0  0
    7.1183    0.2779    0.0000 H   0  0  0  0  0  0  0  0  0  0  0  0
    4.3470    0.2779    0.0000 C   0  0  0  0  0  0  0  0  0  0  0  0
    4.3470    1.8779    0.0000 H   0  0  0  0  0  0  0  0  0  0  0  0
  1  2  1  0  0  0  0
  1  3  1  0  0  0  0
  3  4  1  0  0  0  0
  3  5  2  0  0  0  0
  5  6  1  0  0  0  0
  5  7  1  0  0  0  0
  7  8  1  0  0  0  0
  7  9  2  0  0  0  0
  9 10  1  0  0  0  0
  9 11  1  0  0  0  0
 11  1  2  0  0  0  0
 11 12  1  0  0  0  0
 12 13  1  0  0  0  0
 13 14  1  0  0  0  0
 14 15  1  0  0  0  0
 14 16  2  0  0  0  0
 16 17  1  0  0  0  0
 16 18  1  0  0  0  0
 18 19  1  0  0  0  0
 18 20  2  0  0  0  0
 20 21  1  0  0  0  0
 20 22  1  0  0  0  0
 22 13  2  0  0  0  0
 22 23  1  0  0  0  0
M  END
> <ChemID>
100394

> <source_casrn>
101-84-8

> <CAS>
101-84-8

> <SMILES>
c1ccccc1Oc1ccccc1

> <NAME>
Benzene, 1,1'-oxybis-

> <preferred_name>
Diphenyl oxide

> <iupac>
diphenyl ether

> <MPID>
100403

> <dsstox_substance_id>
DTXSID9021847

> <Canonical_QSARr>
c1ccccc1Oc1ccccc1

> <InChI_Code_QSARr>
InChI=1S/C12H10O/c1-3-7-11(8-4-1)13-12-9-5-2-6-10-12/h1-10H

> <InChI Key_QSARr>
USIUVYZYUHIAEV-UHFFFAOYSA-N

> <Salt_Solvent>
?

> <Ready_Biodeg>
1.0

$$$$
100395
  -INDIGO-08031722522D

 29 30  0  0  0  0  0  0  0  0999 V2000
    2.7712   -1.6000    0.0000 N   0  0  0  0  0  0  0  0  0  0  0  0
    4.1569   -2.4000    0.0000 H   0  0  0  0  0  0  0  0  0  0  0  0
    2.7712    0.0000    0.0000 C   0  0  0  0  0  0  0  0  0  0  0  0
    4.1569    0.8000    0.0000 N   0  0  0  0  0  0  0  0  0  0  0  0
    3.8790    2.3757    0.0000 H   0  0  0  0  0  0  0  0  0  0  0  0
    5.7327    0.5222    0.0000 C   0  0  0  0  0  0  0  0  0  0  0  0
    6.2798   -0.9813    0.0000 C   0  0  0  0  0  0  0  0  0  0  0  0
    5.2514   -2.2071    0.0000 H   0  0  0  0  0  0  0  0  0  0  0  0
    7.8555   -1.2591    0.0000 C   0  0  0  0  0  0  0  0  0  0  0  0
    8.4029   -2.7627    0.0000 H   0  0  0  0  0  0  0  0  0  0  0  0
    8.8839   -0.0335    0.0000 C   0  0  0  0  0  0  0  0  0  0  0  0
   10.4597   -0.3113    0.0000 H   0  0  0  0  0  0  0  0  0  0  0  0
    8.3368    1.4700    0.0000 C   0  0  0  0  0  0  0  0  0  0  0  0
    9.3653    2.6957    0.0000 H   0  0  0  0  0  0  0  0  0  0  0  0
    6.7611    1.7479    0.0000 C   0  0  0  0  0  0  0  0  0  0  0  0
    6.2138    3.2513    0.0000 H   0  0  0  0  0  0  0  0  0  0  0  0
    1.3857    0.8000    0.0000 N   0  0  0  0  0  0  0  0  0  0  0  0
    1.3857    2.4000    0.0000 H   0  0  0  0  0  0  0  0  0  0  0  0
    0.0000    0.0000    0.0000 C   0  0  0  0  0  0  0  0  0  0  0  0
   -1.3857    0.8000    0.0000 C   0  0  0  0  0  0  0  0  0  0  0  0
   -1.3857    2.4000    0.0000 H   0  0  0  0  0  0  0  0  0  0  0  0
   -2.7712    0.0000    0.0000 C   0  0  0  0  0  0  0  0  0  0  0  0
   -4.1569    0.8000    0.0000 H   0  0  0  0  0  0  0  0  0  0  0  0
   -2.7712   -1.6000    0.0000 C   0  0  0  0  0  0  0  0  0  0  0  0
   -4.1569   -2.4000    0.0000 H   0  0  0  0  0  0  0  0  0  0  0  0
   -1.3857   -2.4000    0.0000 C   0  0  0  0  0  0  0  0  0  0  0  0
   -1.3857   -4.0000    0.0000 H   0  0  0  0  0  0  0  0  0  0  0  0
    0.0000   -1.6000    0.0000 C   0  0  0  0  0  0  0  0  0  0  0  0
    1.3857   -2.4000    0.0000 H   0  0  0  0  0  0  0  0  0  0  0  0
  1  2  1  0  0  0  0
  1  3  2  0  0  0  0
  3  4  1  0  0  0  0
  4  5  1  0  0  0  0
  4  6  1  0  0  0  0
  6  7  1  0  0  0  0
  7  8  1  0  0  0  0
  7  9  2  0  0  0  0
  9 10  1  0  0  0  0
  9 11  1  0  0  0  0
 11 12  1  0  0  0  0
 11 13  2  0  0  0  0
 13 14  1  0  0  0  0
 13 15  1  0  0  0  0
 15  6  2  0  0  0  0
 15 16  1  0  0  0  0
  3 17  1  0  0  0  0
 17 18  1  0  0  0  0
 17 19  1  0  0  0  0
 19 20  1  0  0  0  0
 20 21  1  0  0  0  0
 20 22  2  0  0  0  0
 22 23  1  0  0  0  0
 22 24  1  0  0  0  0
 24 25  1  0  0  0  0
 24 26  2  0  0  0  0
 26 27  1  0  0  0  0
 26 28  1  0  0  0  0
 28 19  2  0  0  0  0
 28 29  1  0  0  0  0
M  END
> <ChemID>
100395

> <source_casrn>
102-06-7

> <CAS>
102-06-7

> <SMILES>
N=C(Nc1ccccc1)Nc1ccccc1

> <NAME>
Guanidine, N,N'-diphenyl-

> <preferred_name>
1,3-Diphenylguanidine

> <iupac>
1,3-diphenylguanidine

> <MPID>
100404

> <dsstox_substance_id>
DTXSID3025178

> <Canonical_QSARr>
N=C(Nc1ccccc1)Nc1ccccc1

> <InChI_Code_QSARr>
InChI=1S/C13H13N3/c14-13(15-11-7-3-1-4-8-11)16-12-9-5-2-6-10-12/h1-10H,(H3,14,15,16)

> <InChI Key_QSARr>
OWRCNXZUPFZXOS-UHFFFAOYSA-N

> <Salt_Solvent>
?

> <Ready_Biodeg>
0.0

$$$$
100396
  -INDIGO-08031722522D

 15 15  0  0  0  0  0  0  0  0999 V2000
    0.0000   -0.0000    0.0000 C   0  0  0  0  0  0  0  0  0  0  0  0
   -0.8001    1.3856    0.0000 C   0  0  0  0  0  0  0  0  0  0  0  0
    0.0000    2.7713    0.0000 H   0  0  0  0  0  0  0  0  0  0  0  0
   -2.4001    1.3856    0.0000 C   0  0  0  0  0  0  0  0  0  0  0  0
   -3.2000    2.7713    0.0000 Cl  0  0  0  0  0  0  0  0  0  0  0  0
   -3.2000   -0.0000    0.0000 C   0  0  0  0  0  0  0  0  0  0  0  0
   -4.8000   -0.0000    0.0000 Cl  0  0  0  0  0  0  0  0  0  0  0  0
   -2.4001   -1.3856    0.0000 C   0  0  0  0  0  0  0  0  0  0  0  0
   -3.2000   -2.7713    0.0000 H   0  0  0  0  0  0  0  0  0  0  0  0
   -0.8001   -1.3856    0.0000 C   0  0  0  0  0  0  0  0  0  0  0  0
    0.0000   -2.7713    0.0000 H   0  0  0  0  0  0  0  0  0  0  0  0
    1.6000   -0.0000    0.0000 C   0  0  0  0  0  0  0  0  0  0  0  0
    3.2000   -0.0000    0.0000 H   0  0  0  0  0  0  0  0  0  0  0  0
    2.4001   -1.3856    0.0000 H   0  0  0  0  0  0  0  0  0  0  0  0
    2.4001    1.3856    0.0000 Cl  0  0  0  0  0  0  0  0  0  0  0  0
  1  2  1  0  0  0  0
  2  3  1  0  0  0  0
  2  4  2  0  0  0  0
  4  5  1  0  0  0  0
  4  6  1  0  0  0  0
  6  7  1  0  0  0  0
  6  8  2  0  0  0  0
  8  9  1  0  0  0  0
  8 10  1  0  0  0  0
 10  1  2  0  0  0  0
 10 11  1  0  0  0  0
  1 12  1  0  0  0  0
 12 13  1  0  0  0  0
 12 14  1  0  0  0  0
 12 15  1  0  0  0  0
M  END
> <ChemID>
100396

> <source_casrn>
102-47-6

> <CAS>
102-47-6

> <SMILES>
ClCc1cc(Cl)c(Cl)cc1

> <NAME>
Benzene, 1,2-dichloro-4-(chloromethyl)-

> <preferred_name>
Benzene, 1,2-dichloro-4-(chloromethyl)-

> <iupac>
1,2-DICHLORO-4-(CHLOROMETHYL)BENZENE

> <MPID>
100406

> <dsstox_substance_id>
DTXSID9059252

> <Canonical_QSARr>
ClCc1cc(Cl)c(Cl)cc1

> <InChI_Code_QSARr>
InChI=1S/C7H5Cl3/c8-4-5-1-2-6(9)7(10)3-5/h1-3H,4H2

> <InChI Key_QSARr>
YZIFVWOCPGPNHB-UHFFFAOYSA-N

> <Salt_Solvent>
?

> <Ready_Biodeg>
0.0

$$$$
100398
  -INDIGO-08031722522D

 25 24  0  0  0  0  0  0  0  0999 V2000
    1.6000    2.7713    0.0000 O   0  0  0  0  0  0  0  0  0  0  0  0
    2.4000    4.1569    0.0000 H   0  0  0  0  0  0  0  0  0  0  0  0
    2.4000    1.3857    0.0000 C   0  0  0  0  0  0  0  0  0  0  0  0
    3.8782    0.7733    0.0000 H   0  0  0  0  0  0  0  0  0  0  0  0
    3.8782    1.9980    0.0000 H   0  0  0  0  0  0  0  0  0  0  0  0
    1.6000    0.0000    0.0000 C   0  0  0  0  0  0  0  0  0  0  0  0
    2.8694   -0.9740    0.0000 H   0  0  0  0  0  0  0  0  0  0  0  0
    1.8089   -1.5863    0.0000 H   0  0  0  0  0  0  0  0  0  0  0  0
    0.0000    0.0000    0.0000 N   0  0  0  0  0  0  0  0  0  0  0  0
   -0.8000    1.3857    0.0000 C   0  0  0  0  0  0  0  0  0  0  0  0
   -0.5911    2.9719    0.0000 H   0  0  0  0  0  0  0  0  0  0  0  0
    0.4694    2.3597    0.0000 H   0  0  0  0  0  0  0  0  0  0  0  0
   -2.4000    1.3857    0.0000 C   0  0  0  0  0  0  0  0  0  0  0  0
   -2.6088    2.9719    0.0000 H   0  0  0  0  0  0  0  0  0  0  0  0
   -3.6694    2.3597    0.0000 H   0  0  0  0  0  0  0  0  0  0  0  0
   -3.2000    0.0000    0.0000 O   0  0  0  0  0  0  0  0  0  0  0  0
   -4.8000    0.0000    0.0000 H   0  0  0  0  0  0  0  0  0  0  0  0
   -0.8000   -1.3856    0.0000 C   0  0  0  0  0  0  0  0  0  0  0  0
   -2.2782   -1.9979    0.0000 H   0  0  0  0  0  0  0  0  0  0  0  0
   -2.2782   -0.7734    0.0000 H   0  0  0  0  0  0  0  0  0  0  0  0
    0.0000   -2.7712    0.0000 C   0  0  0  0  0  0  0  0  0  0  0  0
   -1.2694   -3.7453    0.0000 H   0  0  0  0  0  0  0  0  0  0  0  0
   -0.2088   -4.3576    0.0000 H   0  0  0  0  0  0  0  0  0  0  0  0
    1.6000   -2.7712    0.0000 O   0  0  0  0  0  0  0  0  0  0  0  0
    2.4000   -4.1569    0.0000 H   0  0  0  0  0  0  0  0  0  0  0  0
  1  2  1  0  0  0  0
  1  3  1  0  0  0  0
  3  4  1  0  0  0  0
  3  5  1  0  0  0  0
  3  6  1  0  0  0  0
  6  7  1  0  0  0  0
  6  8  1  0  0  0  0
  6  9  1  0  0  0  0
  9 10  1  0  0  0  0
 10 11  1  0  0  0  0
 10 12  1  0  0  0  0
 10 13  1  0  0  0  0
 13 14  1  0  0  0  0
 13 15  1  0  0  0  0
 13 16  1  0  0  0  0
 16 17  1  0  0  0  0
  9 18  1  0  0  0  0
 18 19  1  0  0  0  0
 18 20  1  0  0  0  0
 18 21  1  0  0  0  0
 21 22  1  0  0  0  0
 21 23  1  0  0  0  0
 21 24  1  0  0  0  0
 24 25  1  0  0  0  0
M  END
> <ChemID>
100398

> <source_casrn>
102-71-6

> <CAS>
102-71-6

> <SMILES>
OCCN(CCO)CCO

> <NAME>
Ethanol, 2,2',2''-nitrilotris-

> <preferred_name>
Triethanolamine

> <iupac>
2,2',2''-nitrilotriethanol

> <MPID>
100408

> <dsstox_substance_id>
DTXSID9021392

> <Canonical_QSARr>
OCCN(CCO)CCO

> <InChI_Code_QSARr>
InChI=1S/C6H15NO3/c8-4-1-7(2-5-9)3-6-10/h8-10H,1-6H2

> <InChI Key_QSARr>
GSEJCLTVZPLZKY-UHFFFAOYSA-N

> <Salt_Solvent>
?

> <Ready_Biodeg>
0.0

$$$$
100399
  -INDIGO-08031722522D

 29 28  0  0  0  0  0  0  0  0999 V2000
    1.5999    0.0000    0.0000 C   0  0  0  0  0  0  0  0  0  0  0  0
    1.8089    1.5863    0.0000 H   0  0  0  0  0  0  0  0  0  0  0  0
    2.8693    0.9741    0.0000 H   0  0  0  0  0  0  0  0  0  0  0  0
    0.0001    0.0000    0.0000 C   0  0  0  0  0  0  0  0  0  0  0  0
    0.0001   -1.6001    0.0000 H   0  0  0  0  0  0  0  0  0  0  0  0
   -1.5999    0.0000    0.0000 C   0  0  0  0  0  0  0  0  0  0  0  0
   -2.8693    0.9741    0.0000 H   0  0  0  0  0  0  0  0  0  0  0  0
   -1.8089    1.5863    0.0000 H   0  0  0  0  0  0  0  0  0  0  0  0
   -2.3999   -1.3857    0.0000 O   0  0  0  0  0  0  0  0  0  0  0  0
   -4.0000   -1.3857    0.0000 C   0  0  0  0  0  0  0  0  0  0  0  0
   -4.8000    0.0000    0.0000 O   0  0  0  0  0  0  0  0  0  0  0  0
   -4.8000   -2.7712    0.0000 C   0  0  0  0  0  0  0  0  0  0  0  0
   -5.6000   -4.1569    0.0000 H   0  0  0  0  0  0  0  0  0  0  0  0
   -6.4000   -2.7712    0.0000 H   0  0  0  0  0  0  0  0  0  0  0  0
   -4.0000   -4.1569    0.0000 H   0  0  0  0  0  0  0  0  0  0  0  0
    0.0001    1.6000    0.0000 O   0  0  0  0  0  0  0  0  0  0  0  0
    1.2257    2.6285    0.0000 C   0  0  0  0  0  0  0  0  0  0  0  0
    2.7292    2.0812    0.0000 O   0  0  0  0  0  0  0  0  0  0  0  0
    0.9478    4.2042    0.0000 C   0  0  0  0  0  0  0  0  0  0  0  0
    0.6700    5.7798    0.0000 H   0  0  0  0  0  0  0  0  0  0  0  0
    2.1736    5.2326    0.0000 H   0  0  0  0  0  0  0  0  0  0  0  0
   -0.5558    4.7514    0.0000 H   0  0  0  0  0  0  0  0  0  0  0  0
    2.3999   -1.3857    0.0000 O   0  0  0  0  0  0  0  0  0  0  0  0
    4.0000   -1.3857    0.0000 C   0  0  0  0  0  0  0  0  0  0  0  0
    4.8000    0.0000    0.0000 O   0  0  0  0  0  0  0  0  0  0  0  0
    4.8000   -2.7712    0.0000 C   0  0  0  0  0  0  0  0  0  0  0  0
    5.6000   -4.1569    0.0000 H   0  0  0  0  0  0  0  0  0  0  0  0
    6.4000   -2.7712    0.0000 H   0  0  0  0  0  0  0  0  0  0  0  0
    4.0000   -4.1569    0.0000 H   0  0  0  0  0  0  0  0  0  0  0  0
  1  2  1  0  0  0  0
  1  3  1  0  0  0  0
  1  4  1  0  0  0  0
  4  5  1  0  0  0  0
  4  6  1  0  0  0  0
  6  7  1  0  0  0  0
  6  8  1  0  0  0  0
  6  9  1  0  0  0  0
  9 10  1  0  0  0  0
 10 11  2  0  0  0  0
 10 12  1  0  0  0  0
 12 13  1  0  0  0  0
 12 14  1  0  0  0  0
 12 15  1  0  0  0  0
  4 16  1  0  0  0  0
 16 17  1  0  0  0  0
 17 18  2  0  0  0  0
 17 19  1  0  0  0  0
 19 20  1  0  0  0  0
 19 21  1  0  0  0  0
 19 22  1  0  0  0  0
  1 23  1  0  0  0  0
 23 24  1  0  0  0  0
 24 25  2  0  0  0  0
 24 26  1  0  0  0  0
 26 27  1  0  0  0  0
 26 28  1  0  0  0  0
 26 29  1  0  0  0  0
M  END
> <ChemID>
100399

> <source_casrn>
102-76-1

> <CAS>
102-76-1

> <SMILES>
CC(=O)OC(COC(C)=O)COC(C)=O

> <NAME>
1,2,3-Propanetriol, triacetate

> <preferred_name>
Triacetin

> <iupac>
propane-1,2,3-triyl triacetate

> <MPID>
100409

> <dsstox_substance_id>
DTXSID3026691

> <Canonical_QSARr>
CC(=O)OC(COC(C)=O)COC(C)=O

> <InChI_Code_QSARr>
InChI=1S/C9H14O6/c1-6(10)13-4-9(15-8(3)12)5-14-7(2)11/h9H,4-5H2,1-3H3

> <InChI Key_QSARr>
URAYPUMNDPQOKB-UHFFFAOYSA-N

> <Salt_Solvent>
?

> <Ready_Biodeg>
1.0

$$$$
100400
  -INDIGO-08031722522D

 28 30  0  0  0  0  0  0  0  0999 V2000
    4.3242   -2.3912    0.0000 N   0  0  0  0  0  0  0  0  0  0  0  0
    4.1569   -0.8000    0.0000 C   0  0  0  0  0  0  0  0  0  0  0  0
    2.7713   -0.0000    0.0000 S   0  0  0  0  0  0  0  0  0  0  0  0
    1.3856   -0.8000    0.0000 N   0  0  0  0  0  0  0  0  0  0  0  0
    1.3856   -2.4000    0.0000 C   0  0  0  0  0  0  0  0  0  0  0  0
    2.9613   -2.1222    0.0000 H   0  0  0  0  0  0  0  0  0  0  0  0
    1.9329   -3.9035    0.0000 H   0  0  0  0  0  0  0  0  0  0  0  0
   -0.0000   -3.2000    0.0000 C   0  0  0  0  0  0  0  0  0  0  0  0
    1.0285   -4.4256    0.0000 H   0  0  0  0  0  0  0  0  0  0  0  0
   -1.0284   -4.4256    0.0000 H   0  0  0  0  0  0  0  0  0  0  0  0
   -1.3856   -2.4000    0.0000 O   0  0  0  0  0  0  0  0  0  0  0  0
   -1.3856   -0.8000    0.0000 C   0  0  0  0  0  0  0  0  0  0  0  0
   -2.9613   -1.0779    0.0000 H   0  0  0  0  0  0  0  0  0  0  0  0
   -1.9328    0.7035    0.0000 H   0  0  0  0  0  0  0  0  0  0  0  0
   -0.0000   -0.0000    0.0000 C   0  0  0  0  0  0  0  0  0  0  0  0
   -1.0284    1.2257    0.0000 H   0  0  0  0  0  0  0  0  0  0  0  0
    1.0285    1.2257    0.0000 H   0  0  0  0  0  0  0  0  0  0  0  0
    5.6185   -0.1493    0.0000 S   0  0  0  0  0  0  0  0  0  0  0  0
    6.6891   -1.3383    0.0000 C   0  0  0  0  0  0  0  0  0  0  0  0
    5.8893   -2.7239    0.0000 C   0  0  0  0  0  0  0  0  0  0  0  0
    6.6891   -4.1096    0.0000 C   0  0  0  0  0  0  0  0  0  0  0  0
    5.8893   -5.4952    0.0000 H   0  0  0  0  0  0  0  0  0  0  0  0
    8.2892   -4.1096    0.0000 C   0  0  0  0  0  0  0  0  0  0  0  0
    9.0893   -5.4952    0.0000 H   0  0  0  0  0  0  0  0  0  0  0  0
    9.0893   -2.7239    0.0000 C   0  0  0  0  0  0  0  0  0  0  0  0
   10.6892   -2.7239    0.0000 H   0  0  0  0  0  0  0  0  0  0  0  0
    8.2892   -1.3383    0.0000 C   0  0  0  0  0  0  0  0  0  0  0  0
    9.0893    0.0474    0.0000 H   0  0  0  0  0  0  0  0  0  0  0  0
  1  2  2  0  0  0  0
  2  3  1  0  0  0  0
  3  4  1  0  0  0  0
  4  5  1  0  0  0  0
  5  6  1  0  0  0  0
  5  7  1  0  0  0  0
  5  8  1  0  0  0  0
  8  9  1  0  0  0  0
  8 10  1  0  0  0  0
  8 11  1  0  0  0  0
 11 12  1  0  0  0  0
 12 13  1  0  0  0  0
 12 14  1  0  0  0  0
 12 15  1  0  0  0  0
 15  4  1  0  0  0  0
 15 16  1  0  0  0  0
 15 17  1  0  0  0  0
  2 18  1  0  0  0  0
 18 19  1  0  0  0  0
 19 20  1  0  0  0  0
 20  1  1  0  0  0  0
 20 21  2  0  0  0  0
 21 22  1  0  0  0  0
 21 23  1  0  0  0  0
 23 24  1  0  0  0  0
 23 25  2  0  0  0  0
 25 26  1  0  0  0  0
 25 27  1  0  0  0  0
 27 19  2  0  0  0  0
 27 28  1  0  0  0  0
M  END
> <ChemID>
100400

> <source_casrn>
102-77-2

> <CAS>
102-77-2

> <SMILES>
C1COCCN1Sc1[n]c2ccccc2[s]1

> <NAME>
Morpholine, 4-(2-benzothiazolylthio)-

> <preferred_name>
N-Oxydiethylenebenzothiazole-2-sulfenamide

> <iupac>
2-(morpholin-4-ylsulfanyl)-1,3-benzothiazole

> <MPID>
100410

> <dsstox_substance_id>
DTXSID0021096

> <Canonical_QSARr>
C1COCCN1Sc1[n]c2ccccc2[s]1

> <InChI_Code_QSARr>
InChI=1S/C11H12N2OS2/c1-2-4-10-9(3-1)12-11(15-10)16-13-5-7-14-8-6-13/h1-4H,5-8H2

> <InChI Key_QSARr>
MHKLKWCYGIBEQF-UHFFFAOYSA-N

> <Salt_Solvent>
?

> <Ready_Biodeg>
0.0

$$$$
100402
  -INDIGO-08031722522D

 68 67  0  0  0  0  0  0  0  0999 V2000
    0.4811    2.7291    0.0000 C   0  0  0  0  0  0  0  0  0  0  0  0
    1.5097    3.9548    0.0000 H   0  0  0  0  0  0  0  0  0  0  0  0
   -0.0660    4.2327    0.0000 H   0  0  0  0  0  0  0  0  0  0  0  0
    2.0569    2.4514    0.0000 H   0  0  0  0  0  0  0  0  0  0  0  0
   -0.5471    1.5035    0.0000 C   0  0  0  0  0  0  0  0  0  0  0  0
   -1.8966    2.3633    0.0000 H   0  0  0  0  0  0  0  0  0  0  0  0
   -2.1091    1.1573    0.0000 H   0  0  0  0  0  0  0  0  0  0  0  0
    0.0001    0.0001    0.0000 C   0  0  0  0  0  0  0  0  0  0  0  0
    1.3856    0.8001    0.0000 H   0  0  0  0  0  0  0  0  0  0  0  0
   -1.3858   -0.8000    0.0000 C   0  0  0  0  0  0  0  0  0  0  0  0
   -1.9980   -2.2782    0.0000 H   0  0  0  0  0  0  0  0  0  0  0  0
   -0.7733   -2.2782    0.0000 H   0  0  0  0  0  0  0  0  0  0  0  0
   -2.7714    0.0001    0.0000 O   0  0  0  0  0  0  0  0  0  0  0  0
   -4.1569   -0.8000    0.0000 C   0  0  0  0  0  0  0  0  0  0  0  0
   -4.1569   -2.4000    0.0000 O   0  0  0  0  0  0  0  0  0  0  0  0
   -5.5424    0.0001    0.0000 C   0  0  0  0  0  0  0  0  0  0  0  0
   -4.9303    1.4782    0.0000 H   0  0  0  0  0  0  0  0  0  0  0  0
   -6.1550    1.4782    0.0000 H   0  0  0  0  0  0  0  0  0  0  0  0
   -6.9284   -0.8000    0.0000 C   0  0  0  0  0  0  0  0  0  0  0  0
   -7.5405   -2.2782    0.0000 H   0  0  0  0  0  0  0  0  0  0  0  0
   -6.3158   -2.2782    0.0000 H   0  0  0  0  0  0  0  0  0  0  0  0
   -8.3139    0.0001    0.0000 C   0  0  0  0  0  0  0  0  0  0  0  0
   -7.7014    1.4782    0.0000 H   0  0  0  0  0  0  0  0  0  0  0  0
   -8.9260    1.4782    0.0000 H   0  0  0  0  0  0  0  0  0  0  0  0
   -9.6994   -0.8000    0.0000 C   0  0  0  0  0  0  0  0  0  0  0  0
  -10.3120   -2.2782    0.0000 H   0  0  0  0  0  0  0  0  0  0  0  0
   -9.0873   -2.2782    0.0000 H   0  0  0  0  0  0  0  0  0  0  0  0
  -11.0850    0.0001    0.0000 C   0  0  0  0  0  0  0  0  0  0  0  0
  -11.0850    1.6001    0.0000 O   0  0  0  0  0  0  0  0  0  0  0  0
  -12.4709   -0.8000    0.0000 O   0  0  0  0  0  0  0  0  0  0  0  0
  -13.8564    0.0001    0.0000 C   0  0  0  0  0  0  0  0  0  0  0  0
  -13.2443    1.4782    0.0000 H   0  0  0  0  0  0  0  0  0  0  0  0
  -14.4686    1.4782    0.0000 H   0  0  0  0  0  0  0  0  0  0  0  0
  -15.2420   -0.8000    0.0000 C   0  0  0  0  0  0  0  0  0  0  0  0
  -14.2138   -2.0256    0.0000 H   0  0  0  0  0  0  0  0  0  0  0  0
  -16.2706   -2.0256    0.0000 C   0  0  0  0  0  0  0  0  0  0  0  0
  -15.7895   -3.5516    0.0000 H   0  0  0  0  0  0  0  0  0  0  0  0
  -14.8514   -2.7644    0.0000 H   0  0  0  0  0  0  0  0  0  0  0  0
  -17.7739   -2.5729    0.0000 C   0  0  0  0  0  0  0  0  0  0  0  0
  -18.5128   -1.1537    0.0000 H   0  0  0  0  0  0  0  0  0  0  0  0
  -19.2999   -2.0918    0.0000 H   0  0  0  0  0  0  0  0  0  0  0  0
  -18.0518   -4.1486    0.0000 C   0  0  0  0  0  0  0  0  0  0  0  0
  -17.3132   -5.5678    0.0000 H   0  0  0  0  0  0  0  0  0  0  0  0
  -16.5257   -4.6297    0.0000 H   0  0  0  0  0  0  0  0  0  0  0  0
  -19.5555   -4.6959    0.0000 C   0  0  0  0  0  0  0  0  0  0  0  0
  -21.0589   -5.2430    0.0000 H   0  0  0  0  0  0  0  0  0  0  0  0
  -19.8330   -6.2715    0.0000 H   0  0  0  0  0  0  0  0  0  0  0  0
  -20.7810   -3.6674    0.0000 H   0  0  0  0  0  0  0  0  0  0  0  0
  -16.2706    0.4257    0.0000 C   0  0  0  0  0  0  0  0  0  0  0  0
  -17.8326    0.7721    0.0000 H   0  0  0  0  0  0  0  0  0  0  0  0
  -17.6201   -0.4339    0.0000 H   0  0  0  0  0  0  0  0  0  0  0  0
  -15.7234    1.9293    0.0000 C   0  0  0  0  0  0  0  0  0  0  0  0
  -16.7516    3.1549    0.0000 H   0  0  0  0  0  0  0  0  0  0  0  0
  -15.1762    3.4327    0.0000 H   0  0  0  0  0  0  0  0  0  0  0  0
  -17.2991    1.6513    0.0000 H   0  0  0  0  0  0  0  0  0  0  0  0
    1.0283   -1.2256    0.0000 C   0  0  0  0  0  0  0  0  0  0  0  0
    2.0025    0.0436    0.0000 H   0  0  0  0  0  0  0  0  0  0  0  0
    2.6146   -1.0168    0.0000 H   0  0  0  0  0  0  0  0  0  0  0  0
    1.3062   -2.8014    0.0000 C   0  0  0  0  0  0  0  0  0  0  0  0
    0.5676   -4.2206    0.0000 H   0  0  0  0  0  0  0  0  0  0  0  0
   -0.2195   -3.2826    0.0000 H   0  0  0  0  0  0  0  0  0  0  0  0
    2.8099   -3.3486    0.0000 C   0  0  0  0  0  0  0  0  0  0  0  0
    3.5485   -1.9293    0.0000 H   0  0  0  0  0  0  0  0  0  0  0  0
    4.3356   -2.8674    0.0000 H   0  0  0  0  0  0  0  0  0  0  0  0
    3.0878   -4.9243    0.0000 C   0  0  0  0  0  0  0  0  0  0  0  0
    3.3653   -6.5000    0.0000 H   0  0  0  0  0  0  0  0  0  0  0  0
    4.5912   -5.4715    0.0000 H   0  0  0  0  0  0  0  0  0  0  0  0
    1.8620   -5.9528    0.0000 H   0  0  0  0  0  0  0  0  0  0  0  0
  1  2  1  0  0  0  0
  1  3  1  0  0  0  0
  1  4  1  0  0  0  0
  1  5  1  0  0  0  0
  5  6  1  0  0  0  0
  5  7  1  0  0  0  0
  5  8  1  0  0  0  0
  8  9  1  0  0  0  0
  8 10  1  0  0  0  0
 10 11  1  0  0  0  0
 10 12  1  0  0  0  0
 10 13  1  0  0  0  0
 13 14  1  0  0  0  0
 14 15  2  0  0  0  0
 14 16  1  0  0  0  0
 16 17  1  0  0  0  0
 16 18  1  0  0  0  0
 16 19  1  0  0  0  0
 19 20  1  0  0  0  0
 19 21  1  0  0  0  0
 19 22  1  0  0  0  0
 22 23  1  0  0  0  0
 22 24  1  0  0  0  0
 22 25  1  0  0  0  0
 25 26  1  0  0  0  0
 25 27  1  0  0  0  0
 25 28  1  0  0  0  0
 28 29  2  0  0  0  0
 28 30  1  0  0  0  0
 30 31  1  0  0  0  0
 31 32  1  0  0  0  0
 31 33  1  0  0  0  0
 31 34  1  0  0  0  0
 34 35  1  0  0  0  0
 34 36  1  0  0  0  0
 36 37  1  0  0  0  0
 36 38  1  0  0  0  0
 36 39  1  0  0  0  0
 39 40  1  0  0  0  0
 39 41  1  0  0  0  0
 39 42  1  0  0  0  0
 42 43  1  0  0  0  0
 42 44  1  0  0  0  0
 42 45  1  0  0  0  0
 45 46  1  0  0  0  0
 45 47  1  0  0  0  0
 45 48  1  0  0  0  0
 34 49  1  0  0  0  0
 49 50  1  0  0  0  0
 49 51  1  0  0  0  0
 49 52  1  0  0  0  0
 52 53  1  0  0  0  0
 52 54  1  0  0  0  0
 52 55  1  0  0  0  0
  8 56  1  0  0  0  0
 56 57  1  0  0  0  0
 56 58  1  0  0  0  0
 56 59  1  0  0  0  0
 59 60  1  0  0  0  0
 59 61  1  0  0  0  0
 59 62  1  0  0  0  0
 62 63  1  0  0  0  0
 62 64  1  0  0  0  0
 62 65  1  0  0  0  0
 65 66  1  0  0  0  0
 65 67  1  0  0  0  0
 65 68  1  0  0  0  0
M  END
> <ChemID>
100402

> <source_casrn>
103-23-1

> <CAS>
103-23-1

> <SMILES>
CCCCC(COC(=O)CCCCC(=O)OCC(CCCC)CC)CC

> <NAME>
Hexanedioic acid, bis(2-ethylhexyl) ester

> <preferred_name>
Di(2-ethylhexyl) adipate

> <iupac>
bis(2-ethylhexyl) hexanedioate

> <MPID>
100412

> <dsstox_substance_id>
DTXSID0020606

> <Canonical_QSARr>
CCCCC(COC(=O)CCCCC(=O)OCC(CCCC)CC)CC

> <InChI_Code_QSARr>
InChI=1S/C22H42O4/c1-5-9-13-19(7-3)17-25-21(23)15-11-12-16-22(24)26-18-20(8-4)14-10-6-2/h19-20H,5-18H2,1-4H3

> <InChI Key_QSARr>
SAOKZLXYCUGLFA-UHFFFAOYSA-N

> <Salt_Solvent>
?

> <Ready_Biodeg>
1.0

$$$$
100403
  -INDIGO-08031722522D

 28 29  0  0  0  0  0  0  0  0999 V2000
    0.0000    0.0000    0.0000 C   0  0  0  0  0  0  0  0  0  0  0  0
    0.2088    1.5863    0.0000 H   0  0  0  0  0  0  0  0  0  0  0  0
    1.2694    0.9740    0.0000 H   0  0  0  0  0  0  0  0  0  0  0  0
    0.8000   -1.3856    0.0000 C   0  0  0  0  0  0  0  0  0  0  0  0
    0.5912   -2.9719    0.0000 H   0  0  0  0  0  0  0  0  0  0  0  0
   -0.4694   -2.3596    0.0000 H   0  0  0  0  0  0  0  0  0  0  0  0
    2.4000   -1.3856    0.0000 C   0  0  0  0  0  0  0  0  0  0  0  0
    3.2000   -2.7713    0.0000 C   0  0  0  0  0  0  0  0  0  0  0  0
    2.4000   -4.1569    0.0000 H   0  0  0  0  0  0  0  0  0  0  0  0
    4.8000   -2.7713    0.0000 C   0  0  0  0  0  0  0  0  0  0  0  0
    5.6000   -4.1569    0.0000 H   0  0  0  0  0  0  0  0  0  0  0  0
    5.6000   -1.3856    0.0000 C   0  0  0  0  0  0  0  0  0  0  0  0
    7.2000   -1.3856    0.0000 H   0  0  0  0  0  0  0  0  0  0  0  0
    4.8000    0.0000    0.0000 C   0  0  0  0  0  0  0  0  0  0  0  0
    5.6000    1.3856    0.0000 H   0  0  0  0  0  0  0  0  0  0  0  0
    3.2000    0.0000    0.0000 C   0  0  0  0  0  0  0  0  0  0  0  0
    2.4000    1.3856    0.0000 H   0  0  0  0  0  0  0  0  0  0  0  0
   -1.6000    0.0000    0.0000 C   0  0  0  0  0  0  0  0  0  0  0  0
   -2.4000    1.3856    0.0000 C   0  0  0  0  0  0  0  0  0  0  0  0
   -1.6000    2.7713    0.0000 H   0  0  0  0  0  0  0  0  0  0  0  0
   -4.0000    1.3856    0.0000 C   0  0  0  0  0  0  0  0  0  0  0  0
   -4.8000    2.7713    0.0000 H   0  0  0  0  0  0  0  0  0  0  0  0
   -4.8000    0.0000    0.0000 C   0  0  0  0  0  0  0  0  0  0  0  0
   -6.4000    0.0000    0.0000 H   0  0  0  0  0  0  0  0  0  0  0  0
   -4.0000   -1.3856    0.0000 C   0  0  0  0  0  0  0  0  0  0  0  0
   -4.8000   -2.7713    0.0000 H   0  0  0  0  0  0  0  0  0  0  0  0
   -2.4000   -1.3856    0.0000 C   0  0  0  0  0  0  0  0  0  0  0  0
   -1.6000   -2.7713    0.0000 H   0  0  0  0  0  0  0  0  0  0  0  0
  1  2  1  0  0  0  0
  1  3  1  0  0  0  0
  1  4  1  0  0  0  0
  4  5  1  0  0  0  0
  4  6  1  0  0  0  0
  4  7  1  0  0  0  0
  7  8  1  0  0  0  0
  8  9  1  0  0  0  0
  8 10  2  0  0  0  0
 10 11  1  0  0  0  0
 10 12  1  0  0  0  0
 12 13  1  0  0  0  0
 12 14  2  0  0  0  0
 14 15  1  0  0  0  0
 14 16  1  0  0  0  0
 16  7  2  0  0  0  0
 16 17  1  0  0  0  0
  1 18  1  0  0  0  0
 18 19  1  0  0  0  0
 19 20  1  0  0  0  0
 19 21  2  0  0  0  0
 21 22  1  0  0  0  0
 21 23  1  0  0  0  0
 23 24  1  0  0  0  0
 23 25  2  0  0  0  0
 25 26  1  0  0  0  0
 25 27  1  0  0  0  0
 27 18  2  0  0  0  0
 27 28  1  0  0  0  0
M  END
> <ChemID>
100403

> <source_casrn>
103-29-7

> <CAS>
103-29-7

> <SMILES>
C(Cc1ccccc1)c1ccccc1

> <NAME>
Bibenzyl

> <preferred_name>
Bibenzyl

> <iupac>
1,1'-ethane-1,2-diyldibenzene

> <MPID>
100413

> <dsstox_substance_id>
DTXSID8041668

> <Canonical_QSARr>
C(Cc1ccccc1)c1ccccc1

> <InChI_Code_QSARr>
InChI=1S/C14H14/c1-3-7-13(8-4-1)11-12-14-9-5-2-6-10-14/h1-10H,11-12H2

> <InChI Key_QSARr>
QWUWMCYKGHVNAV-UHFFFAOYSA-N

> <Salt_Solvent>
?

> <Ready_Biodeg>
1.0

$$$$
100404
  -INDIGO-08031722522D

 25 26  0  0  0  0  0  0  0  0999 V2000
   -4.8000   -2.7713    0.0000 C   0  0  0  0  0  0  0  0  0  0  0  0
   -4.0000   -4.1569    0.0000 H   0  0  0  0  0  0  0  0  0  0  0  0
   -6.4000   -2.7713    0.0000 C   0  0  0  0  0  0  0  0  0  0  0  0
   -7.2000   -4.1569    0.0000 H   0  0  0  0  0  0  0  0  0  0  0  0
   -7.2000   -1.3856    0.0000 N   0  0  0  0  0  0  0  0  0  0  0  0
   -6.4000    0.0000    0.0000 C   0  0  0  0  0  0  0  0  0  0  0  0
   -7.2000    1.3856    0.0000 H   0  0  0  0  0  0  0  0  0  0  0  0
   -4.8000    0.0000    0.0000 C   0  0  0  0  0  0  0  0  0  0  0  0
   -4.0000    1.3856    0.0000 H   0  0  0  0  0  0  0  0  0  0  0  0
   -4.0000   -1.3856    0.0000 C   0  0  0  0  0  0  0  0  0  0  0  0
   -2.4000   -1.3856    0.0000 C   0  0  0  0  0  0  0  0  0  0  0  0
   -1.6000   -2.7713    0.0000 H   0  0  0  0  0  0  0  0  0  0  0  0
   -1.6000    0.0000    0.0000 C   0  0  0  0  0  0  0  0  0  0  0  0
   -2.4000    1.3856    0.0000 H   0  0  0  0  0  0  0  0  0  0  0  0
    0.0000    0.0000    0.0000 C   0  0  0  0  0  0  0  0  0  0  0  0
    0.8000    1.3856    0.0000 C   0  0  0  0  0  0  0  0  0  0  0  0
    0.0000    2.7713    0.0000 H   0  0  0  0  0  0  0  0  0  0  0  0
    2.4000    1.3856    0.0000 C   0  0  0  0  0  0  0  0  0  0  0  0
    3.2000    2.7713    0.0000 H   0  0  0  0  0  0  0  0  0  0  0  0
    3.2000    0.0000    0.0000 C   0  0  0  0  0  0  0  0  0  0  0  0
    4.8000    0.0000    0.0000 H   0  0  0  0  0  0  0  0  0  0  0  0
    2.4000   -1.3856    0.0000 C   0  0  0  0  0  0  0  0  0  0  0  0
    3.2000   -2.7713    0.0000 H   0  0  0  0  0  0  0  0  0  0  0  0
    0.8000   -1.3856    0.0000 C   0  0  0  0  0  0  0  0  0  0  0  0
    0.0000   -2.7713    0.0000 H   0  0  0  0  0  0  0  0  0  0  0  0
  1  2  1  0  0  0  0
  1  3  1  0  0  0  0
  3  4  1  0  0  0  0
  3  5  2  0  0  0  0
  5  6  1  0  0  0  0
  6  7  1  0  0  0  0
  6  8  2  0  0  0  0
  8  9  1  0  0  0  0
  8 10  1  0  0  0  0
 10  1  2  0  0  0  0
 10 11  1  0  0  0  0
 11 12  1  0  0  0  0
 11 13  2  0  0  0  0
 13 14  1  0  0  0  0
 13 15  1  0  0  0  0
 15 16  1  0  0  0  0
 16 17  1  0  0  0  0
 16 18  2  0  0  0  0
 18 19  1  0  0  0  0
 18 20  1  0  0  0  0
 20 21  1  0  0  0  0
 20 22  2  0  0  0  0
 22 23  1  0  0  0  0
 22 24  1  0  0  0  0
 24 15  2  0  0  0  0
 24 25  1  0  0  0  0
M  END
> <ChemID>
100404

> <source_casrn>
103-31-1

> <CAS>
103-31-1

> <SMILES>
n(ccc(c1)C=Cc(cccc2)c2)c1

> <NAME>
Stilbazole

> <preferred_name>
4-Styrylpyridine

> <iupac>
4-(2-phenylethenyl)pyridine

> <MPID>
100414

> <dsstox_substance_id>
DTXSID7046255

> <Canonical_QSARr>
c1cc(cc[n]1)C=Cc1ccccc1

> <InChI_Code_QSARr>
InChI=1S/C13H11N/c1-2-4-12(5-3-1)6-7-13-8-10-14-11-9-13/h1-11H/b7-6+

> <InChI Key_QSARr>
QKHRGPYNTXRMSL-VOTSOKGWSA-N

> <Salt_Solvent>
?

> <Ready_Biodeg>
1.0

$$$$
100406
  -INDIGO-08031722522D

 31 30  0  0  0  0  0  0  0  0999 V2000
   -2.4001    1.3857    0.0000 O   0  0  0  0  0  0  0  0  0  0  0  0
   -3.2000    2.7713    0.0000 C   0  0  0  0  0  0  0  0  0  0  0  0
   -2.4001    4.1569    0.0000 H   0  0  0  0  0  0  0  0  0  0  0  0
   -4.8001    2.7713    0.0000 C   0  0  0  0  0  0  0  0  0  0  0  0
   -5.6000    4.1569    0.0000 H   0  0  0  0  0  0  0  0  0  0  0  0
   -5.6000    1.3857    0.0000 H   0  0  0  0  0  0  0  0  0  0  0  0
   -0.8000    1.3857    0.0000 C   0  0  0  0  0  0  0  0  0  0  0  0
   -0.5911    2.9720    0.0000 H   0  0  0  0  0  0  0  0  0  0  0  0
    0.4694    2.3597    0.0000 H   0  0  0  0  0  0  0  0  0  0  0  0
   -0.0001   -0.0000    0.0000 C   0  0  0  0  0  0  0  0  0  0  0  0
    0.8000   -1.3857    0.0000 H   0  0  0  0  0  0  0  0  0  0  0  0
    1.5036    0.5473    0.0000 C   0  0  0  0  0  0  0  0  0  0  0  0
    1.7123   -1.0390    0.0000 H   0  0  0  0  0  0  0  0  0  0  0  0
    2.7728   -0.4268    0.0000 H   0  0  0  0  0  0  0  0  0  0  0  0
    2.5320    1.7728    0.0000 C   0  0  0  0  0  0  0  0  0  0  0  0
    2.6017    3.3713    0.0000 H   0  0  0  0  0  0  0  0  0  0  0  0
    1.4510    2.9525    0.0000 H   0  0  0  0  0  0  0  0  0  0  0  0
    4.1076    1.4951    0.0000 C   0  0  0  0  0  0  0  0  0  0  0  0
    4.0379   -0.1034    0.0000 H   0  0  0  0  0  0  0  0  0  0  0  0
    5.1886    0.3154    0.0000 H   0  0  0  0  0  0  0  0  0  0  0  0
    5.1362    2.7208    0.0000 C   0  0  0  0  0  0  0  0  0  0  0  0
    6.1646    3.9464    0.0000 H   0  0  0  0  0  0  0  0  0  0  0  0
    6.7118    2.4429    0.0000 H   0  0  0  0  0  0  0  0  0  0  0  0
    4.5889    4.2242    0.0000 H   0  0  0  0  0  0  0  0  0  0  0  0
   -1.2257   -1.0285    0.0000 C   0  0  0  0  0  0  0  0  0  0  0  0
   -2.8241   -1.0983    0.0000 H   0  0  0  0  0  0  0  0  0  0  0  0
   -2.4053    0.0525    0.0000 H   0  0  0  0  0  0  0  0  0  0  0  0
   -0.9479   -2.6042    0.0000 C   0  0  0  0  0  0  0  0  0  0  0  0
   -0.6700   -4.1798    0.0000 H   0  0  0  0  0  0  0  0  0  0  0  0
   -2.1735   -3.6327    0.0000 H   0  0  0  0  0  0  0  0  0  0  0  0
    0.5556   -3.1514    0.0000 H   0  0  0  0  0  0  0  0  0  0  0  0
  1  2  1  0  0  0  0
  2  3  1  0  0  0  0
  2  4  2  0  0  0  0
  4  5  1  0  0  0  0
  4  6  1  0  0  0  0
  1  7  1  0  0  0  0
  7  8  1  0  0  0  0
  7  9  1  0  0  0  0
  7 10  1  0  0  0  0
 10 11  1  0  0  0  0
 10 12  1  0  0  0  0
 12 13  1  0  0  0  0
 12 14  1  0  0  0  0
 12 15  1  0  0  0  0
 15 16  1  0  0  0  0
 15 17  1  0  0  0  0
 15 18  1  0  0  0  0
 18 19  1  0  0  0  0
 18 20  1  0  0  0  0
 18 21  1  0  0  0  0
 21 22  1  0  0  0  0
 21 23  1  0  0  0  0
 21 24  1  0  0  0  0
 10 25  1  0  0  0  0
 25 26  1  0  0  0  0
 25 27  1  0  0  0  0
 25 28  1  0  0  0  0
 28 29  1  0  0  0  0
 28 30  1  0  0  0  0
 28 31  1  0  0  0  0
M  END
> <ChemID>
100406

> <source_casrn>
103-44-6

> <CAS>
103-44-6

> <SMILES>
O(CC(CCCC)CC)C=C

> <NAME>
Vinyl 2-ethylhexyl ether

> <preferred_name>


> <iupac>


> <MPID>
100416

> <dsstox_substance_id>
DTXSID20870444

> <Canonical_QSARr>
CCCCC(COC=C)CC

> <InChI_Code_QSARr>
InChI=1S/C10H20O/c1-4-7-8-10(5-2)9-11-6-3/h6,10H,3-5,7-9H2,1-2H3

> <InChI Key_QSARr>
DSSAWHFZNWVJEC-UHFFFAOYSA-N

> <Salt_Solvent>
?

> <Ready_Biodeg>
0.0

$$$$
100407
  -INDIGO-08031722522D

 29 30  0  0  0  0  0  0  0  0999 V2000
    2.7712   -0.0000    0.0000 O   0  0  0  0  0  0  0  0  0  0  0  0
    4.1569    0.8000    0.0000 C   0  0  0  0  0  0  0  0  0  0  0  0
    3.5446    2.2782    0.0000 H   0  0  0  0  0  0  0  0  0  0  0  0
    4.7692    2.2782    0.0000 H   0  0  0  0  0  0  0  0  0  0  0  0
    5.5427   -0.0000    0.0000 C   0  0  0  0  0  0  0  0  0  0  0  0
    5.5427   -1.6000    0.0000 C   0  0  0  0  0  0  0  0  0  0  0  0
    4.1569   -2.4000    0.0000 H   0  0  0  0  0  0  0  0  0  0  0  0
    6.9282   -2.4000    0.0000 C   0  0  0  0  0  0  0  0  0  0  0  0
    6.9282   -4.0000    0.0000 H   0  0  0  0  0  0  0  0  0  0  0  0
    8.3140   -1.6000    0.0000 C   0  0  0  0  0  0  0  0  0  0  0  0
    9.6995   -2.4000    0.0000 H   0  0  0  0  0  0  0  0  0  0  0  0
    8.3140   -0.0000    0.0000 C   0  0  0  0  0  0  0  0  0  0  0  0
    9.6995    0.8000    0.0000 H   0  0  0  0  0  0  0  0  0  0  0  0
    6.9282    0.8000    0.0000 C   0  0  0  0  0  0  0  0  0  0  0  0
    6.9282    2.4000    0.0000 H   0  0  0  0  0  0  0  0  0  0  0  0
    1.3856    0.8000    0.0000 C   0  0  0  0  0  0  0  0  0  0  0  0
    0.7733    2.2782    0.0000 H   0  0  0  0  0  0  0  0  0  0  0  0
    1.9980    2.2782    0.0000 H   0  0  0  0  0  0  0  0  0  0  0  0
   -0.0001   -0.0000    0.0000 C   0  0  0  0  0  0  0  0  0  0  0  0
   -1.3856    0.8000    0.0000 C   0  0  0  0  0  0  0  0  0  0  0  0
   -1.3856    2.4000    0.0000 H   0  0  0  0  0  0  0  0  0  0  0  0
   -2.7714   -0.0000    0.0000 C   0  0  0  0  0  0  0  0  0  0  0  0
   -4.1569    0.8000    0.0000 H   0  0  0  0  0  0  0  0  0  0  0  0
   -2.7712   -1.6000    0.0000 C   0  0  0  0  0  0  0  0  0  0  0  0
   -4.1569   -2.4000    0.0000 H   0  0  0  0  0  0  0  0  0  0  0  0
   -1.3856   -2.4000    0.0000 C   0  0  0  0  0  0  0  0  0  0  0  0
   -1.3856   -4.0000    0.0000 H   0  0  0  0  0  0  0  0  0  0  0  0
   -0.0001   -1.6000    0.0000 C   0  0  0  0  0  0  0  0  0  0  0  0
    1.3856   -2.4000    0.0000 H   0  0  0  0  0  0  0  0  0  0  0  0
  1  2  1  0  0  0  0
  2  3  1  0  0  0  0
  2  4  1  0  0  0  0
  2  5  1  0  0  0  0
  5  6  1  0  0  0  0
  6  7  1  0  0  0  0
  6  8  2  0  0  0  0
  8  9  1  0  0  0  0
  8 10  1  0  0  0  0
 10 11  1  0  0  0  0
 10 12  2  0  0  0  0
 12 13  1  0  0  0  0
 12 14  1  0  0  0  0
 14  5  2  0  0  0  0
 14 15  1  0  0  0  0
  1 16  1  0  0  0  0
 16 17  1  0  0  0  0
 16 18  1  0  0  0  0
 16 19  1  0  0  0  0
 19 20  1  0  0  0  0
 20 21  1  0  0  0  0
 20 22  2  0  0  0  0
 22 23  1  0  0  0  0
 22 24  1  0  0  0  0
 24 25  1  0  0  0  0
 24 26  2  0  0  0  0
 26 27  1  0  0  0  0
 26 28  1  0  0  0  0
 28 19  2  0  0  0  0
 28 29  1  0  0  0  0
M  END
> <ChemID>
100407

> <source_casrn>
103-50-4

> <CAS>
103-50-4

> <SMILES>
O(Cc(cccc1)c1)Cc(cccc2)c2

> <NAME>
Benzene, 1,1'- oxybis(methylene) bis-

> <preferred_name>
Dibenzyl ether

> <iupac>
C14H14O

> <MPID>
100417

> <dsstox_substance_id>
DTXSID5025819

> <Canonical_QSARr>
C(OCc1ccccc1)c1ccccc1

> <InChI_Code_QSARr>
InChI=1S/C14H14O/c1-3-7-13(8-4-1)11-15-12-14-9-5-2-6-10-14/h1-10H,11-12H2

> <InChI Key_QSARr>
MHDVGSVTJDSBDK-UHFFFAOYSA-N

> <Salt_Solvent>
?

> <Ready_Biodeg>
0.0

$$$$
100408
  -INDIGO-08031722522D

 16 16  0  0  0  0  0  0  0  0999 V2000
    2.7713   -1.6000    0.0000 Br  0  0  0  0  0  0  0  0  0  0  0  0
    2.7713   -0.0000    0.0000 C   0  0  0  0  0  0  0  0  0  0  0  0
    4.1569    0.8000    0.0000 H   0  0  0  0  0  0  0  0  0  0  0  0
    1.3856    0.8000    0.0000 C   0  0  0  0  0  0  0  0  0  0  0  0
    1.3856    2.4000    0.0000 H   0  0  0  0  0  0  0  0  0  0  0  0
    0.0001   -0.0000    0.0000 C   0  0  0  0  0  0  0  0  0  0  0  0
    0.0001   -1.6000    0.0000 C   0  0  0  0  0  0  0  0  0  0  0  0
    1.3856   -2.4000    0.0000 H   0  0  0  0  0  0  0  0  0  0  0  0
   -1.3856   -2.4000    0.0000 C   0  0  0  0  0  0  0  0  0  0  0  0
   -1.3856   -4.0000    0.0000 H   0  0  0  0  0  0  0  0  0  0  0  0
   -2.7712   -1.6000    0.0000 C   0  0  0  0  0  0  0  0  0  0  0  0
   -4.1569   -2.4000    0.0000 H   0  0  0  0  0  0  0  0  0  0  0  0
   -2.7712   -0.0000    0.0000 C   0  0  0  0  0  0  0  0  0  0  0  0
   -4.1569    0.8000    0.0000 H   0  0  0  0  0  0  0  0  0  0  0  0
   -1.3856    0.8000    0.0000 C   0  0  0  0  0  0  0  0  0  0  0  0
   -1.3856    2.4000    0.0000 H   0  0  0  0  0  0  0  0  0  0  0  0
  1  2  1  0  0  0  0
  2  3  1  0  0  0  0
  2  4  2  0  0  0  0
  4  5  1  0  0  0  0
  4  6  1  0  0  0  0
  6  7  1  0  0  0  0
  7  8  1  0  0  0  0
  7  9  2  0  0  0  0
  9 10  1  0  0  0  0
  9 11  1  0  0  0  0
 11 12  1  0  0  0  0
 11 13  2  0  0  0  0
 13 14  1  0  0  0  0
 13 15  1  0  0  0  0
 15  6  2  0  0  0  0
 15 16  1  0  0  0  0
M  END
> <ChemID>
100408

> <source_casrn>
103-64-0

> <CAS>
1335-06-4

> <SMILES>
c(cccc1)(c1)C=CBr

> <NAME>
Benzene, (2-bromoethenyl)-

> <preferred_name>
Benzene, bromoethenyl-

> <iupac>
?

> <MPID>
100418

> <dsstox_substance_id>
DTXSID8061680

> <Canonical_QSARr>
BrC=Cc1ccccc1

> <InChI_Code_QSARr>
InChI=1S/C8H7Br/c9-7-6-8-4-2-1-3-5-8/h1-7H/b7-6-

> <InChI Key_QSARr>
YMOONIIMQBGTDU-SREVYHEPSA-N

> <Salt_Solvent>
?

> <Ready_Biodeg>
0.0

$$$$
100410
  -INDIGO-08031722522D

 20 20  0  0  0  0  0  0  0  0999 V2000
   -0.8000    1.3856    0.0000 N   0  0  0  0  0  0  0  0  0  0  0  0
   -0.0001    2.7713    0.0000 H   0  0  0  0  0  0  0  0  0  0  0  0
   -2.4000    1.3856    0.0000 C   0  0  0  0  0  0  0  0  0  0  0  0
   -3.2000    2.7713    0.0000 C   0  0  0  0  0  0  0  0  0  0  0  0
   -2.4000    4.1569    0.0000 H   0  0  0  0  0  0  0  0  0  0  0  0
   -4.8001    2.7713    0.0000 C   0  0  0  0  0  0  0  0  0  0  0  0
   -5.6000    4.1569    0.0000 H   0  0  0  0  0  0  0  0  0  0  0  0
   -5.6000    1.3856    0.0000 C   0  0  0  0  0  0  0  0  0  0  0  0
   -7.2000    1.3856    0.0000 H   0  0  0  0  0  0  0  0  0  0  0  0
   -4.8001   -0.0000    0.0000 C   0  0  0  0  0  0  0  0  0  0  0  0
   -5.6000   -1.3856    0.0000 H   0  0  0  0  0  0  0  0  0  0  0  0
   -3.2000   -0.0000    0.0000 C   0  0  0  0  0  0  0  0  0  0  0  0
   -2.4000   -1.3856    0.0000 H   0  0  0  0  0  0  0  0  0  0  0  0
   -0.0001   -0.0000    0.0000 C   0  0  0  0  0  0  0  0  0  0  0  0
   -0.2089   -1.5863    0.0000 H   0  0  0  0  0  0  0  0  0  0  0  0
   -1.2693   -0.9740    0.0000 H   0  0  0  0  0  0  0  0  0  0  0  0
    1.6000   -0.0000    0.0000 C   0  0  0  0  0  0  0  0  0  0  0  0
    3.2000   -0.0000    0.0000 H   0  0  0  0  0  0  0  0  0  0  0  0
    2.4000   -1.3856    0.0000 H   0  0  0  0  0  0  0  0  0  0  0  0
    2.4000    1.3856    0.0000 H   0  0  0  0  0  0  0  0  0  0  0  0
  1  2  1  0  0  0  0
  1  3  1  0  0  0  0
  3  4  1  0  0  0  0
  4  5  1  0  0  0  0
  4  6  2  0  0  0  0
  6  7  1  0  0  0  0
  6  8  1  0  0  0  0
  8  9  1  0  0  0  0
  8 10  2  0  0  0  0
 10 11  1  0  0  0  0
 10 12  1  0  0  0  0
 12  3  2  0  0  0  0
 12 13  1  0  0  0  0
  1 14  1  0  0  0  0
 14 15  1  0  0  0  0
 14 16  1  0  0  0  0
 14 17  1  0  0  0  0
 17 18  1  0  0  0  0
 17 19  1  0  0  0  0
 17 20  1  0  0  0  0
M  END
> <ChemID>
100410

> <source_casrn>
103-69-5

> <CAS>
103-69-5

> <SMILES>
CCNc1ccccc1

> <NAME>
Benzenamine, N-ethyl-

> <preferred_name>
N-Ethylaniline

> <iupac>
N-ethylaniline

> <MPID>
100420

> <dsstox_substance_id>
DTXSID1025271

> <Canonical_QSARr>
CCNc1ccccc1

> <InChI_Code_QSARr>
InChI=1S/C8H11N/c1-2-9-8-6-4-3-5-7-8/h3-7,9H,2H2,1H3

> <InChI Key_QSARr>
OJGMBLNIHDZDGS-UHFFFAOYSA-N

> <Salt_Solvent>
?

> <Ready_Biodeg>
0.0

$$$$
100411
  -INDIGO-08031722522D

 19 19  0  0  0  0  0  0  0  0999 V2000
   -2.7713   -0.0000    0.0000 C   0  0  0  0  0  0  0  0  0  0  0  0
   -2.7713   -1.6000    0.0000 C   0  0  0  0  0  0  0  0  0  0  0  0
   -1.3856   -2.4000    0.0000 H   0  0  0  0  0  0  0  0  0  0  0  0
   -4.1570   -2.4000    0.0000 C   0  0  0  0  0  0  0  0  0  0  0  0
   -4.1570   -4.0000    0.0000 H   0  0  0  0  0  0  0  0  0  0  0  0
   -5.5426   -1.6000    0.0000 C   0  0  0  0  0  0  0  0  0  0  0  0
   -6.9282   -2.4000    0.0000 H   0  0  0  0  0  0  0  0  0  0  0  0
   -5.5426   -0.0000    0.0000 C   0  0  0  0  0  0  0  0  0  0  0  0
   -6.9282    0.8000    0.0000 H   0  0  0  0  0  0  0  0  0  0  0  0
   -4.1570    0.8000    0.0000 C   0  0  0  0  0  0  0  0  0  0  0  0
   -4.1570    2.4000    0.0000 H   0  0  0  0  0  0  0  0  0  0  0  0
   -1.3856    0.8000    0.0000 O   0  0  0  0  0  0  0  0  0  0  0  0
    0.0000   -0.0000    0.0000 C   0  0  0  0  0  0  0  0  0  0  0  0
   -0.6123   -1.4782    0.0000 H   0  0  0  0  0  0  0  0  0  0  0  0
    0.6123   -1.4782    0.0000 H   0  0  0  0  0  0  0  0  0  0  0  0
    1.3857    0.8000    0.0000 C   0  0  0  0  0  0  0  0  0  0  0  0
    2.7713    1.6000    0.0000 H   0  0  0  0  0  0  0  0  0  0  0  0
    2.7713   -0.0000    0.0000 H   0  0  0  0  0  0  0  0  0  0  0  0
    1.3857    2.4000    0.0000 H   0  0  0  0  0  0  0  0  0  0  0  0
  1  2  1  0  0  0  0
  2  3  1  0  0  0  0
  2  4  2  0  0  0  0
  4  5  1  0  0  0  0
  4  6  1  0  0  0  0
  6  7  1  0  0  0  0
  6  8  2  0  0  0  0
  8  9  1  0  0  0  0
  8 10  1  0  0  0  0
 10  1  2  0  0  0  0
 10 11  1  0  0  0  0
  1 12  1  0  0  0  0
 12 13  1  0  0  0  0
 13 14  1  0  0  0  0
 13 15  1  0  0  0  0
 13 16  1  0  0  0  0
 16 17  1  0  0  0  0
 16 18  1  0  0  0  0
 16 19  1  0  0  0  0
M  END
> <ChemID>
100411

> <source_casrn>
103-73-1

> <CAS>
103-73-1

> <SMILES>
CCOc1ccccc1

> <NAME>
Benzene, ethoxy-

> <preferred_name>
Benzene, ethoxy-

> <iupac>
Ethoxybenzene

> <MPID>
100421

> <dsstox_substance_id>
DTXSID7059278

> <Canonical_QSARr>
CCOc1ccccc1

> <InChI_Code_QSARr>
InChI=1S/C8H10O/c1-2-9-8-6-4-3-5-7-8/h3-7H,2H2,1H3

> <InChI Key_QSARr>
DLRJIFUOBPOJNS-UHFFFAOYSA-N

> <Salt_Solvent>
?

> <Ready_Biodeg>
1.0

$$$$
100412
  -INDIGO-08031722522D

 18 18  0  0  0  0  0  0  0  0999 V2000
    4.0000   -1.3856    0.0000 O   0  0  0  0  0  0  0  0  0  0  0  0
    4.8000   -2.7713    0.0000 H   0  0  0  0  0  0  0  0  0  0  0  0
    2.4000   -1.3856    0.0000 C   0  0  0  0  0  0  0  0  0  0  0  0
    1.6000   -0.0000    0.0000 C   0  0  0  0  0  0  0  0  0  0  0  0
    1.8089    1.5863    0.0000 H   0  0  0  0  0  0  0  0  0  0  0  0
    2.8693    0.9740    0.0000 H   0  0  0  0  0  0  0  0  0  0  0  0
    0.0001    0.0000    0.0000 C   0  0  0  0  0  0  0  0  0  0  0  0
   -0.8000    1.3856    0.0000 C   0  0  0  0  0  0  0  0  0  0  0  0
    0.0001    2.7713    0.0000 H   0  0  0  0  0  0  0  0  0  0  0  0
   -2.4000    1.3856    0.0000 C   0  0  0  0  0  0  0  0  0  0  0  0
   -3.1999    2.7713    0.0000 H   0  0  0  0  0  0  0  0  0  0  0  0
   -3.2001    0.0000    0.0000 C   0  0  0  0  0  0  0  0  0  0  0  0
   -4.8000   -0.0000    0.0000 H   0  0  0  0  0  0  0  0  0  0  0  0
   -2.4000   -1.3856    0.0000 C   0  0  0  0  0  0  0  0  0  0  0  0
   -3.2001   -2.7713    0.0000 H   0  0  0  0  0  0  0  0  0  0  0  0
   -0.8000   -1.3856    0.0000 C   0  0  0  0  0  0  0  0  0  0  0  0
    0.0001   -2.7713    0.0000 H   0  0  0  0  0  0  0  0  0  0  0  0
    1.6000   -2.7713    0.0000 O   0  0  0  0  0  0  0  0  0  0  0  0
  1  2  1  0  0  0  0
  1  3  1  0  0  0  0
  3  4  1  0  0  0  0
  4  5  1  0  0  0  0
  4  6  1  0  0  0  0
  4  7  1  0  0  0  0
  7  8  1  0  0  0  0
  8  9  1  0  0  0  0
  8 10  2  0  0  0  0
 10 11  1  0  0  0  0
 10 12  1  0  0  0  0
 12 13  1  0  0  0  0
 12 14  2  0  0  0  0
 14 15  1  0  0  0  0
 14 16  1  0  0  0  0
 16  7  2  0  0  0  0
 16 17  1  0  0  0  0
  3 18  2  0  0  0  0
M  END
> <ChemID>
100412

> <source_casrn>
103-82-2

> <CAS>
103-82-2

> <SMILES>
OC(=O)Cc1ccccc1

> <NAME>
PHENYLACETIC ACID

> <preferred_name>
Phenylacetic acid

> <iupac>
phenylacetic acid

> <MPID>
100422

> <dsstox_substance_id>
DTXSID2021656

> <Canonical_QSARr>
OC(=O)Cc1ccccc1

> <InChI_Code_QSARr>
InChI=1S/C8H8O2/c9-8(10)6-7-4-2-1-3-5-7/h1-5H,6H2,(H,9,10)

> <InChI Key_QSARr>
WLJVXDMOQOGPHL-UHFFFAOYSA-N

> <Salt_Solvent>
?

> <Ready_Biodeg>
1.0

$$$$
100414
  -INDIGO-08031722522D

 19 19  0  0  0  0  0  0  0  0999 V2000
   -0.8000    1.3856    0.0000 C   0  0  0  0  0  0  0  0  0  0  0  0
    0.0000    2.7713    0.0000 H   0  0  0  0  0  0  0  0  0  0  0  0
   -2.4001    1.3856    0.0000 C   0  0  0  0  0  0  0  0  0  0  0  0
   -3.2000    2.7713    0.0000 H   0  0  0  0  0  0  0  0  0  0  0  0
   -3.2000    0.0000    0.0000 C   0  0  0  0  0  0  0  0  0  0  0  0
   -4.8000    0.0000    0.0000 H   0  0  0  0  0  0  0  0  0  0  0  0
   -2.4001   -1.3856    0.0000 C   0  0  0  0  0  0  0  0  0  0  0  0
   -3.2000   -2.7713    0.0000 H   0  0  0  0  0  0  0  0  0  0  0  0
   -0.8000   -1.3856    0.0000 C   0  0  0  0  0  0  0  0  0  0  0  0
    0.0000   -2.7713    0.0000 H   0  0  0  0  0  0  0  0  0  0  0  0
    0.0000   -0.0000    0.0000 C   0  0  0  0  0  0  0  0  0  0  0  0
    1.6000    0.0000    0.0000 N   0  0  0  0  0  0  0  0  0  0  0  0
    2.3999    1.3856    0.0000 H   0  0  0  0  0  0  0  0  0  0  0  0
    2.3999   -1.3856    0.0000 C   0  0  0  0  0  0  0  0  0  0  0  0
    4.0001   -1.3856    0.0000 C   0  0  0  0  0  0  0  0  0  0  0  0
    5.6000   -1.3856    0.0000 H   0  0  0  0  0  0  0  0  0  0  0  0
    4.8000   -2.7713    0.0000 H   0  0  0  0  0  0  0  0  0  0  0  0
    4.8000    0.0000    0.0000 H   0  0  0  0  0  0  0  0  0  0  0  0
    1.6000   -2.7713    0.0000 O   0  0  0  0  0  0  0  0  0  0  0  0
  1  2  1  0  0  0  0
  1  3  1  0  0  0  0
  3  4  1  0  0  0  0
  3  5  2  0  0  0  0
  5  6  1  0  0  0  0
  5  7  1  0  0  0  0
  7  8  1  0  0  0  0
  7  9  2  0  0  0  0
  9 10  1  0  0  0  0
  9 11  1  0  0  0  0
 11  1  2  0  0  0  0
 11 12  1  0  0  0  0
 12 13  1  0  0  0  0
 12 14  1  0  0  0  0
 14 15  1  0  0  0  0
 15 16  1  0  0  0  0
 15 17  1  0  0  0  0
 15 18  1  0  0  0  0
 14 19  2  0  0  0  0
M  END
> <ChemID>
100414

> <source_casrn>
103-84-4

> <CAS>
103-84-4

> <SMILES>
CC(=O)Nc1ccccc1

> <NAME>
Acetamide, N-phenyl-

> <preferred_name>
Acetanilide

> <iupac>
N-phenylacetamide

> <MPID>
100424

> <dsstox_substance_id>
DTXSID2022543

> <Canonical_QSARr>
CC(=O)Nc1ccccc1

> <InChI_Code_QSARr>
InChI=1S/C8H9NO/c1-7(10)9-8-5-3-2-4-6-8/h2-6H,1H3,(H,9,10)

> <InChI Key_QSARr>
FZERHIULMFGESH-UHFFFAOYSA-N

> <Salt_Solvent>
?

> <Ready_Biodeg>
1.0

$$$$
100415
  -INDIGO-08031722522D

 20 20  0  0  0  0  0  0  0  0999 V2000
    2.4000   -1.3856    0.0000 C   0  0  0  0  0  0  0  0  0  0  0  0
    1.6001   -0.0000    0.0000 N   0  0  0  0  0  0  0  0  0  0  0  0
    2.4000    1.3856    0.0000 H   0  0  0  0  0  0  0  0  0  0  0  0
    0.0001    0.0000    0.0000 C   0  0  0  0  0  0  0  0  0  0  0  0
   -0.8001    1.3856    0.0000 C   0  0  0  0  0  0  0  0  0  0  0  0
    0.0001    2.7713    0.0000 H   0  0  0  0  0  0  0  0  0  0  0  0
   -2.4000    1.3856    0.0000 C   0  0  0  0  0  0  0  0  0  0  0  0
   -3.2000    2.7713    0.0000 H   0  0  0  0  0  0  0  0  0  0  0  0
   -3.2000    0.0000    0.0000 C   0  0  0  0  0  0  0  0  0  0  0  0
   -4.8000   -0.0000    0.0000 O   0  0  0  0  0  0  0  0  0  0  0  0
   -5.6000    1.3856    0.0000 H   0  0  0  0  0  0  0  0  0  0  0  0
   -2.4000   -1.3856    0.0000 C   0  0  0  0  0  0  0  0  0  0  0  0
   -3.2000   -2.7713    0.0000 H   0  0  0  0  0  0  0  0  0  0  0  0
   -0.8001   -1.3856    0.0000 C   0  0  0  0  0  0  0  0  0  0  0  0
    0.0001   -2.7713    0.0000 H   0  0  0  0  0  0  0  0  0  0  0  0
    1.6001   -2.7713    0.0000 O   0  0  0  0  0  0  0  0  0  0  0  0
    4.0000   -1.3856    0.0000 C   0  0  0  0  0  0  0  0  0  0  0  0
    5.6000   -1.3856    0.0000 H   0  0  0  0  0  0  0  0  0  0  0  0
    4.8000   -2.7713    0.0000 H   0  0  0  0  0  0  0  0  0  0  0  0
    4.8000   -0.0000    0.0000 H   0  0  0  0  0  0  0  0  0  0  0  0
  1  2  1  0  0  0  0
  2  3  1  0  0  0  0
  2  4  1  0  0  0  0
  4  5  1  0  0  0  0
  5  6  1  0  0  0  0
  5  7  2  0  0  0  0
  7  8  1  0  0  0  0
  7  9  1  0  0  0  0
  9 10  1  0  0  0  0
 10 11  1  0  0  0  0
  9 12  2  0  0  0  0
 12 13  1  0  0  0  0
 12 14  1  0  0  0  0
 14  4  2  0  0  0  0
 14 15  1  0  0  0  0
  1 16  2  0  0  0  0
  1 17  1  0  0  0  0
 17 18  1  0  0  0  0
 17 19  1  0  0  0  0
 17 20  1  0  0  0  0
M  END
> <ChemID>
100415

> <source_casrn>
103-90-2

> <CAS>
103-90-2

> <SMILES>
CC(=O)Nc1ccc(O)cc1

> <NAME>
4-Hydroxyacetanilide

> <preferred_name>
Acetaminophen

> <iupac>
N-(4-hydroxyphenyl)acetamide

> <MPID>
100425

> <dsstox_substance_id>
DTXSID2020006

> <Canonical_QSARr>
CC(=O)Nc1ccc(O)cc1

> <InChI_Code_QSARr>
InChI=1S/C8H9NO2/c1-6(10)9-7-2-4-8(11)5-3-7/h2-5,11H,1H3,(H,9,10)

> <InChI Key_QSARr>
RZVAJINKPMORJF-UHFFFAOYSA-N

> <Salt_Solvent>
?

> <Ready_Biodeg>
1.0

$$$$
100416
  -INDIGO-08031722522D

 19 19  0  0  0  0  0  0  0  0999 V2000
   -0.0000   -0.0000    0.0000 C   0  0  0  0  0  0  0  0  0  0  0  0
   -0.8000    1.3856    0.0000 C   0  0  0  0  0  0  0  0  0  0  0  0
   -0.0000    2.7713    0.0000 H   0  0  0  0  0  0  0  0  0  0  0  0
   -2.4000    1.3856    0.0000 C   0  0  0  0  0  0  0  0  0  0  0  0
   -3.1999    2.7713    0.0000 H   0  0  0  0  0  0  0  0  0  0  0  0
   -3.1999   -0.0000    0.0000 C   0  0  0  0  0  0  0  0  0  0  0  0
   -4.8000   -0.0000    0.0000 C   0  0  0  0  0  0  0  0  0  0  0  0
   -6.4000   -0.0000    0.0000 H   0  0  0  0  0  0  0  0  0  0  0  0
   -5.6000   -1.3856    0.0000 H   0  0  0  0  0  0  0  0  0  0  0  0
   -5.6000    1.3856    0.0000 H   0  0  0  0  0  0  0  0  0  0  0  0
   -2.4000   -1.3856    0.0000 C   0  0  0  0  0  0  0  0  0  0  0  0
   -3.1999   -2.7713    0.0000 H   0  0  0  0  0  0  0  0  0  0  0  0
   -0.8000   -1.3856    0.0000 C   0  0  0  0  0  0  0  0  0  0  0  0
   -0.0000   -2.7713    0.0000 H   0  0  0  0  0  0  0  0  0  0  0  0
    1.6001   -0.0000    0.0000 S   0  0  0  0  0  0  0  0  0  0  0  0
    1.6001    1.6000    0.0000 O   0  0  0  0  0  0  0  0  0  0  0  0
    3.2000   -0.0000    0.0000 O   0  0  0  0  0  0  0  0  0  0  0  0
    4.0000   -1.3856    0.0000 H   0  0  0  0  0  0  0  0  0  0  0  0
    1.6001   -1.6000    0.0000 O   0  0  0  0  0  0  0  0  0  0  0  0
  1  2  1  0  0  0  0
  2  3  1  0  0  0  0
  2  4  2  0  0  0  0
  4  5  1  0  0  0  0
  4  6  1  0  0  0  0
  6  7  1  0  0  0  0
  7  8  1  0  0  0  0
  7  9  1  0  0  0  0
  7 10  1  0  0  0  0
  6 11  2  0  0  0  0
 11 12  1  0  0  0  0
 11 13  1  0  0  0  0
 13  1  2  0  0  0  0
 13 14  1  0  0  0  0
  1 15  1  0  0  0  0
 15 16  2  0  0  0  0
 15 17  1  0  0  0  0
 17 18  1  0  0  0  0
 15 19  2  0  0  0  0
M  END
> <ChemID>
100416

> <source_casrn>
104-15-4

> <CAS>
104-15-4

> <SMILES>
Cc1ccc(cc1)S(O)(=O)=O

> <NAME>
p-Toluenesulfonic acid

> <preferred_name>
4-Methylbenzenesulfonic acid

> <iupac>
C7H8O3S

> <MPID>
100426

> <dsstox_substance_id>
DTXSID0026701

> <Canonical_QSARr>
Cc1ccc(cc1)S(O)(=O)=O

> <InChI_Code_QSARr>
InChI=1S/C7H8O3S/c1-6-2-4-7(5-3-6)11(8,9)10/h2-5H,1H3,(H,8,9,10)

> <InChI Key_QSARr>
JOXIMZWYDAKGHI-UHFFFAOYSA-N

> <Salt_Solvent>
?

> <Ready_Biodeg>
1.0

$$$$
100418
  -INDIGO-08031722522D

 24 24  0  0  0  0  0  0  0  0999 V2000
   -2.7712   -0.0000    0.0000 C   0  0  0  0  0  0  0  0  0  0  0  0
   -1.3856    0.8000    0.0000 C   0  0  0  0  0  0  0  0  0  0  0  0
   -0.7734    2.2782    0.0000 H   0  0  0  0  0  0  0  0  0  0  0  0
   -1.9979    2.2782    0.0000 H   0  0  0  0  0  0  0  0  0  0  0  0
   -0.0001   -0.0000    0.0000 C   0  0  0  0  0  0  0  0  0  0  0  0
   -0.6122   -1.4782    0.0000 H   0  0  0  0  0  0  0  0  0  0  0  0
    0.6123   -1.4782    0.0000 H   0  0  0  0  0  0  0  0  0  0  0  0
    1.3856    0.8000    0.0000 C   0  0  0  0  0  0  0  0  0  0  0  0
    1.9979    2.2782    0.0000 H   0  0  0  0  0  0  0  0  0  0  0  0
    0.7733    2.2782    0.0000 H   0  0  0  0  0  0  0  0  0  0  0  0
    2.7713   -0.0000    0.0000 C   0  0  0  0  0  0  0  0  0  0  0  0
    4.1569   -0.8000    0.0000 H   0  0  0  0  0  0  0  0  0  0  0  0
    4.1569    0.8000    0.0000 H   0  0  0  0  0  0  0  0  0  0  0  0
    2.7713   -1.6000    0.0000 H   0  0  0  0  0  0  0  0  0  0  0  0
   -2.7712   -1.6000    0.0000 C   0  0  0  0  0  0  0  0  0  0  0  0
   -1.3856   -2.4000    0.0000 H   0  0  0  0  0  0  0  0  0  0  0  0
   -4.1569   -2.4000    0.0000 C   0  0  0  0  0  0  0  0  0  0  0  0
   -4.1569   -4.0000    0.0000 H   0  0  0  0  0  0  0  0  0  0  0  0
   -5.5425   -1.6000    0.0000 C   0  0  0  0  0  0  0  0  0  0  0  0
   -6.9282   -2.4000    0.0000 H   0  0  0  0  0  0  0  0  0  0  0  0
   -5.5425   -0.0000    0.0000 C   0  0  0  0  0  0  0  0  0  0  0  0
   -6.9282    0.8000    0.0000 H   0  0  0  0  0  0  0  0  0  0  0  0
   -4.1569    0.8000    0.0000 C   0  0  0  0  0  0  0  0  0  0  0  0
   -4.1569    2.4000    0.0000 H   0  0  0  0  0  0  0  0  0  0  0  0
  1  2  1  0  0  0  0
  2  3  1  0  0  0  0
  2  4  1  0  0  0  0
  2  5  1  0  0  0  0
  5  6  1  0  0  0  0
  5  7  1  0  0  0  0
  5  8  1  0  0  0  0
  8  9  1  0  0  0  0
  8 10  1  0  0  0  0
  8 11  1  0  0  0  0
 11 12  1  0  0  0  0
 11 13  1  0  0  0  0
 11 14  1  0  0  0  0
  1 15  1  0  0  0  0
 15 16  1  0  0  0  0
 15 17  2  0  0  0  0
 17 18  1  0  0  0  0
 17 19  1  0  0  0  0
 19 20  1  0  0  0  0
 19 21  2  0  0  0  0
 21 22  1  0  0  0  0
 21 23  1  0  0  0  0
 23  1  2  0  0  0  0
 23 24  1  0  0  0  0
M  END
> <ChemID>
100418

> <source_casrn>
104-51-8

> <CAS>
104-51-8

> <SMILES>
CCCCc1ccccc1

> <NAME>
N-BUTYLBENZENE

> <preferred_name>
Butylbenzene

> <iupac>
butylbenzene

> <MPID>
100428

> <dsstox_substance_id>
DTXSID6022472

> <Canonical_QSARr>
CCCCc1ccccc1

> <InChI_Code_QSARr>
InChI=1S/C10H14/c1-2-3-7-10-8-5-4-6-9-10/h4-6,8-9H,2-3,7H2,1H3

> <InChI Key_QSARr>
OCKPCBLVNKHBMX-UHFFFAOYSA-N

> <Salt_Solvent>
?

> <Ready_Biodeg>
0.0

$$$$
100419
  -INDIGO-08031722522D

 20 20  0  0  0  0  0  0  0  0999 V2000
    4.0000   -1.3856    0.0000 C   0  0  0  0  0  0  0  0  0  0  0  0
    4.2089    0.2007    0.0000 H   0  0  0  0  0  0  0  0  0  0  0  0
    5.2693   -0.4117    0.0000 H   0  0  0  0  0  0  0  0  0  0  0  0
    2.4001   -1.3856    0.0000 C   0  0  0  0  0  0  0  0  0  0  0  0
    1.6001   -2.7713    0.0000 H   0  0  0  0  0  0  0  0  0  0  0  0
    1.6001   -0.0000    0.0000 C   0  0  0  0  0  0  0  0  0  0  0  0
    2.4001    1.3856    0.0000 H   0  0  0  0  0  0  0  0  0  0  0  0
   -0.0001    0.0000    0.0000 C   0  0  0  0  0  0  0  0  0  0  0  0
   -0.8001    1.3856    0.0000 C   0  0  0  0  0  0  0  0  0  0  0  0
   -0.0001    2.7713    0.0000 H   0  0  0  0  0  0  0  0  0  0  0  0
   -2.4000    1.3856    0.0000 C   0  0  0  0  0  0  0  0  0  0  0  0
   -3.2000    2.7713    0.0000 H   0  0  0  0  0  0  0  0  0  0  0  0
   -3.2000    0.0000    0.0000 C   0  0  0  0  0  0  0  0  0  0  0  0
   -4.8000   -0.0000    0.0000 H   0  0  0  0  0  0  0  0  0  0  0  0
   -2.4000   -1.3856    0.0000 C   0  0  0  0  0  0  0  0  0  0  0  0
   -3.2000   -2.7713    0.0000 H   0  0  0  0  0  0  0  0  0  0  0  0
   -0.8001   -1.3856    0.0000 C   0  0  0  0  0  0  0  0  0  0  0  0
   -0.0001   -2.7713    0.0000 H   0  0  0  0  0  0  0  0  0  0  0  0
    4.8000   -2.7713    0.0000 O   0  0  0  0  0  0  0  0  0  0  0  0
    6.4000   -2.7713    0.0000 H   0  0  0  0  0  0  0  0  0  0  0  0
  1  2  1  0  0  0  0
  1  3  1  0  0  0  0
  1  4  1  0  0  0  0
  4  5  1  0  0  0  0
  4  6  2  0  0  0  0
  6  7  1  0  0  0  0
  6  8  1  0  0  0  0
  8  9  1  0  0  0  0
  9 10  1  0  0  0  0
  9 11  2  0  0  0  0
 11 12  1  0  0  0  0
 11 13  1  0  0  0  0
 13 14  1  0  0  0  0
 13 15  2  0  0  0  0
 15 16  1  0  0  0  0
 15 17  1  0  0  0  0
 17  8  2  0  0  0  0
 17 18  1  0  0  0  0
  1 19  1  0  0  0  0
 19 20  1  0  0  0  0
M  END
> <ChemID>
100419

> <source_casrn>
104-54-1

> <CAS>
104-54-1

> <SMILES>
OCC=Cc1ccccc1

> <NAME>
2-Propen-1-ol, 3-phenyl-

> <preferred_name>
3-Phenyl-2-propen-1-ol

> <iupac>
3-phenylprop-2-en-1-ol

> <MPID>
100429

> <dsstox_substance_id>
DTXSID9041491

> <Canonical_QSARr>
OCC=Cc1ccccc1

> <InChI_Code_QSARr>
InChI=1S/C9H10O/c10-8-4-7-9-5-2-1-3-6-9/h1-7,10H,8H2/b7-4+

> <InChI Key_QSARr>
OOCCDEMITAIZTP-QPJJXVBHSA-N

> <Salt_Solvent>
?

> <Ready_Biodeg>
1.0

$$$$
100420
  -INDIGO-08031722522D

 27 26  0  0  0  0  0  0  0  0999 V2000
    5.8084   -0.2118    0.0000 C   0  0  0  0  0  0  0  0  0  0  0  0
    7.3119    0.3354    0.0000 H   0  0  0  0  0  0  0  0  0  0  0  0
    7.0340   -1.2403    0.0000 H   0  0  0  0  0  0  0  0  0  0  0  0
    6.0863    1.3638    0.0000 H   0  0  0  0  0  0  0  0  0  0  0  0
    4.3049   -0.7591    0.0000 C   0  0  0  0  0  0  0  0  0  0  0  0
    3.4451   -2.1085    0.0000 H   0  0  0  0  0  0  0  0  0  0  0  0
    4.6511   -2.3211    0.0000 H   0  0  0  0  0  0  0  0  0  0  0  0
    3.0792    0.2694    0.0000 C   0  0  0  0  0  0  0  0  0  0  0  0
    3.9389    1.6188    0.0000 H   0  0  0  0  0  0  0  0  0  0  0  0
    2.7330    1.8315    0.0000 H   0  0  0  0  0  0  0  0  0  0  0  0
    1.5757   -0.2779    0.0000 C   0  0  0  0  0  0  0  0  0  0  0  0
    0.9635   -1.7561    0.0000 H   0  0  0  0  0  0  0  0  0  0  0  0
    2.1879   -1.7561    0.0000 H   0  0  0  0  0  0  0  0  0  0  0  0
   -0.0001    0.0000    0.0000 C   0  0  0  0  0  0  0  0  0  0  0  0
   -0.0001   -1.6000    0.0000 H   0  0  0  0  0  0  0  0  0  0  0  0
   -0.0001    1.6000    0.0000 C   0  0  0  0  0  0  0  0  0  0  0  0
    0.9741    2.8694    0.0000 H   0  0  0  0  0  0  0  0  0  0  0  0
    1.5863    1.8088    0.0000 H   0  0  0  0  0  0  0  0  0  0  0  0
   -1.3856    2.4000    0.0000 O   0  0  0  0  0  0  0  0  0  0  0  0
   -1.3856    4.0000    0.0000 H   0  0  0  0  0  0  0  0  0  0  0  0
   -1.5756   -0.2779    0.0000 C   0  0  0  0  0  0  0  0  0  0  0  0
   -2.9950    0.4610    0.0000 H   0  0  0  0  0  0  0  0  0  0  0  0
   -2.0568    1.2481    0.0000 H   0  0  0  0  0  0  0  0  0  0  0  0
   -2.1229   -1.7813    0.0000 C   0  0  0  0  0  0  0  0  0  0  0  0
   -2.6702   -3.2849    0.0000 H   0  0  0  0  0  0  0  0  0  0  0  0
   -3.6986   -2.0592    0.0000 H   0  0  0  0  0  0  0  0  0  0  0  0
   -1.0945   -3.0071    0.0000 H   0  0  0  0  0  0  0  0  0  0  0  0
  1  2  1  0  0  0  0
  1  3  1  0  0  0  0
  1  4  1  0  0  0  0
  1  5  1  0  0  0  0
  5  6  1  0  0  0  0
  5  7  1  0  0  0  0
  5  8  1  0  0  0  0
  8  9  1  0  0  0  0
  8 10  1  0  0  0  0
  8 11  1  0  0  0  0
 11 12  1  0  0  0  0
 11 13  1  0  0  0  0
 11 14  1  0  0  0  0
 14 15  1  0  0  0  0
 14 16  1  0  0  0  0
 16 17  1  0  0  0  0
 16 18  1  0  0  0  0
 16 19  1  0  0  0  0
 19 20  1  0  0  0  0
 14 21  1  0  0  0  0
 21 22  1  0  0  0  0
 21 23  1  0  0  0  0
 21 24  1  0  0  0  0
 24 25  1  0  0  0  0
 24 26  1  0  0  0  0
 24 27  1  0  0  0  0
M  END
> <ChemID>
100420

> <source_casrn>
104-76-7

> <CAS>
104-76-7

> <SMILES>
OCC(CCCC)CC

> <NAME>
2-Ethyl hexanol

> <preferred_name>
2-Ethyl-1-hexanol

> <iupac>
2-ethylhexan-1-ol

> <MPID>
100430

> <dsstox_substance_id>
DTXSID5020605

> <Canonical_QSARr>
CCCCC(CO)CC

> <InChI_Code_QSARr>
InChI=1S/C8H18O/c1-3-5-6-8(4-2)7-9/h8-9H,3-7H2,1-2H3

> <InChI Key_QSARr>
YIWUKEYIRIRTPP-UHFFFAOYSA-N

> <Salt_Solvent>
?

> <Ready_Biodeg>
1.0

$$$$
100422
  -INDIGO-08031722522D

 24 24  0  0  0  0  0  0  0  0999 V2000
    0.0001    0.0000    0.0000 C   0  0  0  0  0  0  0  0  0  0  0  0
   -0.7999    1.3856    0.0000 C   0  0  0  0  0  0  0  0  0  0  0  0
    0.0001    2.7713    0.0000 H   0  0  0  0  0  0  0  0  0  0  0  0
   -2.4001    1.3856    0.0000 C   0  0  0  0  0  0  0  0  0  0  0  0
   -3.2001    2.7713    0.0000 H   0  0  0  0  0  0  0  0  0  0  0  0
   -3.2001    0.0000    0.0000 C   0  0  0  0  0  0  0  0  0  0  0  0
   -4.8000   -0.0000    0.0000 C   0  0  0  0  0  0  0  0  0  0  0  0
   -5.0089   -1.5863    0.0000 H   0  0  0  0  0  0  0  0  0  0  0  0
   -6.0693   -0.9740    0.0000 H   0  0  0  0  0  0  0  0  0  0  0  0
   -5.6000    1.3856    0.0000 C   0  0  0  0  0  0  0  0  0  0  0  0
   -7.2000    1.3856    0.0000 H   0  0  0  0  0  0  0  0  0  0  0  0
   -6.4000    2.7713    0.0000 H   0  0  0  0  0  0  0  0  0  0  0  0
   -6.4000   -0.0000    0.0000 H   0  0  0  0  0  0  0  0  0  0  0  0
   -2.4001   -1.3856    0.0000 C   0  0  0  0  0  0  0  0  0  0  0  0
   -3.2001   -2.7713    0.0000 H   0  0  0  0  0  0  0  0  0  0  0  0
   -0.7999   -1.3856    0.0000 C   0  0  0  0  0  0  0  0  0  0  0  0
    0.0001   -2.7713    0.0000 H   0  0  0  0  0  0  0  0  0  0  0  0
    1.6000   -0.0000    0.0000 C   0  0  0  0  0  0  0  0  0  0  0  0
    1.8089    1.5863    0.0000 H   0  0  0  0  0  0  0  0  0  0  0  0
    2.8693    0.9740    0.0000 H   0  0  0  0  0  0  0  0  0  0  0  0
    2.4000   -1.3856    0.0000 C   0  0  0  0  0  0  0  0  0  0  0  0
    4.0000   -1.3856    0.0000 H   0  0  0  0  0  0  0  0  0  0  0  0
    3.2000   -2.7713    0.0000 H   0  0  0  0  0  0  0  0  0  0  0  0
    3.2000   -0.0000    0.0000 H   0  0  0  0  0  0  0  0  0  0  0  0
  1  2  1  0  0  0  0
  2  3  1  0  0  0  0
  2  4  2  0  0  0  0
  4  5  1  0  0  0  0
  4  6  1  0  0  0  0
  6  7  1  0  0  0  0
  7  8  1  0  0  0  0
  7  9  1  0  0  0  0
  7 10  1  0  0  0  0
 10 11  1  0  0  0  0
 10 12  1  0  0  0  0
 10 13  1  0  0  0  0
  6 14  2  0  0  0  0
 14 15  1  0  0  0  0
 14 16  1  0  0  0  0
 16  1  2  0  0  0  0
 16 17  1  0  0  0  0
  1 18  1  0  0  0  0
 18 19  1  0  0  0  0
 18 20  1  0  0  0  0
 18 21  1  0  0  0  0
 21 22  1  0  0  0  0
 21 23  1  0  0  0  0
 21 24  1  0  0  0  0
M  END
> <ChemID>
100422

> <source_casrn>
105-05-5

> <CAS>
105-05-5

> <SMILES>
CCc1ccc(CC)cc1

> <NAME>
Benzene, 1,4-diethyl-

> <preferred_name>
1,4-Diethylbenzene

> <iupac>
1,4-diethylbenzene

> <MPID>
100432

> <dsstox_substance_id>
DTXSID4026711

> <Canonical_QSARr>
CCc1ccc(CC)cc1

> <InChI_Code_QSARr>
InChI=1S/C10H14/c1-3-9-5-7-10(4-2)8-6-9/h5-8H,3-4H2,1-2H3

> <InChI Key_QSARr>
DSNHSQKRULAAEI-UHFFFAOYSA-N

> <Salt_Solvent>
?

> <Ready_Biodeg>
0.0

$$$$
100423
  -INDIGO-08031722522D

 20 20  0  0  0  0  0  0  0  0999 V2000
    0.0001    0.0000    0.0000 C   0  0  0  0  0  0  0  0  0  0  0  0
   -0.7999    1.3856    0.0000 C   0  0  0  0  0  0  0  0  0  0  0  0
    0.0001    2.7713    0.0000 H   0  0  0  0  0  0  0  0  0  0  0  0
   -2.4001    1.3856    0.0000 C   0  0  0  0  0  0  0  0  0  0  0  0
   -3.2001    2.7713    0.0000 H   0  0  0  0  0  0  0  0  0  0  0  0
   -3.2001    0.0000    0.0000 C   0  0  0  0  0  0  0  0  0  0  0  0
   -4.8000   -0.0000    0.0000 C   0  0  0  0  0  0  0  0  0  0  0  0
   -5.6000   -1.3856    0.0000 H   0  0  0  0  0  0  0  0  0  0  0  0
   -5.6000    1.3856    0.0000 C   0  0  0  0  0  0  0  0  0  0  0  0
   -7.2000    1.3856    0.0000 H   0  0  0  0  0  0  0  0  0  0  0  0
   -4.8000    2.7713    0.0000 H   0  0  0  0  0  0  0  0  0  0  0  0
   -2.4001   -1.3856    0.0000 C   0  0  0  0  0  0  0  0  0  0  0  0
   -3.2001   -2.7713    0.0000 H   0  0  0  0  0  0  0  0  0  0  0  0
   -0.7999   -1.3856    0.0000 C   0  0  0  0  0  0  0  0  0  0  0  0
    0.0001   -2.7713    0.0000 H   0  0  0  0  0  0  0  0  0  0  0  0
    1.6000   -0.0000    0.0000 C   0  0  0  0  0  0  0  0  0  0  0  0
    2.4000    1.3856    0.0000 H   0  0  0  0  0  0  0  0  0  0  0  0
    2.4000   -1.3856    0.0000 C   0  0  0  0  0  0  0  0  0  0  0  0
    4.0000   -1.3856    0.0000 H   0  0  0  0  0  0  0  0  0  0  0  0
    1.6000   -2.7713    0.0000 H   0  0  0  0  0  0  0  0  0  0  0  0
  1  2  1  0  0  0  0
  2  3  1  0  0  0  0
  2  4  2  0  0  0  0
  4  5  1  0  0  0  0
  4  6  1  0  0  0  0
  6  7  1  0  0  0  0
  7  8  1  0  0  0  0
  7  9  2  0  0  0  0
  9 10  1  0  0  0  0
  9 11  1  0  0  0  0
  6 12  2  0  0  0  0
 12 13  1  0  0  0  0
 12 14  1  0  0  0  0
 14  1  2  0  0  0  0
 14 15  1  0  0  0  0
  1 16  1  0  0  0  0
 16 17  1  0  0  0  0
 16 18  2  0  0  0  0
 18 19  1  0  0  0  0
 18 20  1  0  0  0  0
M  END
> <ChemID>
100423

> <source_casrn>
105-06-6

> <CAS>
105-06-6

> <SMILES>
C=Cc1ccc(cc1)C=C

> <NAME>
Benzene, 1,4-diethenyl-

> <preferred_name>
1,4-Divinylbenzene

> <iupac>
1,4-diethenylbenzene

> <MPID>
100433

> <dsstox_substance_id>
DTXSID2033863

> <Canonical_QSARr>
C=Cc1ccc(cc1)C=C

> <InChI_Code_QSARr>
InChI=1S/C10H10/c1-3-9-5-7-10(4-2)8-6-9/h3-8H,1-2H2

> <InChI Key_QSARr>
WEERVPDNCOGWJF-UHFFFAOYSA-N

> <Salt_Solvent>
?

> <Ready_Biodeg>
0.0

$$$$
100424
  -INDIGO-08031722522D

 19 19  0  0  0  0  0  0  0  0999 V2000
    1.4942    4.9466    0.0000 O   0  0  0  0  0  0  0  0  0  0  0  0
    0.8000    3.5051    0.0000 C   0  0  0  0  0  0  0  0  0  0  0  0
    1.7976    2.2541    0.0000 C   0  0  0  0  0  0  0  0  0  0  0  0
    2.7952    3.5051    0.0000 H   0  0  0  0  0  0  0  0  0  0  0  0
    3.3378    1.8208    0.0000 H   0  0  0  0  0  0  0  0  0  0  0  0
    1.4415    0.6943    0.0000 C   0  0  0  0  0  0  0  0  0  0  0  0
    3.0416    0.6943    0.0000 H   0  0  0  0  0  0  0  0  0  0  0  0
    1.7976   -0.8657    0.0000 H   0  0  0  0  0  0  0  0  0  0  0  0
   -0.0000    0.0000    0.0000 C   0  0  0  0  0  0  0  0  0  0  0  0
    0.7652   -1.4052    0.0000 H   0  0  0  0  0  0  0  0  0  0  0  0
   -0.9976   -1.2510    0.0000 H   0  0  0  0  0  0  0  0  0  0  0  0
   -1.4415    0.6943    0.0000 C   0  0  0  0  0  0  0  0  0  0  0  0
   -2.0631   -0.7801    0.0000 H   0  0  0  0  0  0  0  0  0  0  0  0
   -3.0416    0.6943    0.0000 H   0  0  0  0  0  0  0  0  0  0  0  0
   -1.7976    2.2541    0.0000 C   0  0  0  0  0  0  0  0  0  0  0  0
   -3.3378    1.8208    0.0000 H   0  0  0  0  0  0  0  0  0  0  0  0
   -2.7952    3.5051    0.0000 H   0  0  0  0  0  0  0  0  0  0  0  0
   -0.8000    3.5051    0.0000 N   0  0  0  0  0  0  0  0  0  0  0  0
   -1.4942    4.9466    0.0000 H   0  0  0  0  0  0  0  0  0  0  0  0
  1  2  2  0  0  0  0
  2  3  1  0  0  0  0
  3  4  1  0  0  0  0
  3  5  1  0  0  0  0
  3  6  1  0  0  0  0
  6  7  1  0  0  0  0
  6  8  1  0  0  0  0
  6  9  1  0  0  0  0
  9 10  1  0  0  0  0
  9 11  1  0  0  0  0
  9 12  1  0  0  0  0
 12 13  1  0  0  0  0
 12 14  1  0  0  0  0
 12 15  1  0  0  0  0
 15 16  1  0  0  0  0
 15 17  1  0  0  0  0
 15 18  1  0  0  0  0
 18  2  1  0  0  0  0
 18 19  1  0  0  0  0
M  END
> <ChemID>
100424

> <source_casrn>
105-60-2

> <CAS>
105-60-2

> <SMILES>
O=C1CCCCCN1

> <NAME>
2H-Azepin-2-one, hexahydro-

> <preferred_name>
Caprolactam

> <iupac>
azepan-2-one

> <MPID>
100434

> <dsstox_substance_id>
DTXSID4020240

> <Canonical_QSARr>
O=C1CCCCCN1

> <InChI_Code_QSARr>
InChI=1S/C6H11NO/c8-6-4-2-1-3-5-7-6/h1-5H2,(H,7,8)

> <InChI Key_QSARr>
JBKVHLHDHHXQEQ-UHFFFAOYSA-N

> <Salt_Solvent>
?

> <Ready_Biodeg>
1.0

$$$$
100426
  -INDIGO-08031722522D

 57 56  0  0  0  0  0  0  0  0999 V2000
  -15.2423    0.8000    0.0000 C   0  0  0  0  0  0  0  0  0  0  0  0
  -13.8565   -0.0000    0.0000 C   0  0  0  0  0  0  0  0  0  0  0  0
  -14.4688   -1.4782    0.0000 H   0  0  0  0  0  0  0  0  0  0  0  0
  -13.2442   -1.4782    0.0000 H   0  0  0  0  0  0  0  0  0  0  0  0
  -12.4708    0.8000    0.0000 C   0  0  0  0  0  0  0  0  0  0  0  0
  -11.8584    2.2782    0.0000 H   0  0  0  0  0  0  0  0  0  0  0  0
  -13.0831    2.2782    0.0000 H   0  0  0  0  0  0  0  0  0  0  0  0
  -11.0850   -0.0000    0.0000 C   0  0  0  0  0  0  0  0  0  0  0  0
  -11.6973   -1.4782    0.0000 H   0  0  0  0  0  0  0  0  0  0  0  0
  -10.4727   -1.4782    0.0000 H   0  0  0  0  0  0  0  0  0  0  0  0
   -9.6997    0.8000    0.0000 C   0  0  0  0  0  0  0  0  0  0  0  0
   -9.0874    2.2782    0.0000 H   0  0  0  0  0  0  0  0  0  0  0  0
  -10.3116    2.2782    0.0000 H   0  0  0  0  0  0  0  0  0  0  0  0
   -8.3139   -0.0000    0.0000 C   0  0  0  0  0  0  0  0  0  0  0  0
   -8.9263   -1.4782    0.0000 H   0  0  0  0  0  0  0  0  0  0  0  0
   -7.7016   -1.4782    0.0000 H   0  0  0  0  0  0  0  0  0  0  0  0
   -6.9282    0.8000    0.0000 C   0  0  0  0  0  0  0  0  0  0  0  0
   -6.3159    2.2782    0.0000 H   0  0  0  0  0  0  0  0  0  0  0  0
   -7.5405    2.2782    0.0000 H   0  0  0  0  0  0  0  0  0  0  0  0
   -5.5425   -0.0000    0.0000 C   0  0  0  0  0  0  0  0  0  0  0  0
   -6.1548   -1.4782    0.0000 H   0  0  0  0  0  0  0  0  0  0  0  0
   -4.9301   -1.4782    0.0000 H   0  0  0  0  0  0  0  0  0  0  0  0
   -4.1567    0.8000    0.0000 C   0  0  0  0  0  0  0  0  0  0  0  0
   -3.5448    2.2782    0.0000 H   0  0  0  0  0  0  0  0  0  0  0  0
   -4.7690    2.2782    0.0000 H   0  0  0  0  0  0  0  0  0  0  0  0
   -2.7714   -0.0000    0.0000 C   0  0  0  0  0  0  0  0  0  0  0  0
   -3.3837   -1.4782    0.0000 H   0  0  0  0  0  0  0  0  0  0  0  0
   -2.1591   -1.4782    0.0000 H   0  0  0  0  0  0  0  0  0  0  0  0
   -1.3856    0.8000    0.0000 C   0  0  0  0  0  0  0  0  0  0  0  0
   -0.7733    2.2782    0.0000 H   0  0  0  0  0  0  0  0  0  0  0  0
   -1.9980    2.2782    0.0000 H   0  0  0  0  0  0  0  0  0  0  0  0
    0.0001   -0.0000    0.0000 C   0  0  0  0  0  0  0  0  0  0  0  0
   -0.8000   -1.3856    0.0000 H   0  0  0  0  0  0  0  0  0  0  0  0
    1.3859   -0.8000    0.0000 C   0  0  0  0  0  0  0  0  0  0  0  0
    0.7735   -2.2782    0.0000 H   0  0  0  0  0  0  0  0  0  0  0  0
    1.9977   -2.2782    0.0000 H   0  0  0  0  0  0  0  0  0  0  0  0
    2.7712   -0.0000    0.0000 C   0  0  0  0  0  0  0  0  0  0  0  0
    3.3835    1.4782    0.0000 H   0  0  0  0  0  0  0  0  0  0  0  0
    2.1589    1.4782    0.0000 H   0  0  0  0  0  0  0  0  0  0  0  0
    4.1569   -0.8000    0.0000 C   0  0  0  0  0  0  0  0  0  0  0  0
    3.5446   -2.2782    0.0000 H   0  0  0  0  0  0  0  0  0  0  0  0
    4.7692   -2.2782    0.0000 H   0  0  0  0  0  0  0  0  0  0  0  0
    5.5427   -0.0000    0.0000 C   0  0  0  0  0  0  0  0  0  0  0  0
    6.1550    1.4782    0.0000 H   0  0  0  0  0  0  0  0  0  0  0  0
    4.9304    1.4782    0.0000 H   0  0  0  0  0  0  0  0  0  0  0  0
    6.9284   -0.8000    0.0000 C   0  0  0  0  0  0  0  0  0  0  0  0
    6.3161   -2.2782    0.0000 H   0  0  0  0  0  0  0  0  0  0  0  0
    7.5403   -2.2782    0.0000 H   0  0  0  0  0  0  0  0  0  0  0  0
    8.3137   -0.0000    0.0000 C   0  0  0  0  0  0  0  0  0  0  0  0
    9.6995    0.8000    0.0000 H   0  0  0  0  0  0  0  0  0  0  0  0
    9.6995   -0.8000    0.0000 H   0  0  0  0  0  0  0  0  0  0  0  0
    8.3137    1.6000    0.0000 H   0  0  0  0  0  0  0  0  0  0  0  0
    0.8002    1.3857    0.0000 O   0  0  0  0  0  0  0  0  0  0  0  0
    0.2526    2.8891    0.0000 H   0  0  0  0  0  0  0  0  0  0  0  0
  -16.6276   -0.0000    0.0000 O   0  0  0  0  0  0  0  0  0  0  0  0
  -18.0133    0.8000    0.0000 H   0  0  0  0  0  0  0  0  0  0  0  0
  -15.2423    2.4000    0.0000 O   0  0  0  0  0  0  0  0  0  0  0  0
  1  2  1  0  0  0  0
  2  3  1  0  0  0  0
  2  4  1  0  0  0  0
  2  5  1  0  0  0  0
  5  6  1  0  0  0  0
  5  7  1  0  0  0  0
  5  8  1  0  0  0  0
  8  9  1  0  0  0  0
  8 10  1  0  0  0  0
  8 11  1  0  0  0  0
 11 12  1  0  0  0  0
 11 13  1  0  0  0  0
 11 14  1  0  0  0  0
 14 15  1  0  0  0  0
 14 16  1  0  0  0  0
 14 17  1  0  0  0  0
 17 18  1  0  0  0  0
 17 19  1  0  0  0  0
 17 20  1  0  0  0  0
 20 21  1  0  0  0  0
 20 22  1  0  0  0  0
 20 23  1  0  0  0  0
 23 24  1  0  0  0  0
 23 25  1  0  0  0  0
 23 26  1  0  0  0  0
 26 27  1  0  0  0  0
 26 28  1  0  0  0  0
 26 29  1  0  0  0  0
 29 30  1  0  0  0  0
 29 31  1  0  0  0  0
 29 32  1  0  0  0  0
 32 33  1  0  0  0  0
 32 34  1  0  0  0  0
 34 35  1  0  0  0  0
 34 36  1  0  0  0  0
 34 37  1  0  0  0  0
 37 38  1  0  0  0  0
 37 39  1  0  0  0  0
 37 40  1  0  0  0  0
 40 41  1  0  0  0  0
 40 42  1  0  0  0  0
 40 43  1  0  0  0  0
 43 44  1  0  0  0  0
 43 45  1  0  0  0  0
 43 46  1  0  0  0  0
 46 47  1  0  0  0  0
 46 48  1  0  0  0  0
 46 49  1  0  0  0  0
 49 50  1  0  0  0  0
 49 51  1  0  0  0  0
 49 52  1  0  0  0  0
 32 53  1  0  0  0  0
 53 54  1  0  0  0  0
  1 55  1  0  0  0  0
 55 56  1  0  0  0  0
  1 57  2  0  0  0  0
M  END
> <ChemID>
100426

> <source_casrn>
106-14-9

> <CAS>
106-14-9

> <SMILES>
CCCCCCC(O)CCCCCCCCCCC(O)=O

> <NAME>
Octadecanoic acid, 12-hydroxy-

> <preferred_name>
12-Hydroxyoctadecanoic acid

> <iupac>
12-hydroxyoctadecanoic acid

> <MPID>
100436

> <dsstox_substance_id>
DTXSID8026725

> <Canonical_QSARr>
CCCCCCC(O)CCCCCCCCCCC(O)=O

> <InChI_Code_QSARr>
InChI=1S/C18H36O3/c1-2-3-4-11-14-17(19)15-12-9-7-5-6-8-10-13-16-18(20)21/h17,19H,2-16H2,1H3,(H,20,21)

> <InChI Key_QSARr>
ULQISTXYYBZJSJ-UHFFFAOYSA-N

> <Salt_Solvent>
?

> <Ready_Biodeg>
1.0

$$$$
100427
  -INDIGO-08031722522D

 29 28  0  0  0  0  0  0  0  0999 V2000
    4.1569    0.8000    0.0000 C   0  0  0  0  0  0  0  0  0  0  0  0
    4.7692    2.2782    0.0000 H   0  0  0  0  0  0  0  0  0  0  0  0
    3.5446    2.2782    0.0000 H   0  0  0  0  0  0  0  0  0  0  0  0
    2.7714   -0.0000    0.0000 C   0  0  0  0  0  0  0  0  0  0  0  0
    2.7714   -1.6000    0.0000 H   0  0  0  0  0  0  0  0  0  0  0  0
    1.3856    0.8000    0.0000 C   0  0  0  0  0  0  0  0  0  0  0  0
    0.0001   -0.0000    0.0000 C   0  0  0  0  0  0  0  0  0  0  0  0
   -0.6122   -1.4782    0.0000 H   0  0  0  0  0  0  0  0  0  0  0  0
    0.6122   -1.4782    0.0000 H   0  0  0  0  0  0  0  0  0  0  0  0
   -1.3856    0.8000    0.0000 C   0  0  0  0  0  0  0  0  0  0  0  0
   -0.7733    2.2782    0.0000 H   0  0  0  0  0  0  0  0  0  0  0  0
   -1.9980    2.2782    0.0000 H   0  0  0  0  0  0  0  0  0  0  0  0
   -2.7712   -0.0000    0.0000 C   0  0  0  0  0  0  0  0  0  0  0  0
   -2.7714   -1.6000    0.0000 H   0  0  0  0  0  0  0  0  0  0  0  0
   -4.1569    0.8000    0.0000 C   0  0  0  0  0  0  0  0  0  0  0  0
   -5.5425   -0.0000    0.0000 C   0  0  0  0  0  0  0  0  0  0  0  0
   -6.9282   -0.8000    0.0000 H   0  0  0  0  0  0  0  0  0  0  0  0
   -6.9282    0.8000    0.0000 H   0  0  0  0  0  0  0  0  0  0  0  0
   -5.5425   -1.6000    0.0000 H   0  0  0  0  0  0  0  0  0  0  0  0
   -4.1569    2.4000    0.0000 C   0  0  0  0  0  0  0  0  0  0  0  0
   -4.1569    4.0000    0.0000 H   0  0  0  0  0  0  0  0  0  0  0  0
   -5.5425    3.2000    0.0000 H   0  0  0  0  0  0  0  0  0  0  0  0
   -2.7712    3.2000    0.0000 H   0  0  0  0  0  0  0  0  0  0  0  0
    1.3856    2.4000    0.0000 C   0  0  0  0  0  0  0  0  0  0  0  0
    1.3856    4.0000    0.0000 H   0  0  0  0  0  0  0  0  0  0  0  0
    2.7714    3.2000    0.0000 H   0  0  0  0  0  0  0  0  0  0  0  0
    0.0001    3.2000    0.0000 H   0  0  0  0  0  0  0  0  0  0  0  0
    5.5427   -0.0000    0.0000 O   0  0  0  0  0  0  0  0  0  0  0  0
    6.9282    0.8000    0.0000 H   0  0  0  0  0  0  0  0  0  0  0  0
  1  2  1  0  0  0  0
  1  3  1  0  0  0  0
  1  4  1  0  0  0  0
  4  5  1  0  0  0  0
  4  6  2  0  0  0  0
  6  7  1  0  0  0  0
  7  8  1  0  0  0  0
  7  9  1  0  0  0  0
  7 10  1  0  0  0  0
 10 11  1  0  0  0  0
 10 12  1  0  0  0  0
 10 13  1  0  0  0  0
 13 14  1  0  0  0  0
 13 15  2  0  0  0  0
 15 16  1  0  0  0  0
 16 17  1  0  0  0  0
 16 18  1  0  0  0  0
 16 19  1  0  0  0  0
 15 20  1  0  0  0  0
 20 21  1  0  0  0  0
 20 22  1  0  0  0  0
 20 23  1  0  0  0  0
  6 24  1  0  0  0  0
 24 25  1  0  0  0  0
 24 26  1  0  0  0  0
 24 27  1  0  0  0  0
  1 28  1  0  0  0  0
 28 29  1  0  0  0  0
M  END
> <ChemID>
100427

> <source_casrn>
106-24-1|624-15-7

> <CAS>
106-24-1|624-15-7

> <SMILES>
CC(C)=CCC/C(/C)=C/CO

> <NAME>
Geraniol, 2,6-Octadien-1-ol, 3,7-dimethyl-

> <preferred_name>
Geraniol

> <iupac>
(2E)-3,7-dimethylocta-2,6-dien-1-ol

> <MPID>
100437|100877

> <dsstox_substance_id>
DTXSID8026727|DTXSID7041380

> <Canonical_QSARr>
CC(C)=CCCC(C)=CCO

> <InChI_Code_QSARr>
InChI=1S/C10H18O/c1-9(2)5-4-6-10(3)7-8-11/h5,7,11H,4,6,8H2,1-3H3/b10-7+

> <InChI Key_QSARr>
GLZPCOQZEFWAFX-JXMROGBWSA-N

> <Salt_Solvent>
?

> <Ready_Biodeg>
1.0

$$$$
100428
  -INDIGO-08031722522D

 12 12  0  0  0  0  0  0  0  0999 V2000
    0.8000    1.3856    0.0000 Br  0  0  0  0  0  0  0  0  0  0  0  0
   -0.0000   -0.0000    0.0000 C   0  0  0  0  0  0  0  0  0  0  0  0
    0.8000   -1.3857    0.0000 C   0  0  0  0  0  0  0  0  0  0  0  0
    2.4000   -1.3857    0.0000 H   0  0  0  0  0  0  0  0  0  0  0  0
   -0.0000   -2.7713    0.0000 C   0  0  0  0  0  0  0  0  0  0  0  0
    0.8000   -4.1569    0.0000 H   0  0  0  0  0  0  0  0  0  0  0  0
   -1.6000   -2.7713    0.0000 C   0  0  0  0  0  0  0  0  0  0  0  0
   -2.4000   -4.1569    0.0000 Br  0  0  0  0  0  0  0  0  0  0  0  0
   -2.4000   -1.3856    0.0000 C   0  0  0  0  0  0  0  0  0  0  0  0
   -4.0000   -1.3856    0.0000 H   0  0  0  0  0  0  0  0  0  0  0  0
   -1.6000   -0.0000    0.0000 C   0  0  0  0  0  0  0  0  0  0  0  0
   -2.4000    1.3856    0.0000 H   0  0  0  0  0  0  0  0  0  0  0  0
  1  2  1  0  0  0  0
  2  3  1  0  0  0  0
  3  4  1  0  0  0  0
  3  5  2  0  0  0  0
  5  6  1  0  0  0  0
  5  7  1  0  0  0  0
  7  8  1  0  0  0  0
  7  9  2  0  0  0  0
  9 10  1  0  0  0  0
  9 11  1  0  0  0  0
 11  2  2  0  0  0  0
 11 12  1  0  0  0  0
M  END
> <ChemID>
100428

> <source_casrn>
106-37-6

> <CAS>
106-37-6

> <SMILES>
Brc1ccc(Br)cc1

> <NAME>
Benzene, 1,4-dibromo-

> <preferred_name>
1,4-Dibromobenzene

> <iupac>
1,4-dibromobenzene

> <MPID>
100438

> <dsstox_substance_id>
DTXSID4024012

> <Canonical_QSARr>
Brc1ccc(Br)cc1

> <InChI_Code_QSARr>
InChI=1S/C6H4Br2/c7-5-1-2-6(8)4-3-5/h1-4H

> <InChI Key_QSARr>
SWJPEBQEEAHIGZ-UHFFFAOYSA-N

> <Salt_Solvent>
?

> <Ready_Biodeg>
0.0

$$$$
100430
  -INDIGO-08031722522D

 18 18  0  0  0  0  0  0  0  0999 V2000
    1.6001   -0.0000    0.0000 C   0  0  0  0  0  0  0  0  0  0  0  0
    3.2000   -0.0000    0.0000 H   0  0  0  0  0  0  0  0  0  0  0  0
    2.4000   -1.3856    0.0000 H   0  0  0  0  0  0  0  0  0  0  0  0
    2.4000    1.3856    0.0000 H   0  0  0  0  0  0  0  0  0  0  0  0
    0.0000   -0.0000    0.0000 C   0  0  0  0  0  0  0  0  0  0  0  0
   -0.8000    1.3856    0.0000 C   0  0  0  0  0  0  0  0  0  0  0  0
    0.0000    2.7713    0.0000 H   0  0  0  0  0  0  0  0  0  0  0  0
   -2.4000    1.3856    0.0000 C   0  0  0  0  0  0  0  0  0  0  0  0
   -3.2000    2.7713    0.0000 H   0  0  0  0  0  0  0  0  0  0  0  0
   -3.2000   -0.0000    0.0000 C   0  0  0  0  0  0  0  0  0  0  0  0
   -4.7999   -0.0000    0.0000 C   0  0  0  0  0  0  0  0  0  0  0  0
   -6.4000   -0.0000    0.0000 H   0  0  0  0  0  0  0  0  0  0  0  0
   -5.6000   -1.3856    0.0000 H   0  0  0  0  0  0  0  0  0  0  0  0
   -5.6000    1.3856    0.0000 H   0  0  0  0  0  0  0  0  0  0  0  0
   -2.4000   -1.3856    0.0000 C   0  0  0  0  0  0  0  0  0  0  0  0
   -3.2000   -2.7713    0.0000 H   0  0  0  0  0  0  0  0  0  0  0  0
   -0.8000   -1.3856    0.0000 C   0  0  0  0  0  0  0  0  0  0  0  0
    0.0000   -2.7713    0.0000 H   0  0  0  0  0  0  0  0  0  0  0  0
  1  2  1  0  0  0  0
  1  3  1  0  0  0  0
  1  4  1  0  0  0  0
  1  5  1  0  0  0  0
  5  6  1  0  0  0  0
  6  7  1  0  0  0  0
  6  8  2  0  0  0  0
  8  9  1  0  0  0  0
  8 10  1  0  0  0  0
 10 11  1  0  0  0  0
 11 12  1  0  0  0  0
 11 13  1  0  0  0  0
 11 14  1  0  0  0  0
 10 15  2  0  0  0  0
 15 16  1  0  0  0  0
 15 17  1  0  0  0  0
 17  5  2  0  0  0  0
 17 18  1  0  0  0  0
M  END
> <ChemID>
100430

> <source_casrn>
106-42-3

> <CAS>
106-42-3

> <SMILES>
Cc1ccc(C)cc1

> <NAME>
Benzene, 1,4-dimethyl-

> <preferred_name>
p-Xylene

> <iupac>
1,4-dimethylbenzene

> <MPID>
100440

> <dsstox_substance_id>
DTXSID2021868

> <Canonical_QSARr>
Cc1ccc(C)cc1

> <InChI_Code_QSARr>
InChI=1S/C8H10/c1-7-3-5-8(2)6-4-7/h3-6H,1-2H3

> <InChI Key_QSARr>
URLKBWYHVLBVBO-UHFFFAOYSA-N

> <Salt_Solvent>
?

> <Ready_Biodeg>
1.0

$$$$
100431
  -INDIGO-08031722522D

 15 15  0  0  0  0  0  0  0  0999 V2000
    1.6000   -0.0000    0.0000 C   0  0  0  0  0  0  0  0  0  0  0  0
    3.2000   -0.0000    0.0000 H   0  0  0  0  0  0  0  0  0  0  0  0
    2.4001   -1.3856    0.0000 H   0  0  0  0  0  0  0  0  0  0  0  0
    2.4001    1.3856    0.0000 H   0  0  0  0  0  0  0  0  0  0  0  0
    0.0000   -0.0000    0.0000 C   0  0  0  0  0  0  0  0  0  0  0  0
   -0.7999    1.3856    0.0000 C   0  0  0  0  0  0  0  0  0  0  0  0
    0.0000    2.7713    0.0000 H   0  0  0  0  0  0  0  0  0  0  0  0
   -2.4001    1.3856    0.0000 C   0  0  0  0  0  0  0  0  0  0  0  0
   -3.2000    2.7713    0.0000 H   0  0  0  0  0  0  0  0  0  0  0  0
   -3.2000   -0.0000    0.0000 C   0  0  0  0  0  0  0  0  0  0  0  0
   -4.8000   -0.0000    0.0000 Cl  0  0  0  0  0  0  0  0  0  0  0  0
   -2.4001   -1.3856    0.0000 C   0  0  0  0  0  0  0  0  0  0  0  0
   -3.2000   -2.7713    0.0000 H   0  0  0  0  0  0  0  0  0  0  0  0
   -0.8001   -1.3856    0.0000 C   0  0  0  0  0  0  0  0  0  0  0  0
    0.0000   -2.7713    0.0000 H   0  0  0  0  0  0  0  0  0  0  0  0
  1  2  1  0  0  0  0
  1  3  1  0  0  0  0
  1  4  1  0  0  0  0
  1  5  1  0  0  0  0
  5  6  1  0  0  0  0
  6  7  1  0  0  0  0
  6  8  2  0  0  0  0
  8  9  1  0  0  0  0
  8 10  1  0  0  0  0
 10 11  1  0  0  0  0
 10 12  2  0  0  0  0
 12 13  1  0  0  0  0
 12 14  1  0  0  0  0
 14  5  2  0  0  0  0
 14 15  1  0  0  0  0
M  END
> <ChemID>
100431

> <source_casrn>
106-43-4

> <CAS>
106-43-4

> <SMILES>
Cc1ccc(Cl)cc1

> <NAME>
Benzene, 1-chloro-4-methyl-

> <preferred_name>
4-Chlorotoluene

> <iupac>
1-chloro-4-methylbenzene

> <MPID>
100441

> <dsstox_substance_id>
DTXSID8024814

> <Canonical_QSARr>
Cc1ccc(Cl)cc1

> <InChI_Code_QSARr>
InChI=1S/C7H7Cl/c1-6-2-4-7(8)5-3-6/h2-5H,1H3

> <InChI Key_QSARr>
NPDACUSDTOMAMK-UHFFFAOYSA-N

> <Salt_Solvent>
?

> <Ready_Biodeg>
0.0

$$$$
100432
  -INDIGO-08031722522D

 16 16  0  0  0  0  0  0  0  0999 V2000
    4.8000   -0.0000    0.0000 O   0  0  0  0  0  0  0  0  0  0  0  0
    5.6000    1.3856    0.0000 H   0  0  0  0  0  0  0  0  0  0  0  0
    3.2000   -0.0000    0.0000 C   0  0  0  0  0  0  0  0  0  0  0  0
    2.4000    1.3856    0.0000 C   0  0  0  0  0  0  0  0  0  0  0  0
    3.2000    2.7713    0.0000 H   0  0  0  0  0  0  0  0  0  0  0  0
    0.8000    1.3856    0.0000 C   0  0  0  0  0  0  0  0  0  0  0  0
    0.0000    2.7713    0.0000 H   0  0  0  0  0  0  0  0  0  0  0  0
    0.0000   -0.0000    0.0000 C   0  0  0  0  0  0  0  0  0  0  0  0
   -1.6001   -0.0000    0.0000 C   0  0  0  0  0  0  0  0  0  0  0  0
   -3.2000   -0.0000    0.0000 H   0  0  0  0  0  0  0  0  0  0  0  0
   -2.4000   -1.3856    0.0000 H   0  0  0  0  0  0  0  0  0  0  0  0
   -2.4000    1.3856    0.0000 H   0  0  0  0  0  0  0  0  0  0  0  0
    0.8000   -1.3856    0.0000 C   0  0  0  0  0  0  0  0  0  0  0  0
    0.0000   -2.7713    0.0000 H   0  0  0  0  0  0  0  0  0  0  0  0
    2.4000   -1.3856    0.0000 C   0  0  0  0  0  0  0  0  0  0  0  0
    3.2000   -2.7713    0.0000 H   0  0  0  0  0  0  0  0  0  0  0  0
  1  2  1  0  0  0  0
  1  3  1  0  0  0  0
  3  4  1  0  0  0  0
  4  5  1  0  0  0  0
  4  6  2  0  0  0  0
  6  7  1  0  0  0  0
  6  8  1  0  0  0  0
  8  9  1  0  0  0  0
  9 10  1  0  0  0  0
  9 11  1  0  0  0  0
  9 12  1  0  0  0  0
  8 13  2  0  0  0  0
 13 14  1  0  0  0  0
 13 15  1  0  0  0  0
 15  3  2  0  0  0  0
 15 16  1  0  0  0  0
M  END
> <ChemID>
100432

> <source_casrn>
106-44-5

> <CAS>
106-44-5

> <SMILES>
Cc1ccc(O)cc1

> <NAME>
4-Cresol

> <preferred_name>
p-Cresol

> <iupac>
4-methylphenol

> <MPID>
100442

> <dsstox_substance_id>
DTXSID7021869

> <Canonical_QSARr>
Cc1ccc(O)cc1

> <InChI_Code_QSARr>
InChI=1S/C7H8O/c1-6-2-4-7(8)5-3-6/h2-5,8H,1H3

> <InChI Key_QSARr>
IWDCLRJOBJJRNH-UHFFFAOYSA-N

> <Salt_Solvent>
?

> <Ready_Biodeg>
1.0

$$$$
100434
  -INDIGO-08031722522D

 13 13  0  0  0  0  0  0  0  0999 V2000
    0.8000    1.3856    0.0000 O   0  0  0  0  0  0  0  0  0  0  0  0
    2.4000    1.3856    0.0000 H   0  0  0  0  0  0  0  0  0  0  0  0
   -0.0000   -0.0000    0.0000 C   0  0  0  0  0  0  0  0  0  0  0  0
    0.8000   -1.3857    0.0000 C   0  0  0  0  0  0  0  0  0  0  0  0
    2.4000   -1.3857    0.0000 H   0  0  0  0  0  0  0  0  0  0  0  0
   -0.0000   -2.7713    0.0000 C   0  0  0  0  0  0  0  0  0  0  0  0
    0.8000   -4.1569    0.0000 H   0  0  0  0  0  0  0  0  0  0  0  0
   -1.6000   -2.7713    0.0000 C   0  0  0  0  0  0  0  0  0  0  0  0
   -2.4000   -4.1569    0.0000 Cl  0  0  0  0  0  0  0  0  0  0  0  0
   -2.4000   -1.3856    0.0000 C   0  0  0  0  0  0  0  0  0  0  0  0
   -4.0000   -1.3856    0.0000 H   0  0  0  0  0  0  0  0  0  0  0  0
   -1.6000   -0.0000    0.0000 C   0  0  0  0  0  0  0  0  0  0  0  0
   -2.4000    1.3856    0.0000 H   0  0  0  0  0  0  0  0  0  0  0  0
  1  2  1  0  0  0  0
  1  3  1  0  0  0  0
  3  4  1  0  0  0  0
  4  5  1  0  0  0  0
  4  6  2  0  0  0  0
  6  7  1  0  0  0  0
  6  8  1  0  0  0  0
  8  9  1  0  0  0  0
  8 10  2  0  0  0  0
 10 11  1  0  0  0  0
 10 12  1  0  0  0  0
 12  3  2  0  0  0  0
 12 13  1  0  0  0  0
M  END
> <ChemID>
100434

> <source_casrn>
106-48-9

> <CAS>
106-48-9

> <SMILES>
Oc1ccc(Cl)cc1

> <NAME>
4-Chlorophenol

> <preferred_name>
4-Chlorophenol

> <iupac>
4-chlorophenol

> <MPID>
100444

> <dsstox_substance_id>
DTXSID1021871

> <Canonical_QSARr>
Oc1ccc(Cl)cc1

> <InChI_Code_QSARr>
InChI=1S/C6H5ClO/c7-5-1-3-6(8)4-2-5/h1-4,8H

> <InChI Key_QSARr>
WXNZTHHGJRFXKQ-UHFFFAOYSA-N

> <Salt_Solvent>
?

> <Ready_Biodeg>
0.0

$$$$
100435
  -INDIGO-08031722522D

 17 17  0  0  0  0  0  0  0  0999 V2000
    4.8000   -0.0000    0.0000 N   0  0  0  0  0  0  0  0  0  0  0  0
    5.6000    1.3856    0.0000 H   0  0  0  0  0  0  0  0  0  0  0  0
    5.6000   -1.3856    0.0000 H   0  0  0  0  0  0  0  0  0  0  0  0
    3.2000   -0.0000    0.0000 C   0  0  0  0  0  0  0  0  0  0  0  0
    2.4000    1.3856    0.0000 C   0  0  0  0  0  0  0  0  0  0  0  0
    3.2000    2.7713    0.0000 H   0  0  0  0  0  0  0  0  0  0  0  0
    0.8000    1.3856    0.0000 C   0  0  0  0  0  0  0  0  0  0  0  0
    0.0000    2.7713    0.0000 H   0  0  0  0  0  0  0  0  0  0  0  0
    0.0000   -0.0000    0.0000 C   0  0  0  0  0  0  0  0  0  0  0  0
   -1.6001   -0.0000    0.0000 C   0  0  0  0  0  0  0  0  0  0  0  0
   -3.2000   -0.0000    0.0000 H   0  0  0  0  0  0  0  0  0  0  0  0
   -2.4000   -1.3856    0.0000 H   0  0  0  0  0  0  0  0  0  0  0  0
   -2.4000    1.3856    0.0000 H   0  0  0  0  0  0  0  0  0  0  0  0
    0.8000   -1.3856    0.0000 C   0  0  0  0  0  0  0  0  0  0  0  0
    0.0000   -2.7713    0.0000 H   0  0  0  0  0  0  0  0  0  0  0  0
    2.4000   -1.3856    0.0000 C   0  0  0  0  0  0  0  0  0  0  0  0
    3.2000   -2.7713    0.0000 H   0  0  0  0  0  0  0  0  0  0  0  0
  1  2  1  0  0  0  0
  1  3  1  0  0  0  0
  1  4  1  0  0  0  0
  4  5  1  0  0  0  0
  5  6  1  0  0  0  0
  5  7  2  0  0  0  0
  7  8  1  0  0  0  0
  7  9  1  0  0  0  0
  9 10  1  0  0  0  0
 10 11  1  0  0  0  0
 10 12  1  0  0  0  0
 10 13  1  0  0  0  0
  9 14  2  0  0  0  0
 14 15  1  0  0  0  0
 14 16  1  0  0  0  0
 16  4  2  0  0  0  0
 16 17  1  0  0  0  0
M  END
> <ChemID>
100435

> <source_casrn>
106-49-0

> <CAS>
106-49-0

> <SMILES>
Cc1ccc(N)cc1

> <NAME>
Benzenamine, 4-methyl-

> <preferred_name>
4-Methylaniline

> <iupac>
4-methylaniline

> <MPID>
100445

> <dsstox_substance_id>
DTXSID6021872

> <Canonical_QSARr>
Cc1ccc(N)cc1

> <InChI_Code_QSARr>
InChI=1S/C7H9N/c1-6-2-4-7(8)5-3-6/h2-5H,8H2,1H3

> <InChI Key_QSARr>
RZXMPPFPUUCRFN-UHFFFAOYSA-N

> <Salt_Solvent>
?

> <Ready_Biodeg>
1.0

$$$$
100436
  -INDIGO-08031722522D

 16 16  0  0  0  0  0  0  0  0999 V2000
    1.6001   -0.0000    0.0000 N   0  0  0  0  0  0  0  0  0  0  0  0
    2.4000    1.3856    0.0000 H   0  0  0  0  0  0  0  0  0  0  0  0
    2.4000   -1.3856    0.0000 H   0  0  0  0  0  0  0  0  0  0  0  0
    0.0001   -0.0000    0.0000 C   0  0  0  0  0  0  0  0  0  0  0  0
   -0.8000    1.3856    0.0000 C   0  0  0  0  0  0  0  0  0  0  0  0
    0.0001    2.7713    0.0000 H   0  0  0  0  0  0  0  0  0  0  0  0
   -2.4000    1.3856    0.0000 C   0  0  0  0  0  0  0  0  0  0  0  0
   -3.1999    2.7713    0.0000 H   0  0  0  0  0  0  0  0  0  0  0  0
   -3.2001   -0.0000    0.0000 C   0  0  0  0  0  0  0  0  0  0  0  0
   -4.7999   -0.0000    0.0000 N   0  0  0  0  0  0  0  0  0  0  0  0
   -5.6000    1.3856    0.0000 H   0  0  0  0  0  0  0  0  0  0  0  0
   -5.6000   -1.3856    0.0000 H   0  0  0  0  0  0  0  0  0  0  0  0
   -2.4000   -1.3856    0.0000 C   0  0  0  0  0  0  0  0  0  0  0  0
   -3.2001   -2.7713    0.0000 H   0  0  0  0  0  0  0  0  0  0  0  0
   -0.8000   -1.3856    0.0000 C   0  0  0  0  0  0  0  0  0  0  0  0
    0.0001   -2.7713    0.0000 H   0  0  0  0  0  0  0  0  0  0  0  0
  1  2  1  0  0  0  0
  1  3  1  0  0  0  0
  1  4  1  0  0  0  0
  4  5  1  0  0  0  0
  5  6  1  0  0  0  0
  5  7  2  0  0  0  0
  7  8  1  0  0  0  0
  7  9  1  0  0  0  0
  9 10  1  0  0  0  0
 10 11  1  0  0  0  0
 10 12  1  0  0  0  0
  9 13  2  0  0  0  0
 13 14  1  0  0  0  0
 13 15  1  0  0  0  0
 15  4  2  0  0  0  0
 15 16  1  0  0  0  0
M  END
> <ChemID>
100436

> <source_casrn>
106-50-3

> <CAS>
106-50-3

> <SMILES>
Nc1ccc(N)cc1

> <NAME>
1,4-Benzenediamine

> <preferred_name>
1,4-Benzenediamine

> <iupac>
benzene-1,4-diamine

> <MPID>
100446

> <dsstox_substance_id>
DTXSID9021138

> <Canonical_QSARr>
Nc1ccc(N)cc1

> <InChI_Code_QSARr>
InChI=1S/C6H8N2/c7-5-1-2-6(8)4-3-5/h1-4H,7-8H2

> <InChI Key_QSARr>
CBCKQZAAMUWICA-UHFFFAOYSA-N

> <Salt_Solvent>
?

> <Ready_Biodeg>
0.0

$$$$
100438
  -INDIGO-08031722522D

 10 10  0  0  0  0  0  0  0  0999 V2000
    1.7814   -2.1229    0.0000 Cl  0  0  0  0  0  0  0  0  0  0  0  0
    1.5035   -0.5473    0.0000 C   0  0  0  0  0  0  0  0  0  0  0  0
    3.0070   -1.0945    0.0000 H   0  0  0  0  0  0  0  0  0  0  0  0
    2.7292    0.4812    0.0000 H   0  0  0  0  0  0  0  0  0  0  0  0
    0.0000    0.0000    0.0000 C   0  0  0  0  0  0  0  0  0  0  0  0
    0.2779    1.5757    0.0000 H   0  0  0  0  0  0  0  0  0  0  0  0
   -1.6000    0.0000    0.0000 C   0  0  0  0  0  0  0  0  0  0  0  0
   -1.8779    1.5757    0.0000 H   0  0  0  0  0  0  0  0  0  0  0  0
   -3.1035   -0.5473    0.0000 H   0  0  0  0  0  0  0  0  0  0  0  0
   -0.8000   -1.3856    0.0000 O   0  0  0  0  0  0  0  0  0  0  0  0
  1  2  1  0  0  0  0
  2  3  1  0  0  0  0
  2  4  1  0  0  0  0
  2  5  1  0  0  0  0
  5  6  1  0  0  0  0
  5  7  1  0  0  0  0
  7  8  1  0  0  0  0
  7  9  1  0  0  0  0
  7 10  1  0  0  0  0
 10  5  1  0  0  0  0
M  END
> <ChemID>
100438

> <source_casrn>
106-89-8

> <CAS>
106-89-8

> <SMILES>
ClCC1CO1

> <NAME>
Oxirane, (chloromethyl)-

> <preferred_name>
Epichlorohydrin

> <iupac>
C3H5ClO

> <MPID>
100448

> <dsstox_substance_id>
DTXSID1020566

> <Canonical_QSARr>
ClCC1CO1

> <InChI_Code_QSARr>
InChI=1S/C3H5ClO/c4-1-3-2-5-3/h3H,1-2H2

> <InChI Key_QSARr>
BRLQWZUYTZBJKN-UHFFFAOYSA-N

> <Salt_Solvent>
?

> <Ready_Biodeg>
0.0

$$$$
100439
  -INDIGO-08031722522D

 20 20  0  0  0  0  0  0  0  0999 V2000
    1.5036   -0.5472    0.0000 C   0  0  0  0  0  0  0  0  0  0  0  0
    2.3633   -1.8967    0.0000 H   0  0  0  0  0  0  0  0  0  0  0  0
    1.1572   -2.1093    0.0000 H   0  0  0  0  0  0  0  0  0  0  0  0
    2.7292    0.4813    0.0000 O   0  0  0  0  0  0  0  0  0  0  0  0
    4.2327   -0.0660    0.0000 C   0  0  0  0  0  0  0  0  0  0  0  0
    4.5106   -1.6417    0.0000 O   0  0  0  0  0  0  0  0  0  0  0  0
    5.4584    0.9625    0.0000 C   0  0  0  0  0  0  0  0  0  0  0  0
    6.9619    0.4153    0.0000 C   0  0  0  0  0  0  0  0  0  0  0  0
    8.4654   -0.1320    0.0000 H   0  0  0  0  0  0  0  0  0  0  0  0
    8.1875    1.4437    0.0000 H   0  0  0  0  0  0  0  0  0  0  0  0
    7.2397   -1.1605    0.0000 H   0  0  0  0  0  0  0  0  0  0  0  0
    5.1805    2.5381    0.0000 C   0  0  0  0  0  0  0  0  0  0  0  0
    6.4062    3.5666    0.0000 H   0  0  0  0  0  0  0  0  0  0  0  0
    3.6770    3.0854    0.0000 H   0  0  0  0  0  0  0  0  0  0  0  0
    0.0001   -0.0000    0.0000 C   0  0  0  0  0  0  0  0  0  0  0  0
    0.2779    1.5757    0.0000 H   0  0  0  0  0  0  0  0  0  0  0  0
   -1.6000   -0.0000    0.0000 C   0  0  0  0  0  0  0  0  0  0  0  0
   -1.8779    1.5757    0.0000 H   0  0  0  0  0  0  0  0  0  0  0  0
   -3.1035   -0.5472    0.0000 H   0  0  0  0  0  0  0  0  0  0  0  0
   -0.8000   -1.3856    0.0000 O   0  0  0  0  0  0  0  0  0  0  0  0
  1  2  1  0  0  0  0
  1  3  1  0  0  0  0
  1  4  1  0  0  0  0
  4  5  1  0  0  0  0
  5  6  2  0  0  0  0
  5  7  1  0  0  0  0
  7  8  1  0  0  0  0
  8  9  1  0  0  0  0
  8 10  1  0  0  0  0
  8 11  1  0  0  0  0
  7 12  2  0  0  0  0
 12 13  1  0  0  0  0
 12 14  1  0  0  0  0
  1 15  1  0  0  0  0
 15 16  1  0  0  0  0
 15 17  1  0  0  0  0
 17 18  1  0  0  0  0
 17 19  1  0  0  0  0
 17 20  1  0  0  0  0
 20 15  1  0  0  0  0
M  END
> <ChemID>
100439

> <source_casrn>
106-91-2

> <CAS>
106-91-2

> <SMILES>
O=C(OCC(O1)C1)C(=C)C

> <NAME>
2-Propenoic acid, 2-methyl-, oxiranylmethyl ester

> <preferred_name>
Glycidyl methacrylate

> <iupac>
oxiran-2-ylmethyl 2-methylprop-2-enoate

> <MPID>
100449

> <dsstox_substance_id>
DTXSID0025361

> <Canonical_QSARr>
CC(=C)C(=O)OCC1CO1

> <InChI_Code_QSARr>
InChI=1S/C7H10O3/c1-5(2)7(8)10-4-6-3-9-6/h6H,1,3-4H2,2H3

> <InChI Key_QSARr>
VOZRXNHHFUQHIL-UHFFFAOYSA-N

> <Salt_Solvent>
?

> <Ready_Biodeg>
1.0

$$$$
100440
  -INDIGO-08031722522D

  8  7  0  0  0  0  0  0  0  0999 V2000
    0.8000    1.3856    0.0000 Br  0  0  0  0  0  0  0  0  0  0  0  0
    0.0000    0.0000    0.0000 C   0  0  0  0  0  0  0  0  0  0  0  0
    1.6000   -0.0000    0.0000 H   0  0  0  0  0  0  0  0  0  0  0  0
    0.8000   -1.3856    0.0000 H   0  0  0  0  0  0  0  0  0  0  0  0
   -1.6000    0.0000    0.0000 C   0  0  0  0  0  0  0  0  0  0  0  0
   -3.2000    0.0000    0.0000 H   0  0  0  0  0  0  0  0  0  0  0  0
   -2.4000   -1.3856    0.0000 H   0  0  0  0  0  0  0  0  0  0  0  0
   -2.4000    1.3856    0.0000 Br  0  0  0  0  0  0  0  0  0  0  0  0
  1  2  1  0  0  0  0
  2  3  1  0  0  0  0
  2  4  1  0  0  0  0
  2  5  1  0  0  0  0
  5  6  1  0  0  0  0
  5  7  1  0  0  0  0
  5  8  1  0  0  0  0
M  END
> <ChemID>
100440

> <source_casrn>
106-93-4

> <CAS>
106-93-4

> <SMILES>
BrCCBr

> <NAME>
Ethane, 1,2-dibromo-

> <preferred_name>
1,2-Dibromoethane

> <iupac>
1,2-dibromoethane

> <MPID>
100450

> <dsstox_substance_id>
DTXSID3020415

> <Canonical_QSARr>
BrCCBr

> <InChI_Code_QSARr>
InChI=1S/C2H4Br2/c3-1-2-4/h1-2H2

> <InChI Key_QSARr>
PAAZPARNPHGIKF-UHFFFAOYSA-N

> <Salt_Solvent>
?

> <Ready_Biodeg>
0.0

$$$$
100442
  -INDIGO-08031722522D

  8  7  0  0  0  0  0  0  0  0999 V2000
    1.3856    0.8000    0.0000 C   0  0  0  0  0  0  0  0  0  0  0  0
    2.7713    0.0000    0.0000 H   0  0  0  0  0  0  0  0  0  0  0  0
    1.3856    2.4000    0.0000 H   0  0  0  0  0  0  0  0  0  0  0  0
    0.0000    0.0000    0.0000 C   0  0  0  0  0  0  0  0  0  0  0  0
    0.0000   -1.6000    0.0000 H   0  0  0  0  0  0  0  0  0  0  0  0
   -1.3856    0.8000    0.0000 C   0  0  0  0  0  0  0  0  0  0  0  0
   -2.7713    0.0000    0.0000 H   0  0  0  0  0  0  0  0  0  0  0  0
   -1.3856    2.4000    0.0000 O   0  0  0  0  0  0  0  0  0  0  0  0
  1  2  1  0  0  0  0
  1  3  1  0  0  0  0
  1  4  2  0  0  0  0
  4  5  1  0  0  0  0
  4  6  1  0  0  0  0
  6  7  1  0  0  0  0
  6  8  2  0  0  0  0
M  END
> <ChemID>
100442

> <source_casrn>
107-02-8

> <CAS>
107-02-8

> <SMILES>
C=CC=O

> <NAME>
Acrolein

> <preferred_name>
Acrolein

> <iupac>
prop-2-enal

> <MPID>
100452

> <dsstox_substance_id>
DTXSID5020023

> <Canonical_QSARr>
C=CC=O

> <InChI_Code_QSARr>
InChI=1S/C3H4O/c1-2-3-4/h2-3H,1H2

> <InChI Key_QSARr>
HGINCPLSRVDWNT-UHFFFAOYSA-N

> <Salt_Solvent>
?

> <Ready_Biodeg>
0.0

$$$$
100443
  -INDIGO-08031722522D

  9  8  0  0  0  0  0  0  0  0999 V2000
    2.7713    0.0000    0.0000 C   0  0  0  0  0  0  0  0  0  0  0  0
    4.1569   -0.8000    0.0000 H   0  0  0  0  0  0  0  0  0  0  0  0
    2.7713    1.6000    0.0000 H   0  0  0  0  0  0  0  0  0  0  0  0
    1.3857   -0.8000    0.0000 C   0  0  0  0  0  0  0  0  0  0  0  0
    1.3857   -2.4000    0.0000 H   0  0  0  0  0  0  0  0  0  0  0  0
    0.0000    0.0000    0.0000 C   0  0  0  0  0  0  0  0  0  0  0  0
   -1.3856    0.8000    0.0000 H   0  0  0  0  0  0  0  0  0  0  0  0
    0.0000    1.6000    0.0000 H   0  0  0  0  0  0  0  0  0  0  0  0
   -1.3856   -0.8000    0.0000 Cl  0  0  0  0  0  0  0  0  0  0  0  0
  1  2  1  0  0  0  0
  1  3  1  0  0  0  0
  1  4  2  0  0  0  0
  4  5  1  0  0  0  0
  4  6  1  0  0  0  0
  6  7  1  0  0  0  0
  6  8  1  0  0  0  0
  6  9  1  0  0  0  0
M  END
> <ChemID>
100443

> <source_casrn>
107-05-1

> <CAS>
107-05-1

> <SMILES>
C=CCCl

> <NAME>
1-Propene, 3-chloro-

> <preferred_name>
Allyl chloride

> <iupac>
3-chloroprop-1-ene

> <MPID>
100453

> <dsstox_substance_id>
DTXSID4039231

> <Canonical_QSARr>
C=CCCl

> <InChI_Code_QSARr>
InChI=1S/C3H5Cl/c1-2-3-4/h2H,1,3H2

> <InChI Key_QSARr>
OSDWBNJEKMUWAV-UHFFFAOYSA-N

> <Salt_Solvent>
?

> <Ready_Biodeg>
1.0

$$$$
100444
  -INDIGO-08031722522D

  8  7  0  0  0  0  0  0  0  0999 V2000
    0.8000    1.3856    0.0000 Cl  0  0  0  0  0  0  0  0  0  0  0  0
    0.0000    0.0000    0.0000 C   0  0  0  0  0  0  0  0  0  0  0  0
    1.6000   -0.0000    0.0000 H   0  0  0  0  0  0  0  0  0  0  0  0
    0.8000   -1.3856    0.0000 H   0  0  0  0  0  0  0  0  0  0  0  0
   -1.6000    0.0000    0.0000 C   0  0  0  0  0  0  0  0  0  0  0  0
   -3.2000    0.0000    0.0000 H   0  0  0  0  0  0  0  0  0  0  0  0
   -2.4000   -1.3856    0.0000 H   0  0  0  0  0  0  0  0  0  0  0  0
   -2.4000    1.3856    0.0000 Cl  0  0  0  0  0  0  0  0  0  0  0  0
  1  2  1  0  0  0  0
  2  3  1  0  0  0  0
  2  4  1  0  0  0  0
  2  5  1  0  0  0  0
  5  6  1  0  0  0  0
  5  7  1  0  0  0  0
  5  8  1  0  0  0  0
M  END
> <ChemID>
100444

> <source_casrn>
107-06-2

> <CAS>
107-06-2

> <SMILES>
ClCCCl

> <NAME>
Ethane, 1,2-dichloro-

> <preferred_name>
1,2-Dichloroethane

> <iupac>
C2H4Cl2

> <MPID>
100454

> <dsstox_substance_id>
DTXSID6020438

> <Canonical_QSARr>
ClCCCl

> <InChI_Code_QSARr>
InChI=1S/C2H4Cl2/c3-1-2-4/h1-2H2

> <InChI Key_QSARr>
WSLDOOZREJYCGB-UHFFFAOYSA-N

> <Salt_Solvent>
?

> <Ready_Biodeg>
0.0

$$$$
100446
  -INDIGO-08031722522D

  7  6  0  0  0  0  0  0  0  0999 V2000
    0.0000   -1.6000    0.0000 C   0  0  0  0  0  0  0  0  0  0  0  0
    1.3856   -2.4000    0.0000 H   0  0  0  0  0  0  0  0  0  0  0  0
   -1.3856   -2.4000    0.0000 H   0  0  0  0  0  0  0  0  0  0  0  0
    0.0000    0.0000    0.0000 C   0  0  0  0  0  0  0  0  0  0  0  0
    1.3856    0.8000    0.0000 H   0  0  0  0  0  0  0  0  0  0  0  0
   -1.3856    0.8000    0.0000 C   0  0  0  0  0  0  0  0  0  0  0  0
   -2.7713    1.6000    0.0000 N   0  0  0  0  0  0  0  0  0  0  0  0
  1  2  1  0  0  0  0
  1  3  1  0  0  0  0
  1  4  2  0  0  0  0
  4  5  1  0  0  0  0
  4  6  1  0  0  0  0
  6  7  3  0  0  0  0
M  END
> <ChemID>
100446

> <source_casrn>
107-13-1

> <CAS>
107-13-1

> <SMILES>
C=CC#N

> <NAME>
2-Propenenitrile

> <preferred_name>
Acrylonitrile

> <iupac>
prop-2-enenitrile

> <MPID>
100456

> <dsstox_substance_id>
DTXSID5020029

> <Canonical_QSARr>
C=CC#N

> <InChI_Code_QSARr>
InChI=1S/C3H3N/c1-2-3-4/h2H,1H2

> <InChI Key_QSARr>
NLHHRLWOUZZQLW-UHFFFAOYSA-N

> <Salt_Solvent>
?

> <Ready_Biodeg>
1.0

$$$$
100447
  -INDIGO-08031722522D

 12 11  0  0  0  0  0  0  0  0999 V2000
    1.3856   -0.8000    0.0000 N   0  0  0  0  0  0  0  0  0  0  0  0
    2.7713    0.0000    0.0000 H   0  0  0  0  0  0  0  0  0  0  0  0
    1.3856   -2.4000    0.0000 H   0  0  0  0  0  0  0  0  0  0  0  0
    0.0000    0.0000    0.0000 C   0  0  0  0  0  0  0  0  0  0  0  0
    0.6123    1.4782    0.0000 H   0  0  0  0  0  0  0  0  0  0  0  0
   -0.6123    1.4782    0.0000 H   0  0  0  0  0  0  0  0  0  0  0  0
   -1.3856   -0.8000    0.0000 C   0  0  0  0  0  0  0  0  0  0  0  0
   -1.9980   -2.2782    0.0000 H   0  0  0  0  0  0  0  0  0  0  0  0
   -0.7733   -2.2782    0.0000 H   0  0  0  0  0  0  0  0  0  0  0  0
   -2.7713    0.0000    0.0000 N   0  0  0  0  0  0  0  0  0  0  0  0
   -4.1569   -0.8000    0.0000 H   0  0  0  0  0  0  0  0  0  0  0  0
   -2.7713    1.6000    0.0000 H   0  0  0  0  0  0  0  0  0  0  0  0
  1  2  1  0  0  0  0
  1  3  1  0  0  0  0
  1  4  1  0  0  0  0
  4  5  1  0  0  0  0
  4  6  1  0  0  0  0
  4  7  1  0  0  0  0
  7  8  1  0  0  0  0
  7  9  1  0  0  0  0
  7 10  1  0  0  0  0
 10 11  1  0  0  0  0
 10 12  1  0  0  0  0
M  END
> <ChemID>
100447

> <source_casrn>
107-15-3

> <CAS>
107-15-3

> <SMILES>
NCCN

> <NAME>
1,2-Ethanediamine

> <preferred_name>
Ethylenediamine

> <iupac>
ethane-1,2-diamine

> <MPID>
100457

> <dsstox_substance_id>
DTXSID5021881

> <Canonical_QSARr>
NCCN

> <InChI_Code_QSARr>
InChI=1S/C2H8N2/c3-1-2-4/h1-4H2

> <InChI Key_QSARr>
PIICEJLVQHRZGT-UHFFFAOYSA-N

> <Salt_Solvent>
?

> <Ready_Biodeg>
1.0

$$$$
100448
  -INDIGO-08031722522D

 10  9  0  0  0  0  0  0  0  0999 V2000
    2.7713    0.0000    0.0000 C   0  0  0  0  0  0  0  0  0  0  0  0
    4.1569    0.8000    0.0000 H   0  0  0  0  0  0  0  0  0  0  0  0
    2.7713   -1.6000    0.0000 H   0  0  0  0  0  0  0  0  0  0  0  0
    1.3856    0.8000    0.0000 C   0  0  0  0  0  0  0  0  0  0  0  0
    1.3856    2.4000    0.0000 H   0  0  0  0  0  0  0  0  0  0  0  0
    0.0000    0.0000    0.0000 C   0  0  0  0  0  0  0  0  0  0  0  0
    0.6123   -1.4782    0.0000 H   0  0  0  0  0  0  0  0  0  0  0  0
   -0.6123   -1.4782    0.0000 H   0  0  0  0  0  0  0  0  0  0  0  0
   -1.3856    0.8000    0.0000 O   0  0  0  0  0  0  0  0  0  0  0  0
   -2.7713    0.0000    0.0000 H   0  0  0  0  0  0  0  0  0  0  0  0
  1  2  1  0  0  0  0
  1  3  1  0  0  0  0
  1  4  2  0  0  0  0
  4  5  1  0  0  0  0
  4  6  1  0  0  0  0
  6  7  1  0  0  0  0
  6  8  1  0  0  0  0
  6  9  1  0  0  0  0
  9 10  1  0  0  0  0
M  END
> <ChemID>
100448

> <source_casrn>
107-18-6

> <CAS>
107-18-6

> <SMILES>
C=CCO

> <NAME>
2-Propen-1-ol

> <preferred_name>
Allyl alcohol

> <iupac>
prop-2-en-1-ol

> <MPID>
100458

> <dsstox_substance_id>
DTXSID8020044

> <Canonical_QSARr>
C=CCO

> <InChI_Code_QSARr>
InChI=1S/C3H6O/c1-2-3-4/h2,4H,1,3H2

> <InChI Key_QSARr>
XXROGKLTLUQVRX-UHFFFAOYSA-N

> <Salt_Solvent>
?

> <Ready_Biodeg>
1.0

$$$$
100450
  -INDIGO-08031722522D

 10  9  0  0  0  0  0  0  0  0999 V2000
   -0.0000    0.0000    0.0000 C   0  0  0  0  0  0  0  0  0  0  0  0
    1.2693    0.9740    0.0000 H   0  0  0  0  0  0  0  0  0  0  0  0
    0.2089    1.5863    0.0000 H   0  0  0  0  0  0  0  0  0  0  0  0
   -1.6000    0.0000    0.0000 C   0  0  0  0  0  0  0  0  0  0  0  0
   -2.8693   -0.9740    0.0000 H   0  0  0  0  0  0  0  0  0  0  0  0
   -1.8089   -1.5863    0.0000 H   0  0  0  0  0  0  0  0  0  0  0  0
   -2.4000    1.3856    0.0000 O   0  0  0  0  0  0  0  0  0  0  0  0
   -4.0000    1.3856    0.0000 H   0  0  0  0  0  0  0  0  0  0  0  0
    0.8000   -1.3856    0.0000 O   0  0  0  0  0  0  0  0  0  0  0  0
    2.4000   -1.3856    0.0000 H   0  0  0  0  0  0  0  0  0  0  0  0
  1  2  1  0  0  0  0
  1  3  1  0  0  0  0
  1  4  1  0  0  0  0
  4  5  1  0  0  0  0
  4  6  1  0  0  0  0
  4  7  1  0  0  0  0
  7  8  1  0  0  0  0
  1  9  1  0  0  0  0
  9 10  1  0  0  0  0
M  END
> <ChemID>
100450

> <source_casrn>
107-21-1

> <CAS>
107-21-1

> <SMILES>
OCCO

> <NAME>
Ethylene glycol

> <preferred_name>
Ethylene glycol

> <iupac>
C2H6O2

> <MPID>
100460

> <dsstox_substance_id>
DTXSID8020597

> <Canonical_QSARr>
OCCO

> <InChI_Code_QSARr>
InChI=1S/C2H6O2/c3-1-2-4/h3-4H,1-2H2

> <InChI Key_QSARr>
LYCAIKOWRPUZTN-UHFFFAOYSA-N

> <Salt_Solvent>
?

> <Ready_Biodeg>
1.0

$$$$
100451
  -INDIGO-08031722522D

  6  5  0  0  0  0  0  0  0  0999 V2000
   -0.8000   -1.3856    0.0000 O   0  0  0  0  0  0  0  0  0  0  0  0
    0.0000    0.0000    0.0000 C   0  0  0  0  0  0  0  0  0  0  0  0
   -0.8000    1.3856    0.0000 H   0  0  0  0  0  0  0  0  0  0  0  0
    1.6000    0.0000    0.0000 C   0  0  0  0  0  0  0  0  0  0  0  0
    2.4000    1.3856    0.0000 H   0  0  0  0  0  0  0  0  0  0  0  0
    2.4000   -1.3856    0.0000 O   0  0  0  0  0  0  0  0  0  0  0  0
  1  2  2  0  0  0  0
  2  3  1  0  0  0  0
  2  4  1  0  0  0  0
  4  5  1  0  0  0  0
  4  6  2  0  0  0  0
M  END
> <ChemID>
100451

> <source_casrn>
107-22-2

> <CAS>
107-22-2

> <SMILES>
O=CC=O

> <NAME>
Ethanedial

> <preferred_name>
Glyoxal

> <iupac>
ethanedial

> <MPID>
100461

> <dsstox_substance_id>
DTXSID5025364

> <Canonical_QSARr>
O=CC=O

> <InChI_Code_QSARr>
InChI=1S/C2H2O2/c3-1-2-4/h1-2H

> <InChI Key_QSARr>
LEQAOMBKQFMDFZ-UHFFFAOYSA-N

> <Salt_Solvent>
?

> <Ready_Biodeg>
1.0

$$$$
100452
  -INDIGO-08031722522D

  9  8  0  0  0  0  0  0  0  0999 V2000
   -1.3856   -0.8000    0.0000 Cl  0  0  0  0  0  0  0  0  0  0  0  0
    0.0000    0.0000    0.0000 C   0  0  0  0  0  0  0  0  0  0  0  0
   -1.3856    0.8000    0.0000 H   0  0  0  0  0  0  0  0  0  0  0  0
    0.0000    1.6000    0.0000 H   0  0  0  0  0  0  0  0  0  0  0  0
    1.3856   -0.8000    0.0000 O   0  0  0  0  0  0  0  0  0  0  0  0
    2.7713    0.0000    0.0000 C   0  0  0  0  0  0  0  0  0  0  0  0
    4.1569    0.8000    0.0000 H   0  0  0  0  0  0  0  0  0  0  0  0
    4.1569   -0.8000    0.0000 H   0  0  0  0  0  0  0  0  0  0  0  0
    2.7713    1.6000    0.0000 H   0  0  0  0  0  0  0  0  0  0  0  0
  1  2  1  0  0  0  0
  2  3  1  0  0  0  0
  2  4  1  0  0  0  0
  2  5  1  0  0  0  0
  5  6  1  0  0  0  0
  6  7  1  0  0  0  0
  6  8  1  0  0  0  0
  6  9  1  0  0  0  0
M  END
> <ChemID>
100452

> <source_casrn>
107-30-2

> <CAS>
107-30-2

> <SMILES>
COCCl

> <NAME>
Methane, chloromethoxy-

> <preferred_name>
Chloromethyl methyl ether

> <iupac>
chloro(methoxy)methane

> <MPID>
100462

> <dsstox_substance_id>
DTXSID6020307

> <Canonical_QSARr>
COCCl

> <InChI_Code_QSARr>
InChI=1S/C2H5ClO/c1-4-2-3/h2H2,1H3

> <InChI Key_QSARr>
XJUZRXYOEPSWMB-UHFFFAOYSA-N

> <Salt_Solvent>
?

> <Ready_Biodeg>
1.0

$$$$
100454
  -INDIGO-08031722522D

 14 13  0  0  0  0  0  0  0  0999 V2000
    4.1569    0.8000    0.0000 O   0  0  0  0  0  0  0  0  0  0  0  0
    5.5426    0.0000    0.0000 H   0  0  0  0  0  0  0  0  0  0  0  0
    2.7713    0.0000    0.0000 C   0  0  0  0  0  0  0  0  0  0  0  0
    1.3857    0.8000    0.0000 C   0  0  0  0  0  0  0  0  0  0  0  0
    0.7733    2.2782    0.0000 H   0  0  0  0  0  0  0  0  0  0  0  0
    1.9979    2.2782    0.0000 H   0  0  0  0  0  0  0  0  0  0  0  0
    0.0000    0.0000    0.0000 C   0  0  0  0  0  0  0  0  0  0  0  0
    0.6122   -1.4782    0.0000 H   0  0  0  0  0  0  0  0  0  0  0  0
   -0.6122   -1.4782    0.0000 H   0  0  0  0  0  0  0  0  0  0  0  0
   -1.3856    0.8000    0.0000 C   0  0  0  0  0  0  0  0  0  0  0  0
   -2.7713    1.6000    0.0000 H   0  0  0  0  0  0  0  0  0  0  0  0
   -2.7713    0.0000    0.0000 H   0  0  0  0  0  0  0  0  0  0  0  0
   -1.3856    2.4000    0.0000 H   0  0  0  0  0  0  0  0  0  0  0  0
    2.7713   -1.6000    0.0000 O   0  0  0  0  0  0  0  0  0  0  0  0
  1  2  1  0  0  0  0
  1  3  1  0  0  0  0
  3  4  1  0  0  0  0
  4  5  1  0  0  0  0
  4  6  1  0  0  0  0
  4  7  1  0  0  0  0
  7  8  1  0  0  0  0
  7  9  1  0  0  0  0
  7 10  1  0  0  0  0
 10 11  1  0  0  0  0
 10 12  1  0  0  0  0
 10 13  1  0  0  0  0
  3 14  2  0  0  0  0
M  END
> <ChemID>
100454

> <source_casrn>
107-92-6

> <CAS>
107-92-6

> <SMILES>
CCCC(O)=O

> <NAME>
Butyric acid

> <preferred_name>
Butanoic acid

> <iupac>
butanoic acid

> <MPID>
100464

> <dsstox_substance_id>
DTXSID8021515

> <Canonical_QSARr>
CCCC(O)=O

> <InChI_Code_QSARr>
InChI=1S/C4H8O2/c1-2-3-4(5)6/h2-3H2,1H3,(H,5,6)

> <InChI Key_QSARr>
FERIUCNNQQJTOY-UHFFFAOYSA-N

> <Salt_Solvent>
?

> <Ready_Biodeg>
1.0

$$$$
100455
  -INDIGO-08031722522D

 16 15  0  0  0  0  0  0  0  0999 V2000
    0.8000    1.3857    0.0000 O   0  0  0  0  0  0  0  0  0  0  0  0
    2.4000    1.3857    0.0000 H   0  0  0  0  0  0  0  0  0  0  0  0
    0.0000    0.0000    0.0000 C   0  0  0  0  0  0  0  0  0  0  0  0
   -0.8000   -1.3857    0.0000 H   0  0  0  0  0  0  0  0  0  0  0  0
   -1.3856    0.8000    0.0000 C   0  0  0  0  0  0  0  0  0  0  0  0
   -0.7733    2.2782    0.0000 H   0  0  0  0  0  0  0  0  0  0  0  0
   -1.9979    2.2782    0.0000 H   0  0  0  0  0  0  0  0  0  0  0  0
   -2.7713    0.0000    0.0000 O   0  0  0  0  0  0  0  0  0  0  0  0
   -4.1569    0.8000    0.0000 C   0  0  0  0  0  0  0  0  0  0  0  0
   -5.5426    1.6000    0.0000 H   0  0  0  0  0  0  0  0  0  0  0  0
   -5.5426    0.0000    0.0000 H   0  0  0  0  0  0  0  0  0  0  0  0
   -4.1569    2.4000    0.0000 H   0  0  0  0  0  0  0  0  0  0  0  0
    1.3857   -0.8000    0.0000 C   0  0  0  0  0  0  0  0  0  0  0  0
    2.7713   -1.6000    0.0000 H   0  0  0  0  0  0  0  0  0  0  0  0
    2.7713    0.0000    0.0000 H   0  0  0  0  0  0  0  0  0  0  0  0
    1.3857   -2.4000    0.0000 H   0  0  0  0  0  0  0  0  0  0  0  0
  1  2  1  0  0  0  0
  1  3  1  0  0  0  0
  3  4  1  0  0  0  0
  3  5  1  0  0  0  0
  5  6  1  0  0  0  0
  5  7  1  0  0  0  0
  5  8  1  0  0  0  0
  8  9  1  0  0  0  0
  9 10  1  0  0  0  0
  9 11  1  0  0  0  0
  9 12  1  0  0  0  0
  3 13  1  0  0  0  0
 13 14  1  0  0  0  0
 13 15  1  0  0  0  0
 13 16  1  0  0  0  0
M  END
> <ChemID>
100455

> <source_casrn>
107-98-2

> <CAS>
107-98-2

> <SMILES>
COCC(C)O

> <NAME>
2-Propanol, 1-methoxy-

> <preferred_name>
1-Methoxy-2-propanol

> <iupac>
1-methoxypropan-2-ol

> <MPID>
100465

> <dsstox_substance_id>
DTXSID8024284

> <Canonical_QSARr>
COCC(C)O

> <InChI_Code_QSARr>
InChI=1S/C4H10O2/c1-4(5)3-6-2/h4-5H,3H2,1-2H3

> <InChI Key_QSARr>
ARXJGSRGQADJSQ-UHFFFAOYSA-N

> <Salt_Solvent>
?

> <Ready_Biodeg>
1.0

$$$$
100456
  -INDIGO-08031722522D

 17 16  0  0  0  0  0  0  0  0999 V2000
    1.3856    2.4000    0.0000 C   0  0  0  0  0  0  0  0  0  0  0  0
    1.3856    4.0000    0.0000 H   0  0  0  0  0  0  0  0  0  0  0  0
    2.7713    3.2000    0.0000 H   0  0  0  0  0  0  0  0  0  0  0  0
    0.0001    3.2000    0.0000 H   0  0  0  0  0  0  0  0  0  0  0  0
    1.3856    0.8000    0.0000 N   0  0  0  0  0  0  0  0  0  0  0  0
    0.0001   -0.0000    0.0000 C   0  0  0  0  0  0  0  0  0  0  0  0
    0.6123   -1.4782    0.0000 H   0  0  0  0  0  0  0  0  0  0  0  0
   -0.6123   -1.4782    0.0000 H   0  0  0  0  0  0  0  0  0  0  0  0
   -1.3856    0.8000    0.0000 C   0  0  0  0  0  0  0  0  0  0  0  0
   -1.9979    2.2782    0.0000 H   0  0  0  0  0  0  0  0  0  0  0  0
   -0.7734    2.2782    0.0000 H   0  0  0  0  0  0  0  0  0  0  0  0
   -2.7713   -0.0000    0.0000 O   0  0  0  0  0  0  0  0  0  0  0  0
   -4.1569    0.8000    0.0000 H   0  0  0  0  0  0  0  0  0  0  0  0
    2.7713   -0.0000    0.0000 C   0  0  0  0  0  0  0  0  0  0  0  0
    4.1569   -0.8000    0.0000 H   0  0  0  0  0  0  0  0  0  0  0  0
    4.1569    0.8000    0.0000 H   0  0  0  0  0  0  0  0  0  0  0  0
    2.7713   -1.6000    0.0000 H   0  0  0  0  0  0  0  0  0  0  0  0
  1  2  1  0  0  0  0
  1  3  1  0  0  0  0
  1  4  1  0  0  0  0
  1  5  1  0  0  0  0
  5  6  1  0  0  0  0
  6  7  1  0  0  0  0
  6  8  1  0  0  0  0
  6  9  1  0  0  0  0
  9 10  1  0  0  0  0
  9 11  1  0  0  0  0
  9 12  1  0  0  0  0
 12 13  1  0  0  0  0
  5 14  1  0  0  0  0
 14 15  1  0  0  0  0
 14 16  1  0  0  0  0
 14 17  1  0  0  0  0
M  END
> <ChemID>
100456

> <source_casrn>
108-01-0

> <CAS>
108-01-0

> <SMILES>
CN(C)CCO

> <NAME>
Ethanol, 2-(dimethylamino)-

> <preferred_name>
Dimethylaminoethanol

> <iupac>
2-(dimethylamino)ethanol

> <MPID>
100466

> <dsstox_substance_id>
DTXSID2020505

> <Canonical_QSARr>
CN(C)CCO

> <InChI_Code_QSARr>
InChI=1S/C4H11NO/c1-5(2)3-4-6/h6H,3-4H2,1-2H3

> <InChI Key_QSARr>
UEEJHVSXFDXPFK-UHFFFAOYSA-N

> <Salt_Solvent>
?

> <Ready_Biodeg>
1.0

$$$$
100458
  -INDIGO-08031722522D

 19 18  0  0  0  0  0  0  0  0999 V2000
    4.2327    0.0660    0.0000 C   0  0  0  0  0  0  0  0  0  0  0  0
    5.7362    0.6132    0.0000 H   0  0  0  0  0  0  0  0  0  0  0  0
    5.4584   -0.9624    0.0000 H   0  0  0  0  0  0  0  0  0  0  0  0
    4.5105    1.6417    0.0000 H   0  0  0  0  0  0  0  0  0  0  0  0
    2.7291   -0.4813    0.0000 C   0  0  0  0  0  0  0  0  0  0  0  0
    2.4513   -2.0569    0.0000 O   0  0  0  0  0  0  0  0  0  0  0  0
    1.5036    0.5472    0.0000 C   0  0  0  0  0  0  0  0  0  0  0  0
    1.1572    2.1093    0.0000 H   0  0  0  0  0  0  0  0  0  0  0  0
    2.3632    1.8967    0.0000 H   0  0  0  0  0  0  0  0  0  0  0  0
    0.0000    0.0000    0.0000 C   0  0  0  0  0  0  0  0  0  0  0  0
    0.8000   -1.3856    0.0000 H   0  0  0  0  0  0  0  0  0  0  0  0
   -1.3856   -0.8000    0.0000 C   0  0  0  0  0  0  0  0  0  0  0  0
   -2.7713   -1.6000    0.0000 H   0  0  0  0  0  0  0  0  0  0  0  0
   -1.3856   -2.4000    0.0000 H   0  0  0  0  0  0  0  0  0  0  0  0
   -2.7713    0.0000    0.0000 H   0  0  0  0  0  0  0  0  0  0  0  0
   -0.8000    1.3856    0.0000 C   0  0  0  0  0  0  0  0  0  0  0  0
   -1.6000    2.7713    0.0000 H   0  0  0  0  0  0  0  0  0  0  0  0
    0.0000    2.7713    0.0000 H   0  0  0  0  0  0  0  0  0  0  0  0
   -2.4000    1.3856    0.0000 H   0  0  0  0  0  0  0  0  0  0  0  0
  1  2  1  0  0  0  0
  1  3  1  0  0  0  0
  1  4  1  0  0  0  0
  1  5  1  0  0  0  0
  5  6  2  0  0  0  0
  5  7  1  0  0  0  0
  7  8  1  0  0  0  0
  7  9  1  0  0  0  0
  7 10  1  0  0  0  0
 10 11  1  0  0  0  0
 10 12  1  0  0  0  0
 12 13  1  0  0  0  0
 12 14  1  0  0  0  0
 12 15  1  0  0  0  0
 10 16  1  0  0  0  0
 16 17  1  0  0  0  0
 16 18  1  0  0  0  0
 16 19  1  0  0  0  0
M  END
> <ChemID>
100458

> <source_casrn>
108-10-1

> <CAS>
108-10-1

> <SMILES>
CC(C)CC(C)=O

> <NAME>
2-Pentanone, 4-methyl-

> <preferred_name>
4-Methyl-2-pentanone

> <iupac>
4-methylpentan-2-one

> <MPID>
100468

> <dsstox_substance_id>
DTXSID5021889

> <Canonical_QSARr>
CC(C)CC(C)=O

> <InChI_Code_QSARr>
InChI=1S/C6H12O/c1-5(2)4-6(3)7/h5H,4H2,1-3H3

> <InChI Key_QSARr>
NTIZESTWPVYFNL-UHFFFAOYSA-N

> <Salt_Solvent>
?

> <Ready_Biodeg>
1.0

$$$$
100459
  -INDIGO-08031722522D

 21 20  0  0  0  0  0  0  0  0999 V2000
    4.2748   -1.0527    0.0000 C   0  0  0  0  0  0  0  0  0  0  0  0
    5.6604   -1.8528    0.0000 H   0  0  0  0  0  0  0  0  0  0  0  0
    5.6604   -0.2527    0.0000 H   0  0  0  0  0  0  0  0  0  0  0  0
    4.2748   -2.6528    0.0000 H   0  0  0  0  0  0  0  0  0  0  0  0
    2.8891   -0.2527    0.0000 C   0  0  0  0  0  0  0  0  0  0  0  0
    2.0891   -1.6384    0.0000 H   0  0  0  0  0  0  0  0  0  0  0  0
    1.5036    0.5472    0.0000 C   0  0  0  0  0  0  0  0  0  0  0  0
    1.1572    2.1093    0.0000 H   0  0  0  0  0  0  0  0  0  0  0  0
    2.3631    1.8967    0.0000 H   0  0  0  0  0  0  0  0  0  0  0  0
    0.0000    0.0000    0.0000 C   0  0  0  0  0  0  0  0  0  0  0  0
    0.8001   -1.3856    0.0000 H   0  0  0  0  0  0  0  0  0  0  0  0
   -1.3856   -0.8000    0.0000 C   0  0  0  0  0  0  0  0  0  0  0  0
   -2.7713   -1.6000    0.0000 H   0  0  0  0  0  0  0  0  0  0  0  0
   -2.7713    0.0000    0.0000 H   0  0  0  0  0  0  0  0  0  0  0  0
   -1.3856   -2.4000    0.0000 H   0  0  0  0  0  0  0  0  0  0  0  0
   -0.8000    1.3856    0.0000 C   0  0  0  0  0  0  0  0  0  0  0  0
   -1.6000    2.7713    0.0000 H   0  0  0  0  0  0  0  0  0  0  0  0
    0.0000    2.7713    0.0000 H   0  0  0  0  0  0  0  0  0  0  0  0
   -2.4000    1.3856    0.0000 H   0  0  0  0  0  0  0  0  0  0  0  0
    3.6891    1.1329    0.0000 O   0  0  0  0  0  0  0  0  0  0  0  0
    5.2891    1.1329    0.0000 H   0  0  0  0  0  0  0  0  0  0  0  0
  1  2  1  0  0  0  0
  1  3  1  0  0  0  0
  1  4  1  0  0  0  0
  1  5  1  0  0  0  0
  5  6  1  0  0  0  0
  5  7  1  0  0  0  0
  7  8  1  0  0  0  0
  7  9  1  0  0  0  0
  7 10  1  0  0  0  0
 10 11  1  0  0  0  0
 10 12  1  0  0  0  0
 12 13  1  0  0  0  0
 12 14  1  0  0  0  0
 12 15  1  0  0  0  0
 10 16  1  0  0  0  0
 16 17  1  0  0  0  0
 16 18  1  0  0  0  0
 16 19  1  0  0  0  0
  5 20  1  0  0  0  0
 20 21  1  0  0  0  0
M  END
> <ChemID>
100459

> <source_casrn>
108-11-2

> <CAS>
108-11-2

> <SMILES>
CC(C)CC(C)O

> <NAME>
4-METHYL-2-PENTANOL

> <preferred_name>
4-Methyl-2-pentanol

> <iupac>
4-methylpentan-2-ol

> <MPID>
100469

> <dsstox_substance_id>
DTXSID2026781

> <Canonical_QSARr>
CC(C)CC(C)O

> <InChI_Code_QSARr>
InChI=1S/C6H14O/c1-5(2)4-6(3)7/h5-7H,4H2,1-3H3

> <InChI Key_QSARr>
WVYWICLMDOOCFB-UHFFFAOYSA-N

> <Salt_Solvent>
?

> <Ready_Biodeg>
1.0

$$$$
100460
  -INDIGO-08031722522D

 21 20  0  0  0  0  0  0  0  0999 V2000
    0.8000    1.3856    0.0000 C   0  0  0  0  0  0  0  0  0  0  0  0
    1.6000    2.7713    0.0000 H   0  0  0  0  0  0  0  0  0  0  0  0
    0.0000    2.7713    0.0000 H   0  0  0  0  0  0  0  0  0  0  0  0
    2.4000    1.3856    0.0000 H   0  0  0  0  0  0  0  0  0  0  0  0
    0.0000    0.0000    0.0000 C   0  0  0  0  0  0  0  0  0  0  0  0
   -0.8000   -1.3856    0.0000 H   0  0  0  0  0  0  0  0  0  0  0  0
    1.3857   -0.8000    0.0000 C   0  0  0  0  0  0  0  0  0  0  0  0
    2.7713   -1.6000    0.0000 H   0  0  0  0  0  0  0  0  0  0  0  0
    2.7713    0.0000    0.0000 H   0  0  0  0  0  0  0  0  0  0  0  0
    1.3857   -2.4000    0.0000 H   0  0  0  0  0  0  0  0  0  0  0  0
   -1.3856    0.8000    0.0000 O   0  0  0  0  0  0  0  0  0  0  0  0
   -2.7713    0.0000    0.0000 C   0  0  0  0  0  0  0  0  0  0  0  0
   -1.9713   -1.3856    0.0000 H   0  0  0  0  0  0  0  0  0  0  0  0
   -4.1569   -0.8000    0.0000 C   0  0  0  0  0  0  0  0  0  0  0  0
   -5.5426   -1.6000    0.0000 H   0  0  0  0  0  0  0  0  0  0  0  0
   -5.5426    0.0000    0.0000 H   0  0  0  0  0  0  0  0  0  0  0  0
   -4.1569   -2.4000    0.0000 H   0  0  0  0  0  0  0  0  0  0  0  0
   -3.5713    1.3856    0.0000 C   0  0  0  0  0  0  0  0  0  0  0  0
   -4.3713    2.7713    0.0000 H   0  0  0  0  0  0  0  0  0  0  0  0
   -2.7713    2.7713    0.0000 H   0  0  0  0  0  0  0  0  0  0  0  0
   -5.1712    1.3856    0.0000 H   0  0  0  0  0  0  0  0  0  0  0  0
  1  2  1  0  0  0  0
  1  3  1  0  0  0  0
  1  4  1  0  0  0  0
  1  5  1  0  0  0  0
  5  6  1  0  0  0  0
  5  7  1  0  0  0  0
  7  8  1  0  0  0  0
  7  9  1  0  0  0  0
  7 10  1  0  0  0  0
  5 11  1  0  0  0  0
 11 12  1  0  0  0  0
 12 13  1  0  0  0  0
 12 14  1  0  0  0  0
 14 15  1  0  0  0  0
 14 16  1  0  0  0  0
 14 17  1  0  0  0  0
 12 18  1  0  0  0  0
 18 19  1  0  0  0  0
 18 20  1  0  0  0  0
 18 21  1  0  0  0  0
M  END
> <ChemID>
100460

> <source_casrn>
108-20-3

> <CAS>
108-20-3

> <SMILES>
CC(C)OC(C)C

> <NAME>
DIISOPROPYL ETHER

> <preferred_name>
Isopropyl ether

> <iupac>
dipropan-2-yl ether

> <MPID>
100470

> <dsstox_substance_id>
DTXSID4021890

> <Canonical_QSARr>
CC(C)OC(C)C

> <InChI_Code_QSARr>
InChI=1S/C6H14O/c1-5(2)7-6(3)4/h5-6H,1-4H3

> <InChI Key_QSARr>
ZAFNJMIOTHYJRJ-UHFFFAOYSA-N

> <Salt_Solvent>
?

> <Ready_Biodeg>
0.0

$$$$
100462
  -INDIGO-08031722522D

  9  9  0  0  0  0  0  0  0  0999 V2000
    1.0530    2.3650    0.0000 O   0  0  0  0  0  0  0  0  0  0  0  0
    2.2420    1.2944    0.0000 C   0  0  0  0  0  0  0  0  0  0  0  0
    3.8070    1.6271    0.0000 O   0  0  0  0  0  0  0  0  0  0  0  0
    1.5912   -0.1672    0.0000 C   0  0  0  0  0  0  0  0  0  0  0  0
    2.3912   -1.5529    0.0000 H   0  0  0  0  0  0  0  0  0  0  0  0
   -0.0000    0.0000    0.0000 C   0  0  0  0  0  0  0  0  0  0  0  0
   -1.0706   -1.1890    0.0000 H   0  0  0  0  0  0  0  0  0  0  0  0
   -0.3327    1.5650    0.0000 C   0  0  0  0  0  0  0  0  0  0  0  0
   -1.7943    2.2158    0.0000 O   0  0  0  0  0  0  0  0  0  0  0  0
  1  2  1  0  0  0  0
  2  3  2  0  0  0  0
  2  4  1  0  0  0  0
  4  5  1  0  0  0  0
  4  6  2  0  0  0  0
  6  7  1  0  0  0  0
  6  8  1  0  0  0  0
  8  1  1  0  0  0  0
  8  9  2  0  0  0  0
M  END
> <ChemID>
100462

> <source_casrn>
108-31-6

> <CAS>
108-31-6

> <SMILES>
O=C1C=CC(=O)O1

> <NAME>
2,5-Furandione

> <preferred_name>
2,5-Furandione

> <iupac>
furan-2,5-dione

> <MPID>
100472

> <dsstox_substance_id>
DTXSID7024166

> <Canonical_QSARr>
O=C1C=CC(=O)O1

> <InChI_Code_QSARr>
InChI=1S/C4H2O3/c5-3-1-2-4(6)7-3/h1-2H

> <InChI Key_QSARr>
FPYJFEHAWHCUMM-UHFFFAOYSA-N

> <Salt_Solvent>
?

> <Ready_Biodeg>
1.0

$$$$
100463
  -INDIGO-08031722522D

 18 18  0  0  0  0  0  0  0  0999 V2000
    2.7713    1.6000    0.0000 C   0  0  0  0  0  0  0  0  0  0  0  0
    4.1570    2.4000    0.0000 H   0  0  0  0  0  0  0  0  0  0  0  0
    2.7713    0.0000    0.0000 C   0  0  0  0  0  0  0  0  0  0  0  0
    4.1570   -0.8000    0.0000 C   0  0  0  0  0  0  0  0  0  0  0  0
    5.5426   -1.6000    0.0000 H   0  0  0  0  0  0  0  0  0  0  0  0
    5.5426    0.0000    0.0000 H   0  0  0  0  0  0  0  0  0  0  0  0
    4.1570   -2.4000    0.0000 H   0  0  0  0  0  0  0  0  0  0  0  0
    1.3857   -0.8000    0.0000 C   0  0  0  0  0  0  0  0  0  0  0  0
    1.3857   -2.4000    0.0000 H   0  0  0  0  0  0  0  0  0  0  0  0
    0.0000    0.0000    0.0000 C   0  0  0  0  0  0  0  0  0  0  0  0
   -1.3857   -0.8000    0.0000 C   0  0  0  0  0  0  0  0  0  0  0  0
   -2.7713   -1.6000    0.0000 H   0  0  0  0  0  0  0  0  0  0  0  0
   -2.7713    0.0000    0.0000 H   0  0  0  0  0  0  0  0  0  0  0  0
   -1.3857   -2.4000    0.0000 H   0  0  0  0  0  0  0  0  0  0  0  0
    0.0000    1.6000    0.0000 C   0  0  0  0  0  0  0  0  0  0  0  0
   -1.3856    2.4000    0.0000 H   0  0  0  0  0  0  0  0  0  0  0  0
    1.3857    2.4000    0.0000 C   0  0  0  0  0  0  0  0  0  0  0  0
    1.3857    4.0000    0.0000 H   0  0  0  0  0  0  0  0  0  0  0  0
  1  2  1  0  0  0  0
  1  3  1  0  0  0  0
  3  4  1  0  0  0  0
  4  5  1  0  0  0  0
  4  6  1  0  0  0  0
  4  7  1  0  0  0  0
  3  8  2  0  0  0  0
  8  9  1  0  0  0  0
  8 10  1  0  0  0  0
 10 11  1  0  0  0  0
 11 12  1  0  0  0  0
 11 13  1  0  0  0  0
 11 14  1  0  0  0  0
 10 15  2  0  0  0  0
 15 16  1  0  0  0  0
 15 17  1  0  0  0  0
 17  1  2  0  0  0  0
 17 18  1  0  0  0  0
M  END
> <ChemID>
100463

> <source_casrn>
108-38-3

> <CAS>
108-38-3

> <SMILES>
Cc1cc(C)ccc1

> <NAME>
Benzene, 1,3-dimethyl-

> <preferred_name>
m-Xylene

> <iupac>
C8H10

> <MPID>
100473

> <dsstox_substance_id>
DTXSID6026298

> <Canonical_QSARr>
Cc1cc(C)ccc1

> <InChI_Code_QSARr>
InChI=1S/C8H10/c1-7-4-3-5-8(2)6-7/h3-6H,1-2H3

> <InChI Key_QSARr>
IVSZLXZYQVIEFR-UHFFFAOYSA-N

> <Salt_Solvent>
?

> <Ready_Biodeg>
1.0

$$$$
100464
  -INDIGO-08031722522D

 16 16  0  0  0  0  0  0  0  0999 V2000
   -0.7999    1.3856    0.0000 C   0  0  0  0  0  0  0  0  0  0  0  0
    0.0000    2.7713    0.0000 H   0  0  0  0  0  0  0  0  0  0  0  0
   -2.3999    1.3856    0.0000 C   0  0  0  0  0  0  0  0  0  0  0  0
   -3.2000    2.7713    0.0000 O   0  0  0  0  0  0  0  0  0  0  0  0
   -4.8000    2.7713    0.0000 H   0  0  0  0  0  0  0  0  0  0  0  0
   -3.2000    0.0000    0.0000 C   0  0  0  0  0  0  0  0  0  0  0  0
   -4.8000    0.0000    0.0000 H   0  0  0  0  0  0  0  0  0  0  0  0
   -2.3999   -1.3856    0.0000 C   0  0  0  0  0  0  0  0  0  0  0  0
   -3.2000   -2.7713    0.0000 H   0  0  0  0  0  0  0  0  0  0  0  0
   -0.7999   -1.3856    0.0000 C   0  0  0  0  0  0  0  0  0  0  0  0
    0.0000   -2.7713    0.0000 H   0  0  0  0  0  0  0  0  0  0  0  0
    0.0000   -0.0000    0.0000 C   0  0  0  0  0  0  0  0  0  0  0  0
    1.6000    0.0000    0.0000 C   0  0  0  0  0  0  0  0  0  0  0  0
    3.2000    0.0000    0.0000 H   0  0  0  0  0  0  0  0  0  0  0  0
    2.4001   -1.3856    0.0000 H   0  0  0  0  0  0  0  0  0  0  0  0
    2.4001    1.3856    0.0000 H   0  0  0  0  0  0  0  0  0  0  0  0
  1  2  1  0  0  0  0
  1  3  1  0  0  0  0
  3  4  1  0  0  0  0
  4  5  1  0  0  0  0
  3  6  2  0  0  0  0
  6  7  1  0  0  0  0
  6  8  1  0  0  0  0
  8  9  1  0  0  0  0
  8 10  2  0  0  0  0
 10 11  1  0  0  0  0
 10 12  1  0  0  0  0
 12  1  2  0  0  0  0
 12 13  1  0  0  0  0
 13 14  1  0  0  0  0
 13 15  1  0  0  0  0
 13 16  1  0  0  0  0
M  END
> <ChemID>
100464

> <source_casrn>
108-39-4

> <CAS>
108-39-4

> <SMILES>
Cc1cc(O)ccc1

> <NAME>
3-Cresol

> <preferred_name>
m-Cresol

> <iupac>
3-methylphenol

> <MPID>
100474

> <dsstox_substance_id>
DTXSID6024200

> <Canonical_QSARr>
Cc1cc(O)ccc1

> <InChI_Code_QSARr>
InChI=1S/C7H8O/c1-6-3-2-4-7(8)5-6/h2-5,8H,1H3

> <InChI Key_QSARr>
RLSSMJSEOOYNOY-UHFFFAOYSA-N

> <Salt_Solvent>
?

> <Ready_Biodeg>
1.0

$$$$
100466
  -INDIGO-08031722522D

 13 13  0  0  0  0  0  0  0  0999 V2000
    3.2000    2.7713    0.0000 Cl  0  0  0  0  0  0  0  0  0  0  0  0
    2.4000    1.3856    0.0000 C   0  0  0  0  0  0  0  0  0  0  0  0
    3.2000   -0.0000    0.0000 C   0  0  0  0  0  0  0  0  0  0  0  0
    4.8000   -0.0000    0.0000 H   0  0  0  0  0  0  0  0  0  0  0  0
    2.4000   -1.3856    0.0000 C   0  0  0  0  0  0  0  0  0  0  0  0
    3.2000   -2.7713    0.0000 H   0  0  0  0  0  0  0  0  0  0  0  0
    0.8000   -1.3856    0.0000 C   0  0  0  0  0  0  0  0  0  0  0  0
    0.0000   -2.7713    0.0000 H   0  0  0  0  0  0  0  0  0  0  0  0
    0.0000    0.0000    0.0000 C   0  0  0  0  0  0  0  0  0  0  0  0
   -1.6000    0.0000    0.0000 O   0  0  0  0  0  0  0  0  0  0  0  0
   -2.4000   -1.3856    0.0000 H   0  0  0  0  0  0  0  0  0  0  0  0
    0.8000    1.3856    0.0000 C   0  0  0  0  0  0  0  0  0  0  0  0
    0.0000    2.7713    0.0000 H   0  0  0  0  0  0  0  0  0  0  0  0
  1  2  1  0  0  0  0
  2  3  1  0  0  0  0
  3  4  1  0  0  0  0
  3  5  2  0  0  0  0
  5  6  1  0  0  0  0
  5  7  1  0  0  0  0
  7  8  1  0  0  0  0
  7  9  2  0  0  0  0
  9 10  1  0  0  0  0
 10 11  1  0  0  0  0
  9 12  1  0  0  0  0
 12  2  2  0  0  0  0
 12 13  1  0  0  0  0
M  END
> <ChemID>
100466

> <source_casrn>
108-43-0

> <CAS>
108-43-0

> <SMILES>
Oc1cc(Cl)ccc1

> <NAME>
Phenol, 3-chloro-

> <preferred_name>
3-Chlorophenol

> <iupac>
3-chlorophenol

> <MPID>
100476

> <dsstox_substance_id>
DTXSID4024800

> <Canonical_QSARr>
Oc1cc(Cl)ccc1

> <InChI_Code_QSARr>
InChI=1S/C6H5ClO/c7-5-2-1-3-6(8)4-5/h1-4,8H

> <InChI Key_QSARr>
HORNXRXVQWOLPJ-UHFFFAOYSA-N

> <Salt_Solvent>
?

> <Ready_Biodeg>
0.0

$$$$
100467
  -INDIGO-08031722522D

 17 17  0  0  0  0  0  0  0  0999 V2000
    2.7713   -0.0000    0.0000 C   0  0  0  0  0  0  0  0  0  0  0  0
    2.7713   -1.6000    0.0000 C   0  0  0  0  0  0  0  0  0  0  0  0
    4.1570   -2.4000    0.0000 H   0  0  0  0  0  0  0  0  0  0  0  0
    1.3857   -2.4000    0.0000 C   0  0  0  0  0  0  0  0  0  0  0  0
    1.3857   -4.0000    0.0000 H   0  0  0  0  0  0  0  0  0  0  0  0
    0.0000   -1.6000    0.0000 C   0  0  0  0  0  0  0  0  0  0  0  0
   -1.3856   -2.4000    0.0000 H   0  0  0  0  0  0  0  0  0  0  0  0
    0.0000   -0.0000    0.0000 C   0  0  0  0  0  0  0  0  0  0  0  0
   -1.3856    0.8000    0.0000 C   0  0  0  0  0  0  0  0  0  0  0  0
   -2.7713    1.6000    0.0000 H   0  0  0  0  0  0  0  0  0  0  0  0
   -2.7713   -0.0000    0.0000 H   0  0  0  0  0  0  0  0  0  0  0  0
   -1.3856    2.4000    0.0000 H   0  0  0  0  0  0  0  0  0  0  0  0
    1.3857    0.8000    0.0000 C   0  0  0  0  0  0  0  0  0  0  0  0
    1.3857    2.4000    0.0000 H   0  0  0  0  0  0  0  0  0  0  0  0
    4.1570    0.8000    0.0000 N   0  0  0  0  0  0  0  0  0  0  0  0
    5.5426   -0.0000    0.0000 H   0  0  0  0  0  0  0  0  0  0  0  0
    4.1570    2.4000    0.0000 H   0  0  0  0  0  0  0  0  0  0  0  0
  1  2  1  0  0  0  0
  2  3  1  0  0  0  0
  2  4  2  0  0  0  0
  4  5  1  0  0  0  0
  4  6  1  0  0  0  0
  6  7  1  0  0  0  0
  6  8  2  0  0  0  0
  8  9  1  0  0  0  0
  9 10  1  0  0  0  0
  9 11  1  0  0  0  0
  9 12  1  0  0  0  0
  8 13  1  0  0  0  0
 13  1  2  0  0  0  0
 13 14  1  0  0  0  0
  1 15  1  0  0  0  0
 15 16  1  0  0  0  0
 15 17  1  0  0  0  0
M  END
> <ChemID>
100467

> <source_casrn>
108-44-1

> <CAS>
108-44-1

> <SMILES>
Cc1cc(N)ccc1

> <NAME>
Benzenamine, 3-methyl-

> <preferred_name>
3-Methylaniline

> <iupac>
3-methylaniline

> <MPID>
100477

> <dsstox_substance_id>
DTXSID1026792

> <Canonical_QSARr>
Cc1cc(N)ccc1

> <InChI_Code_QSARr>
InChI=1S/C7H9N/c1-6-3-2-4-7(8)5-6/h2-5H,8H2,1H3

> <InChI Key_QSARr>
JJYPMNFTHPTTDI-UHFFFAOYSA-N

> <Salt_Solvent>
?

> <Ready_Biodeg>
0.0

$$$$
100468
  -INDIGO-08031722522D

 16 16  0  0  0  0  0  0  0  0999 V2000
    1.3857    0.8000    0.0000 N   0  0  0  0  0  0  0  0  0  0  0  0
    2.7713   -0.0000    0.0000 H   0  0  0  0  0  0  0  0  0  0  0  0
    1.3857    2.4000    0.0000 H   0  0  0  0  0  0  0  0  0  0  0  0
    0.0000   -0.0000    0.0000 C   0  0  0  0  0  0  0  0  0  0  0  0
   -1.3857    0.8000    0.0000 C   0  0  0  0  0  0  0  0  0  0  0  0
   -1.3857    2.4000    0.0000 H   0  0  0  0  0  0  0  0  0  0  0  0
   -2.7713   -0.0000    0.0000 C   0  0  0  0  0  0  0  0  0  0  0  0
   -4.1570    0.8000    0.0000 N   0  0  0  0  0  0  0  0  0  0  0  0
   -5.5426   -0.0000    0.0000 H   0  0  0  0  0  0  0  0  0  0  0  0
   -4.1569    2.4000    0.0000 H   0  0  0  0  0  0  0  0  0  0  0  0
   -2.7713   -1.6000    0.0000 C   0  0  0  0  0  0  0  0  0  0  0  0
   -4.1569   -2.4000    0.0000 H   0  0  0  0  0  0  0  0  0  0  0  0
   -1.3856   -2.4000    0.0000 C   0  0  0  0  0  0  0  0  0  0  0  0
   -1.3856   -4.0000    0.0000 H   0  0  0  0  0  0  0  0  0  0  0  0
    0.0000   -1.6000    0.0000 C   0  0  0  0  0  0  0  0  0  0  0  0
    1.3857   -2.4000    0.0000 H   0  0  0  0  0  0  0  0  0  0  0  0
  1  2  1  0  0  0  0
  1  3  1  0  0  0  0
  1  4  1  0  0  0  0
  4  5  1  0  0  0  0
  5  6  1  0  0  0  0
  5  7  2  0  0  0  0
  7  8  1  0  0  0  0
  8  9  1  0  0  0  0
  8 10  1  0  0  0  0
  7 11  1  0  0  0  0
 11 12  1  0  0  0  0
 11 13  2  0  0  0  0
 13 14  1  0  0  0  0
 13 15  1  0  0  0  0
 15  4  2  0  0  0  0
 15 16  1  0  0  0  0
M  END
> <ChemID>
100468

> <source_casrn>
108-45-2

> <CAS>
108-45-2

> <SMILES>
Nc1cc(N)ccc1

> <NAME>
1,3-Benzenediamine

> <preferred_name>
1,3-Benzenediamine

> <iupac>
benzene-1,3-diamine

> <MPID>
100478

> <dsstox_substance_id>
DTXSID4021137

> <Canonical_QSARr>
Nc1cc(N)ccc1

> <InChI_Code_QSARr>
InChI=1S/C6H8N2/c7-5-2-1-3-6(8)4-5/h1-4H,7-8H2

> <InChI Key_QSARr>
WZCQRUWWHSTZEM-UHFFFAOYSA-N

> <Salt_Solvent>
?

> <Ready_Biodeg>
0.0

$$$$
100470
  -INDIGO-08031722522D

 17 17  0  0  0  0  0  0  0  0999 V2000
   -2.7713    1.6000    0.0000 N   0  0  0  0  0  0  0  0  0  0  0  0
   -1.3856    2.4000    0.0000 C   0  0  0  0  0  0  0  0  0  0  0  0
   -1.3856    4.0000    0.0000 H   0  0  0  0  0  0  0  0  0  0  0  0
    0.0000    1.6000    0.0000 C   0  0  0  0  0  0  0  0  0  0  0  0
    1.3857    2.4000    0.0000 H   0  0  0  0  0  0  0  0  0  0  0  0
    0.0000    0.0000    0.0000 C   0  0  0  0  0  0  0  0  0  0  0  0
    1.3857   -0.8000    0.0000 C   0  0  0  0  0  0  0  0  0  0  0  0
    2.7713   -1.6000    0.0000 H   0  0  0  0  0  0  0  0  0  0  0  0
    2.7713    0.0000    0.0000 H   0  0  0  0  0  0  0  0  0  0  0  0
    1.3857   -2.4000    0.0000 H   0  0  0  0  0  0  0  0  0  0  0  0
   -1.3856   -0.8000    0.0000 C   0  0  0  0  0  0  0  0  0  0  0  0
   -1.3856   -2.4000    0.0000 H   0  0  0  0  0  0  0  0  0  0  0  0
   -2.7713    0.0000    0.0000 C   0  0  0  0  0  0  0  0  0  0  0  0
   -4.1569   -0.8000    0.0000 C   0  0  0  0  0  0  0  0  0  0  0  0
   -5.5426   -1.6000    0.0000 H   0  0  0  0  0  0  0  0  0  0  0  0
   -5.5426    0.0000    0.0000 H   0  0  0  0  0  0  0  0  0  0  0  0
   -4.1570   -2.4000    0.0000 H   0  0  0  0  0  0  0  0  0  0  0  0
  1  2  1  0  0  0  0
  2  3  1  0  0  0  0
  2  4  2  0  0  0  0
  4  5  1  0  0  0  0
  4  6  1  0  0  0  0
  6  7  1  0  0  0  0
  7  8  1  0  0  0  0
  7  9  1  0  0  0  0
  7 10  1  0  0  0  0
  6 11  2  0  0  0  0
 11 12  1  0  0  0  0
 11 13  1  0  0  0  0
 13  1  2  0  0  0  0
 13 14  1  0  0  0  0
 14 15  1  0  0  0  0
 14 16  1  0  0  0  0
 14 17  1  0  0  0  0
M  END
> <ChemID>
100470

> <source_casrn>
108-47-4

> <CAS>
108-47-4

> <SMILES>
Cc1cc(C)[n]cc1

> <NAME>
2,4-DIMETHYLPYRIDINE

> <preferred_name>
2,4-Dimethylpyridine

> <iupac>
2,4-dimethylpyridine

> <MPID>
100480

> <dsstox_substance_id>
DTXSID2051556

> <Canonical_QSARr>
Cc1cc(C)[n]cc1

> <InChI_Code_QSARr>
InChI=1S/C7H9N/c1-6-3-4-8-7(2)5-6/h3-5H,1-2H3

> <InChI Key_QSARr>
JYYNAJVZFGKDEQ-UHFFFAOYSA-N

> <Salt_Solvent>
?

> <Ready_Biodeg>
1.0

$$$$
100471
  -INDIGO-08031722522D

 20 20  0  0  0  0  0  0  0  0999 V2000
   -0.0001   -0.0000    0.0000 C   0  0  0  0  0  0  0  0  0  0  0  0
   -0.0001   -1.6000    0.0000 C   0  0  0  0  0  0  0  0  0  0  0  0
    1.3856   -2.4000    0.0000 H   0  0  0  0  0  0  0  0  0  0  0  0
   -1.3856   -2.4000    0.0000 C   0  0  0  0  0  0  0  0  0  0  0  0
   -1.3856   -4.0000    0.0000 H   0  0  0  0  0  0  0  0  0  0  0  0
   -2.7712   -1.6000    0.0000 C   0  0  0  0  0  0  0  0  0  0  0  0
   -4.1569   -2.4000    0.0000 H   0  0  0  0  0  0  0  0  0  0  0  0
   -2.7712   -0.0000    0.0000 C   0  0  0  0  0  0  0  0  0  0  0  0
   -4.1569    0.8000    0.0000 C   0  0  0  0  0  0  0  0  0  0  0  0
   -4.1569    2.4000    0.0000 H   0  0  0  0  0  0  0  0  0  0  0  0
   -5.5425   -0.0000    0.0000 C   0  0  0  0  0  0  0  0  0  0  0  0
   -6.9282    0.8000    0.0000 H   0  0  0  0  0  0  0  0  0  0  0  0
   -5.5425   -1.6000    0.0000 H   0  0  0  0  0  0  0  0  0  0  0  0
   -1.3856    0.8000    0.0000 C   0  0  0  0  0  0  0  0  0  0  0  0
   -1.3856    2.4000    0.0000 H   0  0  0  0  0  0  0  0  0  0  0  0
    1.3856    0.8000    0.0000 C   0  0  0  0  0  0  0  0  0  0  0  0
    1.3856    2.4000    0.0000 H   0  0  0  0  0  0  0  0  0  0  0  0
    2.7713   -0.0000    0.0000 C   0  0  0  0  0  0  0  0  0  0  0  0
    4.1569    0.8000    0.0000 H   0  0  0  0  0  0  0  0  0  0  0  0
    2.7713   -1.6000    0.0000 H   0  0  0  0  0  0  0  0  0  0  0  0
  1  2  1  0  0  0  0
  2  3  1  0  0  0  0
  2  4  2  0  0  0  0
  4  5  1  0  0  0  0
  4  6  1  0  0  0  0
  6  7  1  0  0  0  0
  6  8  2  0  0  0  0
  8  9  1  0  0  0  0
  9 10  1  0  0  0  0
  9 11  2  0  0  0  0
 11 12  1  0  0  0  0
 11 13  1  0  0  0  0
  8 14  1  0  0  0  0
 14  1  2  0  0  0  0
 14 15  1  0  0  0  0
  1 16  1  0  0  0  0
 16 17  1  0  0  0  0
 16 18  2  0  0  0  0
 18 19  1  0  0  0  0
 18 20  1  0  0  0  0
M  END
> <ChemID>
100471

> <source_casrn>
108-57-6

> <CAS>
108-57-6

> <SMILES>
C=Cc1cc(ccc1)C=C

> <NAME>
M-DIETHENYLBENZENE

> <preferred_name>
1,3-Diethenylbenzene

> <iupac>
1,3-diethenylbenzene

> <MPID>
100481

> <dsstox_substance_id>
DTXSID30110020

> <Canonical_QSARr>
C=Cc1cc(ccc1)C=C

> <InChI_Code_QSARr>
InChI=1S/C10H10/c1-3-9-6-5-7-10(4-2)8-9/h3-8H,1-2H2

> <InChI Key_QSARr>
PRJNEUBECVAVAG-UHFFFAOYSA-N

> <Salt_Solvent>
?

> <Ready_Biodeg>
0.0

$$$$
100472
  -INDIGO-08031722522D

 21 20  0  0  0  0  0  0  0  0999 V2000
    0.8000    1.3856    0.0000 C   0  0  0  0  0  0  0  0  0  0  0  0
    1.6000    2.7713    0.0000 H   0  0  0  0  0  0  0  0  0  0  0  0
    0.0000    2.7713    0.0000 H   0  0  0  0  0  0  0  0  0  0  0  0
    0.0000    0.0000    0.0000 C   0  0  0  0  0  0  0  0  0  0  0  0
   -0.8000   -1.3856    0.0000 H   0  0  0  0  0  0  0  0  0  0  0  0
    1.3857   -0.8000    0.0000 C   0  0  0  0  0  0  0  0  0  0  0  0
    2.7713   -1.6000    0.0000 H   0  0  0  0  0  0  0  0  0  0  0  0
    2.7713    0.0000    0.0000 H   0  0  0  0  0  0  0  0  0  0  0  0
    1.3857   -2.4000    0.0000 H   0  0  0  0  0  0  0  0  0  0  0  0
   -1.3856    0.8000    0.0000 O   0  0  0  0  0  0  0  0  0  0  0  0
   -2.7713    0.0000    0.0000 C   0  0  0  0  0  0  0  0  0  0  0  0
   -1.9713   -1.3856    0.0000 H   0  0  0  0  0  0  0  0  0  0  0  0
   -4.1569   -0.8000    0.0000 C   0  0  0  0  0  0  0  0  0  0  0  0
   -5.5426   -1.6000    0.0000 H   0  0  0  0  0  0  0  0  0  0  0  0
   -5.5426    0.0000    0.0000 H   0  0  0  0  0  0  0  0  0  0  0  0
   -4.1569   -2.4000    0.0000 Cl  0  0  0  0  0  0  0  0  0  0  0  0
   -3.5713    1.3856    0.0000 C   0  0  0  0  0  0  0  0  0  0  0  0
   -4.3713    2.7713    0.0000 H   0  0  0  0  0  0  0  0  0  0  0  0
   -2.7713    2.7713    0.0000 H   0  0  0  0  0  0  0  0  0  0  0  0
   -5.1712    1.3856    0.0000 H   0  0  0  0  0  0  0  0  0  0  0  0
    2.4000    1.3856    0.0000 Cl  0  0  0  0  0  0  0  0  0  0  0  0
  1  2  1  0  0  0  0
  1  3  1  0  0  0  0
  1  4  1  0  0  0  0
  4  5  1  0  0  0  0
  4  6  1  0  0  0  0
  6  7  1  0  0  0  0
  6  8  1  0  0  0  0
  6  9  1  0  0  0  0
  4 10  1  0  0  0  0
 10 11  1  0  0  0  0
 11 12  1  0  0  0  0
 11 13  1  0  0  0  0
 13 14  1  0  0  0  0
 13 15  1  0  0  0  0
 13 16  1  0  0  0  0
 11 17  1  0  0  0  0
 17 18  1  0  0  0  0
 17 19  1  0  0  0  0
 17 20  1  0  0  0  0
  1 21  1  0  0  0  0
M  END
> <ChemID>
100472

> <source_casrn>
108-60-1

> <CAS>
108-60-1

> <SMILES>
O(C(CCl)C)C(CCl)C

> <NAME>
Propane, 2,2'-oxybis 1-chloro-

> <preferred_name>
bis(2-Chloro-1-methylethyl) ether

> <iupac>
C6H12Cl2O

> <MPID>
100482

> <dsstox_substance_id>
DTXSID4020167

> <Canonical_QSARr>
CC(CCl)OC(C)CCl

> <InChI_Code_QSARr>
InChI=1S/C6H12Cl2O/c1-5(3-7)9-6(2)4-8/h5-6H,3-4H2,1-2H3

> <InChI Key_QSARr>
QCFYJCYNJLBDRT-UHFFFAOYSA-N

> <Salt_Solvent>
?

> <Ready_Biodeg>
0.0

$$$$
100474
  -INDIGO-08031722522D

 20 20  0  0  0  0  0  0  0  0999 V2000
    1.3857    0.8000    0.0000 C   0  0  0  0  0  0  0  0  0  0  0  0
    2.7713    1.6000    0.0000 H   0  0  0  0  0  0  0  0  0  0  0  0
    2.7713    0.0000    0.0000 H   0  0  0  0  0  0  0  0  0  0  0  0
    1.3857    2.4000    0.0000 H   0  0  0  0  0  0  0  0  0  0  0  0
    0.0000    0.0000    0.0000 C   0  0  0  0  0  0  0  0  0  0  0  0
   -1.3857    0.8000    0.0000 C   0  0  0  0  0  0  0  0  0  0  0  0
   -1.3857    2.4000    0.0000 H   0  0  0  0  0  0  0  0  0  0  0  0
   -2.7713    0.0000    0.0000 C   0  0  0  0  0  0  0  0  0  0  0  0
   -4.1570    0.8000    0.0000 C   0  0  0  0  0  0  0  0  0  0  0  0
   -5.5426    1.6000    0.0000 H   0  0  0  0  0  0  0  0  0  0  0  0
   -5.5426    0.0000    0.0000 H   0  0  0  0  0  0  0  0  0  0  0  0
   -4.1570    2.4000    0.0000 H   0  0  0  0  0  0  0  0  0  0  0  0
   -2.7713   -1.6000    0.0000 C   0  0  0  0  0  0  0  0  0  0  0  0
   -4.1569   -2.4000    0.0000 H   0  0  0  0  0  0  0  0  0  0  0  0
   -1.3856   -2.4000    0.0000 C   0  0  0  0  0  0  0  0  0  0  0  0
   -1.3856   -4.0000    0.0000 N   0  0  0  0  0  0  0  0  0  0  0  0
   -2.7713   -4.8000    0.0000 H   0  0  0  0  0  0  0  0  0  0  0  0
    0.0000   -4.8000    0.0000 H   0  0  0  0  0  0  0  0  0  0  0  0
    0.0000   -1.6000    0.0000 C   0  0  0  0  0  0  0  0  0  0  0  0
    1.3857   -2.4000    0.0000 H   0  0  0  0  0  0  0  0  0  0  0  0
  1  2  1  0  0  0  0
  1  3  1  0  0  0  0
  1  4  1  0  0  0  0
  1  5  1  0  0  0  0
  5  6  1  0  0  0  0
  6  7  1  0  0  0  0
  6  8  2  0  0  0  0
  8  9  1  0  0  0  0
  9 10  1  0  0  0  0
  9 11  1  0  0  0  0
  9 12  1  0  0  0  0
  8 13  1  0  0  0  0
 13 14  1  0  0  0  0
 13 15  2  0  0  0  0
 15 16  1  0  0  0  0
 16 17  1  0  0  0  0
 16 18  1  0  0  0  0
 15 19  1  0  0  0  0
 19  5  2  0  0  0  0
 19 20  1  0  0  0  0
M  END
> <ChemID>
100474

> <source_casrn>
108-69-0

> <CAS>
108-69-0

> <SMILES>
Cc1cc(N)cc(C)c1

> <NAME>
Benzenamine, 3,5-dimethyl-

> <preferred_name>
3,5-Dimethylaniline

> <iupac>
3,5-dimethylaniline

> <MPID>
100484

> <dsstox_substance_id>
DTXSID8026309

> <Canonical_QSARr>
Cc1cc(N)cc(C)c1

> <InChI_Code_QSARr>
InChI=1S/C8H11N/c1-6-3-7(2)5-8(9)4-6/h3-5H,9H2,1-2H3

> <InChI Key_QSARr>
MKARNSWMMBGSHX-UHFFFAOYSA-N

> <Salt_Solvent>
?

> <Ready_Biodeg>
0.0

$$$$
100475
  -INDIGO-08031722522D

 12 12  0  0  0  0  0  0  0  0999 V2000
   -0.0000   -0.0000    0.0000 C   0  0  0  0  0  0  0  0  0  0  0  0
    0.8000   -1.3857    0.0000 C   0  0  0  0  0  0  0  0  0  0  0  0
    2.4000   -1.3857    0.0000 H   0  0  0  0  0  0  0  0  0  0  0  0
   -0.0000   -2.7713    0.0000 C   0  0  0  0  0  0  0  0  0  0  0  0
    0.8000   -4.1569    0.0000 Cl  0  0  0  0  0  0  0  0  0  0  0  0
   -1.6000   -2.7713    0.0000 C   0  0  0  0  0  0  0  0  0  0  0  0
   -2.4000   -4.1569    0.0000 H   0  0  0  0  0  0  0  0  0  0  0  0
   -2.4000   -1.3856    0.0000 C   0  0  0  0  0  0  0  0  0  0  0  0
   -4.0000   -1.3856    0.0000 Cl  0  0  0  0  0  0  0  0  0  0  0  0
   -1.6000   -0.0000    0.0000 C   0  0  0  0  0  0  0  0  0  0  0  0
   -2.4000    1.3856    0.0000 H   0  0  0  0  0  0  0  0  0  0  0  0
    0.8000    1.3856    0.0000 Cl  0  0  0  0  0  0  0  0  0  0  0  0
  1  2  1  0  0  0  0
  2  3  1  0  0  0  0
  2  4  2  0  0  0  0
  4  5  1  0  0  0  0
  4  6  1  0  0  0  0
  6  7  1  0  0  0  0
  6  8  2  0  0  0  0
  8  9  1  0  0  0  0
  8 10  1  0  0  0  0
 10  1  2  0  0  0  0
 10 11  1  0  0  0  0
  1 12  1  0  0  0  0
M  END
> <ChemID>
100475

> <source_casrn>
108-70-3

> <CAS>
108-70-3

> <SMILES>
Clc1cc(Cl)cc(Cl)c1

> <NAME>
Benzene, 1,3,5-trichloro-

> <preferred_name>
1,3,5-Trichlorobenzene

> <iupac>
C6H3Cl3

> <MPID>
100485

> <dsstox_substance_id>
DTXSID8026195

> <Canonical_QSARr>
Clc1cc(Cl)cc(Cl)c1

> <InChI_Code_QSARr>
InChI=1S/C6H3Cl3/c7-4-1-5(8)3-6(9)2-4/h1-3H

> <InChI Key_QSARr>
XKEFYDZQGKAQCN-UHFFFAOYSA-N

> <Salt_Solvent>
?

> <Ready_Biodeg>
0.0

$$$$
100476
  -INDIGO-08031722522D

 15 15  0  0  0  0  0  0  0  0999 V2000
    0.8000    1.3856    0.0000 O   0  0  0  0  0  0  0  0  0  0  0  0
    2.4000    1.3856    0.0000 H   0  0  0  0  0  0  0  0  0  0  0  0
    0.0000    0.0000    0.0000 C   0  0  0  0  0  0  0  0  0  0  0  0
    0.8000   -1.3856    0.0000 C   0  0  0  0  0  0  0  0  0  0  0  0
    2.4000   -1.3856    0.0000 H   0  0  0  0  0  0  0  0  0  0  0  0
    0.0000   -2.7713    0.0000 C   0  0  0  0  0  0  0  0  0  0  0  0
    0.8000   -4.1569    0.0000 O   0  0  0  0  0  0  0  0  0  0  0  0
    0.0000   -5.5426    0.0000 H   0  0  0  0  0  0  0  0  0  0  0  0
   -1.6000   -2.7713    0.0000 C   0  0  0  0  0  0  0  0  0  0  0  0
   -2.4000   -4.1569    0.0000 H   0  0  0  0  0  0  0  0  0  0  0  0
   -2.4000   -1.3856    0.0000 C   0  0  0  0  0  0  0  0  0  0  0  0
   -4.0000   -1.3856    0.0000 O   0  0  0  0  0  0  0  0  0  0  0  0
   -4.8000    0.0000    0.0000 H   0  0  0  0  0  0  0  0  0  0  0  0
   -1.6000    0.0000    0.0000 C   0  0  0  0  0  0  0  0  0  0  0  0
   -2.4000    1.3856    0.0000 H   0  0  0  0  0  0  0  0  0  0  0  0
  1  2  1  0  0  0  0
  1  3  1  0  0  0  0
  3  4  1  0  0  0  0
  4  5  1  0  0  0  0
  4  6  2  0  0  0  0
  6  7  1  0  0  0  0
  7  8  1  0  0  0  0
  6  9  1  0  0  0  0
  9 10  1  0  0  0  0
  9 11  2  0  0  0  0
 11 12  1  0  0  0  0
 12 13  1  0  0  0  0
 11 14  1  0  0  0  0
 14  3  2  0  0  0  0
 14 15  1  0  0  0  0
M  END
> <ChemID>
100476

> <source_casrn>
108-73-6

> <CAS>
108-73-6

> <SMILES>
Oc1cc(O)cc(O)c1

> <NAME>
1,3,5-Trihydroxybenzene

> <preferred_name>
1,3,5-Trihydroxybenzene

> <iupac>
benzene-1,3,5-triol

> <MPID>
100486

> <dsstox_substance_id>
DTXSID9048354

> <Canonical_QSARr>
Oc1cc(O)cc(O)c1

> <InChI_Code_QSARr>
InChI=1S/C6H6O3/c7-4-1-5(8)3-6(9)2-4/h1-3,7-9H

> <InChI Key_QSARr>
QCDYQQDYXPDABM-UHFFFAOYSA-N

> <Salt_Solvent>
?

> <Ready_Biodeg>
1.0

$$$$
100478
  -INDIGO-08031722522D

 12 12  0  0  0  0  0  0  0  0999 V2000
    1.6000   -0.0000    0.0000 N   0  0  0  0  0  0  0  0  0  0  0  0
    2.4000   -1.3857    0.0000 C   0  0  0  0  0  0  0  0  0  0  0  0
    4.0000   -1.3857    0.0000 O   0  0  0  0  0  0  0  0  0  0  0  0
    4.8000   -0.0000    0.0000 H   0  0  0  0  0  0  0  0  0  0  0  0
    1.6000   -2.7713    0.0000 N   0  0  0  0  0  0  0  0  0  0  0  0
    0.0000   -2.7713    0.0000 C   0  0  0  0  0  0  0  0  0  0  0  0
   -0.8000   -4.1569    0.0000 O   0  0  0  0  0  0  0  0  0  0  0  0
   -2.4000   -4.1569    0.0000 H   0  0  0  0  0  0  0  0  0  0  0  0
   -0.8000   -1.3857    0.0000 N   0  0  0  0  0  0  0  0  0  0  0  0
    0.0000   -0.0000    0.0000 C   0  0  0  0  0  0  0  0  0  0  0  0
   -0.8000    1.3856    0.0000 O   0  0  0  0  0  0  0  0  0  0  0  0
   -2.4000    1.3856    0.0000 H   0  0  0  0  0  0  0  0  0  0  0  0
  1  2  1  0  0  0  0
  2  3  1  0  0  0  0
  3  4  1  0  0  0  0
  2  5  2  0  0  0  0
  5  6  1  0  0  0  0
  6  7  1  0  0  0  0
  7  8  1  0  0  0  0
  6  9  2  0  0  0  0
  9 10  1  0  0  0  0
 10  1  2  0  0  0  0
 10 11  1  0  0  0  0
 11 12  1  0  0  0  0
M  END
> <ChemID>
100478

> <source_casrn>
108-80-5

> <CAS>
108-80-5

> <SMILES>
Oc1[n]c(O)[n]c(O)[n]1

> <NAME>
Cyanuric acid

> <preferred_name>
Cyanuric acid

> <iupac>
1,3,5-triazine-2,4,6-triol

> <MPID>
100488

> <dsstox_substance_id>
DTXSID7024873

> <Canonical_QSARr>
Oc1[n]c(O)[n]c(O)[n]1

> <InChI_Code_QSARr>
InChI=1S/C3H3N3O3/c7-1-4-2(8)6-3(9)5-1/h(H3,4,5,6,7,8,9)

> <InChI Key_QSARr>
ZFSLODLOARCGLH-UHFFFAOYSA-N

> <Salt_Solvent>
?

> <Ready_Biodeg>
1.0

$$$$
100479
  -INDIGO-08031722522D

 26 25  0  0  0  0  0  0  0  0999 V2000
    5.2648    1.4107    0.0000 C   0  0  0  0  0  0  0  0  0  0  0  0
    6.2933    0.1850    0.0000 O   0  0  0  0  0  0  0  0  0  0  0  0
    3.6892    1.1329    0.0000 O   0  0  0  0  0  0  0  0  0  0  0  0
    2.8892   -0.2528    0.0000 C   0  0  0  0  0  0  0  0  0  0  0  0
    2.0891   -1.6384    0.0000 H   0  0  0  0  0  0  0  0  0  0  0  0
    1.5035    0.5472    0.0000 C   0  0  0  0  0  0  0  0  0  0  0  0
    1.1572    2.1093    0.0000 H   0  0  0  0  0  0  0  0  0  0  0  0
    2.3632    1.8967    0.0000 H   0  0  0  0  0  0  0  0  0  0  0  0
   -0.0000   -0.0000    0.0000 C   0  0  0  0  0  0  0  0  0  0  0  0
    0.8000   -1.3857    0.0000 H   0  0  0  0  0  0  0  0  0  0  0  0
   -1.3856   -0.8000    0.0000 C   0  0  0  0  0  0  0  0  0  0  0  0
   -2.7713   -1.6000    0.0000 H   0  0  0  0  0  0  0  0  0  0  0  0
   -2.7713   -0.0000    0.0000 H   0  0  0  0  0  0  0  0  0  0  0  0
   -1.3856   -2.4000    0.0000 H   0  0  0  0  0  0  0  0  0  0  0  0
   -0.7999    1.3857    0.0000 C   0  0  0  0  0  0  0  0  0  0  0  0
   -1.6000    2.7713    0.0000 H   0  0  0  0  0  0  0  0  0  0  0  0
   -0.0000    2.7713    0.0000 H   0  0  0  0  0  0  0  0  0  0  0  0
   -2.4000    1.3857    0.0000 H   0  0  0  0  0  0  0  0  0  0  0  0
    4.1149   -1.2812    0.0000 C   0  0  0  0  0  0  0  0  0  0  0  0
    5.3405   -2.3097    0.0000 H   0  0  0  0  0  0  0  0  0  0  0  0
    5.6184   -0.7340    0.0000 H   0  0  0  0  0  0  0  0  0  0  0  0
    3.8369   -2.8569    0.0000 H   0  0  0  0  0  0  0  0  0  0  0  0
    5.8120    2.9142    0.0000 C   0  0  0  0  0  0  0  0  0  0  0  0
    6.3594    4.4177    0.0000 H   0  0  0  0  0  0  0  0  0  0  0  0
    7.3878    3.1920    0.0000 H   0  0  0  0  0  0  0  0  0  0  0  0
    4.7836    4.1399    0.0000 H   0  0  0  0  0  0  0  0  0  0  0  0
  1  2  2  0  0  0  0
  1  3  1  0  0  0  0
  3  4  1  0  0  0  0
  4  5  1  0  0  0  0
  4  6  1  0  0  0  0
  6  7  1  0  0  0  0
  6  8  1  0  0  0  0
  6  9  1  0  0  0  0
  9 10  1  0  0  0  0
  9 11  1  0  0  0  0
 11 12  1  0  0  0  0
 11 13  1  0  0  0  0
 11 14  1  0  0  0  0
  9 15  1  0  0  0  0
 15 16  1  0  0  0  0
 15 17  1  0  0  0  0
 15 18  1  0  0  0  0
  4 19  1  0  0  0  0
 19 20  1  0  0  0  0
 19 21  1  0  0  0  0
 19 22  1  0  0  0  0
  1 23  1  0  0  0  0
 23 24  1  0  0  0  0
 23 25  1  0  0  0  0
 23 26  1  0  0  0  0
M  END
> <ChemID>
100479

> <source_casrn>
108-84-9

> <CAS>
108-84-9

> <SMILES>
O=C(OC(CC(C)C)C)C

> <NAME>
METHYLAMYL ACETATE

> <preferred_name>
1,3-Dimethylbutyl acetate

> <iupac>
4-methylpentan-2-yl acetate

> <MPID>
100489

> <dsstox_substance_id>
DTXSID6051562

> <Canonical_QSARr>
CC(C)CC(C)OC(C)=O

> <InChI_Code_QSARr>
InChI=1S/C8H16O2/c1-6(2)5-7(3)10-8(4)9/h6-7H,5H2,1-4H3

> <InChI Key_QSARr>
CPIVYSAVIPTCCX-UHFFFAOYSA-N

> <Salt_Solvent>
?

> <Ready_Biodeg>
1.0

$$$$
100480
  -INDIGO-08031722522D

 12 12  0  0  0  0  0  0  0  0999 V2000
   -0.0000   -0.0000    0.0000 C   0  0  0  0  0  0  0  0  0  0  0  0
    0.8000   -1.3857    0.0000 C   0  0  0  0  0  0  0  0  0  0  0  0
    2.4000   -1.3857    0.0000 H   0  0  0  0  0  0  0  0  0  0  0  0
   -0.0000   -2.7713    0.0000 C   0  0  0  0  0  0  0  0  0  0  0  0
    0.8000   -4.1569    0.0000 H   0  0  0  0  0  0  0  0  0  0  0  0
   -1.6000   -2.7713    0.0000 C   0  0  0  0  0  0  0  0  0  0  0  0
   -2.4000   -4.1569    0.0000 H   0  0  0  0  0  0  0  0  0  0  0  0
   -2.4000   -1.3856    0.0000 C   0  0  0  0  0  0  0  0  0  0  0  0
   -4.0000   -1.3856    0.0000 H   0  0  0  0  0  0  0  0  0  0  0  0
   -1.6000   -0.0000    0.0000 C   0  0  0  0  0  0  0  0  0  0  0  0
   -2.4000    1.3856    0.0000 H   0  0  0  0  0  0  0  0  0  0  0  0
    0.8000    1.3856    0.0000 Br  0  0  0  0  0  0  0  0  0  0  0  0
  1  2  1  0  0  0  0
  2  3  1  0  0  0  0
  2  4  2  0  0  0  0
  4  5  1  0  0  0  0
  4  6  1  0  0  0  0
  6  7  1  0  0  0  0
  6  8  2  0  0  0  0
  8  9  1  0  0  0  0
  8 10  1  0  0  0  0
 10  1  2  0  0  0  0
 10 11  1  0  0  0  0
  1 12  1  0  0  0  0
M  END
> <ChemID>
100480

> <source_casrn>
108-86-1

> <CAS>
108-86-1

> <SMILES>
Brc1ccccc1

> <NAME>
Benzene, bromo-

> <preferred_name>
Bromobenzene

> <iupac>
bromobenzene

> <MPID>
100490

> <dsstox_substance_id>
DTXSID5024637

> <Canonical_QSARr>
Brc1ccccc1

> <InChI_Code_QSARr>
InChI=1S/C6H5Br/c7-6-4-2-1-3-5-6/h1-5H

> <InChI Key_QSARr>
QARVLSVVCXYDNA-UHFFFAOYSA-N

> <Salt_Solvent>
?

> <Ready_Biodeg>
0.0

$$$$
100482
  -INDIGO-08031722522D

 12 12  0  0  0  0  0  0  0  0999 V2000
    0.8000    1.3856    0.0000 Cl  0  0  0  0  0  0  0  0  0  0  0  0
   -0.0000   -0.0000    0.0000 C   0  0  0  0  0  0  0  0  0  0  0  0
    0.8000   -1.3857    0.0000 C   0  0  0  0  0  0  0  0  0  0  0  0
    2.4000   -1.3857    0.0000 H   0  0  0  0  0  0  0  0  0  0  0  0
   -0.0000   -2.7713    0.0000 C   0  0  0  0  0  0  0  0  0  0  0  0
    0.8000   -4.1569    0.0000 H   0  0  0  0  0  0  0  0  0  0  0  0
   -1.6000   -2.7713    0.0000 C   0  0  0  0  0  0  0  0  0  0  0  0
   -2.4000   -4.1569    0.0000 H   0  0  0  0  0  0  0  0  0  0  0  0
   -2.4000   -1.3856    0.0000 C   0  0  0  0  0  0  0  0  0  0  0  0
   -4.0000   -1.3856    0.0000 H   0  0  0  0  0  0  0  0  0  0  0  0
   -1.6000   -0.0000    0.0000 C   0  0  0  0  0  0  0  0  0  0  0  0
   -2.4000    1.3856    0.0000 H   0  0  0  0  0  0  0  0  0  0  0  0
  1  2  1  0  0  0  0
  2  3  1  0  0  0  0
  3  4  1  0  0  0  0
  3  5  2  0  0  0  0
  5  6  1  0  0  0  0
  5  7  1  0  0  0  0
  7  8  1  0  0  0  0
  7  9  2  0  0  0  0
  9 10  1  0  0  0  0
  9 11  1  0  0  0  0
 11  2  2  0  0  0  0
 11 12  1  0  0  0  0
M  END
> <ChemID>
100482

> <source_casrn>
108-90-7

> <CAS>
108-90-7

> <SMILES>
Clc1ccccc1

> <NAME>
Chlorobenzene

> <preferred_name>
Chlorobenzene

> <iupac>
chlorobenzene

> <MPID>
100492

> <dsstox_substance_id>
DTXSID4020298

> <Canonical_QSARr>
Clc1ccccc1

> <InChI_Code_QSARr>
InChI=1S/C6H5Cl/c7-6-4-2-1-3-5-6/h1-5H

> <InChI Key_QSARr>
MVPPADPHJFYWMZ-UHFFFAOYSA-N

> <Salt_Solvent>
?

> <Ready_Biodeg>
0.0

$$$$
100483
  -INDIGO-08031722522D

 20 20  0  0  0  0  0  0  0  0999 V2000
    1.5757   -0.2778    0.0000 N   0  0  0  0  0  0  0  0  0  0  0  0
    2.1229   -1.7814    0.0000 H   0  0  0  0  0  0  0  0  0  0  0  0
    2.6042    0.9478    0.0000 H   0  0  0  0  0  0  0  0  0  0  0  0
   -0.0000   -0.0000    0.0000 C   0  0  0  0  0  0  0  0  0  0  0  0
    0.5472   -1.5035    0.0000 H   0  0  0  0  0  0  0  0  0  0  0  0
   -0.0000    1.6000    0.0000 C   0  0  0  0  0  0  0  0  0  0  0  0
    1.5757    1.3222    0.0000 H   0  0  0  0  0  0  0  0  0  0  0  0
    0.5472    3.1035    0.0000 H   0  0  0  0  0  0  0  0  0  0  0  0
   -1.3857    2.4000    0.0000 C   0  0  0  0  0  0  0  0  0  0  0  0
   -0.3571    3.6257    0.0000 H   0  0  0  0  0  0  0  0  0  0  0  0
   -2.4141    3.6257    0.0000 H   0  0  0  0  0  0  0  0  0  0  0  0
   -2.7712    1.6000    0.0000 C   0  0  0  0  0  0  0  0  0  0  0  0
   -3.3185    3.1035    0.0000 H   0  0  0  0  0  0  0  0  0  0  0  0
   -4.3470    1.3222    0.0000 H   0  0  0  0  0  0  0  0  0  0  0  0
   -2.7712   -0.0000    0.0000 C   0  0  0  0  0  0  0  0  0  0  0  0
   -4.3470    0.2778    0.0000 H   0  0  0  0  0  0  0  0  0  0  0  0
   -3.3185   -1.5035    0.0000 H   0  0  0  0  0  0  0  0  0  0  0  0
   -1.3857   -0.8000    0.0000 C   0  0  0  0  0  0  0  0  0  0  0  0
   -2.4141   -2.0257    0.0000 H   0  0  0  0  0  0  0  0  0  0  0  0
   -0.3571   -2.0257    0.0000 H   0  0  0  0  0  0  0  0  0  0  0  0
  1  2  1  0  0  0  0
  1  3  1  0  0  0  0
  1  4  1  0  0  0  0
  4  5  1  0  0  0  0
  4  6  1  0  0  0  0
  6  7  1  0  0  0  0
  6  8  1  0  0  0  0
  6  9  1  0  0  0  0
  9 10  1  0  0  0  0
  9 11  1  0  0  0  0
  9 12  1  0  0  0  0
 12 13  1  0  0  0  0
 12 14  1  0  0  0  0
 12 15  1  0  0  0  0
 15 16  1  0  0  0  0
 15 17  1  0  0  0  0
 15 18  1  0  0  0  0
 18  4  1  0  0  0  0
 18 19  1  0  0  0  0
 18 20  1  0  0  0  0
M  END
> <ChemID>
100483

> <source_casrn>
108-91-8

> <CAS>
108-91-8

> <SMILES>
NC1CCCCC1

> <NAME>
Cyclohexanamine

> <preferred_name>
Cyclohexylamine

> <iupac>
cyclohexanamine

> <MPID>
100493

> <dsstox_substance_id>
DTXSID1023996

> <Canonical_QSARr>
NC1CCCCC1

> <InChI_Code_QSARr>
InChI=1S/C6H13N/c7-6-4-2-1-3-5-6/h6H,1-5,7H2

> <InChI Key_QSARr>
PAFZNILMFXTMIY-UHFFFAOYSA-N

> <Salt_Solvent>
?

> <Ready_Biodeg>
1.0

$$$$
100484
  -INDIGO-08031722522D

 19 19  0  0  0  0  0  0  0  0999 V2000
   -0.0000    1.6000    0.0000 C   0  0  0  0  0  0  0  0  0  0  0  0
    0.5472    3.1035    0.0000 H   0  0  0  0  0  0  0  0  0  0  0  0
    1.5757    1.3222    0.0000 H   0  0  0  0  0  0  0  0  0  0  0  0
   -1.3857    2.4000    0.0000 C   0  0  0  0  0  0  0  0  0  0  0  0
   -0.3571    3.6257    0.0000 H   0  0  0  0  0  0  0  0  0  0  0  0
   -2.4141    3.6257    0.0000 H   0  0  0  0  0  0  0  0  0  0  0  0
   -2.7712    1.6000    0.0000 C   0  0  0  0  0  0  0  0  0  0  0  0
   -3.3185    3.1035    0.0000 H   0  0  0  0  0  0  0  0  0  0  0  0
   -4.3470    1.3222    0.0000 H   0  0  0  0  0  0  0  0  0  0  0  0
   -2.7712   -0.0000    0.0000 C   0  0  0  0  0  0  0  0  0  0  0  0
   -4.3470    0.2778    0.0000 H   0  0  0  0  0  0  0  0  0  0  0  0
   -3.3185   -1.5035    0.0000 H   0  0  0  0  0  0  0  0  0  0  0  0
   -1.3857   -0.8000    0.0000 C   0  0  0  0  0  0  0  0  0  0  0  0
   -2.4141   -2.0257    0.0000 H   0  0  0  0  0  0  0  0  0  0  0  0
   -0.3571   -2.0257    0.0000 H   0  0  0  0  0  0  0  0  0  0  0  0
   -0.0000   -0.0000    0.0000 C   0  0  0  0  0  0  0  0  0  0  0  0
    0.5472   -1.5035    0.0000 H   0  0  0  0  0  0  0  0  0  0  0  0
    1.5757    0.2778    0.0000 O   0  0  0  0  0  0  0  0  0  0  0  0
    2.6042   -0.9478    0.0000 H   0  0  0  0  0  0  0  0  0  0  0  0
  1  2  1  0  0  0  0
  1  3  1  0  0  0  0
  1  4  1  0  0  0  0
  4  5  1  0  0  0  0
  4  6  1  0  0  0  0
  4  7  1  0  0  0  0
  7  8  1  0  0  0  0
  7  9  1  0  0  0  0
  7 10  1  0  0  0  0
 10 11  1  0  0  0  0
 10 12  1  0  0  0  0
 10 13  1  0  0  0  0
 13 14  1  0  0  0  0
 13 15  1  0  0  0  0
 13 16  1  0  0  0  0
 16  1  1  0  0  0  0
 16 17  1  0  0  0  0
 16 18  1  0  0  0  0
 18 19  1  0  0  0  0
M  END
> <ChemID>
100484

> <source_casrn>
108-93-0

> <CAS>
108-93-0

> <SMILES>
OC1CCCCC1

> <NAME>
Cyclohexanol

> <preferred_name>
Cyclohexanol

> <iupac>
cyclohexanol

> <MPID>
100494

> <dsstox_substance_id>
DTXSID4021894

> <Canonical_QSARr>
OC1CCCCC1

> <InChI_Code_QSARr>
InChI=1S/C6H12O/c7-6-4-2-1-3-5-6/h6-7H,1-5H2

> <InChI Key_QSARr>
HPXRVTGHNJAIIH-UHFFFAOYSA-N

> <Salt_Solvent>
?

> <Ready_Biodeg>
1.0

$$$$
100486
  -INDIGO-08031722522D

 13 13  0  0  0  0  0  0  0  0999 V2000
    0.8000    1.3856    0.0000 O   0  0  0  0  0  0  0  0  0  0  0  0
    2.4000    1.3856    0.0000 H   0  0  0  0  0  0  0  0  0  0  0  0
   -0.0000   -0.0000    0.0000 C   0  0  0  0  0  0  0  0  0  0  0  0
    0.8000   -1.3857    0.0000 C   0  0  0  0  0  0  0  0  0  0  0  0
    2.4000   -1.3857    0.0000 H   0  0  0  0  0  0  0  0  0  0  0  0
   -0.0000   -2.7713    0.0000 C   0  0  0  0  0  0  0  0  0  0  0  0
    0.8000   -4.1569    0.0000 H   0  0  0  0  0  0  0  0  0  0  0  0
   -1.6000   -2.7713    0.0000 C   0  0  0  0  0  0  0  0  0  0  0  0
   -2.4000   -4.1569    0.0000 H   0  0  0  0  0  0  0  0  0  0  0  0
   -2.4000   -1.3856    0.0000 C   0  0  0  0  0  0  0  0  0  0  0  0
   -4.0000   -1.3856    0.0000 H   0  0  0  0  0  0  0  0  0  0  0  0
   -1.6000   -0.0000    0.0000 C   0  0  0  0  0  0  0  0  0  0  0  0
   -2.4000    1.3856    0.0000 H   0  0  0  0  0  0  0  0  0  0  0  0
  1  2  1  0  0  0  0
  1  3  1  0  0  0  0
  3  4  1  0  0  0  0
  4  5  1  0  0  0  0
  4  6  2  0  0  0  0
  6  7  1  0  0  0  0
  6  8  1  0  0  0  0
  8  9  1  0  0  0  0
  8 10  2  0  0  0  0
 10 11  1  0  0  0  0
 10 12  1  0  0  0  0
 12  3  2  0  0  0  0
 12 13  1  0  0  0  0
M  END
> <ChemID>
100486

> <source_casrn>
108-95-2

> <CAS>
108-95-2

> <SMILES>
Oc1ccccc1

> <NAME>
Phenol

> <preferred_name>
Phenol

> <iupac>
phenol

> <MPID>
100496

> <dsstox_substance_id>
DTXSID5021124

> <Canonical_QSARr>
Oc1ccccc1

> <InChI_Code_QSARr>
InChI=1S/C6H6O/c7-6-4-2-1-3-5-6/h1-5,7H

> <InChI Key_QSARr>
ISWSIDIOOBJBQZ-UHFFFAOYSA-N

> <Salt_Solvent>
?

> <Ready_Biodeg>
1.0

$$$$
100487
  -INDIGO-08031722522D

 12 12  0  0  0  0  0  0  0  0999 V2000
    1.6000   -0.0000    0.0000 C   0  0  0  0  0  0  0  0  0  0  0  0
    2.4000    1.3856    0.0000 H   0  0  0  0  0  0  0  0  0  0  0  0
    2.4000   -1.3857    0.0000 C   0  0  0  0  0  0  0  0  0  0  0  0
    4.0000   -1.3857    0.0000 H   0  0  0  0  0  0  0  0  0  0  0  0
    1.6000   -2.7713    0.0000 N   0  0  0  0  0  0  0  0  0  0  0  0
    0.0000   -2.7713    0.0000 C   0  0  0  0  0  0  0  0  0  0  0  0
   -0.8000   -4.1569    0.0000 H   0  0  0  0  0  0  0  0  0  0  0  0
   -0.8000   -1.3857    0.0000 C   0  0  0  0  0  0  0  0  0  0  0  0
   -2.4000   -1.3857    0.0000 H   0  0  0  0  0  0  0  0  0  0  0  0
    0.0000   -0.0000    0.0000 C   0  0  0  0  0  0  0  0  0  0  0  0
   -0.8000    1.3856    0.0000 O   0  0  0  0  0  0  0  0  0  0  0  0
   -2.4000    1.3856    0.0000 H   0  0  0  0  0  0  0  0  0  0  0  0
  1  2  1  0  0  0  0
  1  3  1  0  0  0  0
  3  4  1  0  0  0  0
  3  5  2  0  0  0  0
  5  6  1  0  0  0  0
  6  7  1  0  0  0  0
  6  8  2  0  0  0  0
  8  9  1  0  0  0  0
  8 10  1  0  0  0  0
 10  1  2  0  0  0  0
 10 11  1  0  0  0  0
 11 12  1  0  0  0  0
M  END
> <ChemID>
100487

> <source_casrn>
108-96-3|626-64-2

> <CAS>
626-64-2

> <SMILES>
n(ccc(O)c1)c1

> <NAME>
4(1H)-Pyridinone, 4-Pyridone

> <preferred_name>
4-Pyridinol

> <iupac>
pyridin-4-ol

> <MPID>
100497|100884

> <dsstox_substance_id>
DTXSID2052310

> <Canonical_QSARr>
Oc1cc[n]cc1

> <InChI_Code_QSARr>
InChI=1S/C5H5NO/c7-5-1-3-6-4-2-5/h1-4H,(H,6,7)

> <InChI Key_QSARr>
GCNTZFIIOFTKIY-UHFFFAOYSA-N

> <Salt_Solvent>
?

> <Ready_Biodeg>
1.0

$$$$
100488
  -INDIGO-08031722522D

 13 13  0  0  0  0  0  0  0  0999 V2000
   -0.0000   -0.0000    0.0000 C   0  0  0  0  0  0  0  0  0  0  0  0
    0.8000   -1.3857    0.0000 C   0  0  0  0  0  0  0  0  0  0  0  0
    2.4000   -1.3857    0.0000 H   0  0  0  0  0  0  0  0  0  0  0  0
   -0.0000   -2.7713    0.0000 C   0  0  0  0  0  0  0  0  0  0  0  0
    0.8000   -4.1569    0.0000 H   0  0  0  0  0  0  0  0  0  0  0  0
   -1.6000   -2.7713    0.0000 C   0  0  0  0  0  0  0  0  0  0  0  0
   -2.4000   -4.1569    0.0000 H   0  0  0  0  0  0  0  0  0  0  0  0
   -2.4000   -1.3856    0.0000 C   0  0  0  0  0  0  0  0  0  0  0  0
   -4.0000   -1.3856    0.0000 H   0  0  0  0  0  0  0  0  0  0  0  0
   -1.6000   -0.0000    0.0000 C   0  0  0  0  0  0  0  0  0  0  0  0
   -2.4000    1.3856    0.0000 H   0  0  0  0  0  0  0  0  0  0  0  0
    0.8000    1.3856    0.0000 S   0  0  0  0  0  0  0  0  0  0  0  0
    2.4000    1.3856    0.0000 H   0  0  0  0  0  0  0  0  0  0  0  0
  1  2  1  0  0  0  0
  2  3  1  0  0  0  0
  2  4  2  0  0  0  0
  4  5  1  0  0  0  0
  4  6  1  0  0  0  0
  6  7  1  0  0  0  0
  6  8  2  0  0  0  0
  8  9  1  0  0  0  0
  8 10  1  0  0  0  0
 10  1  2  0  0  0  0
 10 11  1  0  0  0  0
  1 12  1  0  0  0  0
 12 13  1  0  0  0  0
M  END
> <ChemID>
100488

> <source_casrn>
108-98-5

> <CAS>
108-98-5

> <SMILES>
Sc1ccccc1

> <NAME>
Benzenethiol

> <preferred_name>
Benzenethiol

> <iupac>
benzenethiol

> <MPID>
100498

> <dsstox_substance_id>
DTXSID7026811

> <Canonical_QSARr>
Sc1ccccc1

> <InChI_Code_QSARr>
InChI=1S/C6H6S/c7-6-4-2-1-3-5-6/h1-5,7H

> <InChI Key_QSARr>
RMVRSNDYEFQCLF-UHFFFAOYSA-N

> <Salt_Solvent>
?

> <Ready_Biodeg>
0.0

$$$$
100490
  -INDIGO-08031722522D

 14 14  0  0  0  0  0  0  0  0999 V2000
   -0.8001    1.3856    0.0000 N   0  0  0  0  0  0  0  0  0  0  0  0
    0.0000   -0.0000    0.0000 C   0  0  0  0  0  0  0  0  0  0  0  0
    1.6000   -0.0000    0.0000 C   0  0  0  0  0  0  0  0  0  0  0  0
    3.2000   -0.0000    0.0000 H   0  0  0  0  0  0  0  0  0  0  0  0
    2.4001    1.3856    0.0000 H   0  0  0  0  0  0  0  0  0  0  0  0
    2.4001   -1.3856    0.0000 H   0  0  0  0  0  0  0  0  0  0  0  0
   -0.7999   -1.3856    0.0000 C   0  0  0  0  0  0  0  0  0  0  0  0
    0.0000   -2.7713    0.0000 H   0  0  0  0  0  0  0  0  0  0  0  0
   -2.4001   -1.3856    0.0000 C   0  0  0  0  0  0  0  0  0  0  0  0
   -3.2000   -2.7713    0.0000 H   0  0  0  0  0  0  0  0  0  0  0  0
   -3.2000   -0.0000    0.0000 C   0  0  0  0  0  0  0  0  0  0  0  0
   -4.8000   -0.0000    0.0000 H   0  0  0  0  0  0  0  0  0  0  0  0
   -2.4001    1.3856    0.0000 C   0  0  0  0  0  0  0  0  0  0  0  0
   -3.2000    2.7713    0.0000 H   0  0  0  0  0  0  0  0  0  0  0  0
  1  2  1  0  0  0  0
  2  3  1  0  0  0  0
  3  4  1  0  0  0  0
  3  5  1  0  0  0  0
  3  6  1  0  0  0  0
  2  7  2  0  0  0  0
  7  8  1  0  0  0  0
  7  9  1  0  0  0  0
  9 10  1  0  0  0  0
  9 11  2  0  0  0  0
 11 12  1  0  0  0  0
 11 13  1  0  0  0  0
 13  1  2  0  0  0  0
 13 14  1  0  0  0  0
M  END
> <ChemID>
100490

> <source_casrn>
109-06-8

> <CAS>
109-06-8

> <SMILES>
Cc1cccc[n]1

> <NAME>
Pyridine, 2-methyl-

> <preferred_name>
2-Methylpyridine

> <iupac>
2-methylpyridine

> <MPID>
100500

> <dsstox_substance_id>
DTXSID9021899

> <Canonical_QSARr>
Cc1cccc[n]1

> <InChI_Code_QSARr>
InChI=1S/C6H7N/c1-6-4-2-3-5-7-6/h2-5H,1H3

> <InChI Key_QSARr>
BSKHPKMHTQYZBB-UHFFFAOYSA-N

> <Salt_Solvent>
?

> <Ready_Biodeg>
1.0

$$$$
100491
  -INDIGO-08031722522D

 11 11  0  0  0  0  0  0  0  0999 V2000
   -0.0000    3.2000    0.0000 N   0  0  0  0  0  0  0  0  0  0  0  0
    1.3856    2.4000    0.0000 C   0  0  0  0  0  0  0  0  0  0  0  0
    2.7713    3.2000    0.0000 Cl  0  0  0  0  0  0  0  0  0  0  0  0
    1.3856    0.8000    0.0000 C   0  0  0  0  0  0  0  0  0  0  0  0
    2.7713    0.0000    0.0000 H   0  0  0  0  0  0  0  0  0  0  0  0
   -0.0000    0.0000    0.0000 C   0  0  0  0  0  0  0  0  0  0  0  0
   -0.0000   -1.6000    0.0000 H   0  0  0  0  0  0  0  0  0  0  0  0
   -1.3856    0.8000    0.0000 C   0  0  0  0  0  0  0  0  0  0  0  0
   -2.7713    0.0000    0.0000 H   0  0  0  0  0  0  0  0  0  0  0  0
   -1.3856    2.4000    0.0000 C   0  0  0  0  0  0  0  0  0  0  0  0
   -2.7713    3.2000    0.0000 H   0  0  0  0  0  0  0  0  0  0  0  0
  1  2  1  0  0  0  0
  2  3  1  0  0  0  0
  2  4  2  0  0  0  0
  4  5  1  0  0  0  0
  4  6  1  0  0  0  0
  6  7  1  0  0  0  0
  6  8  2  0  0  0  0
  8  9  1  0  0  0  0
  8 10  1  0  0  0  0
 10  1  2  0  0  0  0
 10 11  1  0  0  0  0
M  END
> <ChemID>
100491

> <source_casrn>
109-09-1

> <CAS>
109-09-1

> <SMILES>
Clc1cccc[n]1

> <NAME>
Pyridine, 2-chloro-

> <preferred_name>
2-Chloropyridine

> <iupac>
2-chloropyridine

> <MPID>
100501

> <dsstox_substance_id>
DTXSID8024810

> <Canonical_QSARr>
Clc1cccc[n]1

> <InChI_Code_QSARr>
InChI=1S/C5H4ClN/c6-5-3-1-2-4-7-5/h1-4H

> <InChI Key_QSARr>
OKDGRDCXVWSXDC-UHFFFAOYSA-N

> <Salt_Solvent>
?

> <Ready_Biodeg>
0.0

$$$$
100492
  -INDIGO-08031722522D

 17 16  0  0  0  0  0  0  0  0999 V2000
    4.1569    0.8000    0.0000 O   0  0  0  0  0  0  0  0  0  0  0  0
    5.5426   -0.0000    0.0000 H   0  0  0  0  0  0  0  0  0  0  0  0
    2.7713   -0.0000    0.0000 C   0  0  0  0  0  0  0  0  0  0  0  0
    1.3857    0.8000    0.0000 C   0  0  0  0  0  0  0  0  0  0  0  0
    1.9980    2.2782    0.0000 H   0  0  0  0  0  0  0  0  0  0  0  0
    0.7734    2.2782    0.0000 H   0  0  0  0  0  0  0  0  0  0  0  0
   -0.0001   -0.0000    0.0000 C   0  0  0  0  0  0  0  0  0  0  0  0
   -0.6124   -1.4782    0.0000 H   0  0  0  0  0  0  0  0  0  0  0  0
    0.6122   -1.4782    0.0000 H   0  0  0  0  0  0  0  0  0  0  0  0
   -1.3857    0.8000    0.0000 C   0  0  0  0  0  0  0  0  0  0  0  0
   -0.7734    2.2782    0.0000 H   0  0  0  0  0  0  0  0  0  0  0  0
   -1.9980    2.2782    0.0000 H   0  0  0  0  0  0  0  0  0  0  0  0
   -2.7713   -0.0000    0.0000 C   0  0  0  0  0  0  0  0  0  0  0  0
   -4.1569   -0.8000    0.0000 H   0  0  0  0  0  0  0  0  0  0  0  0
   -4.1569    0.8000    0.0000 H   0  0  0  0  0  0  0  0  0  0  0  0
   -2.7713   -1.6000    0.0000 H   0  0  0  0  0  0  0  0  0  0  0  0
    2.7713   -1.6000    0.0000 O   0  0  0  0  0  0  0  0  0  0  0  0
  1  2  1  0  0  0  0
  1  3  1  0  0  0  0
  3  4  1  0  0  0  0
  4  5  1  0  0  0  0
  4  6  1  0  0  0  0
  4  7  1  0  0  0  0
  7  8  1  0  0  0  0
  7  9  1  0  0  0  0
  7 10  1  0  0  0  0
 10 11  1  0  0  0  0
 10 12  1  0  0  0  0
 10 13  1  0  0  0  0
 13 14  1  0  0  0  0
 13 15  1  0  0  0  0
 13 16  1  0  0  0  0
  3 17  2  0  0  0  0
M  END
> <ChemID>
100492

> <source_casrn>
109-52-4

> <CAS>
109-52-4

> <SMILES>
CCCCC(O)=O

> <NAME>
n-Valeric acid

> <preferred_name>
Pentanoic acid

> <iupac>
pentanoic acid

> <MPID>
100502

> <dsstox_substance_id>
DTXSID7021655

> <Canonical_QSARr>
CCCCC(O)=O

> <InChI_Code_QSARr>
InChI=1S/C5H10O2/c1-2-3-4-5(6)7/h2-4H2,1H3,(H,6,7)

> <InChI Key_QSARr>
NQPDZGIKBAWPEJ-UHFFFAOYSA-N

> <Salt_Solvent>
?

> <Ready_Biodeg>
1.0

$$$$
100494
  -INDIGO-08031722522D

 17 16  0  0  0  0  0  0  0  0999 V2000
   -1.3856    0.8000    0.0000 C   0  0  0  0  0  0  0  0  0  0  0  0
   -0.7734    2.2782    0.0000 H   0  0  0  0  0  0  0  0  0  0  0  0
   -1.9979    2.2782    0.0000 H   0  0  0  0  0  0  0  0  0  0  0  0
    0.0001   -0.0000    0.0000 C   0  0  0  0  0  0  0  0  0  0  0  0
   -0.6123   -1.4782    0.0000 H   0  0  0  0  0  0  0  0  0  0  0  0
    0.6123   -1.4782    0.0000 H   0  0  0  0  0  0  0  0  0  0  0  0
    1.3856    0.8000    0.0000 C   0  0  0  0  0  0  0  0  0  0  0  0
    1.9979    2.2782    0.0000 H   0  0  0  0  0  0  0  0  0  0  0  0
    0.7734    2.2782    0.0000 H   0  0  0  0  0  0  0  0  0  0  0  0
    2.7713   -0.0000    0.0000 C   0  0  0  0  0  0  0  0  0  0  0  0
    4.1569   -0.8000    0.0000 H   0  0  0  0  0  0  0  0  0  0  0  0
    4.1569    0.8000    0.0000 H   0  0  0  0  0  0  0  0  0  0  0  0
    2.7713   -1.6000    0.0000 H   0  0  0  0  0  0  0  0  0  0  0  0
   -2.7712   -0.0000    0.0000 C   0  0  0  0  0  0  0  0  0  0  0  0
   -4.1569   -0.8000    0.0000 H   0  0  0  0  0  0  0  0  0  0  0  0
   -4.1569    0.8000    0.0000 H   0  0  0  0  0  0  0  0  0  0  0  0
   -2.7713   -1.6000    0.0000 H   0  0  0  0  0  0  0  0  0  0  0  0
  1  2  1  0  0  0  0
  1  3  1  0  0  0  0
  1  4  1  0  0  0  0
  4  5  1  0  0  0  0
  4  6  1  0  0  0  0
  4  7  1  0  0  0  0
  7  8  1  0  0  0  0
  7  9  1  0  0  0  0
  7 10  1  0  0  0  0
 10 11  1  0  0  0  0
 10 12  1  0  0  0  0
 10 13  1  0  0  0  0
  1 14  1  0  0  0  0
 14 15  1  0  0  0  0
 14 16  1  0  0  0  0
 14 17  1  0  0  0  0
M  END
> <ChemID>
100494

> <source_casrn>
109-66-0

> <CAS>
109-66-0

> <SMILES>
CCCCC

> <NAME>
Pentane

> <preferred_name>
Pentane

> <iupac>
C5H12

> <MPID>
100504

> <dsstox_substance_id>
DTXSID2025846

> <Canonical_QSARr>
CCCCC

> <InChI_Code_QSARr>
InChI=1S/C5H12/c1-3-5-4-2/h3-5H2,1-2H3

> <InChI Key_QSARr>
OFBQJSOFQDEBGM-UHFFFAOYSA-N

> <Salt_Solvent>
?

> <Ready_Biodeg>
1.0

$$$$
100495
  -INDIGO-08031722522D

 14 13  0  0  0  0  0  0  0  0999 V2000
    1.3856   -0.8000    0.0000 C   0  0  0  0  0  0  0  0  0  0  0  0
    2.7713   -1.6000    0.0000 H   0  0  0  0  0  0  0  0  0  0  0  0
    2.7713    0.0000    0.0000 H   0  0  0  0  0  0  0  0  0  0  0  0
    1.3856   -2.4000    0.0000 H   0  0  0  0  0  0  0  0  0  0  0  0
    0.0000    0.0000    0.0000 C   0  0  0  0  0  0  0  0  0  0  0  0
    0.6123    1.4782    0.0000 H   0  0  0  0  0  0  0  0  0  0  0  0
   -0.6123    1.4782    0.0000 H   0  0  0  0  0  0  0  0  0  0  0  0
   -1.3856   -0.8000    0.0000 C   0  0  0  0  0  0  0  0  0  0  0  0
   -1.9980   -2.2782    0.0000 H   0  0  0  0  0  0  0  0  0  0  0  0
   -0.7733   -2.2782    0.0000 H   0  0  0  0  0  0  0  0  0  0  0  0
   -2.7713    0.0000    0.0000 C   0  0  0  0  0  0  0  0  0  0  0  0
   -4.1569    0.8000    0.0000 H   0  0  0  0  0  0  0  0  0  0  0  0
   -4.1569   -0.8000    0.0000 H   0  0  0  0  0  0  0  0  0  0  0  0
   -2.7713    1.6000    0.0000 Cl  0  0  0  0  0  0  0  0  0  0  0  0
  1  2  1  0  0  0  0
  1  3  1  0  0  0  0
  1  4  1  0  0  0  0
  1  5  1  0  0  0  0
  5  6  1  0  0  0  0
  5  7  1  0  0  0  0
  5  8  1  0  0  0  0
  8  9  1  0  0  0  0
  8 10  1  0  0  0  0
  8 11  1  0  0  0  0
 11 12  1  0  0  0  0
 11 13  1  0  0  0  0
 11 14  1  0  0  0  0
M  END
> <ChemID>
100495

> <source_casrn>
109-69-3

> <CAS>
109-69-3

> <SMILES>
CCCCCl

> <NAME>
Butane, 1-chloro-

> <preferred_name>
1-Chlorobutane

> <iupac>
1-chlorobutane

> <MPID>
100505

> <dsstox_substance_id>
DTXSID8020206

> <Canonical_QSARr>
CCCCCl

> <InChI_Code_QSARr>
InChI=1S/C4H9Cl/c1-2-3-4-5/h2-4H2,1H3

> <InChI Key_QSARr>
VFWCMGCRMGJXDK-UHFFFAOYSA-N

> <Salt_Solvent>
?

> <Ready_Biodeg>
0.0

$$$$
100496
  -INDIGO-08031722522D

 16 15  0  0  0  0  0  0  0  0999 V2000
    2.7713   -0.0000    0.0000 C   0  0  0  0  0  0  0  0  0  0  0  0
    4.1569   -0.8000    0.0000 H   0  0  0  0  0  0  0  0  0  0  0  0
    4.1569    0.8000    0.0000 H   0  0  0  0  0  0  0  0  0  0  0  0
    2.7713   -1.6000    0.0000 H   0  0  0  0  0  0  0  0  0  0  0  0
    1.3856    0.8000    0.0000 C   0  0  0  0  0  0  0  0  0  0  0  0
    0.7734    2.2782    0.0000 H   0  0  0  0  0  0  0  0  0  0  0  0
    1.9979    2.2782    0.0000 H   0  0  0  0  0  0  0  0  0  0  0  0
    0.0001   -0.0000    0.0000 C   0  0  0  0  0  0  0  0  0  0  0  0
    0.6123   -1.4782    0.0000 H   0  0  0  0  0  0  0  0  0  0  0  0
   -0.6123   -1.4782    0.0000 H   0  0  0  0  0  0  0  0  0  0  0  0
   -1.3856    0.8000    0.0000 C   0  0  0  0  0  0  0  0  0  0  0  0
   -1.9979    2.2782    0.0000 H   0  0  0  0  0  0  0  0  0  0  0  0
   -0.7734    2.2782    0.0000 H   0  0  0  0  0  0  0  0  0  0  0  0
   -2.7713   -0.0000    0.0000 N   0  0  0  0  0  0  0  0  0  0  0  0
   -4.1569    0.8000    0.0000 H   0  0  0  0  0  0  0  0  0  0  0  0
   -2.7712   -1.6000    0.0000 H   0  0  0  0  0  0  0  0  0  0  0  0
  1  2  1  0  0  0  0
  1  3  1  0  0  0  0
  1  4  1  0  0  0  0
  1  5  1  0  0  0  0
  5  6  1  0  0  0  0
  5  7  1  0  0  0  0
  5  8  1  0  0  0  0
  8  9  1  0  0  0  0
  8 10  1  0  0  0  0
  8 11  1  0  0  0  0
 11 12  1  0  0  0  0
 11 13  1  0  0  0  0
 11 14  1  0  0  0  0
 14 15  1  0  0  0  0
 14 16  1  0  0  0  0
M  END
> <ChemID>
100496

> <source_casrn>
109-73-9

> <CAS>
109-73-9

> <SMILES>
CCCCN

> <NAME>
1-Butanamine

> <preferred_name>
Butylamine

> <iupac>
butan-1-amine

> <MPID>
100506

> <dsstox_substance_id>
DTXSID1021904

> <Canonical_QSARr>
CCCCN

> <InChI_Code_QSARr>
InChI=1S/C4H11N/c1-2-3-4-5/h2-5H2,1H3

> <InChI Key_QSARr>
HQABUPZFAYXKJW-UHFFFAOYSA-N

> <Salt_Solvent>
?

> <Ready_Biodeg>
1.0

$$$$
100498
  -INDIGO-08031722522D

 16 15  0  0  0  0  0  0  0  0999 V2000
    1.3856    0.8000    0.0000 C   0  0  0  0  0  0  0  0  0  0  0  0
    2.7713    1.6000    0.0000 H   0  0  0  0  0  0  0  0  0  0  0  0
    2.7713    0.0000    0.0000 H   0  0  0  0  0  0  0  0  0  0  0  0
    1.3856    2.4000    0.0000 H   0  0  0  0  0  0  0  0  0  0  0  0
    0.0000    0.0000    0.0000 C   0  0  0  0  0  0  0  0  0  0  0  0
   -0.6122   -1.4782    0.0000 H   0  0  0  0  0  0  0  0  0  0  0  0
    0.6122   -1.4782    0.0000 H   0  0  0  0  0  0  0  0  0  0  0  0
   -1.3857    0.8000    0.0000 N   0  0  0  0  0  0  0  0  0  0  0  0
   -1.3857    2.4000    0.0000 H   0  0  0  0  0  0  0  0  0  0  0  0
   -2.7713    0.0000    0.0000 C   0  0  0  0  0  0  0  0  0  0  0  0
   -3.3835   -1.4782    0.0000 H   0  0  0  0  0  0  0  0  0  0  0  0
   -2.1590   -1.4782    0.0000 H   0  0  0  0  0  0  0  0  0  0  0  0
   -4.1569    0.8000    0.0000 C   0  0  0  0  0  0  0  0  0  0  0  0
   -5.5426    1.6000    0.0000 H   0  0  0  0  0  0  0  0  0  0  0  0
   -5.5426    0.0000    0.0000 H   0  0  0  0  0  0  0  0  0  0  0  0
   -4.1569    2.4000    0.0000 H   0  0  0  0  0  0  0  0  0  0  0  0
  1  2  1  0  0  0  0
  1  3  1  0  0  0  0
  1  4  1  0  0  0  0
  1  5  1  0  0  0  0
  5  6  1  0  0  0  0
  5  7  1  0  0  0  0
  5  8  1  0  0  0  0
  8  9  1  0  0  0  0
  8 10  1  0  0  0  0
 10 11  1  0  0  0  0
 10 12  1  0  0  0  0
 10 13  1  0  0  0  0
 13 14  1  0  0  0  0
 13 15  1  0  0  0  0
 13 16  1  0  0  0  0
M  END
> <ChemID>
100498

> <source_casrn>
109-89-7

> <CAS>
109-89-7

> <SMILES>
CCNCC

> <NAME>
Ethanamine, N-ethyl-

> <preferred_name>
Diethylamine

> <iupac>
N-ethylethanamine

> <MPID>
100508

> <dsstox_substance_id>
DTXSID6021909

> <Canonical_QSARr>
CCNCC

> <InChI_Code_QSARr>
InChI=1S/C4H11N/c1-3-5-4-2/h5H,3-4H2,1-2H3

> <InChI Key_QSARr>
HPNMFZURTQLUMO-UHFFFAOYSA-N

> <Salt_Solvent>
?

> <Ready_Biodeg>
1.0

$$$$
100499
  -INDIGO-08031722522D

 10 10  0  0  0  0  0  0  0  0999 V2000
    0.0000   -0.0000    0.0000 N   0  0  0  0  0  0  0  0  0  0  0  0
    0.9405    1.2944    0.0000 H   0  0  0  0  0  0  0  0  0  0  0  0
    0.4944   -1.5217    0.0000 C   0  0  0  0  0  0  0  0  0  0  0  0
    2.0161   -2.0161    0.0000 H   0  0  0  0  0  0  0  0  0  0  0  0
   -0.8000   -2.4622    0.0000 C   0  0  0  0  0  0  0  0  0  0  0  0
   -0.8000   -4.0621    0.0000 H   0  0  0  0  0  0  0  0  0  0  0  0
   -2.0944   -1.5217    0.0000 C   0  0  0  0  0  0  0  0  0  0  0  0
   -3.6161   -2.0161    0.0000 H   0  0  0  0  0  0  0  0  0  0  0  0
   -1.6000   -0.0000    0.0000 C   0  0  0  0  0  0  0  0  0  0  0  0
   -2.5405    1.2944    0.0000 H   0  0  0  0  0  0  0  0  0  0  0  0
  1  2  1  0  0  0  0
  1  3  1  0  0  0  0
  3  4  1  0  0  0  0
  3  5  2  0  0  0  0
  5  6  1  0  0  0  0
  5  7  1  0  0  0  0
  7  8  1  0  0  0  0
  7  9  2  0  0  0  0
  9  1  1  0  0  0  0
  9 10  1  0  0  0  0
M  END
> <ChemID>
100499

> <source_casrn>
109-97-7

> <CAS>
109-97-7

> <SMILES>
c1ccc[nH]1

> <NAME>
Pyrrole

> <preferred_name>
Pyrrole

> <iupac>
1H-pyrrole

> <MPID>
100509

> <dsstox_substance_id>
DTXSID5021910

> <Canonical_QSARr>
c1ccc[nH]1

> <InChI_Code_QSARr>
InChI=1S/C4H5N/c1-2-4-5-3-1/h1-5H

> <InChI Key_QSARr>
KAESVJOAVNADME-UHFFFAOYSA-N

> <Salt_Solvent>
?

> <Ready_Biodeg>
1.0

$$$$
100500
  -INDIGO-08031722522D

 13 13  0  0  0  0  0  0  0  0999 V2000
    1.0530    2.3650    0.0000 O   0  0  0  0  0  0  0  0  0  0  0  0
    2.2420    1.2944    0.0000 C   0  0  0  0  0  0  0  0  0  0  0  0
    3.1825    2.5888    0.0000 H   0  0  0  0  0  0  0  0  0  0  0  0
    3.6277    0.4944    0.0000 H   0  0  0  0  0  0  0  0  0  0  0  0
    1.5912   -0.1672    0.0000 C   0  0  0  0  0  0  0  0  0  0  0  0
    3.1130   -0.6617    0.0000 H   0  0  0  0  0  0  0  0  0  0  0  0
    1.2586   -1.7323    0.0000 H   0  0  0  0  0  0  0  0  0  0  0  0
    0.0000    0.0000    0.0000 C   0  0  0  0  0  0  0  0  0  0  0  0
    0.0000   -1.6000    0.0000 H   0  0  0  0  0  0  0  0  0  0  0  0
   -1.5913   -0.1672    0.0000 H   0  0  0  0  0  0  0  0  0  0  0  0
   -0.3327    1.5651    0.0000 C   0  0  0  0  0  0  0  0  0  0  0  0
   -1.8543    1.0706    0.0000 H   0  0  0  0  0  0  0  0  0  0  0  0
   -0.9835    3.0267    0.0000 H   0  0  0  0  0  0  0  0  0  0  0  0
  1  2  1  0  0  0  0
  2  3  1  0  0  0  0
  2  4  1  0  0  0  0
  2  5  1  0  0  0  0
  5  6  1  0  0  0  0
  5  7  1  0  0  0  0
  5  8  1  0  0  0  0
  8  9  1  0  0  0  0
  8 10  1  0  0  0  0
  8 11  1  0  0  0  0
 11  1  1  0  0  0  0
 11 12  1  0  0  0  0
 11 13  1  0  0  0  0
M  END
> <ChemID>
100500

> <source_casrn>
109-99-9

> <CAS>
109-99-9

> <SMILES>
C1CCCO1

> <NAME>
Tetrahydrofuran

> <preferred_name>
Tetrahydrofuran

> <iupac>
tetrahydrofuran

> <MPID>
100510

> <dsstox_substance_id>
DTXSID1021328

> <Canonical_QSARr>
C1CCCO1

> <InChI_Code_QSARr>
InChI=1S/C4H8O/c1-2-4-5-3-1/h1-4H2

> <InChI Key_QSARr>
WYURNTSHIVDZCO-UHFFFAOYSA-N

> <Salt_Solvent>
?

> <Ready_Biodeg>
1.0

$$$$
100502
  -INDIGO-08031722522D

  9  9  0  0  0  0  0  0  0  0999 V2000
    0.0000   -0.0000    0.0000 C   0  0  0  0  0  0  0  0  0  0  0  0
    0.9405    1.2944    0.0000 H   0  0  0  0  0  0  0  0  0  0  0  0
    0.4944   -1.5217    0.0000 C   0  0  0  0  0  0  0  0  0  0  0  0
    2.0161   -2.0161    0.0000 H   0  0  0  0  0  0  0  0  0  0  0  0
   -0.8000   -2.4621    0.0000 S   0  0  0  0  0  0  0  0  0  0  0  0
   -2.0944   -1.5217    0.0000 C   0  0  0  0  0  0  0  0  0  0  0  0
   -3.6161   -2.0161    0.0000 H   0  0  0  0  0  0  0  0  0  0  0  0
   -1.6000   -0.0000    0.0000 C   0  0  0  0  0  0  0  0  0  0  0  0
   -2.5405    1.2944    0.0000 H   0  0  0  0  0  0  0  0  0  0  0  0
  1  2  1  0  0  0  0
  1  3  2  0  0  0  0
  3  4  1  0  0  0  0
  3  5  1  0  0  0  0
  5  6  1  0  0  0  0
  6  7  1  0  0  0  0
  6  8  2  0  0  0  0
  8  1  1  0  0  0  0
  8  9  1  0  0  0  0
M  END
> <ChemID>
100502

> <source_casrn>
110-02-1

> <CAS>
110-02-1

> <SMILES>
c1ccc[s]1

> <NAME>
Thiophene

> <preferred_name>
Thiophene

> <iupac>
thiophene

> <MPID>
100512

> <dsstox_substance_id>
DTXSID8026145

> <Canonical_QSARr>
c1ccc[s]1

> <InChI_Code_QSARr>
InChI=1S/C4H4S/c1-2-4-5-3-1/h1-4H

> <InChI Key_QSARr>
YTPLMLYBLZKORZ-UHFFFAOYSA-N

> <Salt_Solvent>
?

> <Ready_Biodeg>
0.0

$$$$
100503
  -INDIGO-08031722522D

 14 13  0  0  0  0  0  0  0  0999 V2000
    1.3857   -0.8000    0.0000 C   0  0  0  0  0  0  0  0  0  0  0  0
    2.7713    0.0000    0.0000 O   0  0  0  0  0  0  0  0  0  0  0  0
    4.1569   -0.8000    0.0000 H   0  0  0  0  0  0  0  0  0  0  0  0
    1.3857   -2.4000    0.0000 O   0  0  0  0  0  0  0  0  0  0  0  0
    0.0001    0.0000    0.0000 C   0  0  0  0  0  0  0  0  0  0  0  0
    0.6124    1.4782    0.0000 H   0  0  0  0  0  0  0  0  0  0  0  0
   -0.6122    1.4782    0.0000 H   0  0  0  0  0  0  0  0  0  0  0  0
   -1.3857   -0.8000    0.0000 C   0  0  0  0  0  0  0  0  0  0  0  0
   -1.9980   -2.2782    0.0000 H   0  0  0  0  0  0  0  0  0  0  0  0
   -0.7734   -2.2782    0.0000 H   0  0  0  0  0  0  0  0  0  0  0  0
   -2.7713    0.0000    0.0000 C   0  0  0  0  0  0  0  0  0  0  0  0
   -4.1569   -0.8000    0.0000 O   0  0  0  0  0  0  0  0  0  0  0  0
   -5.5426    0.0000    0.0000 H   0  0  0  0  0  0  0  0  0  0  0  0
   -2.7713    1.6000    0.0000 O   0  0  0  0  0  0  0  0  0  0  0  0
  1  2  1  0  0  0  0
  2  3  1  0  0  0  0
  1  4  2  0  0  0  0
  1  5  1  0  0  0  0
  5  6  1  0  0  0  0
  5  7  1  0  0  0  0
  5  8  1  0  0  0  0
  8  9  1  0  0  0  0
  8 10  1  0  0  0  0
  8 11  1  0  0  0  0
 11 12  1  0  0  0  0
 12 13  1  0  0  0  0
 11 14  2  0  0  0  0
M  END
> <ChemID>
100503

> <source_casrn>
110-15-6

> <CAS>
110-15-6

> <SMILES>
OC(=O)CCC(O)=O

> <NAME>
SUCCINIC ACID

> <preferred_name>
Butanedioic acid

> <iupac>
butanedioic acid

> <MPID>
100513

> <dsstox_substance_id>
DTXSID6023602

> <Canonical_QSARr>
OC(=O)CCC(O)=O

> <InChI_Code_QSARr>
InChI=1S/C4H6O4/c5-3(6)1-2-4(7)8/h1-2H2,(H,5,6)(H,7,8)

> <InChI Key_QSARr>
KDYFGRWQOYBRFD-UHFFFAOYSA-N

> <Salt_Solvent>
?

> <Ready_Biodeg>
1.0

$$$$
100504
  -INDIGO-08031722522D

 12 11  0  0  0  0  0  0  0  0999 V2000
    1.3857   -2.4000    0.0000 O   0  0  0  0  0  0  0  0  0  0  0  0
    1.3857   -0.8000    0.0000 C   0  0  0  0  0  0  0  0  0  0  0  0
    2.7713    0.0000    0.0000 O   0  0  0  0  0  0  0  0  0  0  0  0
    4.1569   -0.8000    0.0000 H   0  0  0  0  0  0  0  0  0  0  0  0
    0.0001    0.0000    0.0000 C   0  0  0  0  0  0  0  0  0  0  0  0
    0.0001    1.6000    0.0000 H   0  0  0  0  0  0  0  0  0  0  0  0
   -1.3857   -0.8000    0.0000 C   0  0  0  0  0  0  0  0  0  0  0  0
   -1.3857   -2.4000    0.0000 H   0  0  0  0  0  0  0  0  0  0  0  0
   -2.7713    0.0000    0.0000 C   0  0  0  0  0  0  0  0  0  0  0  0
   -4.1569   -0.8000    0.0000 O   0  0  0  0  0  0  0  0  0  0  0  0
   -5.5426    0.0000    0.0000 H   0  0  0  0  0  0  0  0  0  0  0  0
   -2.7713    1.6000    0.0000 O   0  0  0  0  0  0  0  0  0  0  0  0
  1  2  2  0  0  0  0
  2  3  1  0  0  0  0
  3  4  1  0  0  0  0
  2  5  1  0  0  0  0
  5  6  1  0  0  0  0
  5  7  2  0  0  0  0
  7  8  1  0  0  0  0
  7  9  1  0  0  0  0
  9 10  1  0  0  0  0
 10 11  1  0  0  0  0
  9 12  2  0  0  0  0
M  END
> <ChemID>
100504

> <source_casrn>
110-16-7|110-17-8

> <CAS>
110-16-7|110-17-8

> <SMILES>
OC(=O)/C=C\C(O)=O

> <NAME>
MALEIC ACID, FUMARIC ACID

> <preferred_name>
Maleic acid

> <iupac>
(2Z)-but-2-enedioic acid

> <MPID>
100514|100515

> <dsstox_substance_id>
DTXSID8021517|DTXSID3021518

> <Canonical_QSARr>
OC(=O)C=CC(O)=O

> <InChI_Code_QSARr>
InChI=1S/C4H4O4/c5-3(6)1-2-4(7)8/h1-2H,(H,5,6)(H,7,8)/b2-1+

> <InChI Key_QSARr>
VZCYOOQTPOCHFL-OWOJBTEDSA-N

> <Salt_Solvent>
?

> <Ready_Biodeg>
1.0

$$$$
100507
  -INDIGO-08031722522D

118117  0  0  0  0  0  0  0  0999 V2000
  -11.0847    0.0000    0.0000 C   0  0  0  0  0  0  0  0  0  0  0  0
  -11.0847    1.6000    0.0000 O   0  0  0  0  0  0  0  0  0  0  0  0
  -12.4709   -0.8000    0.0000 N   0  0  0  0  0  0  0  0  0  0  0  0
  -12.4709   -2.4000    0.0000 H   0  0  0  0  0  0  0  0  0  0  0  0
  -13.8562    0.0000    0.0000 C   0  0  0  0  0  0  0  0  0  0  0  0
  -14.4690    1.4782    0.0000 H   0  0  0  0  0  0  0  0  0  0  0  0
  -13.2441    1.4782    0.0000 H   0  0  0  0  0  0  0  0  0  0  0  0
  -15.2423   -0.8000    0.0000 C   0  0  0  0  0  0  0  0  0  0  0  0
  -14.6294   -2.2782    0.0000 H   0  0  0  0  0  0  0  0  0  0  0  0
  -15.8543   -2.2782    0.0000 H   0  0  0  0  0  0  0  0  0  0  0  0
  -16.6276    0.0000    0.0000 N   0  0  0  0  0  0  0  0  0  0  0  0
  -16.6276    1.6000    0.0000 H   0  0  0  0  0  0  0  0  0  0  0  0
  -18.0137   -0.8000    0.0000 C   0  0  0  0  0  0  0  0  0  0  0  0
  -18.0137   -2.4000    0.0000 O   0  0  0  0  0  0  0  0  0  0  0  0
  -19.3990    0.0000    0.0000 C   0  0  0  0  0  0  0  0  0  0  0  0
  -20.0110    1.4782    0.0000 H   0  0  0  0  0  0  0  0  0  0  0  0
  -18.7870    1.4782    0.0000 H   0  0  0  0  0  0  0  0  0  0  0  0
  -20.7843   -0.8000    0.0000 C   0  0  0  0  0  0  0  0  0  0  0  0
  -20.1723   -2.2782    0.0000 H   0  0  0  0  0  0  0  0  0  0  0  0
  -21.3972   -2.2782    0.0000 H   0  0  0  0  0  0  0  0  0  0  0  0
  -22.1704    0.0000    0.0000 C   0  0  0  0  0  0  0  0  0  0  0  0
  -22.7825    1.4782    0.0000 H   0  0  0  0  0  0  0  0  0  0  0  0
  -21.5576    1.4782    0.0000 H   0  0  0  0  0  0  0  0  0  0  0  0
  -23.5557   -0.8000    0.0000 C   0  0  0  0  0  0  0  0  0  0  0  0
  -22.9437   -2.2782    0.0000 H   0  0  0  0  0  0  0  0  0  0  0  0
  -24.1686   -2.2782    0.0000 H   0  0  0  0  0  0  0  0  0  0  0  0
  -24.9419    0.0000    0.0000 C   0  0  0  0  0  0  0  0  0  0  0  0
  -25.5539    1.4782    0.0000 H   0  0  0  0  0  0  0  0  0  0  0  0
  -24.3290    1.4782    0.0000 H   0  0  0  0  0  0  0  0  0  0  0  0
  -26.3272   -0.8000    0.0000 C   0  0  0  0  0  0  0  0  0  0  0  0
  -25.7151   -2.2782    0.0000 H   0  0  0  0  0  0  0  0  0  0  0  0
  -26.9392   -2.2782    0.0000 H   0  0  0  0  0  0  0  0  0  0  0  0
  -27.7124    0.0000    0.0000 C   0  0  0  0  0  0  0  0  0  0  0  0
  -28.3253    1.4782    0.0000 H   0  0  0  0  0  0  0  0  0  0  0  0
  -27.1004    1.4782    0.0000 H   0  0  0  0  0  0  0  0  0  0  0  0
  -29.0986   -0.8000    0.0000 C   0  0  0  0  0  0  0  0  0  0  0  0
  -28.4866   -2.2782    0.0000 H   0  0  0  0  0  0  0  0  0  0  0  0
  -29.7106   -2.2782    0.0000 H   0  0  0  0  0  0  0  0  0  0  0  0
  -30.4839    0.0000    0.0000 C   0  0  0  0  0  0  0  0  0  0  0  0
  -31.0968    1.4782    0.0000 H   0  0  0  0  0  0  0  0  0  0  0  0
  -29.8718    1.4782    0.0000 H   0  0  0  0  0  0  0  0  0  0  0  0
  -31.8700   -0.8000    0.0000 C   0  0  0  0  0  0  0  0  0  0  0  0
  -31.2571   -2.2782    0.0000 H   0  0  0  0  0  0  0  0  0  0  0  0
  -32.4820   -2.2782    0.0000 H   0  0  0  0  0  0  0  0  0  0  0  0
  -33.2553    0.0000    0.0000 C   0  0  0  0  0  0  0  0  0  0  0  0
  -33.8673    1.4782    0.0000 H   0  0  0  0  0  0  0  0  0  0  0  0
  -32.6433    1.4782    0.0000 H   0  0  0  0  0  0  0  0  0  0  0  0
  -34.6414   -0.8000    0.0000 C   0  0  0  0  0  0  0  0  0  0  0  0
  -34.0286   -2.2782    0.0000 H   0  0  0  0  0  0  0  0  0  0  0  0
  -35.2535   -2.2782    0.0000 H   0  0  0  0  0  0  0  0  0  0  0  0
  -36.0267    0.0000    0.0000 C   0  0  0  0  0  0  0  0  0  0  0  0
  -36.6387    1.4782    0.0000 H   0  0  0  0  0  0  0  0  0  0  0  0
  -35.4147    1.4782    0.0000 H   0  0  0  0  0  0  0  0  0  0  0  0
  -37.4120   -0.8000    0.0000 C   0  0  0  0  0  0  0  0  0  0  0  0
  -36.8000   -2.2782    0.0000 H   0  0  0  0  0  0  0  0  0  0  0  0
  -38.0249   -2.2782    0.0000 H   0  0  0  0  0  0  0  0  0  0  0  0
  -38.7982    0.0000    0.0000 C   0  0  0  0  0  0  0  0  0  0  0  0
  -39.4102    1.4782    0.0000 H   0  0  0  0  0  0  0  0  0  0  0  0
  -38.1853    1.4782    0.0000 H   0  0  0  0  0  0  0  0  0  0  0  0
  -40.1834   -0.8000    0.0000 C   0  0  0  0  0  0  0  0  0  0  0  0
  -39.5714   -2.2782    0.0000 H   0  0  0  0  0  0  0  0  0  0  0  0
  -40.7955   -2.2782    0.0000 H   0  0  0  0  0  0  0  0  0  0  0  0
  -41.5696    0.0000    0.0000 C   0  0  0  0  0  0  0  0  0  0  0  0
  -42.9549    0.8000    0.0000 H   0  0  0  0  0  0  0  0  0  0  0  0
  -42.9549   -0.8000    0.0000 H   0  0  0  0  0  0  0  0  0  0  0  0
  -41.5696    1.6000    0.0000 H   0  0  0  0  0  0  0  0  0  0  0  0
   -9.6994   -0.8000    0.0000 C   0  0  0  0  0  0  0  0  0  0  0  0
   -9.0874   -2.2782    0.0000 H   0  0  0  0  0  0  0  0  0  0  0  0
  -10.3115   -2.2782    0.0000 H   0  0  0  0  0  0  0  0  0  0  0  0
   -8.3142    0.0000    0.0000 C   0  0  0  0  0  0  0  0  0  0  0  0
   -8.9262    1.4782    0.0000 H   0  0  0  0  0  0  0  0  0  0  0  0
   -7.7013    1.4782    0.0000 H   0  0  0  0  0  0  0  0  0  0  0  0
   -6.9280   -0.8000    0.0000 C   0  0  0  0  0  0  0  0  0  0  0  0
   -6.3160   -2.2782    0.0000 H   0  0  0  0  0  0  0  0  0  0  0  0
   -7.5409   -2.2782    0.0000 H   0  0  0  0  0  0  0  0  0  0  0  0
   -5.5427    0.0000    0.0000 C   0  0  0  0  0  0  0  0  0  0  0  0
   -6.1548    1.4782    0.0000 H   0  0  0  0  0  0  0  0  0  0  0  0
   -4.9298    1.4782    0.0000 H   0  0  0  0  0  0  0  0  0  0  0  0
   -4.1566   -0.8000    0.0000 C   0  0  0  0  0  0  0  0  0  0  0  0
   -3.5446   -2.2782    0.0000 H   0  0  0  0  0  0  0  0  0  0  0  0
   -4.7695   -2.2782    0.0000 H   0  0  0  0  0  0  0  0  0  0  0  0
   -2.7713    0.0000    0.0000 C   0  0  0  0  0  0  0  0  0  0  0  0
   -3.3833    1.4782    0.0000 H   0  0  0  0  0  0  0  0  0  0  0  0
   -2.1593    1.4782    0.0000 H   0  0  0  0  0  0  0  0  0  0  0  0
   -1.3860   -0.8000    0.0000 C   0  0  0  0  0  0  0  0  0  0  0  0
   -0.7731   -2.2782    0.0000 H   0  0  0  0  0  0  0  0  0  0  0  0
   -1.9980   -2.2782    0.0000 H   0  0  0  0  0  0  0  0  0  0  0  0
    0.0001    0.0000    0.0000 C   0  0  0  0  0  0  0  0  0  0  0  0
   -0.6119    1.4782    0.0000 H   0  0  0  0  0  0  0  0  0  0  0  0
    0.6121    1.4782    0.0000 H   0  0  0  0  0  0  0  0  0  0  0  0
    1.3854   -0.8000    0.0000 C   0  0  0  0  0  0  0  0  0  0  0  0
    1.9983   -2.2782    0.0000 H   0  0  0  0  0  0  0  0  0  0  0  0
    0.7734   -2.2782    0.0000 H   0  0  0  0  0  0  0  0  0  0  0  0
    2.7716    0.0000    0.0000 C   0  0  0  0  0  0  0  0  0  0  0  0
    2.1587    1.4782    0.0000 H   0  0  0  0  0  0  0  0  0  0  0  0
    3.3836    1.4782    0.0000 H   0  0  0  0  0  0  0  0  0  0  0  0
    4.1568   -0.8000    0.0000 C   0  0  0  0  0  0  0  0  0  0  0  0
    4.7689   -2.2782    0.0000 H   0  0  0  0  0  0  0  0  0  0  0  0
    3.5448   -2.2782    0.0000 H   0  0  0  0  0  0  0  0  0  0  0  0
    5.5430    0.0000    0.0000 C   0  0  0  0  0  0  0  0  0  0  0  0
    4.9301    1.4782    0.0000 H   0  0  0  0  0  0  0  0  0  0  0  0
    6.1550    1.4782    0.0000 H   0  0  0  0  0  0  0  0  0  0  0  0
    6.9283   -0.8000    0.0000 C   0  0  0  0  0  0  0  0  0  0  0  0
    7.5403   -2.2782    0.0000 H   0  0  0  0  0  0  0  0  0  0  0  0
    6.3162   -2.2782    0.0000 H   0  0  0  0  0  0  0  0  0  0  0  0
    8.3135    0.0000    0.0000 C   0  0  0  0  0  0  0  0  0  0  0  0
    7.7015    1.4782    0.0000 H   0  0  0  0  0  0  0  0  0  0  0  0
    8.9264    1.4782    0.0000 H   0  0  0  0  0  0  0  0  0  0  0  0
    9.6997   -0.8000    0.0000 C   0  0  0  0  0  0  0  0  0  0  0  0
   10.3117   -2.2782    0.0000 H   0  0  0  0  0  0  0  0  0  0  0  0
    9.0868   -2.2782    0.0000 H   0  0  0  0  0  0  0  0  0  0  0  0
   11.0850    0.0000    0.0000 C   0  0  0  0  0  0  0  0  0  0  0  0
   10.4730    1.4782    0.0000 H   0  0  0  0  0  0  0  0  0  0  0  0
   11.6970    1.4782    0.0000 H   0  0  0  0  0  0  0  0  0  0  0  0
   12.4711   -0.8000    0.0000 C   0  0  0  0  0  0  0  0  0  0  0  0
   13.8564   -1.6000    0.0000 H   0  0  0  0  0  0  0  0  0  0  0  0
   13.8564    0.0000    0.0000 H   0  0  0  0  0  0  0  0  0  0  0  0
   12.4711   -2.4000    0.0000 H   0  0  0  0  0  0  0  0  0  0  0  0
  1  2  2  0  0  0  0
  1  3  1  0  0  0  0
  3  4  1  0  0  0  0
  3  5  1  0  0  0  0
  5  6  1  0  0  0  0
  5  7  1  0  0  0  0
  5  8  1  0  0  0  0
  8  9  1  0  0  0  0
  8 10  1  0  0  0  0
  8 11  1  0  0  0  0
 11 12  1  0  0  0  0
 11 13  1  0  0  0  0
 13 14  2  0  0  0  0
 13 15  1  0  0  0  0
 15 16  1  0  0  0  0
 15 17  1  0  0  0  0
 15 18  1  0  0  0  0
 18 19  1  0  0  0  0
 18 20  1  0  0  0  0
 18 21  1  0  0  0  0
 21 22  1  0  0  0  0
 21 23  1  0  0  0  0
 21 24  1  0  0  0  0
 24 25  1  0  0  0  0
 24 26  1  0  0  0  0
 24 27  1  0  0  0  0
 27 28  1  0  0  0  0
 27 29  1  0  0  0  0
 27 30  1  0  0  0  0
 30 31  1  0  0  0  0
 30 32  1  0  0  0  0
 30 33  1  0  0  0  0
 33 34  1  0  0  0  0
 33 35  1  0  0  0  0
 33 36  1  0  0  0  0
 36 37  1  0  0  0  0
 36 38  1  0  0  0  0
 36 39  1  0  0  0  0
 39 40  1  0  0  0  0
 39 41  1  0  0  0  0
 39 42  1  0  0  0  0
 42 43  1  0  0  0  0
 42 44  1  0  0  0  0
 42 45  1  0  0  0  0
 45 46  1  0  0  0  0
 45 47  1  0  0  0  0
 45 48  1  0  0  0  0
 48 49  1  0  0  0  0
 48 50  1  0  0  0  0
 48 51  1  0  0  0  0
 51 52  1  0  0  0  0
 51 53  1  0  0  0  0
 51 54  1  0  0  0  0
 54 55  1  0  0  0  0
 54 56  1  0  0  0  0
 54 57  1  0  0  0  0
 57 58  1  0  0  0  0
 57 59  1  0  0  0  0
 57 60  1  0  0  0  0
 60 61  1  0  0  0  0
 60 62  1  0  0  0  0
 60 63  1  0  0  0  0
 63 64  1  0  0  0  0
 63 65  1  0  0  0  0
 63 66  1  0  0  0  0
  1 67  1  0  0  0  0
 67 68  1  0  0  0  0
 67 69  1  0  0  0  0
 67 70  1  0  0  0  0
 70 71  1  0  0  0  0
 70 72  1  0  0  0  0
 70 73  1  0  0  0  0
 73 74  1  0  0  0  0
 73 75  1  0  0  0  0
 73 76  1  0  0  0  0
 76 77  1  0  0  0  0
 76 78  1  0  0  0  0
 76 79  1  0  0  0  0
 79 80  1  0  0  0  0
 79 81  1  0  0  0  0
 79 82  1  0  0  0  0
 82 83  1  0  0  0  0
 82 84  1  0  0  0  0
 82 85  1  0  0  0  0
 85 86  1  0  0  0  0
 85 87  1  0  0  0  0
 85 88  1  0  0  0  0
 88 89  1  0  0  0  0
 88 90  1  0  0  0  0
 88 91  1  0  0  0  0
 91 92  1  0  0  0  0
 91 93  1  0  0  0  0
 91 94  1  0  0  0  0
 94 95  1  0  0  0  0
 94 96  1  0  0  0  0
 94 97  1  0  0  0  0
 97 98  1  0  0  0  0
 97 99  1  0  0  0  0
 97100  1  0  0  0  0
100101  1  0  0  0  0
100102  1  0  0  0  0
100103  1  0  0  0  0
103104  1  0  0  0  0
103105  1  0  0  0  0
103106  1  0  0  0  0
106107  1  0  0  0  0
106108  1  0  0  0  0
106109  1  0  0  0  0
109110  1  0  0  0  0
109111  1  0  0  0  0
109112  1  0  0  0  0
112113  1  0  0  0  0
112114  1  0  0  0  0
112115  1  0  0  0  0
115116  1  0  0  0  0
115117  1  0  0  0  0
115118  1  0  0  0  0
M  END
> <ChemID>
100507

> <source_casrn>
110-30-5

> <CAS>
110-30-5

> <SMILES>
O=C(NCCNC(=O)CCCCCCCCCCCCCCCCC)CCCCCCCCCCCCCCCCC

> <NAME>
Octadecanamide, N,N'-1,2-ethanediylbis-

> <preferred_name>
N,N'-Ethylene distearylamide

> <iupac>
N,N'-ethane-1,2-diyldioctadecanamide

> <MPID>
100517

> <dsstox_substance_id>
DTXSID4026840

> <Canonical_QSARr>
CCCCCCCCCCCCCCCCCC(=O)NCCNC(=O)CCCCCCCCCCCCCCCCC

> <InChI_Code_QSARr>
InChI=1S/C38H76N2O2/c1-3-5-7-9-11-13-15-17-19-21-23-25-27-29-31-33-37(41)39-35-36-40-38(42)34-32-30-28-26-24-22-20-18-16-14-12-10-8-6-4-2/h3-36H2,1-2H3,(H,39,41)(H,40,42)

> <InChI Key_QSARr>
RKISUIUJZGSLEV-UHFFFAOYSA-N

> <Salt_Solvent>
?

> <Ready_Biodeg>
0.0

$$$$
100508
  -INDIGO-08031722522D

 16 15  0  0  0  0  0  0  0  0999 V2000
    5.5425   -1.6000    0.0000 O   0  0  0  0  0  0  0  0  0  0  0  0
    5.5425    0.0000    0.0000 C   0  0  0  0  0  0  0  0  0  0  0  0
    6.9282    0.8000    0.0000 O   0  0  0  0  0  0  0  0  0  0  0  0
    8.3138    0.0000    0.0000 H   0  0  0  0  0  0  0  0  0  0  0  0
    4.1569    0.8000    0.0000 C   0  0  0  0  0  0  0  0  0  0  0  0
    4.1569    2.4000    0.0000 H   0  0  0  0  0  0  0  0  0  0  0  0
    2.7714    0.0000    0.0000 C   0  0  0  0  0  0  0  0  0  0  0  0
    2.7714   -1.6000    0.0000 H   0  0  0  0  0  0  0  0  0  0  0  0
    1.3857    0.8000    0.0000 C   0  0  0  0  0  0  0  0  0  0  0  0
    1.3857    2.4000    0.0000 H   0  0  0  0  0  0  0  0  0  0  0  0
    0.0000    0.0000    0.0000 C   0  0  0  0  0  0  0  0  0  0  0  0
    0.0000   -1.6000    0.0000 H   0  0  0  0  0  0  0  0  0  0  0  0
   -1.3856    0.8000    0.0000 C   0  0  0  0  0  0  0  0  0  0  0  0
   -2.7713    1.6000    0.0000 H   0  0  0  0  0  0  0  0  0  0  0  0
   -2.7713    0.0000    0.0000 H   0  0  0  0  0  0  0  0  0  0  0  0
   -1.3856    2.4000    0.0000 H   0  0  0  0  0  0  0  0  0  0  0  0
  1  2  2  0  0  0  0
  2  3  1  0  0  0  0
  3  4  1  0  0  0  0
  2  5  1  0  0  0  0
  5  6  1  0  0  0  0
  5  7  2  0  0  0  0
  7  8  1  0  0  0  0
  7  9  1  0  0  0  0
  9 10  1  0  0  0  0
  9 11  2  0  0  0  0
 11 12  1  0  0  0  0
 11 13  1  0  0  0  0
 13 14  1  0  0  0  0
 13 15  1  0  0  0  0
 13 16  1  0  0  0  0
M  END
> <ChemID>
100508

> <source_casrn>
110-44-1

> <CAS>
110-44-1

> <SMILES>
C/C=C/C=C/C(O)=O

> <NAME>
2,4-Hexadienoic acid, (E,E)-

> <preferred_name>
Sorbic acid

> <iupac>
(2E,4E)-hexa-2,4-dienoic acid

> <MPID>
100518

> <dsstox_substance_id>
DTXSID3021277

> <Canonical_QSARr>
CC=CC=CC(O)=O

> <InChI_Code_QSARr>
InChI=1S/C6H8O2/c1-2-3-4-5-6(7)8/h2-5H,1H3,(H,7,8)/b3-2+,5-4+

> <InChI Key_QSARr>
WSWCOQWTEOXDQX-MQQKCMAXSA-N

> <Salt_Solvent>
?

> <Ready_Biodeg>
1.0

$$$$
100509
  -INDIGO-08031722522D

 18 17  0  0  0  0  0  0  0  0999 V2000
   -4.1569    2.4000    0.0000 O   0  0  0  0  0  0  0  0  0  0  0  0
   -4.1569    0.8000    0.0000 C   0  0  0  0  0  0  0  0  0  0  0  0
   -2.7712    0.0000    0.0000 O   0  0  0  0  0  0  0  0  0  0  0  0
   -1.3856    0.8000    0.0000 C   0  0  0  0  0  0  0  0  0  0  0  0
   -0.7734    2.2782    0.0000 H   0  0  0  0  0  0  0  0  0  0  0  0
   -1.9979    2.2782    0.0000 H   0  0  0  0  0  0  0  0  0  0  0  0
   -0.0001    0.0000    0.0000 C   0  0  0  0  0  0  0  0  0  0  0  0
   -0.6122   -1.4782    0.0000 H   0  0  0  0  0  0  0  0  0  0  0  0
    0.6123   -1.4782    0.0000 H   0  0  0  0  0  0  0  0  0  0  0  0
    1.3856    0.8000    0.0000 O   0  0  0  0  0  0  0  0  0  0  0  0
    2.7713    0.0000    0.0000 C   0  0  0  0  0  0  0  0  0  0  0  0
    4.1569   -0.8000    0.0000 H   0  0  0  0  0  0  0  0  0  0  0  0
    4.1569    0.8000    0.0000 H   0  0  0  0  0  0  0  0  0  0  0  0
    2.7713   -1.6000    0.0000 H   0  0  0  0  0  0  0  0  0  0  0  0
   -5.5425    0.0000    0.0000 C   0  0  0  0  0  0  0  0  0  0  0  0
   -6.9282   -0.8000    0.0000 H   0  0  0  0  0  0  0  0  0  0  0  0
   -6.9282    0.8000    0.0000 H   0  0  0  0  0  0  0  0  0  0  0  0
   -5.5425   -1.6000    0.0000 H   0  0  0  0  0  0  0  0  0  0  0  0
  1  2  2  0  0  0  0
  2  3  1  0  0  0  0
  3  4  1  0  0  0  0
  4  5  1  0  0  0  0
  4  6  1  0  0  0  0
  4  7  1  0  0  0  0
  7  8  1  0  0  0  0
  7  9  1  0  0  0  0
  7 10  1  0  0  0  0
 10 11  1  0  0  0  0
 11 12  1  0  0  0  0
 11 13  1  0  0  0  0
 11 14  1  0  0  0  0
  2 15  1  0  0  0  0
 15 16  1  0  0  0  0
 15 17  1  0  0  0  0
 15 18  1  0  0  0  0
M  END
> <ChemID>
100509

> <source_casrn>
110-49-6

> <CAS>
110-49-6

> <SMILES>
COCCOC(C)=O

> <NAME>
Ethanol, 2-methoxy-, acetate

> <preferred_name>
2-Methoxyethyl acetate

> <iupac>
2-methoxyethyl acetate

> <MPID>
100519

> <dsstox_substance_id>
DTXSID2025553

> <Canonical_QSARr>
COCCOC(C)=O

> <InChI_Code_QSARr>
InChI=1S/C5H10O3/c1-5(6)8-4-3-7-2/h3-4H2,1-2H3

> <InChI Key_QSARr>
XLLIQLLCWZCATF-UHFFFAOYSA-N

> <Salt_Solvent>
?

> <Ready_Biodeg>
1.0

$$$$
100511
  -INDIGO-08031722522D

 19 18  0  0  0  0  0  0  0  0999 V2000
    2.7713    0.0000    0.0000 C   0  0  0  0  0  0  0  0  0  0  0  0
    4.1569   -0.8000    0.0000 H   0  0  0  0  0  0  0  0  0  0  0  0
    4.1569    0.8000    0.0000 H   0  0  0  0  0  0  0  0  0  0  0  0
    2.7713   -1.6000    0.0000 H   0  0  0  0  0  0  0  0  0  0  0  0
    1.3857    0.8000    0.0000 C   0  0  0  0  0  0  0  0  0  0  0  0
    1.9980    2.2782    0.0000 H   0  0  0  0  0  0  0  0  0  0  0  0
    0.7734    2.2782    0.0000 H   0  0  0  0  0  0  0  0  0  0  0  0
    0.0001    0.0000    0.0000 C   0  0  0  0  0  0  0  0  0  0  0  0
   -0.6122   -1.4782    0.0000 H   0  0  0  0  0  0  0  0  0  0  0  0
    0.6124   -1.4782    0.0000 H   0  0  0  0  0  0  0  0  0  0  0  0
   -1.3857    0.8000    0.0000 C   0  0  0  0  0  0  0  0  0  0  0  0
   -0.7734    2.2782    0.0000 H   0  0  0  0  0  0  0  0  0  0  0  0
   -1.9980    2.2782    0.0000 H   0  0  0  0  0  0  0  0  0  0  0  0
   -2.7713    0.0000    0.0000 C   0  0  0  0  0  0  0  0  0  0  0  0
   -3.3836   -1.4782    0.0000 H   0  0  0  0  0  0  0  0  0  0  0  0
   -2.1590   -1.4782    0.0000 H   0  0  0  0  0  0  0  0  0  0  0  0
   -4.1569    0.8000    0.0000 N   0  0  0  0  0  0  0  0  0  0  0  0
   -5.5426    0.0000    0.0000 H   0  0  0  0  0  0  0  0  0  0  0  0
   -4.1569    2.4000    0.0000 H   0  0  0  0  0  0  0  0  0  0  0  0
  1  2  1  0  0  0  0
  1  3  1  0  0  0  0
  1  4  1  0  0  0  0
  1  5  1  0  0  0  0
  5  6  1  0  0  0  0
  5  7  1  0  0  0  0
  5  8  1  0  0  0  0
  8  9  1  0  0  0  0
  8 10  1  0  0  0  0
  8 11  1  0  0  0  0
 11 12  1  0  0  0  0
 11 13  1  0  0  0  0
 11 14  1  0  0  0  0
 14 15  1  0  0  0  0
 14 16  1  0  0  0  0
 14 17  1  0  0  0  0
 17 18  1  0  0  0  0
 17 19  1  0  0  0  0
M  END
> <ChemID>
100511

> <source_casrn>
110-58-7

> <CAS>
110-58-7

> <SMILES>
CCCCCN

> <NAME>
1-Pentanamine

> <preferred_name>
Pentan-1-amine

> <iupac>
pentan-1-amine

> <MPID>
100521

> <dsstox_substance_id>
DTXSID0021919

> <Canonical_QSARr>
CCCCCN

> <InChI_Code_QSARr>
InChI=1S/C5H13N/c1-2-3-4-5-6/h2-6H2,1H3

> <InChI Key_QSARr>
DPBLXKKOBLCELK-UHFFFAOYSA-N

> <Salt_Solvent>
?

> <Ready_Biodeg>
1.0

$$$$
100512
  -INDIGO-08031722522D

 16 15  0  0  0  0  0  0  0  0999 V2000
    0.0001    0.0000    0.0000 C   0  0  0  0  0  0  0  0  0  0  0  0
    0.6124    1.4782    0.0000 H   0  0  0  0  0  0  0  0  0  0  0  0
   -0.6122    1.4782    0.0000 H   0  0  0  0  0  0  0  0  0  0  0  0
    1.3857   -0.8000    0.0000 C   0  0  0  0  0  0  0  0  0  0  0  0
    0.7734   -2.2782    0.0000 H   0  0  0  0  0  0  0  0  0  0  0  0
    1.9980   -2.2782    0.0000 H   0  0  0  0  0  0  0  0  0  0  0  0
    2.7713    0.0000    0.0000 O   0  0  0  0  0  0  0  0  0  0  0  0
    4.1569   -0.8000    0.0000 H   0  0  0  0  0  0  0  0  0  0  0  0
   -1.3857   -0.8000    0.0000 C   0  0  0  0  0  0  0  0  0  0  0  0
   -1.9980   -2.2782    0.0000 H   0  0  0  0  0  0  0  0  0  0  0  0
   -0.7734   -2.2782    0.0000 H   0  0  0  0  0  0  0  0  0  0  0  0
   -2.7713    0.0000    0.0000 C   0  0  0  0  0  0  0  0  0  0  0  0
   -2.1590    1.4782    0.0000 H   0  0  0  0  0  0  0  0  0  0  0  0
   -3.3836    1.4782    0.0000 H   0  0  0  0  0  0  0  0  0  0  0  0
   -4.1569   -0.8000    0.0000 O   0  0  0  0  0  0  0  0  0  0  0  0
   -5.5426    0.0000    0.0000 H   0  0  0  0  0  0  0  0  0  0  0  0
  1  2  1  0  0  0  0
  1  3  1  0  0  0  0
  1  4  1  0  0  0  0
  4  5  1  0  0  0  0
  4  6  1  0  0  0  0
  4  7  1  0  0  0  0
  7  8  1  0  0  0  0
  1  9  1  0  0  0  0
  9 10  1  0  0  0  0
  9 11  1  0  0  0  0
  9 12  1  0  0  0  0
 12 13  1  0  0  0  0
 12 14  1  0  0  0  0
 12 15  1  0  0  0  0
 15 16  1  0  0  0  0
M  END
> <ChemID>
100512

> <source_casrn>
110-63-4

> <CAS>
110-63-4

> <SMILES>
OCCCCO

> <NAME>
1,4-Butanediol

> <preferred_name>
1,4-Butanediol

> <iupac>
butane-1,4-diol

> <MPID>
100522

> <dsstox_substance_id>
DTXSID2024666

> <Canonical_QSARr>
OCCCCO

> <InChI_Code_QSARr>
InChI=1S/C4H10O2/c5-3-1-2-4-6/h5-6H,1-4H2

> <InChI Key_QSARr>
WERYXYBDKMZEQL-UHFFFAOYSA-N

> <Salt_Solvent>
?

> <Ready_Biodeg>
1.0

$$$$
100513
  -INDIGO-08031722522D

 13 12  0  0  0  0  0  0  0  0999 V2000
   -1.3857    0.8000    0.0000 O   0  0  0  0  0  0  0  0  0  0  0  0
    0.0000    0.0000    0.0000 C   0  0  0  0  0  0  0  0  0  0  0  0
    0.6122   -1.4782    0.0000 H   0  0  0  0  0  0  0  0  0  0  0  0
   -0.6122   -1.4782    0.0000 H   0  0  0  0  0  0  0  0  0  0  0  0
    1.3856    0.8000    0.0000 C   0  0  0  0  0  0  0  0  0  0  0  0
    2.7713    1.6000    0.0000 H   0  0  0  0  0  0  0  0  0  0  0  0
    2.7713    0.0000    0.0000 H   0  0  0  0  0  0  0  0  0  0  0  0
    1.3856    2.4000    0.0000 Cl  0  0  0  0  0  0  0  0  0  0  0  0
   -2.7713    0.0000    0.0000 C   0  0  0  0  0  0  0  0  0  0  0  0
   -2.7713   -1.6000    0.0000 H   0  0  0  0  0  0  0  0  0  0  0  0
   -4.1569    0.8000    0.0000 C   0  0  0  0  0  0  0  0  0  0  0  0
   -5.5426    0.0000    0.0000 H   0  0  0  0  0  0  0  0  0  0  0  0
   -4.1570    2.4000    0.0000 H   0  0  0  0  0  0  0  0  0  0  0  0
  1  2  1  0  0  0  0
  2  3  1  0  0  0  0
  2  4  1  0  0  0  0
  2  5  1  0  0  0  0
  5  6  1  0  0  0  0
  5  7  1  0  0  0  0
  5  8  1  0  0  0  0
  1  9  1  0  0  0  0
  9 10  1  0  0  0  0
  9 11  2  0  0  0  0
 11 12  1  0  0  0  0
 11 13  1  0  0  0  0
M  END
> <ChemID>
100513

> <source_casrn>
110-75-8

> <CAS>
110-75-8

> <SMILES>
C=COCCCl

> <NAME>
2-Chloroethyl vinyl ether

> <preferred_name>
2-Chloroethyl vinyl ether

> <iupac>
(2-chloroethoxy)ethene

> <MPID>
100523

> <dsstox_substance_id>
DTXSID0051570

> <Canonical_QSARr>
C=COCCCl

> <InChI_Code_QSARr>
InChI=1S/C4H7ClO/c1-2-6-4-3-5/h2H,1,3-4H2

> <InChI Key_QSARr>
DNJRKFKAFWSXSE-UHFFFAOYSA-N

> <Salt_Solvent>
?

> <Ready_Biodeg>
1.0

$$$$
100515
  -INDIGO-08031722522D

 18 18  0  0  0  0  0  0  0  0999 V2000
    0.0000    0.0000    0.0000 C   0  0  0  0  0  0  0  0  0  0  0  0
    0.5472    1.5035    0.0000 H   0  0  0  0  0  0  0  0  0  0  0  0
    1.5757   -0.2778    0.0000 H   0  0  0  0  0  0  0  0  0  0  0  0
   -1.3856    0.8000    0.0000 C   0  0  0  0  0  0  0  0  0  0  0  0
   -0.3571    2.0257    0.0000 H   0  0  0  0  0  0  0  0  0  0  0  0
   -2.4141    2.0257    0.0000 H   0  0  0  0  0  0  0  0  0  0  0  0
   -2.7713    0.0000    0.0000 C   0  0  0  0  0  0  0  0  0  0  0  0
   -3.3185    1.5035    0.0000 H   0  0  0  0  0  0  0  0  0  0  0  0
   -4.3470   -0.2778    0.0000 H   0  0  0  0  0  0  0  0  0  0  0  0
   -2.7713   -1.6000    0.0000 C   0  0  0  0  0  0  0  0  0  0  0  0
   -4.3470   -1.3222    0.0000 H   0  0  0  0  0  0  0  0  0  0  0  0
   -3.3185   -3.1035    0.0000 H   0  0  0  0  0  0  0  0  0  0  0  0
   -1.3856   -2.4000    0.0000 C   0  0  0  0  0  0  0  0  0  0  0  0
   -2.4141   -3.6257    0.0000 H   0  0  0  0  0  0  0  0  0  0  0  0
   -0.3571   -3.6257    0.0000 H   0  0  0  0  0  0  0  0  0  0  0  0
    0.0000   -1.6000    0.0000 C   0  0  0  0  0  0  0  0  0  0  0  0
    0.5472   -3.1035    0.0000 H   0  0  0  0  0  0  0  0  0  0  0  0
    1.5757   -1.3222    0.0000 H   0  0  0  0  0  0  0  0  0  0  0  0
  1  2  1  0  0  0  0
  1  3  1  0  0  0  0
  1  4  1  0  0  0  0
  4  5  1  0  0  0  0
  4  6  1  0  0  0  0
  4  7  1  0  0  0  0
  7  8  1  0  0  0  0
  7  9  1  0  0  0  0
  7 10  1  0  0  0  0
 10 11  1  0  0  0  0
 10 12  1  0  0  0  0
 10 13  1  0  0  0  0
 13 14  1  0  0  0  0
 13 15  1  0  0  0  0
 13 16  1  0  0  0  0
 16  1  1  0  0  0  0
 16 17  1  0  0  0  0
 16 18  1  0  0  0  0
M  END
> <ChemID>
100515

> <source_casrn>
110-82-7

> <CAS>
110-82-7

> <SMILES>
C1CCCCC1

> <NAME>
Cyclohexane

> <preferred_name>
Cyclohexane

> <iupac>
cyclohexane

> <MPID>
100525

> <dsstox_substance_id>
DTXSID4021923

> <Canonical_QSARr>
C1CCCCC1

> <InChI_Code_QSARr>
InChI=1S/C6H12/c1-2-4-6-5-3-1/h1-6H2

> <InChI Key_QSARr>
XDTMQSROBMDMFD-UHFFFAOYSA-N

> <Salt_Solvent>
?

> <Ready_Biodeg>
0.0

$$$$
100516
  -INDIGO-08031722522D

 16 16  0  0  0  0  0  0  0  0999 V2000
    0.0000    0.0000    0.0000 C   0  0  0  0  0  0  0  0  0  0  0  0
    0.5472    1.5035    0.0000 H   0  0  0  0  0  0  0  0  0  0  0  0
    1.5757   -0.2778    0.0000 H   0  0  0  0  0  0  0  0  0  0  0  0
   -1.3857    0.8000    0.0000 C   0  0  0  0  0  0  0  0  0  0  0  0
   -0.3571    2.0257    0.0000 H   0  0  0  0  0  0  0  0  0  0  0  0
   -2.4141    2.0257    0.0000 H   0  0  0  0  0  0  0  0  0  0  0  0
   -2.7713    0.0000    0.0000 N   0  0  0  0  0  0  0  0  0  0  0  0
   -4.1569    0.8000    0.0000 H   0  0  0  0  0  0  0  0  0  0  0  0
   -2.7713   -1.6000    0.0000 C   0  0  0  0  0  0  0  0  0  0  0  0
   -4.3470   -1.3222    0.0000 H   0  0  0  0  0  0  0  0  0  0  0  0
   -3.3185   -3.1035    0.0000 H   0  0  0  0  0  0  0  0  0  0  0  0
   -1.3856   -2.4000    0.0000 C   0  0  0  0  0  0  0  0  0  0  0  0
   -2.4141   -3.6257    0.0000 H   0  0  0  0  0  0  0  0  0  0  0  0
   -0.3571   -3.6257    0.0000 H   0  0  0  0  0  0  0  0  0  0  0  0
    0.0000   -1.6000    0.0000 N   0  0  0  0  0  0  0  0  0  0  0  0
    1.3856   -2.4000    0.0000 H   0  0  0  0  0  0  0  0  0  0  0  0
  1  2  1  0  0  0  0
  1  3  1  0  0  0  0
  1  4  1  0  0  0  0
  4  5  1  0  0  0  0
  4  6  1  0  0  0  0
  4  7  1  0  0  0  0
  7  8  1  0  0  0  0
  7  9  1  0  0  0  0
  9 10  1  0  0  0  0
  9 11  1  0  0  0  0
  9 12  1  0  0  0  0
 12 13  1  0  0  0  0
 12 14  1  0  0  0  0
 12 15  1  0  0  0  0
 15  1  1  0  0  0  0
 15 16  1  0  0  0  0
M  END
> <ChemID>
100516

> <source_casrn>
110-85-0

> <CAS>
110-85-0

> <SMILES>
C1CNCCN1

> <NAME>
Piperazine

> <preferred_name>
Piperazine

> <iupac>
piperazine

> <MPID>
100526

> <dsstox_substance_id>
DTXSID1021164

> <Canonical_QSARr>
C1CNCCN1

> <InChI_Code_QSARr>
InChI=1S/C4H10N2/c1-2-6-4-3-5-1/h5-6H,1-4H2

> <InChI Key_QSARr>
GLUUGHFHXGJENI-UHFFFAOYSA-N

> <Salt_Solvent>
?

> <Ready_Biodeg>
0.0

$$$$
100517
  -INDIGO-08031722522D

 11 11  0  0  0  0  0  0  0  0999 V2000
   -0.0000    3.2000    0.0000 N   0  0  0  0  0  0  0  0  0  0  0  0
    1.3856    2.4000    0.0000 C   0  0  0  0  0  0  0  0  0  0  0  0
    2.7713    3.2000    0.0000 H   0  0  0  0  0  0  0  0  0  0  0  0
    1.3856    0.8000    0.0000 C   0  0  0  0  0  0  0  0  0  0  0  0
    2.7713    0.0000    0.0000 H   0  0  0  0  0  0  0  0  0  0  0  0
   -0.0000    0.0000    0.0000 C   0  0  0  0  0  0  0  0  0  0  0  0
   -0.0000   -1.6000    0.0000 H   0  0  0  0  0  0  0  0  0  0  0  0
   -1.3856    0.8000    0.0000 C   0  0  0  0  0  0  0  0  0  0  0  0
   -2.7713    0.0000    0.0000 H   0  0  0  0  0  0  0  0  0  0  0  0
   -1.3856    2.4000    0.0000 C   0  0  0  0  0  0  0  0  0  0  0  0
   -2.7713    3.2000    0.0000 H   0  0  0  0  0  0  0  0  0  0  0  0
  1  2  1  0  0  0  0
  2  3  1  0  0  0  0
  2  4  2  0  0  0  0
  4  5  1  0  0  0  0
  4  6  1  0  0  0  0
  6  7  1  0  0  0  0
  6  8  2  0  0  0  0
  8  9  1  0  0  0  0
  8 10  1  0  0  0  0
 10  1  2  0  0  0  0
 10 11  1  0  0  0  0
M  END
> <ChemID>
100517

> <source_casrn>
110-86-1

> <CAS>
110-86-1

> <SMILES>
c1cccc[n]1

> <NAME>
Pyridine

> <preferred_name>
Pyridine

> <iupac>
pyridine

> <MPID>
100527

> <dsstox_substance_id>
DTXSID9021924

> <Canonical_QSARr>
c1cccc[n]1

> <InChI_Code_QSARr>
InChI=1S/C5H5N/c1-2-4-6-5-3-1/h1-5H

> <InChI Key_QSARr>
JUJWROOIHBZHMG-UHFFFAOYSA-N

> <Salt_Solvent>
?

> <Ready_Biodeg>
1.0

$$$$
100519
  -INDIGO-08031722522D

 15 15  0  0  0  0  0  0  0  0999 V2000
    0.0000    0.0000    0.0000 C   0  0  0  0  0  0  0  0  0  0  0  0
    1.5757    0.2778    0.0000 H   0  0  0  0  0  0  0  0  0  0  0  0
    0.5472   -1.5035    0.0000 H   0  0  0  0  0  0  0  0  0  0  0  0
    0.0000    1.6000    0.0000 C   0  0  0  0  0  0  0  0  0  0  0  0
    1.5757    1.3222    0.0000 H   0  0  0  0  0  0  0  0  0  0  0  0
    0.5472    3.1035    0.0000 H   0  0  0  0  0  0  0  0  0  0  0  0
   -1.3856    2.4000    0.0000 O   0  0  0  0  0  0  0  0  0  0  0  0
   -2.7713    1.6000    0.0000 C   0  0  0  0  0  0  0  0  0  0  0  0
   -3.3185    3.1035    0.0000 H   0  0  0  0  0  0  0  0  0  0  0  0
   -4.3470    1.3222    0.0000 H   0  0  0  0  0  0  0  0  0  0  0  0
   -2.7713    0.0000    0.0000 C   0  0  0  0  0  0  0  0  0  0  0  0
   -4.3470    0.2778    0.0000 H   0  0  0  0  0  0  0  0  0  0  0  0
   -3.3185   -1.5035    0.0000 H   0  0  0  0  0  0  0  0  0  0  0  0
   -1.3856   -0.8000    0.0000 N   0  0  0  0  0  0  0  0  0  0  0  0
   -1.3856   -2.4000    0.0000 H   0  0  0  0  0  0  0  0  0  0  0  0
  1  2  1  0  0  0  0
  1  3  1  0  0  0  0
  1  4  1  0  0  0  0
  4  5  1  0  0  0  0
  4  6  1  0  0  0  0
  4  7  1  0  0  0  0
  7  8  1  0  0  0  0
  8  9  1  0  0  0  0
  8 10  1  0  0  0  0
  8 11  1  0  0  0  0
 11 12  1  0  0  0  0
 11 13  1  0  0  0  0
 11 14  1  0  0  0  0
 14  1  1  0  0  0  0
 14 15  1  0  0  0  0
M  END
> <ChemID>
100519

> <source_casrn>
110-91-8

> <CAS>
110-91-8

> <SMILES>
C1COCCN1

> <NAME>
Morpholine

> <preferred_name>
Morpholine

> <iupac>
morpholine

> <MPID>
100529

> <dsstox_substance_id>
DTXSID2025688

> <Canonical_QSARr>
C1COCCN1

> <InChI_Code_QSARr>
InChI=1S/C4H9NO/c1-3-6-4-2-5-1/h5H,1-4H2

> <InChI Key_QSARr>
YNAVUWVOSKDBBP-UHFFFAOYSA-N

> <Salt_Solvent>
?

> <Ready_Biodeg>
0.0

$$$$
100520
  -INDIGO-08031722522D

 28 27  0  0  0  0  0  0  0  0999 V2000
   -2.7291   -0.4812    0.0000 N   0  0  0  0  0  0  0  0  0  0  0  0
   -2.4514   -2.0569    0.0000 H   0  0  0  0  0  0  0  0  0  0  0  0
   -4.2328    0.0660    0.0000 C   0  0  0  0  0  0  0  0  0  0  0  0
   -3.8864    1.6281    0.0000 H   0  0  0  0  0  0  0  0  0  0  0  0
   -5.0924    1.4154    0.0000 H   0  0  0  0  0  0  0  0  0  0  0  0
   -5.4583   -0.9625    0.0000 C   0  0  0  0  0  0  0  0  0  0  0  0
   -4.2328   -1.9909    0.0000 H   0  0  0  0  0  0  0  0  0  0  0  0
   -6.4869   -2.1881    0.0000 C   0  0  0  0  0  0  0  0  0  0  0  0
   -7.5153   -3.4138    0.0000 H   0  0  0  0  0  0  0  0  0  0  0  0
   -8.0625   -1.9103    0.0000 H   0  0  0  0  0  0  0  0  0  0  0  0
   -5.9396   -3.6916    0.0000 H   0  0  0  0  0  0  0  0  0  0  0  0
   -6.6841    0.0660    0.0000 C   0  0  0  0  0  0  0  0  0  0  0  0
   -7.9098    1.0945    0.0000 H   0  0  0  0  0  0  0  0  0  0  0  0
   -6.4061    1.6417    0.0000 H   0  0  0  0  0  0  0  0  0  0  0  0
   -8.1875   -0.4812    0.0000 H   0  0  0  0  0  0  0  0  0  0  0  0
   -1.5036    0.5473    0.0000 C   0  0  0  0  0  0  0  0  0  0  0  0
   -1.1572    2.1093    0.0000 H   0  0  0  0  0  0  0  0  0  0  0  0
   -2.3632    1.8966    0.0000 H   0  0  0  0  0  0  0  0  0  0  0  0
   -0.0001    0.0000    0.0000 C   0  0  0  0  0  0  0  0  0  0  0  0
   -0.8001   -1.3857    0.0000 H   0  0  0  0  0  0  0  0  0  0  0  0
    1.3857   -0.8000    0.0000 C   0  0  0  0  0  0  0  0  0  0  0  0
    2.7713   -1.6000    0.0000 H   0  0  0  0  0  0  0  0  0  0  0  0
    2.7713    0.0000    0.0000 H   0  0  0  0  0  0  0  0  0  0  0  0
    1.3857   -2.4000    0.0000 H   0  0  0  0  0  0  0  0  0  0  0  0
    0.8001    1.3856    0.0000 C   0  0  0  0  0  0  0  0  0  0  0  0
    1.6001    2.7713    0.0000 H   0  0  0  0  0  0  0  0  0  0  0  0
   -0.0001    2.7713    0.0000 H   0  0  0  0  0  0  0  0  0  0  0  0
    2.4001    1.3856    0.0000 H   0  0  0  0  0  0  0  0  0  0  0  0
  1  2  1  0  0  0  0
  1  3  1  0  0  0  0
  3  4  1  0  0  0  0
  3  5  1  0  0  0  0
  3  6  1  0  0  0  0
  6  7  1  0  0  0  0
  6  8  1  0  0  0  0
  8  9  1  0  0  0  0
  8 10  1  0  0  0  0
  8 11  1  0  0  0  0
  6 12  1  0  0  0  0
 12 13  1  0  0  0  0
 12 14  1  0  0  0  0
 12 15  1  0  0  0  0
  1 16  1  0  0  0  0
 16 17  1  0  0  0  0
 16 18  1  0  0  0  0
 16 19  1  0  0  0  0
 19 20  1  0  0  0  0
 19 21  1  0  0  0  0
 21 22  1  0  0  0  0
 21 23  1  0  0  0  0
 21 24  1  0  0  0  0
 19 25  1  0  0  0  0
 25 26  1  0  0  0  0
 25 27  1  0  0  0  0
 25 28  1  0  0  0  0
M  END
> <ChemID>
100520

> <source_casrn>
110-96-3

> <CAS>
110-96-3

> <SMILES>
CC(C)CNCC(C)C

> <NAME>
1-Propanamine, 2-methyl-N-(2-methylpropyl)-

> <preferred_name>
Diisobutylamine

> <iupac>
2-methyl-N-(2-methylpropyl)propan-1-amine

> <MPID>
100530

> <dsstox_substance_id>
DTXSID5025079

> <Canonical_QSARr>
CC(C)CNCC(C)C

> <InChI_Code_QSARr>
InChI=1S/C8H19N/c1-7(2)5-9-6-8(3)4/h7-9H,5-6H2,1-4H3

> <InChI Key_QSARr>
NJBCRXCAPCODGX-UHFFFAOYSA-N

> <Salt_Solvent>
?

> <Ready_Biodeg>
1.0

$$$$
100521
  -INDIGO-08031722522D

 23 22  0  0  0  0  0  0  0  0999 V2000
   -4.1569    0.8000    0.0000 C   0  0  0  0  0  0  0  0  0  0  0  0
   -3.5447    2.2782    0.0000 H   0  0  0  0  0  0  0  0  0  0  0  0
   -4.7692    2.2782    0.0000 H   0  0  0  0  0  0  0  0  0  0  0  0
   -5.5425    0.0000    0.0000 C   0  0  0  0  0  0  0  0  0  0  0  0
   -4.7426   -1.3856    0.0000 H   0  0  0  0  0  0  0  0  0  0  0  0
   -6.9282   -0.8000    0.0000 C   0  0  0  0  0  0  0  0  0  0  0  0
   -8.3138   -1.6000    0.0000 H   0  0  0  0  0  0  0  0  0  0  0  0
   -8.3138    0.0000    0.0000 H   0  0  0  0  0  0  0  0  0  0  0  0
   -6.9282   -2.4000    0.0000 H   0  0  0  0  0  0  0  0  0  0  0  0
   -6.3426    1.3856    0.0000 O   0  0  0  0  0  0  0  0  0  0  0  0
   -7.9426    1.3856    0.0000 H   0  0  0  0  0  0  0  0  0  0  0  0
   -2.7712    0.0000    0.0000 O   0  0  0  0  0  0  0  0  0  0  0  0
   -1.3857    0.8000    0.0000 C   0  0  0  0  0  0  0  0  0  0  0  0
   -0.7734    2.2782    0.0000 H   0  0  0  0  0  0  0  0  0  0  0  0
   -1.9979    2.2782    0.0000 H   0  0  0  0  0  0  0  0  0  0  0  0
   -0.0000    0.0000    0.0000 C   0  0  0  0  0  0  0  0  0  0  0  0
   -0.7999   -1.3856    0.0000 H   0  0  0  0  0  0  0  0  0  0  0  0
    1.3856   -0.8000    0.0000 C   0  0  0  0  0  0  0  0  0  0  0  0
    2.7713   -1.6000    0.0000 H   0  0  0  0  0  0  0  0  0  0  0  0
    2.7713    0.0000    0.0000 H   0  0  0  0  0  0  0  0  0  0  0  0
    1.3856   -2.4000    0.0000 H   0  0  0  0  0  0  0  0  0  0  0  0
    0.8000    1.3856    0.0000 O   0  0  0  0  0  0  0  0  0  0  0  0
    2.4000    1.3856    0.0000 H   0  0  0  0  0  0  0  0  0  0  0  0
  1  2  1  0  0  0  0
  1  3  1  0  0  0  0
  1  4  1  0  0  0  0
  4  5  1  0  0  0  0
  4  6  1  0  0  0  0
  6  7  1  0  0  0  0
  6  8  1  0  0  0  0
  6  9  1  0  0  0  0
  4 10  1  0  0  0  0
 10 11  1  0  0  0  0
  1 12  1  0  0  0  0
 12 13  1  0  0  0  0
 13 14  1  0  0  0  0
 13 15  1  0  0  0  0
 13 16  1  0  0  0  0
 16 17  1  0  0  0  0
 16 18  1  0  0  0  0
 18 19  1  0  0  0  0
 18 20  1  0  0  0  0
 18 21  1  0  0  0  0
 16 22  1  0  0  0  0
 22 23  1  0  0  0  0
M  END
> <ChemID>
100521

> <source_casrn>
110-98-5

> <CAS>
110-98-5

> <SMILES>
CC(O)COCC(C)O

> <NAME>
2-Propanol, 1,1'-oxybis-

> <preferred_name>
1,1'-Oxybis-2-propanol

> <iupac>
1,1'-oxydipropan-2-ol

> <MPID>
100531

> <dsstox_substance_id>
DTXSID7026863

> <Canonical_QSARr>
CC(O)COCC(C)O

> <InChI_Code_QSARr>
InChI=1S/C6H14O3/c1-5(7)3-9-4-6(2)8/h5-8H,3-4H2,1-2H3

> <InChI Key_QSARr>
AZUXKVXMJOIAOF-UHFFFAOYSA-N

> <Salt_Solvent>
?

> <Ready_Biodeg>
0.0

$$$$
100523
  -INDIGO-08031722522D

 23 22  0  0  0  0  0  0  0  0999 V2000
    4.1570    2.4000    0.0000 O   0  0  0  0  0  0  0  0  0  0  0  0
    4.1570    0.8000    0.0000 C   0  0  0  0  0  0  0  0  0  0  0  0
    5.5425    0.0000    0.0000 O   0  0  0  0  0  0  0  0  0  0  0  0
    6.9282    0.8000    0.0000 H   0  0  0  0  0  0  0  0  0  0  0  0
    2.7713    0.0000    0.0000 C   0  0  0  0  0  0  0  0  0  0  0  0
    2.1589   -1.4782    0.0000 H   0  0  0  0  0  0  0  0  0  0  0  0
    3.3836   -1.4782    0.0000 H   0  0  0  0  0  0  0  0  0  0  0  0
    1.3856    0.8000    0.0000 C   0  0  0  0  0  0  0  0  0  0  0  0
    1.9979    2.2782    0.0000 H   0  0  0  0  0  0  0  0  0  0  0  0
    0.7734    2.2782    0.0000 H   0  0  0  0  0  0  0  0  0  0  0  0
    0.0001    0.0000    0.0000 C   0  0  0  0  0  0  0  0  0  0  0  0
   -0.6123   -1.4782    0.0000 H   0  0  0  0  0  0  0  0  0  0  0  0
    0.6122   -1.4782    0.0000 H   0  0  0  0  0  0  0  0  0  0  0  0
   -1.3856    0.8000    0.0000 C   0  0  0  0  0  0  0  0  0  0  0  0
   -0.7733    2.2782    0.0000 H   0  0  0  0  0  0  0  0  0  0  0  0
   -1.9980    2.2782    0.0000 H   0  0  0  0  0  0  0  0  0  0  0  0
   -2.7713    0.0000    0.0000 C   0  0  0  0  0  0  0  0  0  0  0  0
   -3.3835   -1.4782    0.0000 H   0  0  0  0  0  0  0  0  0  0  0  0
   -2.1590   -1.4782    0.0000 H   0  0  0  0  0  0  0  0  0  0  0  0
   -4.1569    0.8000    0.0000 C   0  0  0  0  0  0  0  0  0  0  0  0
   -5.5426    1.6000    0.0000 H   0  0  0  0  0  0  0  0  0  0  0  0
   -5.5426    0.0000    0.0000 H   0  0  0  0  0  0  0  0  0  0  0  0
   -4.1569    2.4000    0.0000 H   0  0  0  0  0  0  0  0  0  0  0  0
  1  2  2  0  0  0  0
  2  3  1  0  0  0  0
  3  4  1  0  0  0  0
  2  5  1  0  0  0  0
  5  6  1  0  0  0  0
  5  7  1  0  0  0  0
  5  8  1  0  0  0  0
  8  9  1  0  0  0  0
  8 10  1  0  0  0  0
  8 11  1  0  0  0  0
 11 12  1  0  0  0  0
 11 13  1  0  0  0  0
 11 14  1  0  0  0  0
 14 15  1  0  0  0  0
 14 16  1  0  0  0  0
 14 17  1  0  0  0  0
 17 18  1  0  0  0  0
 17 19  1  0  0  0  0
 17 20  1  0  0  0  0
 20 21  1  0  0  0  0
 20 22  1  0  0  0  0
 20 23  1  0  0  0  0
M  END
> <ChemID>
100523

> <source_casrn>
111-14-8

> <CAS>
111-14-8

> <SMILES>
CCCCCCC(O)=O

> <NAME>
Heptanoic acid

> <preferred_name>
Heptanoic acid

> <iupac>
heptanoic acid

> <MPID>
100533

> <dsstox_substance_id>
DTXSID2021600

> <Canonical_QSARr>
CCCCCCC(O)=O

> <InChI_Code_QSARr>
InChI=1S/C7H14O2/c1-2-3-4-5-6-7(8)9/h2-6H2,1H3,(H,8,9)

> <InChI Key_QSARr>
MNWFXJYAOYHMED-UHFFFAOYSA-N

> <Salt_Solvent>
?

> <Ready_Biodeg>
1.0

$$$$
100524
  -INDIGO-08031722522D

 21 20  0  0  0  0  0  0  0  0999 V2000
    5.5425    0.0000    0.0000 C   0  0  0  0  0  0  0  0  0  0  0  0
    6.9282   -0.8000    0.0000 H   0  0  0  0  0  0  0  0  0  0  0  0
    6.9282    0.8000    0.0000 H   0  0  0  0  0  0  0  0  0  0  0  0
    5.5425   -1.6000    0.0000 H   0  0  0  0  0  0  0  0  0  0  0  0
    4.1570    0.8000    0.0000 C   0  0  0  0  0  0  0  0  0  0  0  0
    4.1570    2.4000    0.0000 O   0  0  0  0  0  0  0  0  0  0  0  0
    2.7713    0.0000    0.0000 O   0  0  0  0  0  0  0  0  0  0  0  0
    1.3856    0.8000    0.0000 C   0  0  0  0  0  0  0  0  0  0  0  0
    0.7734    2.2782    0.0000 H   0  0  0  0  0  0  0  0  0  0  0  0
    1.9979    2.2782    0.0000 H   0  0  0  0  0  0  0  0  0  0  0  0
    0.0001    0.0000    0.0000 C   0  0  0  0  0  0  0  0  0  0  0  0
    0.6122   -1.4782    0.0000 H   0  0  0  0  0  0  0  0  0  0  0  0
   -0.6123   -1.4782    0.0000 H   0  0  0  0  0  0  0  0  0  0  0  0
   -1.3856    0.8000    0.0000 O   0  0  0  0  0  0  0  0  0  0  0  0
   -2.7713    0.0000    0.0000 C   0  0  0  0  0  0  0  0  0  0  0  0
   -2.1590   -1.4782    0.0000 H   0  0  0  0  0  0  0  0  0  0  0  0
   -3.3835   -1.4782    0.0000 H   0  0  0  0  0  0  0  0  0  0  0  0
   -4.1569    0.8000    0.0000 C   0  0  0  0  0  0  0  0  0  0  0  0
   -5.5426    1.6000    0.0000 H   0  0  0  0  0  0  0  0  0  0  0  0
   -5.5426    0.0000    0.0000 H   0  0  0  0  0  0  0  0  0  0  0  0
   -4.1569    2.4000    0.0000 H   0  0  0  0  0  0  0  0  0  0  0  0
  1  2  1  0  0  0  0
  1  3  1  0  0  0  0
  1  4  1  0  0  0  0
  1  5  1  0  0  0  0
  5  6  2  0  0  0  0
  5  7  1  0  0  0  0
  7  8  1  0  0  0  0
  8  9  1  0  0  0  0
  8 10  1  0  0  0  0
  8 11  1  0  0  0  0
 11 12  1  0  0  0  0
 11 13  1  0  0  0  0
 11 14  1  0  0  0  0
 14 15  1  0  0  0  0
 15 16  1  0  0  0  0
 15 17  1  0  0  0  0
 15 18  1  0  0  0  0
 18 19  1  0  0  0  0
 18 20  1  0  0  0  0
 18 21  1  0  0  0  0
M  END
> <ChemID>
100524

> <source_casrn>
111-15-9

> <CAS>
111-15-9

> <SMILES>
CCOCCOC(C)=O

> <NAME>
Ethanol, 2-ethoxy-, acetate

> <preferred_name>
2-Ethoxyethyl acetate

> <iupac>
2-ethoxyethyl acetate

> <MPID>
100534

> <dsstox_substance_id>
DTXSID9021928

> <Canonical_QSARr>
CCOCCOC(C)=O

> <InChI_Code_QSARr>
InChI=1S/C6H12O3/c1-3-8-4-5-9-6(2)7/h3-5H2,1-2H3

> <InChI Key_QSARr>
SVONRAPFKPVNKG-UHFFFAOYSA-N

> <Salt_Solvent>
?

> <Ready_Biodeg>
1.0

$$$$
100525
  -INDIGO-08031722522D

 22 21  0  0  0  0  0  0  0  0999 V2000
    4.1569    0.8000    0.0000 C   0  0  0  0  0  0  0  0  0  0  0  0
    5.5426    1.6000    0.0000 H   0  0  0  0  0  0  0  0  0  0  0  0
    5.5426    0.0000    0.0000 H   0  0  0  0  0  0  0  0  0  0  0  0
    4.1569    2.4000    0.0000 H   0  0  0  0  0  0  0  0  0  0  0  0
    2.7712    0.0000    0.0000 C   0  0  0  0  0  0  0  0  0  0  0  0
    3.3836   -1.4782    0.0000 H   0  0  0  0  0  0  0  0  0  0  0  0
    2.1589   -1.4782    0.0000 H   0  0  0  0  0  0  0  0  0  0  0  0
    1.3856    0.8000    0.0000 C   0  0  0  0  0  0  0  0  0  0  0  0
    0.7734    2.2782    0.0000 H   0  0  0  0  0  0  0  0  0  0  0  0
    1.9979    2.2782    0.0000 H   0  0  0  0  0  0  0  0  0  0  0  0
    0.0001    0.0000    0.0000 C   0  0  0  0  0  0  0  0  0  0  0  0
    0.6122   -1.4782    0.0000 H   0  0  0  0  0  0  0  0  0  0  0  0
   -0.6122   -1.4782    0.0000 H   0  0  0  0  0  0  0  0  0  0  0  0
   -1.3856    0.8000    0.0000 C   0  0  0  0  0  0  0  0  0  0  0  0
   -1.9979    2.2782    0.0000 H   0  0  0  0  0  0  0  0  0  0  0  0
   -0.7734    2.2782    0.0000 H   0  0  0  0  0  0  0  0  0  0  0  0
   -2.7712    0.0000    0.0000 C   0  0  0  0  0  0  0  0  0  0  0  0
   -2.1589   -1.4782    0.0000 H   0  0  0  0  0  0  0  0  0  0  0  0
   -3.3836   -1.4782    0.0000 H   0  0  0  0  0  0  0  0  0  0  0  0
   -4.1569    0.8000    0.0000 N   0  0  0  0  0  0  0  0  0  0  0  0
   -5.5426    0.0000    0.0000 H   0  0  0  0  0  0  0  0  0  0  0  0
   -4.1569    2.4000    0.0000 H   0  0  0  0  0  0  0  0  0  0  0  0
  1  2  1  0  0  0  0
  1  3  1  0  0  0  0
  1  4  1  0  0  0  0
  1  5  1  0  0  0  0
  5  6  1  0  0  0  0
  5  7  1  0  0  0  0
  5  8  1  0  0  0  0
  8  9  1  0  0  0  0
  8 10  1  0  0  0  0
  8 11  1  0  0  0  0
 11 12  1  0  0  0  0
 11 13  1  0  0  0  0
 11 14  1  0  0  0  0
 14 15  1  0  0  0  0
 14 16  1  0  0  0  0
 14 17  1  0  0  0  0
 17 18  1  0  0  0  0
 17 19  1  0  0  0  0
 17 20  1  0  0  0  0
 20 21  1  0  0  0  0
 20 22  1  0  0  0  0
M  END
> <ChemID>
100525

> <source_casrn>
111-26-2

> <CAS>
111-26-2

> <SMILES>
NCCCCCC

> <NAME>
n-Hexyl amine

> <preferred_name>
Hexylamine

> <iupac>
hexan-1-amine

> <MPID>
100535

> <dsstox_substance_id>
DTXSID3021930

> <Canonical_QSARr>
CCCCCCN

> <InChI_Code_QSARr>
InChI=1S/C6H15N/c1-2-3-4-5-6-7/h2-7H2,1H3

> <InChI Key_QSARr>
BMVXCPBXGZKUPN-UHFFFAOYSA-N

> <Salt_Solvent>
?

> <Ready_Biodeg>
1.0

$$$$
100527
  -INDIGO-08031722522D

 19 18  0  0  0  0  0  0  0  0999 V2000
    2.7712    0.0000    0.0000 C   0  0  0  0  0  0  0  0  0  0  0  0
    3.3836   -1.4782    0.0000 H   0  0  0  0  0  0  0  0  0  0  0  0
    2.1589   -1.4782    0.0000 H   0  0  0  0  0  0  0  0  0  0  0  0
    1.3856    0.8000    0.0000 C   0  0  0  0  0  0  0  0  0  0  0  0
    0.7734    2.2782    0.0000 H   0  0  0  0  0  0  0  0  0  0  0  0
    1.9979    2.2782    0.0000 H   0  0  0  0  0  0  0  0  0  0  0  0
    0.0001    0.0000    0.0000 C   0  0  0  0  0  0  0  0  0  0  0  0
    0.6122   -1.4782    0.0000 H   0  0  0  0  0  0  0  0  0  0  0  0
   -0.6122   -1.4782    0.0000 H   0  0  0  0  0  0  0  0  0  0  0  0
   -1.3856    0.8000    0.0000 C   0  0  0  0  0  0  0  0  0  0  0  0
   -1.9979    2.2782    0.0000 H   0  0  0  0  0  0  0  0  0  0  0  0
   -0.7734    2.2782    0.0000 H   0  0  0  0  0  0  0  0  0  0  0  0
   -2.7712    0.0000    0.0000 C   0  0  0  0  0  0  0  0  0  0  0  0
   -2.1589   -1.4782    0.0000 H   0  0  0  0  0  0  0  0  0  0  0  0
   -3.3836   -1.4782    0.0000 H   0  0  0  0  0  0  0  0  0  0  0  0
   -4.1569    0.8000    0.0000 O   0  0  0  0  0  0  0  0  0  0  0  0
   -5.5426    0.0000    0.0000 H   0  0  0  0  0  0  0  0  0  0  0  0
    4.1569    0.8000    0.0000 O   0  0  0  0  0  0  0  0  0  0  0  0
    5.5426    0.0000    0.0000 H   0  0  0  0  0  0  0  0  0  0  0  0
  1  2  1  0  0  0  0
  1  3  1  0  0  0  0
  1  4  1  0  0  0  0
  4  5  1  0  0  0  0
  4  6  1  0  0  0  0
  4  7  1  0  0  0  0
  7  8  1  0  0  0  0
  7  9  1  0  0  0  0
  7 10  1  0  0  0  0
 10 11  1  0  0  0  0
 10 12  1  0  0  0  0
 10 13  1  0  0  0  0
 13 14  1  0  0  0  0
 13 15  1  0  0  0  0
 13 16  1  0  0  0  0
 16 17  1  0  0  0  0
  1 18  1  0  0  0  0
 18 19  1  0  0  0  0
M  END
> <ChemID>
100527

> <source_casrn>
111-29-5

> <CAS>
111-29-5

> <SMILES>
OCCCCCO

> <NAME>
1,5-Pentanediol

> <preferred_name>
1,5-Pentanediol

> <iupac>
pentane-1,5-diol

> <MPID>
100537

> <dsstox_substance_id>
DTXSID2041256

> <Canonical_QSARr>
OCCCCCO

> <InChI_Code_QSARr>
InChI=1S/C5H12O2/c6-4-2-1-3-5-7/h6-7H,1-5H2

> <InChI Key_QSARr>
ALQSHHUCVQOPAS-UHFFFAOYSA-N

> <Salt_Solvent>
?

> <Ready_Biodeg>
1.0

$$$$
100528
  -INDIGO-08031722522D

 20 19  0  0  0  0  0  0  0  0999 V2000
    1.3856    0.8000    0.0000 N   0  0  0  0  0  0  0  0  0  0  0  0
    1.3856    2.4000    0.0000 H   0  0  0  0  0  0  0  0  0  0  0  0
    2.7712    0.0000    0.0000 C   0  0  0  0  0  0  0  0  0  0  0  0
    3.3835   -1.4782    0.0000 H   0  0  0  0  0  0  0  0  0  0  0  0
    2.1591   -1.4782    0.0000 H   0  0  0  0  0  0  0  0  0  0  0  0
    4.1569    0.8000    0.0000 C   0  0  0  0  0  0  0  0  0  0  0  0
    3.5446    2.2782    0.0000 H   0  0  0  0  0  0  0  0  0  0  0  0
    4.7692    2.2782    0.0000 H   0  0  0  0  0  0  0  0  0  0  0  0
    5.5425    0.0000    0.0000 N   0  0  0  0  0  0  0  0  0  0  0  0
    6.9282    0.8000    0.0000 H   0  0  0  0  0  0  0  0  0  0  0  0
    5.5425   -1.6000    0.0000 H   0  0  0  0  0  0  0  0  0  0  0  0
    0.0001    0.0000    0.0000 C   0  0  0  0  0  0  0  0  0  0  0  0
    0.6122   -1.4782    0.0000 H   0  0  0  0  0  0  0  0  0  0  0  0
   -0.6123   -1.4782    0.0000 H   0  0  0  0  0  0  0  0  0  0  0  0
   -1.3856    0.8000    0.0000 C   0  0  0  0  0  0  0  0  0  0  0  0
   -1.9979    2.2782    0.0000 H   0  0  0  0  0  0  0  0  0  0  0  0
   -0.7733    2.2782    0.0000 H   0  0  0  0  0  0  0  0  0  0  0  0
   -2.7713    0.0000    0.0000 N   0  0  0  0  0  0  0  0  0  0  0  0
   -4.1569    0.8000    0.0000 H   0  0  0  0  0  0  0  0  0  0  0  0
   -2.7713   -1.6000    0.0000 H   0  0  0  0  0  0  0  0  0  0  0  0
  1  2  1  0  0  0  0
  1  3  1  0  0  0  0
  3  4  1  0  0  0  0
  3  5  1  0  0  0  0
  3  6  1  0  0  0  0
  6  7  1  0  0  0  0
  6  8  1  0  0  0  0
  6  9  1  0  0  0  0
  9 10  1  0  0  0  0
  9 11  1  0  0  0  0
  1 12  1  0  0  0  0
 12 13  1  0  0  0  0
 12 14  1  0  0  0  0
 12 15  1  0  0  0  0
 15 16  1  0  0  0  0
 15 17  1  0  0  0  0
 15 18  1  0  0  0  0
 18 19  1  0  0  0  0
 18 20  1  0  0  0  0
M  END
> <ChemID>
100528

> <source_casrn>
111-40-0

> <CAS>
111-40-0

> <SMILES>
NCCNCCN

> <NAME>
1,2-Ethanediamine, N-(2-aminoethyl)-

> <preferred_name>
Diethylenetriamine

> <iupac>
N-(2-aminoethyl)ethane-1,2-diamine

> <MPID>
100538

> <dsstox_substance_id>
DTXSID2025050

> <Canonical_QSARr>
NCCNCCN

> <InChI_Code_QSARr>
InChI=1S/C4H13N3/c5-1-3-7-4-2-6/h7H,1-6H2

> <InChI Key_QSARr>
RPNUMPOLZDHAAY-UHFFFAOYSA-N

> <Salt_Solvent>
?

> <Ready_Biodeg>
0.0

$$$$
100529
  -INDIGO-08031722522D

 19 18  0  0  0  0  0  0  0  0999 V2000
   -1.3856    0.8000    0.0000 N   0  0  0  0  0  0  0  0  0  0  0  0
   -1.3857    2.4000    0.0000 H   0  0  0  0  0  0  0  0  0  0  0  0
   -0.0001    0.0000    0.0000 C   0  0  0  0  0  0  0  0  0  0  0  0
    0.6123   -1.4782    0.0000 H   0  0  0  0  0  0  0  0  0  0  0  0
   -0.6122   -1.4782    0.0000 H   0  0  0  0  0  0  0  0  0  0  0  0
    1.3856    0.8000    0.0000 C   0  0  0  0  0  0  0  0  0  0  0  0
    0.7733    2.2782    0.0000 H   0  0  0  0  0  0  0  0  0  0  0  0
    1.9979    2.2782    0.0000 H   0  0  0  0  0  0  0  0  0  0  0  0
    2.7713    0.0000    0.0000 N   0  0  0  0  0  0  0  0  0  0  0  0
    4.1569    0.8000    0.0000 H   0  0  0  0  0  0  0  0  0  0  0  0
    2.7713   -1.6000    0.0000 H   0  0  0  0  0  0  0  0  0  0  0  0
   -2.7712    0.0000    0.0000 C   0  0  0  0  0  0  0  0  0  0  0  0
   -2.1591   -1.4782    0.0000 H   0  0  0  0  0  0  0  0  0  0  0  0
   -3.3835   -1.4782    0.0000 H   0  0  0  0  0  0  0  0  0  0  0  0
   -4.1569    0.8000    0.0000 C   0  0  0  0  0  0  0  0  0  0  0  0
   -4.7692    2.2782    0.0000 H   0  0  0  0  0  0  0  0  0  0  0  0
   -3.5446    2.2782    0.0000 H   0  0  0  0  0  0  0  0  0  0  0  0
   -5.5425    0.0000    0.0000 O   0  0  0  0  0  0  0  0  0  0  0  0
   -6.9282    0.8000    0.0000 H   0  0  0  0  0  0  0  0  0  0  0  0
  1  2  1  0  0  0  0
  1  3  1  0  0  0  0
  3  4  1  0  0  0  0
  3  5  1  0  0  0  0
  3  6  1  0  0  0  0
  6  7  1  0  0  0  0
  6  8  1  0  0  0  0
  6  9  1  0  0  0  0
  9 10  1  0  0  0  0
  9 11  1  0  0  0  0
  1 12  1  0  0  0  0
 12 13  1  0  0  0  0
 12 14  1  0  0  0  0
 12 15  1  0  0  0  0
 15 16  1  0  0  0  0
 15 17  1  0  0  0  0
 15 18  1  0  0  0  0
 18 19  1  0  0  0  0
M  END
> <ChemID>
100529

> <source_casrn>
111-41-1

> <CAS>
111-41-1

> <SMILES>
NCCNCCO

> <NAME>
Ethanol, 2- (2-aminoethyl)amino -

> <preferred_name>
N-(Hydroxyethyl)ethylenediamine

> <iupac>
2-[(2-aminoethyl)amino]ethanol

> <MPID>
100539

> <dsstox_substance_id>
DTXSID7025423

> <Canonical_QSARr>
NCCNCCO

> <InChI_Code_QSARr>
InChI=1S/C4H12N2O/c5-1-2-6-3-4-7/h6-7H,1-5H2

> <InChI Key_QSARr>
LHIJANUOQQMGNT-UHFFFAOYSA-N

> <Salt_Solvent>
?

> <Ready_Biodeg>
0.0

$$$$
100531
  -INDIGO-08031722522D

 15 14  0  0  0  0  0  0  0  0999 V2000
    1.3856    2.4000    0.0000 Cl  0  0  0  0  0  0  0  0  0  0  0  0
    1.3856    0.8000    0.0000 C   0  0  0  0  0  0  0  0  0  0  0  0
    2.7713    1.6000    0.0000 H   0  0  0  0  0  0  0  0  0  0  0  0
    2.7713    0.0000    0.0000 H   0  0  0  0  0  0  0  0  0  0  0  0
    0.0000    0.0000    0.0000 C   0  0  0  0  0  0  0  0  0  0  0  0
    0.6122   -1.4782    0.0000 H   0  0  0  0  0  0  0  0  0  0  0  0
   -0.6122   -1.4782    0.0000 H   0  0  0  0  0  0  0  0  0  0  0  0
   -1.3857    0.8000    0.0000 O   0  0  0  0  0  0  0  0  0  0  0  0
   -2.7713    0.0000    0.0000 C   0  0  0  0  0  0  0  0  0  0  0  0
   -2.1590   -1.4782    0.0000 H   0  0  0  0  0  0  0  0  0  0  0  0
   -3.3835   -1.4782    0.0000 H   0  0  0  0  0  0  0  0  0  0  0  0
   -4.1569    0.8000    0.0000 C   0  0  0  0  0  0  0  0  0  0  0  0
   -5.5426    1.6000    0.0000 H   0  0  0  0  0  0  0  0  0  0  0  0
   -5.5426    0.0000    0.0000 H   0  0  0  0  0  0  0  0  0  0  0  0
   -4.1569    2.4000    0.0000 Cl  0  0  0  0  0  0  0  0  0  0  0  0
  1  2  1  0  0  0  0
  2  3  1  0  0  0  0
  2  4  1  0  0  0  0
  2  5  1  0  0  0  0
  5  6  1  0  0  0  0
  5  7  1  0  0  0  0
  5  8  1  0  0  0  0
  8  9  1  0  0  0  0
  9 10  1  0  0  0  0
  9 11  1  0  0  0  0
  9 12  1  0  0  0  0
 12 13  1  0  0  0  0
 12 14  1  0  0  0  0
 12 15  1  0  0  0  0
M  END
> <ChemID>
100531

> <source_casrn>
111-44-4

> <CAS>
111-44-4

> <SMILES>
O(CCCl)CCCl

> <NAME>
Ethane, 1,1'-oxybis 2-chloro-

> <preferred_name>
Bis(2-chloroethyl) ether

> <iupac>
bis(2-chloroethyl) ether

> <MPID>
100541

> <dsstox_substance_id>
DTXSID9020168

> <Canonical_QSARr>
ClCCOCCCl

> <InChI_Code_QSARr>
InChI=1S/C4H8Cl2O/c5-1-3-7-4-2-6/h1-4H2

> <InChI Key_QSARr>
ZNSMNVMLTJELDZ-UHFFFAOYSA-N

> <Salt_Solvent>
?

> <Ready_Biodeg>
0.0

$$$$
100532
  -INDIGO-08031722522D

 17 16  0  0  0  0  0  0  0  0999 V2000
    2.7713    0.0000    0.0000 O   0  0  0  0  0  0  0  0  0  0  0  0
    4.1569    0.8000    0.0000 H   0  0  0  0  0  0  0  0  0  0  0  0
    1.3856    0.8000    0.0000 C   0  0  0  0  0  0  0  0  0  0  0  0
    0.7733    2.2782    0.0000 H   0  0  0  0  0  0  0  0  0  0  0  0
    1.9979    2.2782    0.0000 H   0  0  0  0  0  0  0  0  0  0  0  0
   -0.0001    0.0000    0.0000 C   0  0  0  0  0  0  0  0  0  0  0  0
    0.6123   -1.4782    0.0000 H   0  0  0  0  0  0  0  0  0  0  0  0
   -0.6122   -1.4782    0.0000 H   0  0  0  0  0  0  0  0  0  0  0  0
   -1.3856    0.8000    0.0000 O   0  0  0  0  0  0  0  0  0  0  0  0
   -2.7712    0.0000    0.0000 C   0  0  0  0  0  0  0  0  0  0  0  0
   -2.1591   -1.4782    0.0000 H   0  0  0  0  0  0  0  0  0  0  0  0
   -3.3835   -1.4782    0.0000 H   0  0  0  0  0  0  0  0  0  0  0  0
   -4.1569    0.8000    0.0000 C   0  0  0  0  0  0  0  0  0  0  0  0
   -4.7692    2.2782    0.0000 H   0  0  0  0  0  0  0  0  0  0  0  0
   -3.5446    2.2782    0.0000 H   0  0  0  0  0  0  0  0  0  0  0  0
   -5.5425    0.0000    0.0000 O   0  0  0  0  0  0  0  0  0  0  0  0
   -6.9282    0.8000    0.0000 H   0  0  0  0  0  0  0  0  0  0  0  0
  1  2  1  0  0  0  0
  1  3  1  0  0  0  0
  3  4  1  0  0  0  0
  3  5  1  0  0  0  0
  3  6  1  0  0  0  0
  6  7  1  0  0  0  0
  6  8  1  0  0  0  0
  6  9  1  0  0  0  0
  9 10  1  0  0  0  0
 10 11  1  0  0  0  0
 10 12  1  0  0  0  0
 10 13  1  0  0  0  0
 13 14  1  0  0  0  0
 13 15  1  0  0  0  0
 13 16  1  0  0  0  0
 16 17  1  0  0  0  0
M  END
> <ChemID>
100532

> <source_casrn>
111-46-6

> <CAS>
111-46-6

> <SMILES>
OCCOCCO

> <NAME>
Diethylene glycol

> <preferred_name>
Diethylene glycol

> <iupac>
2,2'-oxydiethanol

> <MPID>
100542

> <dsstox_substance_id>
DTXSID8020462

> <Canonical_QSARr>
OCCOCCO

> <InChI_Code_QSARr>
InChI=1S/C4H10O3/c5-1-3-7-4-2-6/h5-6H,1-4H2

> <InChI Key_QSARr>
MTHSVFCYNBDYFN-UHFFFAOYSA-N

> <Salt_Solvent>
?

> <Ready_Biodeg>
1.0

$$$$
100533
  -INDIGO-08031722522D

 17 16  0  0  0  0  0  0  0  0999 V2000
   -1.3856    0.8000    0.0000 C   0  0  0  0  0  0  0  0  0  0  0  0
   -0.7733    2.2782    0.0000 H   0  0  0  0  0  0  0  0  0  0  0  0
   -1.9979    2.2782    0.0000 H   0  0  0  0  0  0  0  0  0  0  0  0
    0.0001    0.0000    0.0000 C   0  0  0  0  0  0  0  0  0  0  0  0
   -0.6123   -1.4782    0.0000 H   0  0  0  0  0  0  0  0  0  0  0  0
    0.6122   -1.4782    0.0000 H   0  0  0  0  0  0  0  0  0  0  0  0
    1.3856    0.8000    0.0000 S   0  0  0  0  0  0  0  0  0  0  0  0
    2.7712    0.0000    0.0000 C   0  0  0  0  0  0  0  0  0  0  0  0
    2.1591   -1.4782    0.0000 H   0  0  0  0  0  0  0  0  0  0  0  0
    3.3835   -1.4782    0.0000 H   0  0  0  0  0  0  0  0  0  0  0  0
    4.1569    0.8000    0.0000 C   0  0  0  0  0  0  0  0  0  0  0  0
    4.7692    2.2782    0.0000 H   0  0  0  0  0  0  0  0  0  0  0  0
    3.5446    2.2782    0.0000 H   0  0  0  0  0  0  0  0  0  0  0  0
    5.5425    0.0000    0.0000 O   0  0  0  0  0  0  0  0  0  0  0  0
    6.9282    0.8000    0.0000 H   0  0  0  0  0  0  0  0  0  0  0  0
   -2.7713    0.0000    0.0000 O   0  0  0  0  0  0  0  0  0  0  0  0
   -4.1569    0.8000    0.0000 H   0  0  0  0  0  0  0  0  0  0  0  0
  1  2  1  0  0  0  0
  1  3  1  0  0  0  0
  1  4  1  0  0  0  0
  4  5  1  0  0  0  0
  4  6  1  0  0  0  0
  4  7  1  0  0  0  0
  7  8  1  0  0  0  0
  8  9  1  0  0  0  0
  8 10  1  0  0  0  0
  8 11  1  0  0  0  0
 11 12  1  0  0  0  0
 11 13  1  0  0  0  0
 11 14  1  0  0  0  0
 14 15  1  0  0  0  0
  1 16  1  0  0  0  0
 16 17  1  0  0  0  0
M  END
> <ChemID>
100533

> <source_casrn>
111-48-8

> <CAS>
111-48-8

> <SMILES>
OCCSCCO

> <NAME>
Ethanol, 2,2'-thiobis-

> <preferred_name>
2,2'-Thiobisethanol

> <iupac>
2,2'-sulfanediyldiethanol

> <MPID>
100543

> <dsstox_substance_id>
DTXSID6026878

> <Canonical_QSARr>
OCCSCCO

> <InChI_Code_QSARr>
InChI=1S/C4H10O2S/c5-1-3-7-4-2-6/h5-6H,1-4H2

> <InChI Key_QSARr>
YODZTKMDCQEPHD-UHFFFAOYSA-N

> <Salt_Solvent>
?

> <Ready_Biodeg>
0.0

$$$$
100535
  -INDIGO-08031722522D

 26 25  0  0  0  0  0  0  0  0999 V2000
    4.1569   -0.8000    0.0000 C   0  0  0  0  0  0  0  0  0  0  0  0
    5.5426   -1.6000    0.0000 H   0  0  0  0  0  0  0  0  0  0  0  0
    5.5426    0.0000    0.0000 H   0  0  0  0  0  0  0  0  0  0  0  0
    4.1569   -2.4000    0.0000 H   0  0  0  0  0  0  0  0  0  0  0  0
    2.7713    0.0000    0.0000 C   0  0  0  0  0  0  0  0  0  0  0  0
    3.3835    1.4782    0.0000 H   0  0  0  0  0  0  0  0  0  0  0  0
    2.1590    1.4782    0.0000 H   0  0  0  0  0  0  0  0  0  0  0  0
    1.3856   -0.8000    0.0000 C   0  0  0  0  0  0  0  0  0  0  0  0
    0.7733   -2.2782    0.0000 H   0  0  0  0  0  0  0  0  0  0  0  0
    1.9980   -2.2782    0.0000 H   0  0  0  0  0  0  0  0  0  0  0  0
   -0.0001    0.0000    0.0000 C   0  0  0  0  0  0  0  0  0  0  0  0
    0.6123    1.4782    0.0000 H   0  0  0  0  0  0  0  0  0  0  0  0
   -0.6122    1.4782    0.0000 H   0  0  0  0  0  0  0  0  0  0  0  0
   -1.3856   -0.8000    0.0000 C   0  0  0  0  0  0  0  0  0  0  0  0
   -1.9979   -2.2782    0.0000 H   0  0  0  0  0  0  0  0  0  0  0  0
   -0.7734   -2.2782    0.0000 H   0  0  0  0  0  0  0  0  0  0  0  0
   -2.7713    0.0000    0.0000 C   0  0  0  0  0  0  0  0  0  0  0  0
   -2.1589    1.4782    0.0000 H   0  0  0  0  0  0  0  0  0  0  0  0
   -3.3836    1.4782    0.0000 H   0  0  0  0  0  0  0  0  0  0  0  0
   -4.1570   -0.8000    0.0000 C   0  0  0  0  0  0  0  0  0  0  0  0
   -4.7692   -2.2782    0.0000 H   0  0  0  0  0  0  0  0  0  0  0  0
   -3.5446   -2.2782    0.0000 H   0  0  0  0  0  0  0  0  0  0  0  0
   -5.5425    0.0000    0.0000 C   0  0  0  0  0  0  0  0  0  0  0  0
   -6.9282    0.8000    0.0000 H   0  0  0  0  0  0  0  0  0  0  0  0
   -6.9282   -0.8000    0.0000 H   0  0  0  0  0  0  0  0  0  0  0  0
   -5.5425    1.6000    0.0000 H   0  0  0  0  0  0  0  0  0  0  0  0
  1  2  1  0  0  0  0
  1  3  1  0  0  0  0
  1  4  1  0  0  0  0
  1  5  1  0  0  0  0
  5  6  1  0  0  0  0
  5  7  1  0  0  0  0
  5  8  1  0  0  0  0
  8  9  1  0  0  0  0
  8 10  1  0  0  0  0
  8 11  1  0  0  0  0
 11 12  1  0  0  0  0
 11 13  1  0  0  0  0
 11 14  1  0  0  0  0
 14 15  1  0  0  0  0
 14 16  1  0  0  0  0
 14 17  1  0  0  0  0
 17 18  1  0  0  0  0
 17 19  1  0  0  0  0
 17 20  1  0  0  0  0
 20 21  1  0  0  0  0
 20 22  1  0  0  0  0
 20 23  1  0  0  0  0
 23 24  1  0  0  0  0
 23 25  1  0  0  0  0
 23 26  1  0  0  0  0
M  END
> <ChemID>
100535

> <source_casrn>
111-65-9

> <CAS>
111-65-9

> <SMILES>
CCCCCCCC

> <NAME>
Octane

> <preferred_name>
Octane

> <iupac>
octane

> <MPID>
100545

> <dsstox_substance_id>
DTXSID0026882

> <Canonical_QSARr>
CCCCCCCC

> <InChI_Code_QSARr>
InChI=1S/C8H18/c1-3-5-7-8-6-4-2/h3-8H2,1-2H3

> <InChI Key_QSARr>
TVMXDCGIABBOFY-UHFFFAOYSA-N

> <Salt_Solvent>
?

> <Ready_Biodeg>
1.0

$$$$
100536
  -INDIGO-08031722522D

 16 15  0  0  0  0  0  0  0  0999 V2000
   -4.1569    0.8000    0.0000 N   0  0  0  0  0  0  0  0  0  0  0  0
   -2.7713    0.0000    0.0000 C   0  0  0  0  0  0  0  0  0  0  0  0
   -1.3857   -0.8000    0.0000 C   0  0  0  0  0  0  0  0  0  0  0  0
   -0.7734   -2.2782    0.0000 H   0  0  0  0  0  0  0  0  0  0  0  0
   -1.9980   -2.2782    0.0000 H   0  0  0  0  0  0  0  0  0  0  0  0
   -0.0001    0.0000    0.0000 C   0  0  0  0  0  0  0  0  0  0  0  0
   -0.6124    1.4782    0.0000 H   0  0  0  0  0  0  0  0  0  0  0  0
    0.6122    1.4782    0.0000 H   0  0  0  0  0  0  0  0  0  0  0  0
    1.3857   -0.8000    0.0000 C   0  0  0  0  0  0  0  0  0  0  0  0
    1.9980   -2.2782    0.0000 H   0  0  0  0  0  0  0  0  0  0  0  0
    0.7734   -2.2782    0.0000 H   0  0  0  0  0  0  0  0  0  0  0  0
    2.7713    0.0000    0.0000 C   0  0  0  0  0  0  0  0  0  0  0  0
    2.1590    1.4782    0.0000 H   0  0  0  0  0  0  0  0  0  0  0  0
    3.3836    1.4782    0.0000 H   0  0  0  0  0  0  0  0  0  0  0  0
    4.1569   -0.8000    0.0000 C   0  0  0  0  0  0  0  0  0  0  0  0
    5.5426   -1.6000    0.0000 N   0  0  0  0  0  0  0  0  0  0  0  0
  1  2  3  0  0  0  0
  2  3  1  0  0  0  0
  3  4  1  0  0  0  0
  3  5  1  0  0  0  0
  3  6  1  0  0  0  0
  6  7  1  0  0  0  0
  6  8  1  0  0  0  0
  6  9  1  0  0  0  0
  9 10  1  0  0  0  0
  9 11  1  0  0  0  0
  9 12  1  0  0  0  0
 12 13  1  0  0  0  0
 12 14  1  0  0  0  0
 12 15  1  0  0  0  0
 15 16  3  0  0  0  0
M  END
> <ChemID>
100536

> <source_casrn>
111-69-3

> <CAS>
111-69-3

> <SMILES>
N#CCCCCC#N

> <NAME>
Hexanedinitrile

> <preferred_name>
Hexanedinitrile

> <iupac>
hexanedinitrile

> <MPID>
100546

> <dsstox_substance_id>
DTXSID3021936

> <Canonical_QSARr>
N#CCCCCC#N

> <InChI_Code_QSARr>
InChI=1S/C6H8N2/c7-5-3-1-2-4-6-8/h1-4H2

> <InChI Key_QSARr>
BTGRAWJCKBQKAO-UHFFFAOYSA-N

> <Salt_Solvent>
?

> <Ready_Biodeg>
1.0

$$$$
100537
  -INDIGO-08031722522D

 24 23  0  0  0  0  0  0  0  0999 V2000
    4.1569    0.8000    0.0000 C   0  0  0  0  0  0  0  0  0  0  0  0
    5.5426    1.6000    0.0000 H   0  0  0  0  0  0  0  0  0  0  0  0
    5.5426    0.0000    0.0000 H   0  0  0  0  0  0  0  0  0  0  0  0
    4.1569    2.4000    0.0000 H   0  0  0  0  0  0  0  0  0  0  0  0
    2.7713    0.0000    0.0000 C   0  0  0  0  0  0  0  0  0  0  0  0
    2.1590   -1.4782    0.0000 H   0  0  0  0  0  0  0  0  0  0  0  0
    3.3835   -1.4782    0.0000 H   0  0  0  0  0  0  0  0  0  0  0  0
    1.3856    0.8000    0.0000 C   0  0  0  0  0  0  0  0  0  0  0  0
    1.9980    2.2782    0.0000 H   0  0  0  0  0  0  0  0  0  0  0  0
    0.7733    2.2782    0.0000 H   0  0  0  0  0  0  0  0  0  0  0  0
   -0.0001    0.0000    0.0000 C   0  0  0  0  0  0  0  0  0  0  0  0
   -0.6122   -1.4782    0.0000 H   0  0  0  0  0  0  0  0  0  0  0  0
    0.6123   -1.4782    0.0000 H   0  0  0  0  0  0  0  0  0  0  0  0
   -1.3856    0.8000    0.0000 C   0  0  0  0  0  0  0  0  0  0  0  0
   -0.7734    2.2782    0.0000 H   0  0  0  0  0  0  0  0  0  0  0  0
   -1.9979    2.2782    0.0000 H   0  0  0  0  0  0  0  0  0  0  0  0
   -2.7713    0.0000    0.0000 C   0  0  0  0  0  0  0  0  0  0  0  0
   -3.3836   -1.4782    0.0000 H   0  0  0  0  0  0  0  0  0  0  0  0
   -2.1589   -1.4782    0.0000 H   0  0  0  0  0  0  0  0  0  0  0  0
   -4.1570    0.8000    0.0000 C   0  0  0  0  0  0  0  0  0  0  0  0
   -3.5446    2.2782    0.0000 H   0  0  0  0  0  0  0  0  0  0  0  0
   -4.7692    2.2782    0.0000 H   0  0  0  0  0  0  0  0  0  0  0  0
   -5.5425    0.0000    0.0000 O   0  0  0  0  0  0  0  0  0  0  0  0
   -6.9282    0.8000    0.0000 H   0  0  0  0  0  0  0  0  0  0  0  0
  1  2  1  0  0  0  0
  1  3  1  0  0  0  0
  1  4  1  0  0  0  0
  1  5  1  0  0  0  0
  5  6  1  0  0  0  0
  5  7  1  0  0  0  0
  5  8  1  0  0  0  0
  8  9  1  0  0  0  0
  8 10  1  0  0  0  0
  8 11  1  0  0  0  0
 11 12  1  0  0  0  0
 11 13  1  0  0  0  0
 11 14  1  0  0  0  0
 14 15  1  0  0  0  0
 14 16  1  0  0  0  0
 14 17  1  0  0  0  0
 17 18  1  0  0  0  0
 17 19  1  0  0  0  0
 17 20  1  0  0  0  0
 20 21  1  0  0  0  0
 20 22  1  0  0  0  0
 20 23  1  0  0  0  0
 23 24  1  0  0  0  0
M  END
> <ChemID>
100537

> <source_casrn>
111-70-6

> <CAS>
111-70-6

> <SMILES>
CCCCCCCO

> <NAME>
Heptanol

> <preferred_name>
1-Heptanol

> <iupac>
heptan-1-ol

> <MPID>
100547

> <dsstox_substance_id>
DTXSID8021937

> <Canonical_QSARr>
CCCCCCCO

> <InChI_Code_QSARr>
InChI=1S/C7H16O/c1-2-3-4-5-6-7-8/h8H,2-7H2,1H3

> <InChI Key_QSARr>
BBMCTIGTTCKYKF-UHFFFAOYSA-N

> <Salt_Solvent>
?

> <Ready_Biodeg>
1.0

$$$$
100539
  -INDIGO-08031722522D

 29 28  0  0  0  0  0  0  0  0999 V2000
   -4.1569    0.8000    0.0000 C   0  0  0  0  0  0  0  0  0  0  0  0
   -3.5446    2.2782    0.0000 H   0  0  0  0  0  0  0  0  0  0  0  0
   -4.7692    2.2782    0.0000 H   0  0  0  0  0  0  0  0  0  0  0  0
   -2.7712   -0.0000    0.0000 C   0  0  0  0  0  0  0  0  0  0  0  0
   -3.3835   -1.4782    0.0000 H   0  0  0  0  0  0  0  0  0  0  0  0
   -2.1591   -1.4782    0.0000 H   0  0  0  0  0  0  0  0  0  0  0  0
   -1.3856    0.8000    0.0000 C   0  0  0  0  0  0  0  0  0  0  0  0
   -0.7733    2.2782    0.0000 H   0  0  0  0  0  0  0  0  0  0  0  0
   -1.9980    2.2782    0.0000 H   0  0  0  0  0  0  0  0  0  0  0  0
    0.0001   -0.0000    0.0000 C   0  0  0  0  0  0  0  0  0  0  0  0
   -0.6122   -1.4782    0.0000 H   0  0  0  0  0  0  0  0  0  0  0  0
    0.6122   -1.4782    0.0000 H   0  0  0  0  0  0  0  0  0  0  0  0
    1.3856    0.8000    0.0000 C   0  0  0  0  0  0  0  0  0  0  0  0
    1.9980    2.2782    0.0000 H   0  0  0  0  0  0  0  0  0  0  0  0
    0.7733    2.2782    0.0000 H   0  0  0  0  0  0  0  0  0  0  0  0
    2.7714   -0.0000    0.0000 C   0  0  0  0  0  0  0  0  0  0  0  0
    2.1591   -1.4782    0.0000 H   0  0  0  0  0  0  0  0  0  0  0  0
    3.3835   -1.4782    0.0000 H   0  0  0  0  0  0  0  0  0  0  0  0
    4.1569    0.8000    0.0000 C   0  0  0  0  0  0  0  0  0  0  0  0
    4.7692    2.2782    0.0000 H   0  0  0  0  0  0  0  0  0  0  0  0
    3.5446    2.2782    0.0000 H   0  0  0  0  0  0  0  0  0  0  0  0
    5.5427   -0.0000    0.0000 C   0  0  0  0  0  0  0  0  0  0  0  0
    6.9282   -0.8000    0.0000 H   0  0  0  0  0  0  0  0  0  0  0  0
    6.9282    0.8000    0.0000 H   0  0  0  0  0  0  0  0  0  0  0  0
    5.5427   -1.6000    0.0000 H   0  0  0  0  0  0  0  0  0  0  0  0
   -5.5425   -0.0000    0.0000 C   0  0  0  0  0  0  0  0  0  0  0  0
   -6.9282   -0.8000    0.0000 H   0  0  0  0  0  0  0  0  0  0  0  0
   -6.9282    0.8000    0.0000 H   0  0  0  0  0  0  0  0  0  0  0  0
   -5.5425   -1.6000    0.0000 H   0  0  0  0  0  0  0  0  0  0  0  0
  1  2  1  0  0  0  0
  1  3  1  0  0  0  0
  1  4  1  0  0  0  0
  4  5  1  0  0  0  0
  4  6  1  0  0  0  0
  4  7  1  0  0  0  0
  7  8  1  0  0  0  0
  7  9  1  0  0  0  0
  7 10  1  0  0  0  0
 10 11  1  0  0  0  0
 10 12  1  0  0  0  0
 10 13  1  0  0  0  0
 13 14  1  0  0  0  0
 13 15  1  0  0  0  0
 13 16  1  0  0  0  0
 16 17  1  0  0  0  0
 16 18  1  0  0  0  0
 16 19  1  0  0  0  0
 19 20  1  0  0  0  0
 19 21  1  0  0  0  0
 19 22  1  0  0  0  0
 22 23  1  0  0  0  0
 22 24  1  0  0  0  0
 22 25  1  0  0  0  0
  1 26  1  0  0  0  0
 26 27  1  0  0  0  0
 26 28  1  0  0  0  0
 26 29  1  0  0  0  0
M  END
> <ChemID>
100539

> <source_casrn>
111-84-2

> <CAS>
111-84-2

> <SMILES>
CCCCCCCCC

> <NAME>
Nonane

> <preferred_name>
Nonane

> <iupac>
nonane

> <MPID>
100549

> <dsstox_substance_id>
DTXSID9025796

> <Canonical_QSARr>
CCCCCCCCC

> <InChI_Code_QSARr>
InChI=1S/C9H20/c1-3-5-7-9-8-6-4-2/h3-9H2,1-2H3

> <InChI Key_QSARr>
BKIMMITUMNQMOS-UHFFFAOYSA-N

> <Salt_Solvent>
?

> <Ready_Biodeg>
1.0

$$$$
100540
  -INDIGO-08031722522D

 26 25  0  0  0  0  0  0  0  0999 V2000
    4.1569   -0.8000    0.0000 C   0  0  0  0  0  0  0  0  0  0  0  0
    5.5426   -1.6000    0.0000 H   0  0  0  0  0  0  0  0  0  0  0  0
    5.5426    0.0000    0.0000 H   0  0  0  0  0  0  0  0  0  0  0  0
    4.1569   -2.4000    0.0000 H   0  0  0  0  0  0  0  0  0  0  0  0
    2.7713    0.0000    0.0000 C   0  0  0  0  0  0  0  0  0  0  0  0
    3.3835    1.4782    0.0000 H   0  0  0  0  0  0  0  0  0  0  0  0
    2.1590    1.4782    0.0000 H   0  0  0  0  0  0  0  0  0  0  0  0
    1.3856   -0.8000    0.0000 C   0  0  0  0  0  0  0  0  0  0  0  0
    0.7733   -2.2782    0.0000 H   0  0  0  0  0  0  0  0  0  0  0  0
    1.9980   -2.2782    0.0000 H   0  0  0  0  0  0  0  0  0  0  0  0
   -0.0001    0.0000    0.0000 C   0  0  0  0  0  0  0  0  0  0  0  0
    0.6123    1.4782    0.0000 H   0  0  0  0  0  0  0  0  0  0  0  0
   -0.6122    1.4782    0.0000 H   0  0  0  0  0  0  0  0  0  0  0  0
   -1.3856   -0.8000    0.0000 C   0  0  0  0  0  0  0  0  0  0  0  0
   -1.9979   -2.2782    0.0000 H   0  0  0  0  0  0  0  0  0  0  0  0
   -0.7734   -2.2782    0.0000 H   0  0  0  0  0  0  0  0  0  0  0  0
   -2.7713    0.0000    0.0000 C   0  0  0  0  0  0  0  0  0  0  0  0
   -2.1589    1.4782    0.0000 H   0  0  0  0  0  0  0  0  0  0  0  0
   -3.3836    1.4782    0.0000 H   0  0  0  0  0  0  0  0  0  0  0  0
   -4.1570   -0.8000    0.0000 C   0  0  0  0  0  0  0  0  0  0  0  0
   -4.7692   -2.2782    0.0000 H   0  0  0  0  0  0  0  0  0  0  0  0
   -3.5446   -2.2782    0.0000 H   0  0  0  0  0  0  0  0  0  0  0  0
   -5.5425    0.0000    0.0000 C   0  0  0  0  0  0  0  0  0  0  0  0
   -6.9282    0.8000    0.0000 H   0  0  0  0  0  0  0  0  0  0  0  0
   -6.9282   -0.8000    0.0000 H   0  0  0  0  0  0  0  0  0  0  0  0
   -5.5425    1.6000    0.0000 Cl  0  0  0  0  0  0  0  0  0  0  0  0
  1  2  1  0  0  0  0
  1  3  1  0  0  0  0
  1  4  1  0  0  0  0
  1  5  1  0  0  0  0
  5  6  1  0  0  0  0
  5  7  1  0  0  0  0
  5  8  1  0  0  0  0
  8  9  1  0  0  0  0
  8 10  1  0  0  0  0
  8 11  1  0  0  0  0
 11 12  1  0  0  0  0
 11 13  1  0  0  0  0
 11 14  1  0  0  0  0
 14 15  1  0  0  0  0
 14 16  1  0  0  0  0
 14 17  1  0  0  0  0
 17 18  1  0  0  0  0
 17 19  1  0  0  0  0
 17 20  1  0  0  0  0
 20 21  1  0  0  0  0
 20 22  1  0  0  0  0
 20 23  1  0  0  0  0
 23 24  1  0  0  0  0
 23 25  1  0  0  0  0
 23 26  1  0  0  0  0
M  END
> <ChemID>
100540

> <source_casrn>
111-85-3

> <CAS>
111-85-3

> <SMILES>
CCCCCCCCCl

> <NAME>
Octane, 1-chloro-

> <preferred_name>
1-Chlorooctane

> <iupac>
1-chlorooctane

> <MPID>
100550

> <dsstox_substance_id>
DTXSID0021543

> <Canonical_QSARr>
CCCCCCCCCl

> <InChI_Code_QSARr>
InChI=1S/C8H17Cl/c1-2-3-4-5-6-7-8-9/h2-8H2,1H3

> <InChI Key_QSARr>
CNDHHGUSRIZDSL-UHFFFAOYSA-N

> <Salt_Solvent>
?

> <Ready_Biodeg>
1.0

$$$$
100541
  -INDIGO-08031722522D

 27 26  0  0  0  0  0  0  0  0999 V2000
    5.5427   -0.0000    0.0000 C   0  0  0  0  0  0  0  0  0  0  0  0
    6.9282   -0.8000    0.0000 H   0  0  0  0  0  0  0  0  0  0  0  0
    6.9282    0.8000    0.0000 H   0  0  0  0  0  0  0  0  0  0  0  0
    5.5427   -1.6000    0.0000 H   0  0  0  0  0  0  0  0  0  0  0  0
    4.1569    0.8000    0.0000 C   0  0  0  0  0  0  0  0  0  0  0  0
    3.5446    2.2782    0.0000 H   0  0  0  0  0  0  0  0  0  0  0  0
    4.7692    2.2782    0.0000 H   0  0  0  0  0  0  0  0  0  0  0  0
    2.7714   -0.0000    0.0000 C   0  0  0  0  0  0  0  0  0  0  0  0
    3.3835   -1.4782    0.0000 H   0  0  0  0  0  0  0  0  0  0  0  0
    2.1591   -1.4782    0.0000 H   0  0  0  0  0  0  0  0  0  0  0  0
    1.3856    0.8000    0.0000 C   0  0  0  0  0  0  0  0  0  0  0  0
    0.7733    2.2782    0.0000 H   0  0  0  0  0  0  0  0  0  0  0  0
    1.9980    2.2782    0.0000 H   0  0  0  0  0  0  0  0  0  0  0  0
    0.0001   -0.0000    0.0000 C   0  0  0  0  0  0  0  0  0  0  0  0
    0.6122   -1.4782    0.0000 H   0  0  0  0  0  0  0  0  0  0  0  0
   -0.6122   -1.4782    0.0000 H   0  0  0  0  0  0  0  0  0  0  0  0
   -1.3856    0.8000    0.0000 C   0  0  0  0  0  0  0  0  0  0  0  0
   -1.9980    2.2782    0.0000 H   0  0  0  0  0  0  0  0  0  0  0  0
   -0.7733    2.2782    0.0000 H   0  0  0  0  0  0  0  0  0  0  0  0
   -2.7712   -0.0000    0.0000 C   0  0  0  0  0  0  0  0  0  0  0  0
   -2.1591   -1.4782    0.0000 H   0  0  0  0  0  0  0  0  0  0  0  0
   -3.3835   -1.4782    0.0000 H   0  0  0  0  0  0  0  0  0  0  0  0
   -4.1569    0.8000    0.0000 C   0  0  0  0  0  0  0  0  0  0  0  0
   -4.7692    2.2782    0.0000 H   0  0  0  0  0  0  0  0  0  0  0  0
   -3.5446    2.2782    0.0000 H   0  0  0  0  0  0  0  0  0  0  0  0
   -5.5425   -0.0000    0.0000 O   0  0  0  0  0  0  0  0  0  0  0  0
   -6.9282    0.8000    0.0000 H   0  0  0  0  0  0  0  0  0  0  0  0
  1  2  1  0  0  0  0
  1  3  1  0  0  0  0
  1  4  1  0  0  0  0
  1  5  1  0  0  0  0
  5  6  1  0  0  0  0
  5  7  1  0  0  0  0
  5  8  1  0  0  0  0
  8  9  1  0  0  0  0
  8 10  1  0  0  0  0
  8 11  1  0  0  0  0
 11 12  1  0  0  0  0
 11 13  1  0  0  0  0
 11 14  1  0  0  0  0
 14 15  1  0  0  0  0
 14 16  1  0  0  0  0
 14 17  1  0  0  0  0
 17 18  1  0  0  0  0
 17 19  1  0  0  0  0
 17 20  1  0  0  0  0
 20 21  1  0  0  0  0
 20 22  1  0  0  0  0
 20 23  1  0  0  0  0
 23 24  1  0  0  0  0
 23 25  1  0  0  0  0
 23 26  1  0  0  0  0
 26 27  1  0  0  0  0
M  END
> <ChemID>
100541

> <source_casrn>
111-87-5

> <CAS>
111-87-5

> <SMILES>
CCCCCCCCO

> <NAME>
1-Octanol

> <preferred_name>
1-Octanol

> <iupac>
octan-1-ol

> <MPID>
100551

> <dsstox_substance_id>
DTXSID7021940

> <Canonical_QSARr>
CCCCCCCCO

> <InChI_Code_QSARr>
InChI=1S/C8H18O/c1-2-3-4-5-6-7-8-9/h9H,2-8H2,1H3

> <InChI Key_QSARr>
KBPLFHHGFOOTCA-UHFFFAOYSA-N

> <Salt_Solvent>
?

> <Ready_Biodeg>
1.0

$$$$
100543
  -INDIGO-08031722522D

 18 17  0  0  0  0  0  0  0  0999 V2000
   -2.7713    0.0000    0.0000 C   0  0  0  0  0  0  0  0  0  0  0  0
   -1.3856    0.8000    0.0000 C   0  0  0  0  0  0  0  0  0  0  0  0
   -1.9979    2.2782    0.0000 H   0  0  0  0  0  0  0  0  0  0  0  0
   -0.7733    2.2782    0.0000 H   0  0  0  0  0  0  0  0  0  0  0  0
    0.0001    0.0000    0.0000 C   0  0  0  0  0  0  0  0  0  0  0  0
    0.6122   -1.4782    0.0000 H   0  0  0  0  0  0  0  0  0  0  0  0
   -0.6123   -1.4782    0.0000 H   0  0  0  0  0  0  0  0  0  0  0  0
    1.3856    0.8000    0.0000 N   0  0  0  0  0  0  0  0  0  0  0  0
    1.3856    2.4000    0.0000 H   0  0  0  0  0  0  0  0  0  0  0  0
    2.7712    0.0000    0.0000 C   0  0  0  0  0  0  0  0  0  0  0  0
    3.3835   -1.4782    0.0000 H   0  0  0  0  0  0  0  0  0  0  0  0
    2.1591   -1.4782    0.0000 H   0  0  0  0  0  0  0  0  0  0  0  0
    4.1569    0.8000    0.0000 C   0  0  0  0  0  0  0  0  0  0  0  0
    3.5446    2.2782    0.0000 H   0  0  0  0  0  0  0  0  0  0  0  0
    4.7692    2.2782    0.0000 H   0  0  0  0  0  0  0  0  0  0  0  0
    5.5425    0.0000    0.0000 C   0  0  0  0  0  0  0  0  0  0  0  0
    6.9282   -0.8000    0.0000 N   0  0  0  0  0  0  0  0  0  0  0  0
   -4.1569   -0.8000    0.0000 N   0  0  0  0  0  0  0  0  0  0  0  0
  1  2  1  0  0  0  0
  2  3  1  0  0  0  0
  2  4  1  0  0  0  0
  2  5  1  0  0  0  0
  5  6  1  0  0  0  0
  5  7  1  0  0  0  0
  5  8  1  0  0  0  0
  8  9  1  0  0  0  0
  8 10  1  0  0  0  0
 10 11  1  0  0  0  0
 10 12  1  0  0  0  0
 10 13  1  0  0  0  0
 13 14  1  0  0  0  0
 13 15  1  0  0  0  0
 13 16  1  0  0  0  0
 16 17  3  0  0  0  0
  1 18  3  0  0  0  0
M  END
> <ChemID>
100543

> <source_casrn>
111-94-4

> <CAS>
111-94-4

> <SMILES>
N#CCCNCCC#N

> <NAME>
Propanenitrile, 3,3'-iminobis-

> <preferred_name>
3,3'-Iminobispropanenitrile

> <iupac>
3,3'-iminodipropanenitrile

> <MPID>
100553

> <dsstox_substance_id>
DTXSID2041464

> <Canonical_QSARr>
N#CCCNCCC#N

> <InChI_Code_QSARr>
InChI=1S/C6H9N3/c7-3-1-5-9-6-2-4-8/h9H,1-2,5-6H2

> <InChI Key_QSARr>
SBAJRGRUGUQKAF-UHFFFAOYSA-N

> <Salt_Solvent>
?

> <Ready_Biodeg>
0.0

$$$$
100544
  -INDIGO-08031722522D

 29 28  0  0  0  0  0  0  0  0999 V2000
    5.5425   -0.0000    0.0000 C   0  0  0  0  0  0  0  0  0  0  0  0
    6.9282   -0.8000    0.0000 H   0  0  0  0  0  0  0  0  0  0  0  0
    6.9282    0.8000    0.0000 H   0  0  0  0  0  0  0  0  0  0  0  0
    5.5425   -1.6000    0.0000 H   0  0  0  0  0  0  0  0  0  0  0  0
    4.1570    0.8000    0.0000 C   0  0  0  0  0  0  0  0  0  0  0  0
    3.5446    2.2782    0.0000 H   0  0  0  0  0  0  0  0  0  0  0  0
    4.7692    2.2782    0.0000 H   0  0  0  0  0  0  0  0  0  0  0  0
    2.7713   -0.0000    0.0000 C   0  0  0  0  0  0  0  0  0  0  0  0
    3.3835   -1.4782    0.0000 H   0  0  0  0  0  0  0  0  0  0  0  0
    2.1589   -1.4782    0.0000 H   0  0  0  0  0  0  0  0  0  0  0  0
    1.3856    0.8000    0.0000 C   0  0  0  0  0  0  0  0  0  0  0  0
    0.7732    2.2782    0.0000 H   0  0  0  0  0  0  0  0  0  0  0  0
    1.9980    2.2782    0.0000 H   0  0  0  0  0  0  0  0  0  0  0  0
   -0.0001   -0.0000    0.0000 C   0  0  0  0  0  0  0  0  0  0  0  0
    0.6123   -1.4782    0.0000 H   0  0  0  0  0  0  0  0  0  0  0  0
   -0.6122   -1.4782    0.0000 H   0  0  0  0  0  0  0  0  0  0  0  0
   -1.3856    0.8000    0.0000 C   0  0  0  0  0  0  0  0  0  0  0  0
   -1.9979    2.2782    0.0000 H   0  0  0  0  0  0  0  0  0  0  0  0
   -0.7734    2.2782    0.0000 H   0  0  0  0  0  0  0  0  0  0  0  0
   -2.7713   -0.0000    0.0000 C   0  0  0  0  0  0  0  0  0  0  0  0
   -2.1589   -1.4782    0.0000 H   0  0  0  0  0  0  0  0  0  0  0  0
   -3.3836   -1.4782    0.0000 H   0  0  0  0  0  0  0  0  0  0  0  0
   -4.1570    0.8000    0.0000 C   0  0  0  0  0  0  0  0  0  0  0  0
   -4.7691    2.2782    0.0000 H   0  0  0  0  0  0  0  0  0  0  0  0
   -3.5446    2.2782    0.0000 H   0  0  0  0  0  0  0  0  0  0  0  0
   -5.5427   -0.0000    0.0000 C   0  0  0  0  0  0  0  0  0  0  0  0
   -6.9281    0.8000    0.0000 O   0  0  0  0  0  0  0  0  0  0  0  0
   -8.3138   -0.0000    0.0000 H   0  0  0  0  0  0  0  0  0  0  0  0
   -5.5427   -1.6000    0.0000 O   0  0  0  0  0  0  0  0  0  0  0  0
  1  2  1  0  0  0  0
  1  3  1  0  0  0  0
  1  4  1  0  0  0  0
  1  5  1  0  0  0  0
  5  6  1  0  0  0  0
  5  7  1  0  0  0  0
  5  8  1  0  0  0  0
  8  9  1  0  0  0  0
  8 10  1  0  0  0  0
  8 11  1  0  0  0  0
 11 12  1  0  0  0  0
 11 13  1  0  0  0  0
 11 14  1  0  0  0  0
 14 15  1  0  0  0  0
 14 16  1  0  0  0  0
 14 17  1  0  0  0  0
 17 18  1  0  0  0  0
 17 19  1  0  0  0  0
 17 20  1  0  0  0  0
 20 21  1  0  0  0  0
 20 22  1  0  0  0  0
 20 23  1  0  0  0  0
 23 24  1  0  0  0  0
 23 25  1  0  0  0  0
 23 26  1  0  0  0  0
 26 27  1  0  0  0  0
 27 28  1  0  0  0  0
 26 29  2  0  0  0  0
M  END
> <ChemID>
100544

> <source_casrn>
112-05-0

> <CAS>
112-05-0

> <SMILES>
CCCCCCCCC(O)=O

> <NAME>
Nonanoic acid

> <preferred_name>
Nonanoic acid

> <iupac>
nonanoic acid

> <MPID>
100554

> <dsstox_substance_id>
DTXSID3021641

> <Canonical_QSARr>
CCCCCCCCC(O)=O

> <InChI_Code_QSARr>
InChI=1S/C9H18O2/c1-2-3-4-5-6-7-8-9(10)11/h2-8H2,1H3,(H,10,11)

> <InChI Key_QSARr>
FBUKVWPVBMHYJY-UHFFFAOYSA-N

> <Salt_Solvent>
?

> <Ready_Biodeg>
1.0

$$$$
100545
  -INDIGO-08031722522D

 28 27  0  0  0  0  0  0  0  0999 V2000
    4.1569    0.8000    0.0000 C   0  0  0  0  0  0  0  0  0  0  0  0
    4.7692    2.2782    0.0000 H   0  0  0  0  0  0  0  0  0  0  0  0
    3.5447    2.2782    0.0000 H   0  0  0  0  0  0  0  0  0  0  0  0
    2.7713    0.0000    0.0000 C   0  0  0  0  0  0  0  0  0  0  0  0
    2.1591   -1.4782    0.0000 H   0  0  0  0  0  0  0  0  0  0  0  0
    3.3836   -1.4782    0.0000 H   0  0  0  0  0  0  0  0  0  0  0  0
    1.3858    0.8000    0.0000 O   0  0  0  0  0  0  0  0  0  0  0  0
   -0.0001    0.0000    0.0000 C   0  0  0  0  0  0  0  0  0  0  0  0
   -0.6123   -1.4782    0.0000 H   0  0  0  0  0  0  0  0  0  0  0  0
    0.6122   -1.4782    0.0000 H   0  0  0  0  0  0  0  0  0  0  0  0
   -1.3856    0.8000    0.0000 C   0  0  0  0  0  0  0  0  0  0  0  0
   -0.7734    2.2782    0.0000 H   0  0  0  0  0  0  0  0  0  0  0  0
   -1.9979    2.2782    0.0000 H   0  0  0  0  0  0  0  0  0  0  0  0
   -2.7712    0.0000    0.0000 O   0  0  0  0  0  0  0  0  0  0  0  0
   -4.1568    0.8000    0.0000 C   0  0  0  0  0  0  0  0  0  0  0  0
   -3.5446    2.2782    0.0000 H   0  0  0  0  0  0  0  0  0  0  0  0
   -4.7693    2.2782    0.0000 H   0  0  0  0  0  0  0  0  0  0  0  0
   -5.5426    0.0000    0.0000 C   0  0  0  0  0  0  0  0  0  0  0  0
   -6.9282   -0.8000    0.0000 H   0  0  0  0  0  0  0  0  0  0  0  0
   -6.9282    0.8000    0.0000 H   0  0  0  0  0  0  0  0  0  0  0  0
   -5.5426   -1.6000    0.0000 H   0  0  0  0  0  0  0  0  0  0  0  0
    5.5425    0.0000    0.0000 O   0  0  0  0  0  0  0  0  0  0  0  0
    6.9283    0.8000    0.0000 C   0  0  0  0  0  0  0  0  0  0  0  0
    6.9283    2.4000    0.0000 O   0  0  0  0  0  0  0  0  0  0  0  0
    8.3139    0.0000    0.0000 C   0  0  0  0  0  0  0  0  0  0  0  0
    9.6995   -0.8000    0.0000 H   0  0  0  0  0  0  0  0  0  0  0  0
    9.6995    0.8000    0.0000 H   0  0  0  0  0  0  0  0  0  0  0  0
    8.3139   -1.6000    0.0000 H   0  0  0  0  0  0  0  0  0  0  0  0
  1  2  1  0  0  0  0
  1  3  1  0  0  0  0
  1  4  1  0  0  0  0
  4  5  1  0  0  0  0
  4  6  1  0  0  0  0
  4  7  1  0  0  0  0
  7  8  1  0  0  0  0
  8  9  1  0  0  0  0
  8 10  1  0  0  0  0
  8 11  1  0  0  0  0
 11 12  1  0  0  0  0
 11 13  1  0  0  0  0
 11 14  1  0  0  0  0
 14 15  1  0  0  0  0
 15 16  1  0  0  0  0
 15 17  1  0  0  0  0
 15 18  1  0  0  0  0
 18 19  1  0  0  0  0
 18 20  1  0  0  0  0
 18 21  1  0  0  0  0
  1 22  1  0  0  0  0
 22 23  1  0  0  0  0
 23 24  2  0  0  0  0
 23 25  1  0  0  0  0
 25 26  1  0  0  0  0
 25 27  1  0  0  0  0
 25 28  1  0  0  0  0
M  END
> <ChemID>
100545

> <source_casrn>
112-15-2

> <CAS>
112-15-2

> <SMILES>
CCOCCOCCOC(C)=O

> <NAME>
Ethanol, 2-(2-ethoxyethoxy)-, acetate

> <preferred_name>
2-(2-Ethoxyethoxy)ethyl acetate

> <iupac>
2-(2-ethoxyethoxy)ethyl acetate

> <MPID>
100555

> <dsstox_substance_id>
DTXSID6026905

> <Canonical_QSARr>
CCOCCOCCOC(C)=O

> <InChI_Code_QSARr>
InChI=1S/C8H16O4/c1-3-10-4-5-11-6-7-12-8(2)9/h3-7H2,1-2H3

> <InChI Key_QSARr>
FPZWZCWUIYYYBU-UHFFFAOYSA-N

> <Salt_Solvent>
?

> <Ready_Biodeg>
1.0

$$$$
100547
  -INDIGO-08031722522D

 24 23  0  0  0  0  0  0  0  0999 V2000
    5.5425    0.0000    0.0000 O   0  0  0  0  0  0  0  0  0  0  0  0
    6.9282   -0.8000    0.0000 H   0  0  0  0  0  0  0  0  0  0  0  0
    4.1570   -0.8000    0.0000 C   0  0  0  0  0  0  0  0  0  0  0  0
    3.5446   -2.2782    0.0000 H   0  0  0  0  0  0  0  0  0  0  0  0
    4.7692   -2.2782    0.0000 H   0  0  0  0  0  0  0  0  0  0  0  0
    2.7713    0.0000    0.0000 C   0  0  0  0  0  0  0  0  0  0  0  0
    3.3835    1.4782    0.0000 H   0  0  0  0  0  0  0  0  0  0  0  0
    2.1589    1.4782    0.0000 H   0  0  0  0  0  0  0  0  0  0  0  0
    1.3856   -0.8000    0.0000 O   0  0  0  0  0  0  0  0  0  0  0  0
   -0.0001    0.0000    0.0000 C   0  0  0  0  0  0  0  0  0  0  0  0
    0.6123    1.4782    0.0000 H   0  0  0  0  0  0  0  0  0  0  0  0
   -0.6122    1.4782    0.0000 H   0  0  0  0  0  0  0  0  0  0  0  0
   -1.3856   -0.8000    0.0000 C   0  0  0  0  0  0  0  0  0  0  0  0
   -1.9979   -2.2782    0.0000 H   0  0  0  0  0  0  0  0  0  0  0  0
   -0.7734   -2.2782    0.0000 H   0  0  0  0  0  0  0  0  0  0  0  0
   -2.7713    0.0000    0.0000 O   0  0  0  0  0  0  0  0  0  0  0  0
   -4.1570   -0.8000    0.0000 C   0  0  0  0  0  0  0  0  0  0  0  0
   -4.7691   -2.2782    0.0000 H   0  0  0  0  0  0  0  0  0  0  0  0
   -3.5446   -2.2782    0.0000 H   0  0  0  0  0  0  0  0  0  0  0  0
   -5.5427    0.0000    0.0000 C   0  0  0  0  0  0  0  0  0  0  0  0
   -4.9303    1.4782    0.0000 H   0  0  0  0  0  0  0  0  0  0  0  0
   -6.1548    1.4782    0.0000 H   0  0  0  0  0  0  0  0  0  0  0  0
   -6.9281   -0.8000    0.0000 O   0  0  0  0  0  0  0  0  0  0  0  0
   -8.3138    0.0000    0.0000 H   0  0  0  0  0  0  0  0  0  0  0  0
  1  2  1  0  0  0  0
  1  3  1  0  0  0  0
  3  4  1  0  0  0  0
  3  5  1  0  0  0  0
  3  6  1  0  0  0  0
  6  7  1  0  0  0  0
  6  8  1  0  0  0  0
  6  9  1  0  0  0  0
  9 10  1  0  0  0  0
 10 11  1  0  0  0  0
 10 12  1  0  0  0  0
 10 13  1  0  0  0  0
 13 14  1  0  0  0  0
 13 15  1  0  0  0  0
 13 16  1  0  0  0  0
 16 17  1  0  0  0  0
 17 18  1  0  0  0  0
 17 19  1  0  0  0  0
 17 20  1  0  0  0  0
 20 21  1  0  0  0  0
 20 22  1  0  0  0  0
 20 23  1  0  0  0  0
 23 24  1  0  0  0  0
M  END
> <ChemID>
100547

> <source_casrn>
112-27-6

> <CAS>
112-27-6

> <SMILES>
OCCOCCOCCO

> <NAME>
Triethylene glycol

> <preferred_name>
Triethylene glycol

> <iupac>
2,2'-[ethane-1,2-diylbis(oxy)]diethanol

> <MPID>
100557

> <dsstox_substance_id>
DTXSID4021393

> <Canonical_QSARr>
OCCOCCOCCO

> <InChI_Code_QSARr>
InChI=1S/C6H14O4/c7-1-3-9-5-6-10-4-2-8/h7-8H,1-6H2

> <InChI Key_QSARr>
ZIBGPFATKBEMQZ-UHFFFAOYSA-N

> <Salt_Solvent>
?

> <Ready_Biodeg>
1.0

$$$$
100548
  -INDIGO-08031722522D

 33 32  0  0  0  0  0  0  0  0999 V2000
    6.9283    0.8000    0.0000 C   0  0  0  0  0  0  0  0  0  0  0  0
    8.3138    1.6000    0.0000 H   0  0  0  0  0  0  0  0  0  0  0  0
    8.3138    0.0000    0.0000 H   0  0  0  0  0  0  0  0  0  0  0  0
    6.9283    2.4000    0.0000 H   0  0  0  0  0  0  0  0  0  0  0  0
    5.5427    0.0000    0.0000 C   0  0  0  0  0  0  0  0  0  0  0  0
    6.1549   -1.4782    0.0000 H   0  0  0  0  0  0  0  0  0  0  0  0
    4.9302   -1.4782    0.0000 H   0  0  0  0  0  0  0  0  0  0  0  0
    4.1569    0.8000    0.0000 C   0  0  0  0  0  0  0  0  0  0  0  0
    3.5446    2.2782    0.0000 H   0  0  0  0  0  0  0  0  0  0  0  0
    4.7691    2.2782    0.0000 H   0  0  0  0  0  0  0  0  0  0  0  0
    2.7713    0.0000    0.0000 C   0  0  0  0  0  0  0  0  0  0  0  0
    3.3835   -1.4782    0.0000 H   0  0  0  0  0  0  0  0  0  0  0  0
    2.1590   -1.4782    0.0000 H   0  0  0  0  0  0  0  0  0  0  0  0
    1.3857    0.8000    0.0000 C   0  0  0  0  0  0  0  0  0  0  0  0
    0.7735    2.2782    0.0000 H   0  0  0  0  0  0  0  0  0  0  0  0
    1.9979    2.2782    0.0000 H   0  0  0  0  0  0  0  0  0  0  0  0
    0.0001    0.0000    0.0000 C   0  0  0  0  0  0  0  0  0  0  0  0
    0.6124   -1.4782    0.0000 H   0  0  0  0  0  0  0  0  0  0  0  0
   -0.6124   -1.4782    0.0000 H   0  0  0  0  0  0  0  0  0  0  0  0
   -1.3857    0.8000    0.0000 C   0  0  0  0  0  0  0  0  0  0  0  0
   -1.9979    2.2782    0.0000 H   0  0  0  0  0  0  0  0  0  0  0  0
   -0.7735    2.2782    0.0000 H   0  0  0  0  0  0  0  0  0  0  0  0
   -2.7713    0.0000    0.0000 C   0  0  0  0  0  0  0  0  0  0  0  0
   -2.1590   -1.4782    0.0000 H   0  0  0  0  0  0  0  0  0  0  0  0
   -3.3835   -1.4782    0.0000 H   0  0  0  0  0  0  0  0  0  0  0  0
   -4.1569    0.8000    0.0000 C   0  0  0  0  0  0  0  0  0  0  0  0
   -4.7691    2.2782    0.0000 H   0  0  0  0  0  0  0  0  0  0  0  0
   -3.5446    2.2782    0.0000 H   0  0  0  0  0  0  0  0  0  0  0  0
   -5.5427    0.0000    0.0000 C   0  0  0  0  0  0  0  0  0  0  0  0
   -4.9302   -1.4782    0.0000 H   0  0  0  0  0  0  0  0  0  0  0  0
   -6.1549   -1.4782    0.0000 H   0  0  0  0  0  0  0  0  0  0  0  0
   -6.9283    0.8000    0.0000 O   0  0  0  0  0  0  0  0  0  0  0  0
   -8.3138    0.0000    0.0000 H   0  0  0  0  0  0  0  0  0  0  0  0
  1  2  1  0  0  0  0
  1  3  1  0  0  0  0
  1  4  1  0  0  0  0
  1  5  1  0  0  0  0
  5  6  1  0  0  0  0
  5  7  1  0  0  0  0
  5  8  1  0  0  0  0
  8  9  1  0  0  0  0
  8 10  1  0  0  0  0
  8 11  1  0  0  0  0
 11 12  1  0  0  0  0
 11 13  1  0  0  0  0
 11 14  1  0  0  0  0
 14 15  1  0  0  0  0
 14 16  1  0  0  0  0
 14 17  1  0  0  0  0
 17 18  1  0  0  0  0
 17 19  1  0  0  0  0
 17 20  1  0  0  0  0
 20 21  1  0  0  0  0
 20 22  1  0  0  0  0
 20 23  1  0  0  0  0
 23 24  1  0  0  0  0
 23 25  1  0  0  0  0
 23 26  1  0  0  0  0
 26 27  1  0  0  0  0
 26 28  1  0  0  0  0
 26 29  1  0  0  0  0
 29 30  1  0  0  0  0
 29 31  1  0  0  0  0
 29 32  1  0  0  0  0
 32 33  1  0  0  0  0
M  END
> <ChemID>
100548

> <source_casrn>
112-30-1

> <CAS>
112-30-1

> <SMILES>
CCCCCCCCCCO

> <NAME>
1-Decanol

> <preferred_name>
1-Decanol

> <iupac>
decan-1-ol

> <MPID>
100558

> <dsstox_substance_id>
DTXSID7021946

> <Canonical_QSARr>
CCCCCCCCCCO

> <InChI_Code_QSARr>
InChI=1S/C10H22O/c1-2-3-4-5-6-7-8-9-10-11/h11H,2-10H2,1H3

> <InChI Key_QSARr>
MWKFXSUHUHTGQN-UHFFFAOYSA-N

> <Salt_Solvent>
?

> <Ready_Biodeg>
1.0

$$$$
100549
  -INDIGO-08031722522D

 31 30  0  0  0  0  0  0  0  0999 V2000
    5.5425    0.0000    0.0000 C   0  0  0  0  0  0  0  0  0  0  0  0
    6.9282   -0.8000    0.0000 H   0  0  0  0  0  0  0  0  0  0  0  0
    6.9282    0.8000    0.0000 H   0  0  0  0  0  0  0  0  0  0  0  0
    5.5425   -1.6000    0.0000 H   0  0  0  0  0  0  0  0  0  0  0  0
    4.1570    0.8000    0.0000 C   0  0  0  0  0  0  0  0  0  0  0  0
    4.7692    2.2782    0.0000 H   0  0  0  0  0  0  0  0  0  0  0  0
    3.5446    2.2782    0.0000 H   0  0  0  0  0  0  0  0  0  0  0  0
    2.7713    0.0000    0.0000 C   0  0  0  0  0  0  0  0  0  0  0  0
    2.1589   -1.4782    0.0000 H   0  0  0  0  0  0  0  0  0  0  0  0
    3.3835   -1.4782    0.0000 H   0  0  0  0  0  0  0  0  0  0  0  0
    1.3856    0.8000    0.0000 C   0  0  0  0  0  0  0  0  0  0  0  0
    1.9980    2.2782    0.0000 H   0  0  0  0  0  0  0  0  0  0  0  0
    0.7732    2.2782    0.0000 H   0  0  0  0  0  0  0  0  0  0  0  0
   -0.0001    0.0000    0.0000 C   0  0  0  0  0  0  0  0  0  0  0  0
   -0.6122   -1.4782    0.0000 H   0  0  0  0  0  0  0  0  0  0  0  0
    0.6123   -1.4782    0.0000 H   0  0  0  0  0  0  0  0  0  0  0  0
   -1.3856    0.8000    0.0000 C   0  0  0  0  0  0  0  0  0  0  0  0
   -0.7734    2.2782    0.0000 H   0  0  0  0  0  0  0  0  0  0  0  0
   -1.9979    2.2782    0.0000 H   0  0  0  0  0  0  0  0  0  0  0  0
   -2.7713    0.0000    0.0000 C   0  0  0  0  0  0  0  0  0  0  0  0
   -3.3836   -1.4782    0.0000 H   0  0  0  0  0  0  0  0  0  0  0  0
   -2.1589   -1.4782    0.0000 H   0  0  0  0  0  0  0  0  0  0  0  0
   -4.1570    0.8000    0.0000 C   0  0  0  0  0  0  0  0  0  0  0  0
   -3.5446    2.2782    0.0000 H   0  0  0  0  0  0  0  0  0  0  0  0
   -4.7691    2.2782    0.0000 H   0  0  0  0  0  0  0  0  0  0  0  0
   -5.5427    0.0000    0.0000 C   0  0  0  0  0  0  0  0  0  0  0  0
   -6.1548   -1.4782    0.0000 H   0  0  0  0  0  0  0  0  0  0  0  0
   -4.9303   -1.4782    0.0000 H   0  0  0  0  0  0  0  0  0  0  0  0
   -6.9281    0.8000    0.0000 C   0  0  0  0  0  0  0  0  0  0  0  0
   -8.3138    0.0000    0.0000 H   0  0  0  0  0  0  0  0  0  0  0  0
   -6.9281    2.4000    0.0000 O   0  0  0  0  0  0  0  0  0  0  0  0
  1  2  1  0  0  0  0
  1  3  1  0  0  0  0
  1  4  1  0  0  0  0
  1  5  1  0  0  0  0
  5  6  1  0  0  0  0
  5  7  1  0  0  0  0
  5  8  1  0  0  0  0
  8  9  1  0  0  0  0
  8 10  1  0  0  0  0
  8 11  1  0  0  0  0
 11 12  1  0  0  0  0
 11 13  1  0  0  0  0
 11 14  1  0  0  0  0
 14 15  1  0  0  0  0
 14 16  1  0  0  0  0
 14 17  1  0  0  0  0
 17 18  1  0  0  0  0
 17 19  1  0  0  0  0
 17 20  1  0  0  0  0
 20 21  1  0  0  0  0
 20 22  1  0  0  0  0
 20 23  1  0  0  0  0
 23 24  1  0  0  0  0
 23 25  1  0  0  0  0
 23 26  1  0  0  0  0
 26 27  1  0  0  0  0
 26 28  1  0  0  0  0
 26 29  1  0  0  0  0
 29 30  1  0  0  0  0
 29 31  2  0  0  0  0
M  END
> <ChemID>
100549

> <source_casrn>
112-31-2

> <CAS>
112-31-2

> <SMILES>
CCCCCCCCCC=O

> <NAME>
n-Decanal

> <preferred_name>
Decanal

> <iupac>
decanal

> <MPID>
100559

> <dsstox_substance_id>
DTXSID4021553

> <Canonical_QSARr>
CCCCCCCCCC=O

> <InChI_Code_QSARr>
InChI=1S/C10H20O/c1-2-3-4-5-6-7-8-9-10-11/h10H,2-9H2,1H3

> <InChI Key_QSARr>
KSMVZQYAVGTKIV-UHFFFAOYSA-N

> <Salt_Solvent>
?

> <Ready_Biodeg>
1.0

$$$$
100551
  -INDIGO-08031722522D

 35 34  0  0  0  0  0  0  0  0999 V2000
    6.9283    2.4000    0.0000 O   0  0  0  0  0  0  0  0  0  0  0  0
    6.9283    0.8000    0.0000 C   0  0  0  0  0  0  0  0  0  0  0  0
    8.3139    0.0000    0.0000 O   0  0  0  0  0  0  0  0  0  0  0  0
    9.6995    0.8000    0.0000 H   0  0  0  0  0  0  0  0  0  0  0  0
    5.5427    0.0000    0.0000 C   0  0  0  0  0  0  0  0  0  0  0  0
    4.9303   -1.4782    0.0000 H   0  0  0  0  0  0  0  0  0  0  0  0
    6.1548   -1.4782    0.0000 H   0  0  0  0  0  0  0  0  0  0  0  0
    4.1568    0.8000    0.0000 C   0  0  0  0  0  0  0  0  0  0  0  0
    4.7692    2.2782    0.0000 H   0  0  0  0  0  0  0  0  0  0  0  0
    3.5447    2.2782    0.0000 H   0  0  0  0  0  0  0  0  0  0  0  0
    2.7712    0.0000    0.0000 C   0  0  0  0  0  0  0  0  0  0  0  0
    2.1591   -1.4782    0.0000 H   0  0  0  0  0  0  0  0  0  0  0  0
    3.3836   -1.4782    0.0000 H   0  0  0  0  0  0  0  0  0  0  0  0
    1.3856    0.8000    0.0000 C   0  0  0  0  0  0  0  0  0  0  0  0
    1.9980    2.2782    0.0000 H   0  0  0  0  0  0  0  0  0  0  0  0
    0.7732    2.2782    0.0000 H   0  0  0  0  0  0  0  0  0  0  0  0
    0.0000    0.0000    0.0000 C   0  0  0  0  0  0  0  0  0  0  0  0
   -0.6124   -1.4782    0.0000 H   0  0  0  0  0  0  0  0  0  0  0  0
    0.6124   -1.4782    0.0000 H   0  0  0  0  0  0  0  0  0  0  0  0
   -1.3856    0.8000    0.0000 C   0  0  0  0  0  0  0  0  0  0  0  0
   -0.7735    2.2782    0.0000 H   0  0  0  0  0  0  0  0  0  0  0  0
   -1.9980    2.2782    0.0000 H   0  0  0  0  0  0  0  0  0  0  0  0
   -2.7712    0.0000    0.0000 C   0  0  0  0  0  0  0  0  0  0  0  0
   -3.3836   -1.4782    0.0000 H   0  0  0  0  0  0  0  0  0  0  0  0
   -2.1590   -1.4782    0.0000 H   0  0  0  0  0  0  0  0  0  0  0  0
   -4.1570    0.8000    0.0000 C   0  0  0  0  0  0  0  0  0  0  0  0
   -3.5446    2.2782    0.0000 H   0  0  0  0  0  0  0  0  0  0  0  0
   -4.7692    2.2782    0.0000 H   0  0  0  0  0  0  0  0  0  0  0  0
   -5.5426    0.0000    0.0000 C   0  0  0  0  0  0  0  0  0  0  0  0
   -6.1548   -1.4782    0.0000 H   0  0  0  0  0  0  0  0  0  0  0  0
   -4.9302   -1.4782    0.0000 H   0  0  0  0  0  0  0  0  0  0  0  0
   -6.9282    0.8000    0.0000 C   0  0  0  0  0  0  0  0  0  0  0  0
   -8.3138    1.6000    0.0000 H   0  0  0  0  0  0  0  0  0  0  0  0
   -8.3138    0.0000    0.0000 H   0  0  0  0  0  0  0  0  0  0  0  0
   -6.9282    2.4000    0.0000 H   0  0  0  0  0  0  0  0  0  0  0  0
  1  2  2  0  0  0  0
  2  3  1  0  0  0  0
  3  4  1  0  0  0  0
  2  5  1  0  0  0  0
  5  6  1  0  0  0  0
  5  7  1  0  0  0  0
  5  8  1  0  0  0  0
  8  9  1  0  0  0  0
  8 10  1  0  0  0  0
  8 11  1  0  0  0  0
 11 12  1  0  0  0  0
 11 13  1  0  0  0  0
 11 14  1  0  0  0  0
 14 15  1  0  0  0  0
 14 16  1  0  0  0  0
 14 17  1  0  0  0  0
 17 18  1  0  0  0  0
 17 19  1  0  0  0  0
 17 20  1  0  0  0  0
 20 21  1  0  0  0  0
 20 22  1  0  0  0  0
 20 23  1  0  0  0  0
 23 24  1  0  0  0  0
 23 25  1  0  0  0  0
 23 26  1  0  0  0  0
 26 27  1  0  0  0  0
 26 28  1  0  0  0  0
 26 29  1  0  0  0  0
 29 30  1  0  0  0  0
 29 31  1  0  0  0  0
 29 32  1  0  0  0  0
 32 33  1  0  0  0  0
 32 34  1  0  0  0  0
 32 35  1  0  0  0  0
M  END
> <ChemID>
100551

> <source_casrn>
112-37-8

> <CAS>
112-37-8

> <SMILES>
CCCCCCCCCCC(O)=O

> <NAME>
Undecanoic acid

> <preferred_name>
Undecanoic acid

> <iupac>
undecanoic acid

> <MPID>
100561

> <dsstox_substance_id>
DTXSID8021690

> <Canonical_QSARr>
CCCCCCCCCCC(O)=O

> <InChI_Code_QSARr>
InChI=1S/C11H22O2/c1-2-3-4-5-6-7-8-9-10-11(12)13/h2-10H2,1H3,(H,12,13)

> <InChI Key_QSARr>
ZDPHROOEEOARMN-UHFFFAOYSA-N

> <Salt_Solvent>
?

> <Ready_Biodeg>
1.0

$$$$
100552
  -INDIGO-08031722522D

 38 37  0  0  0  0  0  0  0  0999 V2000
    6.9282   -0.8000    0.0000 C   0  0  0  0  0  0  0  0  0  0  0  0
    8.3138   -1.6000    0.0000 H   0  0  0  0  0  0  0  0  0  0  0  0
    8.3138    0.0000    0.0000 H   0  0  0  0  0  0  0  0  0  0  0  0
    6.9282   -2.4000    0.0000 H   0  0  0  0  0  0  0  0  0  0  0  0
    5.5426    0.0000    0.0000 C   0  0  0  0  0  0  0  0  0  0  0  0
    6.1548    1.4782    0.0000 H   0  0  0  0  0  0  0  0  0  0  0  0
    4.9302    1.4782    0.0000 H   0  0  0  0  0  0  0  0  0  0  0  0
    4.1570   -0.8000    0.0000 C   0  0  0  0  0  0  0  0  0  0  0  0
    3.5446   -2.2782    0.0000 H   0  0  0  0  0  0  0  0  0  0  0  0
    4.7692   -2.2782    0.0000 H   0  0  0  0  0  0  0  0  0  0  0  0
    2.7712    0.0000    0.0000 C   0  0  0  0  0  0  0  0  0  0  0  0
    3.3836    1.4782    0.0000 H   0  0  0  0  0  0  0  0  0  0  0  0
    2.1590    1.4782    0.0000 H   0  0  0  0  0  0  0  0  0  0  0  0
    1.3856   -0.8000    0.0000 C   0  0  0  0  0  0  0  0  0  0  0  0
    0.7735   -2.2782    0.0000 H   0  0  0  0  0  0  0  0  0  0  0  0
    1.9980   -2.2782    0.0000 H   0  0  0  0  0  0  0  0  0  0  0  0
   -0.0000    0.0000    0.0000 C   0  0  0  0  0  0  0  0  0  0  0  0
    0.6124    1.4782    0.0000 H   0  0  0  0  0  0  0  0  0  0  0  0
   -0.6124    1.4782    0.0000 H   0  0  0  0  0  0  0  0  0  0  0  0
   -1.3856   -0.8000    0.0000 C   0  0  0  0  0  0  0  0  0  0  0  0
   -1.9980   -2.2782    0.0000 H   0  0  0  0  0  0  0  0  0  0  0  0
   -0.7732   -2.2782    0.0000 H   0  0  0  0  0  0  0  0  0  0  0  0
   -2.7712    0.0000    0.0000 C   0  0  0  0  0  0  0  0  0  0  0  0
   -2.1591    1.4782    0.0000 H   0  0  0  0  0  0  0  0  0  0  0  0
   -3.3836    1.4782    0.0000 H   0  0  0  0  0  0  0  0  0  0  0  0
   -4.1568   -0.8000    0.0000 C   0  0  0  0  0  0  0  0  0  0  0  0
   -4.7692   -2.2782    0.0000 H   0  0  0  0  0  0  0  0  0  0  0  0
   -3.5447   -2.2782    0.0000 H   0  0  0  0  0  0  0  0  0  0  0  0
   -5.5427    0.0000    0.0000 C   0  0  0  0  0  0  0  0  0  0  0  0
   -4.9303    1.4782    0.0000 H   0  0  0  0  0  0  0  0  0  0  0  0
   -6.1548    1.4782    0.0000 H   0  0  0  0  0  0  0  0  0  0  0  0
   -6.9283   -0.8000    0.0000 C   0  0  0  0  0  0  0  0  0  0  0  0
   -7.5404   -2.2782    0.0000 H   0  0  0  0  0  0  0  0  0  0  0  0
   -6.3159   -2.2782    0.0000 H   0  0  0  0  0  0  0  0  0  0  0  0
   -8.3139    0.0000    0.0000 C   0  0  0  0  0  0  0  0  0  0  0  0
   -9.6995    0.8000    0.0000 H   0  0  0  0  0  0  0  0  0  0  0  0
   -9.6995   -0.8000    0.0000 H   0  0  0  0  0  0  0  0  0  0  0  0
   -8.3139    1.6000    0.0000 H   0  0  0  0  0  0  0  0  0  0  0  0
  1  2  1  0  0  0  0
  1  3  1  0  0  0  0
  1  4  1  0  0  0  0
  1  5  1  0  0  0  0
  5  6  1  0  0  0  0
  5  7  1  0  0  0  0
  5  8  1  0  0  0  0
  8  9  1  0  0  0  0
  8 10  1  0  0  0  0
  8 11  1  0  0  0  0
 11 12  1  0  0  0  0
 11 13  1  0  0  0  0
 11 14  1  0  0  0  0
 14 15  1  0  0  0  0
 14 16  1  0  0  0  0
 14 17  1  0  0  0  0
 17 18  1  0  0  0  0
 17 19  1  0  0  0  0
 17 20  1  0  0  0  0
 20 21  1  0  0  0  0
 20 22  1  0  0  0  0
 20 23  1  0  0  0  0
 23 24  1  0  0  0  0
 23 25  1  0  0  0  0
 23 26  1  0  0  0  0
 26 27  1  0  0  0  0
 26 28  1  0  0  0  0
 26 29  1  0  0  0  0
 29 30  1  0  0  0  0
 29 31  1  0  0  0  0
 29 32  1  0  0  0  0
 32 33  1  0  0  0  0
 32 34  1  0  0  0  0
 32 35  1  0  0  0  0
 35 36  1  0  0  0  0
 35 37  1  0  0  0  0
 35 38  1  0  0  0  0
M  END
> <ChemID>
100552

> <source_casrn>
112-40-3

> <CAS>
112-40-3

> <SMILES>
CCCCCCCCCCCC

> <NAME>
Dodecane

> <preferred_name>
Dodecane

> <iupac>
dodecane

> <MPID>
100562

> <dsstox_substance_id>
DTXSID0026913

> <Canonical_QSARr>
CCCCCCCCCCCC

> <InChI_Code_QSARr>
InChI=1S/C12H26/c1-3-5-7-9-11-12-10-8-6-4-2/h3-12H2,1-2H3

> <InChI Key_QSARr>
SNRUBQQJIBEYMU-UHFFFAOYSA-N

> <Salt_Solvent>
?

> <Ready_Biodeg>
1.0

$$$$
100553
  -INDIGO-08031722522D

 36 35  0  0  0  0  0  0  0  0999 V2000
   -6.9283    0.8000    0.0000 C   0  0  0  0  0  0  0  0  0  0  0  0
   -6.3159    2.2782    0.0000 H   0  0  0  0  0  0  0  0  0  0  0  0
   -7.5404    2.2782    0.0000 H   0  0  0  0  0  0  0  0  0  0  0  0
   -5.5427    0.0000    0.0000 C   0  0  0  0  0  0  0  0  0  0  0  0
   -6.1548   -1.4782    0.0000 H   0  0  0  0  0  0  0  0  0  0  0  0
   -4.9303   -1.4782    0.0000 H   0  0  0  0  0  0  0  0  0  0  0  0
   -4.1568    0.8000    0.0000 C   0  0  0  0  0  0  0  0  0  0  0  0
   -3.5447    2.2782    0.0000 H   0  0  0  0  0  0  0  0  0  0  0  0
   -4.7692    2.2782    0.0000 H   0  0  0  0  0  0  0  0  0  0  0  0
   -2.7712    0.0000    0.0000 C   0  0  0  0  0  0  0  0  0  0  0  0
   -3.3836   -1.4782    0.0000 H   0  0  0  0  0  0  0  0  0  0  0  0
   -2.1591   -1.4782    0.0000 H   0  0  0  0  0  0  0  0  0  0  0  0
   -1.3856    0.8000    0.0000 C   0  0  0  0  0  0  0  0  0  0  0  0
   -0.7732    2.2782    0.0000 H   0  0  0  0  0  0  0  0  0  0  0  0
   -1.9980    2.2782    0.0000 H   0  0  0  0  0  0  0  0  0  0  0  0
   -0.0000    0.0000    0.0000 C   0  0  0  0  0  0  0  0  0  0  0  0
   -0.6124   -1.4782    0.0000 H   0  0  0  0  0  0  0  0  0  0  0  0
    0.6124   -1.4782    0.0000 H   0  0  0  0  0  0  0  0  0  0  0  0
    1.3856    0.8000    0.0000 C   0  0  0  0  0  0  0  0  0  0  0  0
    1.9980    2.2782    0.0000 H   0  0  0  0  0  0  0  0  0  0  0  0
    0.7735    2.2782    0.0000 H   0  0  0  0  0  0  0  0  0  0  0  0
    2.7712    0.0000    0.0000 C   0  0  0  0  0  0  0  0  0  0  0  0
    2.1590   -1.4782    0.0000 H   0  0  0  0  0  0  0  0  0  0  0  0
    3.3836   -1.4782    0.0000 H   0  0  0  0  0  0  0  0  0  0  0  0
    4.1570    0.8000    0.0000 C   0  0  0  0  0  0  0  0  0  0  0  0
    4.7692    2.2782    0.0000 H   0  0  0  0  0  0  0  0  0  0  0  0
    3.5446    2.2782    0.0000 H   0  0  0  0  0  0  0  0  0  0  0  0
    5.5426    0.0000    0.0000 C   0  0  0  0  0  0  0  0  0  0  0  0
    4.9302   -1.4782    0.0000 H   0  0  0  0  0  0  0  0  0  0  0  0
    6.1548   -1.4782    0.0000 H   0  0  0  0  0  0  0  0  0  0  0  0
    6.9282    0.8000    0.0000 C   0  0  0  0  0  0  0  0  0  0  0  0
    8.3138    1.6000    0.0000 H   0  0  0  0  0  0  0  0  0  0  0  0
    8.3138    0.0000    0.0000 H   0  0  0  0  0  0  0  0  0  0  0  0
    6.9282    2.4000    0.0000 H   0  0  0  0  0  0  0  0  0  0  0  0
   -8.3139    0.0000    0.0000 O   0  0  0  0  0  0  0  0  0  0  0  0
   -9.6995    0.8000    0.0000 H   0  0  0  0  0  0  0  0  0  0  0  0
  1  2  1  0  0  0  0
  1  3  1  0  0  0  0
  1  4  1  0  0  0  0
  4  5  1  0  0  0  0
  4  6  1  0  0  0  0
  4  7  1  0  0  0  0
  7  8  1  0  0  0  0
  7  9  1  0  0  0  0
  7 10  1  0  0  0  0
 10 11  1  0  0  0  0
 10 12  1  0  0  0  0
 10 13  1  0  0  0  0
 13 14  1  0  0  0  0
 13 15  1  0  0  0  0
 13 16  1  0  0  0  0
 16 17  1  0  0  0  0
 16 18  1  0  0  0  0
 16 19  1  0  0  0  0
 19 20  1  0  0  0  0
 19 21  1  0  0  0  0
 19 22  1  0  0  0  0
 22 23  1  0  0  0  0
 22 24  1  0  0  0  0
 22 25  1  0  0  0  0
 25 26  1  0  0  0  0
 25 27  1  0  0  0  0
 25 28  1  0  0  0  0
 28 29  1  0  0  0  0
 28 30  1  0  0  0  0
 28 31  1  0  0  0  0
 31 32  1  0  0  0  0
 31 33  1  0  0  0  0
 31 34  1  0  0  0  0
  1 35  1  0  0  0  0
 35 36  1  0  0  0  0
M  END
> <ChemID>
100553

> <source_casrn>
112-42-5

> <CAS>
112-42-5

> <SMILES>
CCCCCCCCCCCO

> <NAME>
1-Undecanol

> <preferred_name>
1-Undecanol

> <iupac>
undecan-1-ol

> <MPID>
100563

> <dsstox_substance_id>
DTXSID0026915

> <Canonical_QSARr>
CCCCCCCCCCCO

> <InChI_Code_QSARr>
InChI=1S/C11H24O/c1-2-3-4-5-6-7-8-9-10-11-12/h12H,2-11H2,1H3

> <InChI Key_QSARr>
KJIOQYGWTQBHNH-UHFFFAOYSA-N

> <Salt_Solvent>
?

> <Ready_Biodeg>
1.0

$$$$
100555
  -INDIGO-08031722522D

 57 56  0  0  0  0  0  0  0  0999 V2000
   20.7845    0.8000    0.0000 C   0  0  0  0  0  0  0  0  0  0  0  0
   22.1702    1.6000    0.0000 H   0  0  0  0  0  0  0  0  0  0  0  0
   22.1702    0.0000    0.0000 H   0  0  0  0  0  0  0  0  0  0  0  0
   20.7845    2.4000    0.0000 H   0  0  0  0  0  0  0  0  0  0  0  0
   19.3992    0.0000    0.0000 O   0  0  0  0  0  0  0  0  0  0  0  0
   18.0134    0.8000    0.0000 C   0  0  0  0  0  0  0  0  0  0  0  0
   18.0134    2.4000    0.0000 O   0  0  0  0  0  0  0  0  0  0  0  0
   16.6276    0.0000    0.0000 C   0  0  0  0  0  0  0  0  0  0  0  0
   16.0153   -1.4782    0.0000 H   0  0  0  0  0  0  0  0  0  0  0  0
   17.2399   -1.4782    0.0000 H   0  0  0  0  0  0  0  0  0  0  0  0
   15.2419    0.8000    0.0000 C   0  0  0  0  0  0  0  0  0  0  0  0
   15.8542    2.2782    0.0000 H   0  0  0  0  0  0  0  0  0  0  0  0
   14.6296    2.2782    0.0000 H   0  0  0  0  0  0  0  0  0  0  0  0
   13.8565    0.0000    0.0000 C   0  0  0  0  0  0  0  0  0  0  0  0
   13.2442   -1.4782    0.0000 H   0  0  0  0  0  0  0  0  0  0  0  0
   14.4688   -1.4782    0.0000 H   0  0  0  0  0  0  0  0  0  0  0  0
   12.4708    0.8000    0.0000 C   0  0  0  0  0  0  0  0  0  0  0  0
   13.0831    2.2782    0.0000 H   0  0  0  0  0  0  0  0  0  0  0  0
   11.8585    2.2782    0.0000 H   0  0  0  0  0  0  0  0  0  0  0  0
   11.0850    0.0000    0.0000 C   0  0  0  0  0  0  0  0  0  0  0  0
   10.4727   -1.4782    0.0000 H   0  0  0  0  0  0  0  0  0  0  0  0
   11.6973   -1.4782    0.0000 H   0  0  0  0  0  0  0  0  0  0  0  0
    9.6997    0.8000    0.0000 C   0  0  0  0  0  0  0  0  0  0  0  0
   10.3120    2.2782    0.0000 H   0  0  0  0  0  0  0  0  0  0  0  0
    9.0874    2.2782    0.0000 H   0  0  0  0  0  0  0  0  0  0  0  0
    8.3139    0.0000    0.0000 C   0  0  0  0  0  0  0  0  0  0  0  0
    7.7016   -1.4782    0.0000 H   0  0  0  0  0  0  0  0  0  0  0  0
    8.9262   -1.4782    0.0000 H   0  0  0  0  0  0  0  0  0  0  0  0
    6.9281    0.8000    0.0000 C   0  0  0  0  0  0  0  0  0  0  0  0
    6.9281    2.4000    0.0000 H   0  0  0  0  0  0  0  0  0  0  0  0
    5.5424    0.0000    0.0000 C   0  0  0  0  0  0  0  0  0  0  0  0
    5.5424   -1.6000    0.0000 H   0  0  0  0  0  0  0  0  0  0  0  0
    4.1570    0.8000    0.0000 C   0  0  0  0  0  0  0  0  0  0  0  0
    4.7693    2.2782    0.0000 H   0  0  0  0  0  0  0  0  0  0  0  0
    3.5448    2.2782    0.0000 H   0  0  0  0  0  0  0  0  0  0  0  0
    2.7713    0.0000    0.0000 C   0  0  0  0  0  0  0  0  0  0  0  0
    2.1590   -1.4782    0.0000 H   0  0  0  0  0  0  0  0  0  0  0  0
    3.3836   -1.4782    0.0000 H   0  0  0  0  0  0  0  0  0  0  0  0
    1.3855    0.8000    0.0000 C   0  0  0  0  0  0  0  0  0  0  0  0
    1.9978    2.2782    0.0000 H   0  0  0  0  0  0  0  0  0  0  0  0
    0.7732    2.2782    0.0000 H   0  0  0  0  0  0  0  0  0  0  0  0
    0.0002    0.0000    0.0000 C   0  0  0  0  0  0  0  0  0  0  0  0
   -0.6121   -1.4782    0.0000 H   0  0  0  0  0  0  0  0  0  0  0  0
    0.6125   -1.4782    0.0000 H   0  0  0  0  0  0  0  0  0  0  0  0
   -1.3856    0.8000    0.0000 C   0  0  0  0  0  0  0  0  0  0  0  0
   -0.7733    2.2782    0.0000 H   0  0  0  0  0  0  0  0  0  0  0  0
   -1.9979    2.2782    0.0000 H   0  0  0  0  0  0  0  0  0  0  0  0
   -2.7713    0.0000    0.0000 C   0  0  0  0  0  0  0  0  0  0  0  0
   -3.3836   -1.4782    0.0000 H   0  0  0  0  0  0  0  0  0  0  0  0
   -2.1590   -1.4782    0.0000 H   0  0  0  0  0  0  0  0  0  0  0  0
   -4.1571    0.8000    0.0000 C   0  0  0  0  0  0  0  0  0  0  0  0
   -3.5448    2.2782    0.0000 H   0  0  0  0  0  0  0  0  0  0  0  0
   -4.7694    2.2782    0.0000 H   0  0  0  0  0  0  0  0  0  0  0  0
   -5.5424    0.0000    0.0000 C   0  0  0  0  0  0  0  0  0  0  0  0
   -6.9282   -0.8000    0.0000 H   0  0  0  0  0  0  0  0  0  0  0  0
   -6.9282    0.8000    0.0000 H   0  0  0  0  0  0  0  0  0  0  0  0
   -5.5424   -1.6000    0.0000 H   0  0  0  0  0  0  0  0  0  0  0  0
  1  2  1  0  0  0  0
  1  3  1  0  0  0  0
  1  4  1  0  0  0  0
  1  5  1  0  0  0  0
  5  6  1  0  0  0  0
  6  7  2  0  0  0  0
  6  8  1  0  0  0  0
  8  9  1  0  0  0  0
  8 10  1  0  0  0  0
  8 11  1  0  0  0  0
 11 12  1  0  0  0  0
 11 13  1  0  0  0  0
 11 14  1  0  0  0  0
 14 15  1  0  0  0  0
 14 16  1  0  0  0  0
 14 17  1  0  0  0  0
 17 18  1  0  0  0  0
 17 19  1  0  0  0  0
 17 20  1  0  0  0  0
 20 21  1  0  0  0  0
 20 22  1  0  0  0  0
 20 23  1  0  0  0  0
 23 24  1  0  0  0  0
 23 25  1  0  0  0  0
 23 26  1  0  0  0  0
 26 27  1  0  0  0  0
 26 28  1  0  0  0  0
 26 29  1  0  0  0  0
 29 30  1  0  0  0  0
 29 31  2  0  0  0  0
 31 32  1  0  0  0  0
 31 33  1  0  0  0  0
 33 34  1  0  0  0  0
 33 35  1  0  0  0  0
 33 36  1  0  0  0  0
 36 37  1  0  0  0  0
 36 38  1  0  0  0  0
 36 39  1  0  0  0  0
 39 40  1  0  0  0  0
 39 41  1  0  0  0  0
 39 42  1  0  0  0  0
 42 43  1  0  0  0  0
 42 44  1  0  0  0  0
 42 45  1  0  0  0  0
 45 46  1  0  0  0  0
 45 47  1  0  0  0  0
 45 48  1  0  0  0  0
 48 49  1  0  0  0  0
 48 50  1  0  0  0  0
 48 51  1  0  0  0  0
 51 52  1  0  0  0  0
 51 53  1  0  0  0  0
 51 54  1  0  0  0  0
 54 55  1  0  0  0  0
 54 56  1  0  0  0  0
 54 57  1  0  0  0  0
M  END
> <ChemID>
100555

> <source_casrn>
112-62-9

> <CAS>
112-62-9

> <SMILES>
CCCCCCCC/C=C\CCCCCCCC(=O)OC

> <NAME>
Methyl oleate

> <preferred_name>
Methyl (9Z)-octadec-9-enoate

> <iupac>
methyl (9Z)-octadec-9-enoate

> <MPID>
100565

> <dsstox_substance_id>
DTXSID5025811

> <Canonical_QSARr>
CCCCCCCCC=CCCCCCCCC(=O)OC

> <InChI_Code_QSARr>
InChI=1S/C19H36O2/c1-3-4-5-6-7-8-9-10-11-12-13-14-15-16-17-18-19(20)21-2/h10-11H,3-9,12-18H2,1-2H3/b11-10+

> <InChI Key_QSARr>
QYDYPVFESGNLHU-ZHACJKMWSA-N

> <Salt_Solvent>
?

> <Ready_Biodeg>
1.0

$$$$
100556
  -INDIGO-08031722522D

 42 41  0  0  0  0  0  0  0  0999 V2000
    8.3138   -0.0000    0.0000 C   0  0  0  0  0  0  0  0  0  0  0  0
    9.6995   -0.8000    0.0000 H   0  0  0  0  0  0  0  0  0  0  0  0
    9.6995    0.8000    0.0000 H   0  0  0  0  0  0  0  0  0  0  0  0
    8.3138   -1.6000    0.0000 H   0  0  0  0  0  0  0  0  0  0  0  0
    6.9282    0.8000    0.0000 C   0  0  0  0  0  0  0  0  0  0  0  0
    7.5406    2.2782    0.0000 H   0  0  0  0  0  0  0  0  0  0  0  0
    6.3158    2.2782    0.0000 H   0  0  0  0  0  0  0  0  0  0  0  0
    5.5426   -0.0000    0.0000 C   0  0  0  0  0  0  0  0  0  0  0  0
    4.9301   -1.4782    0.0000 H   0  0  0  0  0  0  0  0  0  0  0  0
    6.1550   -1.4782    0.0000 H   0  0  0  0  0  0  0  0  0  0  0  0
    4.1569    0.8000    0.0000 C   0  0  0  0  0  0  0  0  0  0  0  0
    4.7693    2.2782    0.0000 H   0  0  0  0  0  0  0  0  0  0  0  0
    3.5445    2.2782    0.0000 H   0  0  0  0  0  0  0  0  0  0  0  0
    2.7713   -0.0000    0.0000 C   0  0  0  0  0  0  0  0  0  0  0  0
    2.1589   -1.4782    0.0000 H   0  0  0  0  0  0  0  0  0  0  0  0
    3.3837   -1.4782    0.0000 H   0  0  0  0  0  0  0  0  0  0  0  0
    1.3856    0.8000    0.0000 C   0  0  0  0  0  0  0  0  0  0  0  0
    1.9981    2.2782    0.0000 H   0  0  0  0  0  0  0  0  0  0  0  0
    0.7732    2.2782    0.0000 H   0  0  0  0  0  0  0  0  0  0  0  0
    0.0000   -0.0000    0.0000 C   0  0  0  0  0  0  0  0  0  0  0  0
   -0.6124   -1.4782    0.0000 H   0  0  0  0  0  0  0  0  0  0  0  0
    0.6124   -1.4782    0.0000 H   0  0  0  0  0  0  0  0  0  0  0  0
   -1.3856    0.8000    0.0000 C   0  0  0  0  0  0  0  0  0  0  0  0
   -0.7732    2.2782    0.0000 H   0  0  0  0  0  0  0  0  0  0  0  0
   -1.9981    2.2782    0.0000 H   0  0  0  0  0  0  0  0  0  0  0  0
   -2.7713   -0.0000    0.0000 C   0  0  0  0  0  0  0  0  0  0  0  0
   -3.3837   -1.4782    0.0000 H   0  0  0  0  0  0  0  0  0  0  0  0
   -2.1589   -1.4782    0.0000 H   0  0  0  0  0  0  0  0  0  0  0  0
   -4.1569    0.8000    0.0000 C   0  0  0  0  0  0  0  0  0  0  0  0
   -3.5445    2.2782    0.0000 H   0  0  0  0  0  0  0  0  0  0  0  0
   -4.7693    2.2782    0.0000 H   0  0  0  0  0  0  0  0  0  0  0  0
   -5.5426   -0.0000    0.0000 C   0  0  0  0  0  0  0  0  0  0  0  0
   -6.1550   -1.4782    0.0000 H   0  0  0  0  0  0  0  0  0  0  0  0
   -4.9301   -1.4782    0.0000 H   0  0  0  0  0  0  0  0  0  0  0  0
   -6.9282    0.8000    0.0000 C   0  0  0  0  0  0  0  0  0  0  0  0
   -6.3158    2.2782    0.0000 H   0  0  0  0  0  0  0  0  0  0  0  0
   -7.5406    2.2782    0.0000 H   0  0  0  0  0  0  0  0  0  0  0  0
   -8.3138   -0.0000    0.0000 C   0  0  0  0  0  0  0  0  0  0  0  0
   -8.9263   -1.4782    0.0000 H   0  0  0  0  0  0  0  0  0  0  0  0
   -7.7014   -1.4782    0.0000 H   0  0  0  0  0  0  0  0  0  0  0  0
   -9.6995    0.8000    0.0000 O   0  0  0  0  0  0  0  0  0  0  0  0
  -11.0851   -0.0000    0.0000 H   0  0  0  0  0  0  0  0  0  0  0  0
  1  2  1  0  0  0  0
  1  3  1  0  0  0  0
  1  4  1  0  0  0  0
  1  5  1  0  0  0  0
  5  6  1  0  0  0  0
  5  7  1  0  0  0  0
  5  8  1  0  0  0  0
  8  9  1  0  0  0  0
  8 10  1  0  0  0  0
  8 11  1  0  0  0  0
 11 12  1  0  0  0  0
 11 13  1  0  0  0  0
 11 14  1  0  0  0  0
 14 15  1  0  0  0  0
 14 16  1  0  0  0  0
 14 17  1  0  0  0  0
 17 18  1  0  0  0  0
 17 19  1  0  0  0  0
 17 20  1  0  0  0  0
 20 21  1  0  0  0  0
 20 22  1  0  0  0  0
 20 23  1  0  0  0  0
 23 24  1  0  0  0  0
 23 25  1  0  0  0  0
 23 26  1  0  0  0  0
 26 27  1  0  0  0  0
 26 28  1  0  0  0  0
 26 29  1  0  0  0  0
 29 30  1  0  0  0  0
 29 31  1  0  0  0  0
 29 32  1  0  0  0  0
 32 33  1  0  0  0  0
 32 34  1  0  0  0  0
 32 35  1  0  0  0  0
 35 36  1  0  0  0  0
 35 37  1  0  0  0  0
 35 38  1  0  0  0  0
 38 39  1  0  0  0  0
 38 40  1  0  0  0  0
 38 41  1  0  0  0  0
 41 42  1  0  0  0  0
M  END
> <ChemID>
100556

> <source_casrn>
112-70-9

> <CAS>
112-70-9

> <SMILES>
CCCCCCCCCCCCCO

> <NAME>
1-Tridecanol

> <preferred_name>
1-Tridecanol

> <iupac>
tridecan-1-ol

> <MPID>
100566

> <dsstox_substance_id>
DTXSID2021947

> <Canonical_QSARr>
CCCCCCCCCCCCCO

> <InChI_Code_QSARr>
InChI=1S/C13H28O/c1-2-3-4-5-6-7-8-9-10-11-12-13-14/h14H,2-13H2,1H3

> <InChI Key_QSARr>
XFRVVPUIAFSTFO-UHFFFAOYSA-N

> <Salt_Solvent>
?

> <Ready_Biodeg>
1.0

$$$$
100557
  -INDIGO-08031722522D

 45 44  0  0  0  0  0  0  0  0999 V2000
   -8.3138    0.0000    0.0000 C   0  0  0  0  0  0  0  0  0  0  0  0
   -7.7015   -1.4782    0.0000 H   0  0  0  0  0  0  0  0  0  0  0  0
   -8.9261   -1.4782    0.0000 H   0  0  0  0  0  0  0  0  0  0  0  0
   -6.9281    0.8000    0.0000 C   0  0  0  0  0  0  0  0  0  0  0  0
   -7.5405    2.2782    0.0000 H   0  0  0  0  0  0  0  0  0  0  0  0
   -6.3158    2.2782    0.0000 H   0  0  0  0  0  0  0  0  0  0  0  0
   -5.5425    0.0000    0.0000 C   0  0  0  0  0  0  0  0  0  0  0  0
   -4.9302   -1.4782    0.0000 H   0  0  0  0  0  0  0  0  0  0  0  0
   -6.1548   -1.4782    0.0000 H   0  0  0  0  0  0  0  0  0  0  0  0
   -4.1568    0.8000    0.0000 C   0  0  0  0  0  0  0  0  0  0  0  0
   -4.7691    2.2782    0.0000 H   0  0  0  0  0  0  0  0  0  0  0  0
   -3.5445    2.2782    0.0000 H   0  0  0  0  0  0  0  0  0  0  0  0
   -2.7712    0.0000    0.0000 C   0  0  0  0  0  0  0  0  0  0  0  0
   -2.1588   -1.4782    0.0000 H   0  0  0  0  0  0  0  0  0  0  0  0
   -3.3835   -1.4782    0.0000 H   0  0  0  0  0  0  0  0  0  0  0  0
   -1.3855    0.8000    0.0000 C   0  0  0  0  0  0  0  0  0  0  0  0
   -1.9978    2.2782    0.0000 H   0  0  0  0  0  0  0  0  0  0  0  0
   -0.7735    2.2782    0.0000 H   0  0  0  0  0  0  0  0  0  0  0  0
   -0.0002    0.0000    0.0000 C   0  0  0  0  0  0  0  0  0  0  0  0
    0.6121   -1.4782    0.0000 H   0  0  0  0  0  0  0  0  0  0  0  0
   -0.6121   -1.4782    0.0000 H   0  0  0  0  0  0  0  0  0  0  0  0
    1.3855    0.8000    0.0000 C   0  0  0  0  0  0  0  0  0  0  0  0
    0.7735    2.2782    0.0000 H   0  0  0  0  0  0  0  0  0  0  0  0
    1.9978    2.2782    0.0000 H   0  0  0  0  0  0  0  0  0  0  0  0
    2.7712    0.0000    0.0000 C   0  0  0  0  0  0  0  0  0  0  0  0
    3.3835   -1.4782    0.0000 H   0  0  0  0  0  0  0  0  0  0  0  0
    2.1588   -1.4782    0.0000 H   0  0  0  0  0  0  0  0  0  0  0  0
    4.1568    0.8000    0.0000 C   0  0  0  0  0  0  0  0  0  0  0  0
    3.5445    2.2782    0.0000 H   0  0  0  0  0  0  0  0  0  0  0  0
    4.7691    2.2782    0.0000 H   0  0  0  0  0  0  0  0  0  0  0  0
    5.5425    0.0000    0.0000 C   0  0  0  0  0  0  0  0  0  0  0  0
    6.1548   -1.4782    0.0000 H   0  0  0  0  0  0  0  0  0  0  0  0
    4.9302   -1.4782    0.0000 H   0  0  0  0  0  0  0  0  0  0  0  0
    6.9281    0.8000    0.0000 C   0  0  0  0  0  0  0  0  0  0  0  0
    6.3158    2.2782    0.0000 H   0  0  0  0  0  0  0  0  0  0  0  0
    7.5405    2.2782    0.0000 H   0  0  0  0  0  0  0  0  0  0  0  0
    8.3138    0.0000    0.0000 C   0  0  0  0  0  0  0  0  0  0  0  0
    8.9261   -1.4782    0.0000 H   0  0  0  0  0  0  0  0  0  0  0  0
    7.7015   -1.4782    0.0000 H   0  0  0  0  0  0  0  0  0  0  0  0
    9.6995    0.8000    0.0000 C   0  0  0  0  0  0  0  0  0  0  0  0
   11.0851    1.6000    0.0000 H   0  0  0  0  0  0  0  0  0  0  0  0
   11.0851    0.0000    0.0000 H   0  0  0  0  0  0  0  0  0  0  0  0
    9.6995    2.4000    0.0000 H   0  0  0  0  0  0  0  0  0  0  0  0
   -9.6995    0.8000    0.0000 O   0  0  0  0  0  0  0  0  0  0  0  0
  -11.0851    0.0000    0.0000 H   0  0  0  0  0  0  0  0  0  0  0  0
  1  2  1  0  0  0  0
  1  3  1  0  0  0  0
  1  4  1  0  0  0  0
  4  5  1  0  0  0  0
  4  6  1  0  0  0  0
  4  7  1  0  0  0  0
  7  8  1  0  0  0  0
  7  9  1  0  0  0  0
  7 10  1  0  0  0  0
 10 11  1  0  0  0  0
 10 12  1  0  0  0  0
 10 13  1  0  0  0  0
 13 14  1  0  0  0  0
 13 15  1  0  0  0  0
 13 16  1  0  0  0  0
 16 17  1  0  0  0  0
 16 18  1  0  0  0  0
 16 19  1  0  0  0  0
 19 20  1  0  0  0  0
 19 21  1  0  0  0  0
 19 22  1  0  0  0  0
 22 23  1  0  0  0  0
 22 24  1  0  0  0  0
 22 25  1  0  0  0  0
 25 26  1  0  0  0  0
 25 27  1  0  0  0  0
 25 28  1  0  0  0  0
 28 29  1  0  0  0  0
 28 30  1  0  0  0  0
 28 31  1  0  0  0  0
 31 32  1  0  0  0  0
 31 33  1  0  0  0  0
 31 34  1  0  0  0  0
 34 35  1  0  0  0  0
 34 36  1  0  0  0  0
 34 37  1  0  0  0  0
 37 38  1  0  0  0  0
 37 39  1  0  0  0  0
 37 40  1  0  0  0  0
 40 41  1  0  0  0  0
 40 42  1  0  0  0  0
 40 43  1  0  0  0  0
  1 44  1  0  0  0  0
 44 45  1  0  0  0  0
M  END
> <ChemID>
100557

> <source_casrn>
112-72-1

> <CAS>
112-72-1

> <SMILES>
CCCCCCCCCCCCCCO

> <NAME>
1-Tetradecanol

> <preferred_name>
1-Tetradecanol

> <iupac>
tetradecan-1-ol

> <MPID>
100567

> <dsstox_substance_id>
DTXSID9026926

> <Canonical_QSARr>
CCCCCCCCCCCCCCO

> <InChI_Code_QSARr>
InChI=1S/C14H30O/c1-2-3-4-5-6-7-8-9-10-11-12-13-14-15/h15H,2-14H2,1H3

> <InChI Key_QSARr>
HLZKNKRTKFSKGZ-UHFFFAOYSA-N

> <Salt_Solvent>
?

> <Ready_Biodeg>
1.0

$$$$
100559
  -INDIGO-08031722522D

 67 66  0  0  0  0  0  0  0  0999 V2000
   -8.3140    0.0000    0.0000 C   0  0  0  0  0  0  0  0  0  0  0  0
   -6.9281    0.8000    0.0000 C   0  0  0  0  0  0  0  0  0  0  0  0
   -7.5406    2.2782    0.0000 H   0  0  0  0  0  0  0  0  0  0  0  0
   -6.3162    2.2782    0.0000 H   0  0  0  0  0  0  0  0  0  0  0  0
   -5.5428    0.0000    0.0000 C   0  0  0  0  0  0  0  0  0  0  0  0
   -4.9303   -1.4782    0.0000 H   0  0  0  0  0  0  0  0  0  0  0  0
   -6.1548   -1.4782    0.0000 H   0  0  0  0  0  0  0  0  0  0  0  0
   -4.1570    0.8000    0.0000 C   0  0  0  0  0  0  0  0  0  0  0  0
   -4.7690    2.2782    0.0000 H   0  0  0  0  0  0  0  0  0  0  0  0
   -3.5445    2.2782    0.0000 H   0  0  0  0  0  0  0  0  0  0  0  0
   -2.7712    0.0000    0.0000 C   0  0  0  0  0  0  0  0  0  0  0  0
   -2.1592   -1.4782    0.0000 H   0  0  0  0  0  0  0  0  0  0  0  0
   -3.3836   -1.4782    0.0000 H   0  0  0  0  0  0  0  0  0  0  0  0
   -1.3858    0.8000    0.0000 C   0  0  0  0  0  0  0  0  0  0  0  0
   -1.9978    2.2782    0.0000 H   0  0  0  0  0  0  0  0  0  0  0  0
   -0.7733    2.2782    0.0000 H   0  0  0  0  0  0  0  0  0  0  0  0
    0.0000    0.0000    0.0000 C   0  0  0  0  0  0  0  0  0  0  0  0
    0.6125   -1.4782    0.0000 H   0  0  0  0  0  0  0  0  0  0  0  0
   -0.6125   -1.4782    0.0000 H   0  0  0  0  0  0  0  0  0  0  0  0
    1.3858    0.8000    0.0000 C   0  0  0  0  0  0  0  0  0  0  0  0
    0.7733    2.2782    0.0000 H   0  0  0  0  0  0  0  0  0  0  0  0
    1.9978    2.2782    0.0000 H   0  0  0  0  0  0  0  0  0  0  0  0
    2.7712    0.0000    0.0000 C   0  0  0  0  0  0  0  0  0  0  0  0
    3.3836   -1.4782    0.0000 H   0  0  0  0  0  0  0  0  0  0  0  0
    2.1592   -1.4782    0.0000 H   0  0  0  0  0  0  0  0  0  0  0  0
    4.1570    0.8000    0.0000 C   0  0  0  0  0  0  0  0  0  0  0  0
    3.5445    2.2782    0.0000 H   0  0  0  0  0  0  0  0  0  0  0  0
    4.7690    2.2782    0.0000 H   0  0  0  0  0  0  0  0  0  0  0  0
    5.5423    0.0000    0.0000 C   0  0  0  0  0  0  0  0  0  0  0  0
    6.1548   -1.4782    0.0000 H   0  0  0  0  0  0  0  0  0  0  0  0
    4.9303   -1.4782    0.0000 H   0  0  0  0  0  0  0  0  0  0  0  0
    6.9281    0.8000    0.0000 C   0  0  0  0  0  0  0  0  0  0  0  0
    6.3162    2.2782    0.0000 H   0  0  0  0  0  0  0  0  0  0  0  0
    7.5406    2.2782    0.0000 H   0  0  0  0  0  0  0  0  0  0  0  0
    8.3140    0.0000    0.0000 C   0  0  0  0  0  0  0  0  0  0  0  0
    8.3140   -1.6000    0.0000 H   0  0  0  0  0  0  0  0  0  0  0  0
    9.6993    0.8000    0.0000 C   0  0  0  0  0  0  0  0  0  0  0  0
    9.6993    2.4000    0.0000 H   0  0  0  0  0  0  0  0  0  0  0  0
   11.0851    0.0000    0.0000 C   0  0  0  0  0  0  0  0  0  0  0  0
   11.6976   -1.4782    0.0000 H   0  0  0  0  0  0  0  0  0  0  0  0
   10.4726   -1.4782    0.0000 H   0  0  0  0  0  0  0  0  0  0  0  0
   12.4710    0.8000    0.0000 C   0  0  0  0  0  0  0  0  0  0  0  0
   11.8585    2.2782    0.0000 H   0  0  0  0  0  0  0  0  0  0  0  0
   13.0829    2.2782    0.0000 H   0  0  0  0  0  0  0  0  0  0  0  0
   13.8563    0.0000    0.0000 C   0  0  0  0  0  0  0  0  0  0  0  0
   14.4688   -1.4782    0.0000 H   0  0  0  0  0  0  0  0  0  0  0  0
   13.2443   -1.4782    0.0000 H   0  0  0  0  0  0  0  0  0  0  0  0
   15.2421    0.8000    0.0000 C   0  0  0  0  0  0  0  0  0  0  0  0
   14.6296    2.2782    0.0000 H   0  0  0  0  0  0  0  0  0  0  0  0
   15.8541    2.2782    0.0000 H   0  0  0  0  0  0  0  0  0  0  0  0
   16.6274    0.0000    0.0000 C   0  0  0  0  0  0  0  0  0  0  0  0
   17.2399   -1.4782    0.0000 H   0  0  0  0  0  0  0  0  0  0  0  0
   16.0155   -1.4782    0.0000 H   0  0  0  0  0  0  0  0  0  0  0  0
   18.0133    0.8000    0.0000 C   0  0  0  0  0  0  0  0  0  0  0  0
   17.4013    2.2782    0.0000 H   0  0  0  0  0  0  0  0  0  0  0  0
   18.6258    2.2782    0.0000 H   0  0  0  0  0  0  0  0  0  0  0  0
   19.3991    0.0000    0.0000 C   0  0  0  0  0  0  0  0  0  0  0  0
   20.0111   -1.4782    0.0000 H   0  0  0  0  0  0  0  0  0  0  0  0
   18.7866   -1.4782    0.0000 H   0  0  0  0  0  0  0  0  0  0  0  0
   20.7844    0.8000    0.0000 C   0  0  0  0  0  0  0  0  0  0  0  0
   22.1702    1.6000    0.0000 H   0  0  0  0  0  0  0  0  0  0  0  0
   22.1702    0.0000    0.0000 H   0  0  0  0  0  0  0  0  0  0  0  0
   20.7844    2.4000    0.0000 H   0  0  0  0  0  0  0  0  0  0  0  0
   -9.6993    0.8000    0.0000 N   0  0  0  0  0  0  0  0  0  0  0  0
  -11.0851    0.0000    0.0000 H   0  0  0  0  0  0  0  0  0  0  0  0
   -9.6993    2.4000    0.0000 H   0  0  0  0  0  0  0  0  0  0  0  0
   -8.3140   -1.6000    0.0000 O   0  0  0  0  0  0  0  0  0  0  0  0
  1  2  1  0  0  0  0
  2  3  1  0  0  0  0
  2  4  1  0  0  0  0
  2  5  1  0  0  0  0
  5  6  1  0  0  0  0
  5  7  1  0  0  0  0
  5  8  1  0  0  0  0
  8  9  1  0  0  0  0
  8 10  1  0  0  0  0
  8 11  1  0  0  0  0
 11 12  1  0  0  0  0
 11 13  1  0  0  0  0
 11 14  1  0  0  0  0
 14 15  1  0  0  0  0
 14 16  1  0  0  0  0
 14 17  1  0  0  0  0
 17 18  1  0  0  0  0
 17 19  1  0  0  0  0
 17 20  1  0  0  0  0
 20 21  1  0  0  0  0
 20 22  1  0  0  0  0
 20 23  1  0  0  0  0
 23 24  1  0  0  0  0
 23 25  1  0  0  0  0
 23 26  1  0  0  0  0
 26 27  1  0  0  0  0
 26 28  1  0  0  0  0
 26 29  1  0  0  0  0
 29 30  1  0  0  0  0
 29 31  1  0  0  0  0
 29 32  1  0  0  0  0
 32 33  1  0  0  0  0
 32 34  1  0  0  0  0
 32 35  1  0  0  0  0
 35 36  1  0  0  0  0
 35 37  2  0  0  0  0
 37 38  1  0  0  0  0
 37 39  1  0  0  0  0
 39 40  1  0  0  0  0
 39 41  1  0  0  0  0
 39 42  1  0  0  0  0
 42 43  1  0  0  0  0
 42 44  1  0  0  0  0
 42 45  1  0  0  0  0
 45 46  1  0  0  0  0
 45 47  1  0  0  0  0
 45 48  1  0  0  0  0
 48 49  1  0  0  0  0
 48 50  1  0  0  0  0
 48 51  1  0  0  0  0
 51 52  1  0  0  0  0
 51 53  1  0  0  0  0
 51 54  1  0  0  0  0
 54 55  1  0  0  0  0
 54 56  1  0  0  0  0
 54 57  1  0  0  0  0
 57 58  1  0  0  0  0
 57 59  1  0  0  0  0
 57 60  1  0  0  0  0
 60 61  1  0  0  0  0
 60 62  1  0  0  0  0
 60 63  1  0  0  0  0
  1 64  1  0  0  0  0
 64 65  1  0  0  0  0
 64 66  1  0  0  0  0
  1 67  2  0  0  0  0
M  END
> <ChemID>
100559

> <source_casrn>
112-84-5

> <CAS>
112-84-5

> <SMILES>
CCCCCCCC/C=C\CCCCCCCCCCCC(N)=O

> <NAME>
13-Docosenamide, (Z)-

> <preferred_name>
Erucamide

> <iupac>
(13Z)-docos-13-enamide

> <MPID>
100569

> <dsstox_substance_id>
DTXSID4026929

> <Canonical_QSARr>
CCCCCCCCC=CCCCCCCCCCCCC(N)=O

> <InChI_Code_QSARr>
InChI=1S/C22H43NO/c1-2-3-4-5-6-7-8-9-10-11-12-13-14-15-16-17-18-19-20-21-22(23)24/h9-10H,2-8,11-21H2,1H3,(H2,23,24)/b10-9+

> <InChI Key_QSARr>
UAUDZVJPLUQNMU-MDZDMXLPSA-N

> <Salt_Solvent>
?

> <Ready_Biodeg>
1.0

$$$$
100560
  -INDIGO-08031722522D

 57 56  0  0  0  0  0  0  0  0999 V2000
   -9.6993   -0.8000    0.0000 C   0  0  0  0  0  0  0  0  0  0  0  0
   -9.0874   -2.2782    0.0000 H   0  0  0  0  0  0  0  0  0  0  0  0
  -10.3116   -2.2782    0.0000 H   0  0  0  0  0  0  0  0  0  0  0  0
   -8.3139    0.0000    0.0000 C   0  0  0  0  0  0  0  0  0  0  0  0
   -8.9263    1.4782    0.0000 H   0  0  0  0  0  0  0  0  0  0  0  0
   -7.7016    1.4782    0.0000 H   0  0  0  0  0  0  0  0  0  0  0  0
   -6.9282   -0.8000    0.0000 C   0  0  0  0  0  0  0  0  0  0  0  0
   -6.3159   -2.2782    0.0000 H   0  0  0  0  0  0  0  0  0  0  0  0
   -7.5405   -2.2782    0.0000 H   0  0  0  0  0  0  0  0  0  0  0  0
   -5.5425    0.0000    0.0000 C   0  0  0  0  0  0  0  0  0  0  0  0
   -6.1548    1.4782    0.0000 H   0  0  0  0  0  0  0  0  0  0  0  0
   -4.9301    1.4782    0.0000 H   0  0  0  0  0  0  0  0  0  0  0  0
   -4.1571   -0.8000    0.0000 C   0  0  0  0  0  0  0  0  0  0  0  0
   -3.5448   -2.2782    0.0000 H   0  0  0  0  0  0  0  0  0  0  0  0
   -4.7690   -2.2782    0.0000 H   0  0  0  0  0  0  0  0  0  0  0  0
   -2.7714    0.0000    0.0000 C   0  0  0  0  0  0  0  0  0  0  0  0
   -3.3837    1.4782    0.0000 H   0  0  0  0  0  0  0  0  0  0  0  0
   -2.1591    1.4782    0.0000 H   0  0  0  0  0  0  0  0  0  0  0  0
   -1.3856   -0.8000    0.0000 C   0  0  0  0  0  0  0  0  0  0  0  0
   -0.7733   -2.2782    0.0000 H   0  0  0  0  0  0  0  0  0  0  0  0
   -1.9980   -2.2782    0.0000 H   0  0  0  0  0  0  0  0  0  0  0  0
    0.0001    0.0000    0.0000 C   0  0  0  0  0  0  0  0  0  0  0  0
   -0.6122    1.4782    0.0000 H   0  0  0  0  0  0  0  0  0  0  0  0
    0.6124    1.4782    0.0000 H   0  0  0  0  0  0  0  0  0  0  0  0
    1.3854   -0.8000    0.0000 C   0  0  0  0  0  0  0  0  0  0  0  0
    1.9977   -2.2782    0.0000 H   0  0  0  0  0  0  0  0  0  0  0  0
    0.7735   -2.2782    0.0000 H   0  0  0  0  0  0  0  0  0  0  0  0
    2.7712    0.0000    0.0000 C   0  0  0  0  0  0  0  0  0  0  0  0
    2.1589    1.4782    0.0000 H   0  0  0  0  0  0  0  0  0  0  0  0
    3.3835    1.4782    0.0000 H   0  0  0  0  0  0  0  0  0  0  0  0
    4.1569   -0.8000    0.0000 C   0  0  0  0  0  0  0  0  0  0  0  0
    4.7692   -2.2782    0.0000 H   0  0  0  0  0  0  0  0  0  0  0  0
    3.5446   -2.2782    0.0000 H   0  0  0  0  0  0  0  0  0  0  0  0
    5.5427    0.0000    0.0000 C   0  0  0  0  0  0  0  0  0  0  0  0
    4.9304    1.4782    0.0000 H   0  0  0  0  0  0  0  0  0  0  0  0
    6.1550    1.4782    0.0000 H   0  0  0  0  0  0  0  0  0  0  0  0
    6.9284   -0.8000    0.0000 C   0  0  0  0  0  0  0  0  0  0  0  0
    7.5403   -2.2782    0.0000 H   0  0  0  0  0  0  0  0  0  0  0  0
    6.3161   -2.2782    0.0000 H   0  0  0  0  0  0  0  0  0  0  0  0
    8.3137    0.0000    0.0000 C   0  0  0  0  0  0  0  0  0  0  0  0
    7.7014    1.4782    0.0000 H   0  0  0  0  0  0  0  0  0  0  0  0
    8.9261    1.4782    0.0000 H   0  0  0  0  0  0  0  0  0  0  0  0
    9.6995   -0.8000    0.0000 C   0  0  0  0  0  0  0  0  0  0  0  0
   10.3118   -2.2782    0.0000 H   0  0  0  0  0  0  0  0  0  0  0  0
    9.0872   -2.2782    0.0000 H   0  0  0  0  0  0  0  0  0  0  0  0
   11.0852    0.0000    0.0000 C   0  0  0  0  0  0  0  0  0  0  0  0
   10.4729    1.4782    0.0000 H   0  0  0  0  0  0  0  0  0  0  0  0
   11.6975    1.4782    0.0000 H   0  0  0  0  0  0  0  0  0  0  0  0
   12.4706   -0.8000    0.0000 C   0  0  0  0  0  0  0  0  0  0  0  0
   13.0829   -2.2782    0.0000 H   0  0  0  0  0  0  0  0  0  0  0  0
   11.8587   -2.2782    0.0000 H   0  0  0  0  0  0  0  0  0  0  0  0
   13.8563    0.0000    0.0000 C   0  0  0  0  0  0  0  0  0  0  0  0
   15.2420    0.8000    0.0000 H   0  0  0  0  0  0  0  0  0  0  0  0
   15.2420   -0.8000    0.0000 H   0  0  0  0  0  0  0  0  0  0  0  0
   13.8563    1.6000    0.0000 H   0  0  0  0  0  0  0  0  0  0  0  0
  -11.0850    0.0000    0.0000 O   0  0  0  0  0  0  0  0  0  0  0  0
  -12.4708   -0.8000    0.0000 H   0  0  0  0  0  0  0  0  0  0  0  0
  1  2  1  0  0  0  0
  1  3  1  0  0  0  0
  1  4  1  0  0  0  0
  4  5  1  0  0  0  0
  4  6  1  0  0  0  0
  4  7  1  0  0  0  0
  7  8  1  0  0  0  0
  7  9  1  0  0  0  0
  7 10  1  0  0  0  0
 10 11  1  0  0  0  0
 10 12  1  0  0  0  0
 10 13  1  0  0  0  0
 13 14  1  0  0  0  0
 13 15  1  0  0  0  0
 13 16  1  0  0  0  0
 16 17  1  0  0  0  0
 16 18  1  0  0  0  0
 16 19  1  0  0  0  0
 19 20  1  0  0  0  0
 19 21  1  0  0  0  0
 19 22  1  0  0  0  0
 22 23  1  0  0  0  0
 22 24  1  0  0  0  0
 22 25  1  0  0  0  0
 25 26  1  0  0  0  0
 25 27  1  0  0  0  0
 25 28  1  0  0  0  0
 28 29  1  0  0  0  0
 28 30  1  0  0  0  0
 28 31  1  0  0  0  0
 31 32  1  0  0  0  0
 31 33  1  0  0  0  0
 31 34  1  0  0  0  0
 34 35  1  0  0  0  0
 34 36  1  0  0  0  0
 34 37  1  0  0  0  0
 37 38  1  0  0  0  0
 37 39  1  0  0  0  0
 37 40  1  0  0  0  0
 40 41  1  0  0  0  0
 40 42  1  0  0  0  0
 40 43  1  0  0  0  0
 43 44  1  0  0  0  0
 43 45  1  0  0  0  0
 43 46  1  0  0  0  0
 46 47  1  0  0  0  0
 46 48  1  0  0  0  0
 46 49  1  0  0  0  0
 49 50  1  0  0  0  0
 49 51  1  0  0  0  0
 49 52  1  0  0  0  0
 52 53  1  0  0  0  0
 52 54  1  0  0  0  0
 52 55  1  0  0  0  0
  1 56  1  0  0  0  0
 56 57  1  0  0  0  0
M  END
> <ChemID>
100560

> <source_casrn>
112-92-5

> <CAS>
112-92-5

> <SMILES>
CCCCCCCCCCCCCCCCCCO

> <NAME>
1-Octadecanol

> <preferred_name>
1-Octadecanol

> <iupac>
octadecan-1-ol

> <MPID>
100570

> <dsstox_substance_id>
DTXSID8026935

> <Canonical_QSARr>
CCCCCCCCCCCCCCCCCCO

> <InChI_Code_QSARr>
InChI=1S/C18H38O/c1-2-3-4-5-6-7-8-9-10-11-12-13-14-15-16-17-18-19/h19H,2-18H2,1H3

> <InChI Key_QSARr>
GLDOVTGHNKAZLK-UHFFFAOYSA-N

> <Salt_Solvent>
?

> <Ready_Biodeg>
1.0

$$$$
100561
  -INDIGO-08031722522D

 62 61  0  0  0  0  0  0  0  0999 V2000
    9.6994   -0.8000    0.0000 C   0  0  0  0  0  0  0  0  0  0  0  0
   11.0851   -1.6000    0.0000 H   0  0  0  0  0  0  0  0  0  0  0  0
   11.0851    0.0000    0.0000 H   0  0  0  0  0  0  0  0  0  0  0  0
    9.6994   -2.4000    0.0000 H   0  0  0  0  0  0  0  0  0  0  0  0
    8.3140    0.0000    0.0000 C   0  0  0  0  0  0  0  0  0  0  0  0
    8.9263    1.4782    0.0000 H   0  0  0  0  0  0  0  0  0  0  0  0
    7.7017    1.4782    0.0000 H   0  0  0  0  0  0  0  0  0  0  0  0
    6.9283   -0.8000    0.0000 C   0  0  0  0  0  0  0  0  0  0  0  0
    6.3160   -2.2782    0.0000 H   0  0  0  0  0  0  0  0  0  0  0  0
    7.5406   -2.2782    0.0000 H   0  0  0  0  0  0  0  0  0  0  0  0
    5.5425    0.0000    0.0000 C   0  0  0  0  0  0  0  0  0  0  0  0
    6.1548    1.4782    0.0000 H   0  0  0  0  0  0  0  0  0  0  0  0
    4.9302    1.4782    0.0000 H   0  0  0  0  0  0  0  0  0  0  0  0
    4.1567   -0.8000    0.0000 C   0  0  0  0  0  0  0  0  0  0  0  0
    3.5444   -2.2782    0.0000 H   0  0  0  0  0  0  0  0  0  0  0  0
    4.7690   -2.2782    0.0000 H   0  0  0  0  0  0  0  0  0  0  0  0
    2.7714    0.0000    0.0000 C   0  0  0  0  0  0  0  0  0  0  0  0
    3.3837    1.4782    0.0000 H   0  0  0  0  0  0  0  0  0  0  0  0
    2.1591    1.4782    0.0000 H   0  0  0  0  0  0  0  0  0  0  0  0
    1.3856   -0.8000    0.0000 C   0  0  0  0  0  0  0  0  0  0  0  0
    0.7733   -2.2782    0.0000 H   0  0  0  0  0  0  0  0  0  0  0  0
    1.9979   -2.2782    0.0000 H   0  0  0  0  0  0  0  0  0  0  0  0
   -0.0001    0.0000    0.0000 C   0  0  0  0  0  0  0  0  0  0  0  0
    0.6122    1.4782    0.0000 H   0  0  0  0  0  0  0  0  0  0  0  0
   -0.6124    1.4782    0.0000 H   0  0  0  0  0  0  0  0  0  0  0  0
   -1.3855   -0.8000    0.0000 C   0  0  0  0  0  0  0  0  0  0  0  0
   -1.9977   -2.2782    0.0000 H   0  0  0  0  0  0  0  0  0  0  0  0
   -0.7732   -2.2782    0.0000 H   0  0  0  0  0  0  0  0  0  0  0  0
   -2.7712    0.0000    0.0000 C   0  0  0  0  0  0  0  0  0  0  0  0
   -2.1589    1.4782    0.0000 H   0  0  0  0  0  0  0  0  0  0  0  0
   -3.3835    1.4782    0.0000 H   0  0  0  0  0  0  0  0  0  0  0  0
   -4.1570   -0.8000    0.0000 C   0  0  0  0  0  0  0  0  0  0  0  0
   -4.7693   -2.2782    0.0000 H   0  0  0  0  0  0  0  0  0  0  0  0
   -3.5447   -2.2782    0.0000 H   0  0  0  0  0  0  0  0  0  0  0  0
   -5.5428    0.0000    0.0000 C   0  0  0  0  0  0  0  0  0  0  0  0
   -4.9305    1.4782    0.0000 H   0  0  0  0  0  0  0  0  0  0  0  0
   -6.1550    1.4782    0.0000 H   0  0  0  0  0  0  0  0  0  0  0  0
   -6.9281   -0.8000    0.0000 C   0  0  0  0  0  0  0  0  0  0  0  0
   -7.5404   -2.2782    0.0000 H   0  0  0  0  0  0  0  0  0  0  0  0
   -6.3158   -2.2782    0.0000 H   0  0  0  0  0  0  0  0  0  0  0  0
   -8.3138    0.0000    0.0000 C   0  0  0  0  0  0  0  0  0  0  0  0
   -7.7015    1.4782    0.0000 H   0  0  0  0  0  0  0  0  0  0  0  0
   -8.9261    1.4782    0.0000 H   0  0  0  0  0  0  0  0  0  0  0  0
   -9.6996   -0.8000    0.0000 C   0  0  0  0  0  0  0  0  0  0  0  0
  -10.3119   -2.2782    0.0000 H   0  0  0  0  0  0  0  0  0  0  0  0
   -9.0873   -2.2782    0.0000 H   0  0  0  0  0  0  0  0  0  0  0  0
  -11.0849    0.0000    0.0000 C   0  0  0  0  0  0  0  0  0  0  0  0
  -10.4726    1.4782    0.0000 H   0  0  0  0  0  0  0  0  0  0  0  0
  -11.6972    1.4782    0.0000 H   0  0  0  0  0  0  0  0  0  0  0  0
  -12.4707   -0.8000    0.0000 C   0  0  0  0  0  0  0  0  0  0  0  0
  -13.0830   -2.2782    0.0000 H   0  0  0  0  0  0  0  0  0  0  0  0
  -11.8584   -2.2782    0.0000 H   0  0  0  0  0  0  0  0  0  0  0  0
  -13.8565    0.0000    0.0000 C   0  0  0  0  0  0  0  0  0  0  0  0
  -13.2442    1.4782    0.0000 H   0  0  0  0  0  0  0  0  0  0  0  0
  -14.4688    1.4782    0.0000 H   0  0  0  0  0  0  0  0  0  0  0  0
  -15.2422   -0.8000    0.0000 C   0  0  0  0  0  0  0  0  0  0  0  0
  -15.8545   -2.2782    0.0000 H   0  0  0  0  0  0  0  0  0  0  0  0
  -14.6299   -2.2782    0.0000 H   0  0  0  0  0  0  0  0  0  0  0  0
  -16.6276    0.0000    0.0000 C   0  0  0  0  0  0  0  0  0  0  0  0
  -18.0133    0.8000    0.0000 H   0  0  0  0  0  0  0  0  0  0  0  0
  -18.0133   -0.8000    0.0000 H   0  0  0  0  0  0  0  0  0  0  0  0
  -16.6276    1.6000    0.0000 H   0  0  0  0  0  0  0  0  0  0  0  0
  1  2  1  0  0  0  0
  1  3  1  0  0  0  0
  1  4  1  0  0  0  0
  1  5  1  0  0  0  0
  5  6  1  0  0  0  0
  5  7  1  0  0  0  0
  5  8  1  0  0  0  0
  8  9  1  0  0  0  0
  8 10  1  0  0  0  0
  8 11  1  0  0  0  0
 11 12  1  0  0  0  0
 11 13  1  0  0  0  0
 11 14  1  0  0  0  0
 14 15  1  0  0  0  0
 14 16  1  0  0  0  0
 14 17  1  0  0  0  0
 17 18  1  0  0  0  0
 17 19  1  0  0  0  0
 17 20  1  0  0  0  0
 20 21  1  0  0  0  0
 20 22  1  0  0  0  0
 20 23  1  0  0  0  0
 23 24  1  0  0  0  0
 23 25  1  0  0  0  0
 23 26  1  0  0  0  0
 26 27  1  0  0  0  0
 26 28  1  0  0  0  0
 26 29  1  0  0  0  0
 29 30  1  0  0  0  0
 29 31  1  0  0  0  0
 29 32  1  0  0  0  0
 32 33  1  0  0  0  0
 32 34  1  0  0  0  0
 32 35  1  0  0  0  0
 35 36  1  0  0  0  0
 35 37  1  0  0  0  0
 35 38  1  0  0  0  0
 38 39  1  0  0  0  0
 38 40  1  0  0  0  0
 38 41  1  0  0  0  0
 41 42  1  0  0  0  0
 41 43  1  0  0  0  0
 41 44  1  0  0  0  0
 44 45  1  0  0  0  0
 44 46  1  0  0  0  0
 44 47  1  0  0  0  0
 47 48  1  0  0  0  0
 47 49  1  0  0  0  0
 47 50  1  0  0  0  0
 50 51  1  0  0  0  0
 50 52  1  0  0  0  0
 50 53  1  0  0  0  0
 53 54  1  0  0  0  0
 53 55  1  0  0  0  0
 53 56  1  0  0  0  0
 56 57  1  0  0  0  0
 56 58  1  0  0  0  0
 56 59  1  0  0  0  0
 59 60  1  0  0  0  0
 59 61  1  0  0  0  0
 59 62  1  0  0  0  0
M  END
> <ChemID>
100561

> <source_casrn>
112-95-8

> <CAS>
112-95-8

> <SMILES>
CCCCCCCCCCCCCCCCCCCC

> <NAME>
Eicosane

> <preferred_name>
Eicosane

> <iupac>
icosane

> <MPID>
100571

> <dsstox_substance_id>
DTXSID1025227

> <Canonical_QSARr>
CCCCCCCCCCCCCCCCCCCC

> <InChI_Code_QSARr>
InChI=1S/C20H42/c1-3-5-7-9-11-13-15-17-19-20-18-16-14-12-10-8-6-4-2/h3-20H2,1-2H3

> <InChI Key_QSARr>
CBFCDTFDPHXCNY-UHFFFAOYSA-N

> <Salt_Solvent>
?

> <Ready_Biodeg>
1.0

$$$$
100563
  -INDIGO-08031722522D

 30 30  0  0  0  0  0  0  0  0999 V2000
    0.0000    1.6000    0.0000 C   0  0  0  0  0  0  0  0  0  0  0  0
    0.0000    3.2000    0.0000 H   0  0  0  0  0  0  0  0  0  0  0  0
    1.3856    2.4000    0.0000 H   0  0  0  0  0  0  0  0  0  0  0  0
   -1.3856    2.4000    0.0000 H   0  0  0  0  0  0  0  0  0  0  0  0
    0.0000    0.0001    0.0000 C   0  0  0  0  0  0  0  0  0  0  0  0
    0.0000   -1.6000    0.0000 H   0  0  0  0  0  0  0  0  0  0  0  0
   -1.6000    0.0001    0.0000 C   0  0  0  0  0  0  0  0  0  0  0  0
   -3.2000    0.0001    0.0000 H   0  0  0  0  0  0  0  0  0  0  0  0
   -2.4000    1.3856    0.0000 H   0  0  0  0  0  0  0  0  0  0  0  0
   -2.4000   -1.3856    0.0000 H   0  0  0  0  0  0  0  0  0  0  0  0
    1.6000    0.0001    0.0000 O   0  0  0  0  0  0  0  0  0  0  0  0
    2.4000   -1.3856    0.0000 C   0  0  0  0  0  0  0  0  0  0  0  0
    1.6000   -2.7713    0.0000 C   0  0  0  0  0  0  0  0  0  0  0  0
    0.0000   -2.7713    0.0000 H   0  0  0  0  0  0  0  0  0  0  0  0
    2.4000   -4.1569    0.0000 C   0  0  0  0  0  0  0  0  0  0  0  0
    1.6000   -5.5426    0.0000 H   0  0  0  0  0  0  0  0  0  0  0  0
    4.0000   -4.1569    0.0000 C   0  0  0  0  0  0  0  0  0  0  0  0
    4.8000   -5.5426    0.0000 H   0  0  0  0  0  0  0  0  0  0  0  0
    4.8000   -2.7713    0.0000 C   0  0  0  0  0  0  0  0  0  0  0  0
    6.4000   -2.7713    0.0000 H   0  0  0  0  0  0  0  0  0  0  0  0
    4.0000   -1.3856    0.0000 C   0  0  0  0  0  0  0  0  0  0  0  0
    4.8000    0.0001    0.0000 O   0  0  0  0  0  0  0  0  0  0  0  0
    6.4000    0.0001    0.0000 C   0  0  0  0  0  0  0  0  0  0  0  0
    7.2000   -1.3856    0.0000 O   0  0  0  0  0  0  0  0  0  0  0  0
    7.2000    1.3856    0.0000 N   0  0  0  0  0  0  0  0  0  0  0  0
    6.4000    2.7712    0.0000 H   0  0  0  0  0  0  0  0  0  0  0  0
    8.8000    1.3856    0.0000 C   0  0  0  0  0  0  0  0  0  0  0  0
   10.4000    1.3856    0.0000 H   0  0  0  0  0  0  0  0  0  0  0  0
    9.6000    2.7712    0.0000 H   0  0  0  0  0  0  0  0  0  0  0  0
    9.6000    0.0001    0.0000 H   0  0  0  0  0  0  0  0  0  0  0  0
  1  2  1  0  0  0  0
  1  3  1  0  0  0  0
  1  4  1  0  0  0  0
  1  5  1  0  0  0  0
  5  6  1  0  0  0  0
  5  7  1  0  0  0  0
  7  8  1  0  0  0  0
  7  9  1  0  0  0  0
  7 10  1  0  0  0  0
  5 11  1  0  0  0  0
 11 12  1  0  0  0  0
 12 13  1  0  0  0  0
 13 14  1  0  0  0  0
 13 15  2  0  0  0  0
 15 16  1  0  0  0  0
 15 17  1  0  0  0  0
 17 18  1  0  0  0  0
 17 19  2  0  0  0  0
 19 20  1  0  0  0  0
 19 21  1  0  0  0  0
 21 12  2  0  0  0  0
 21 22  1  0  0  0  0
 22 23  1  0  0  0  0
 23 24  2  0  0  0  0
 23 25  1  0  0  0  0
 25 26  1  0  0  0  0
 25 27  1  0  0  0  0
 27 28  1  0  0  0  0
 27 29  1  0  0  0  0
 27 30  1  0  0  0  0
M  END
> <ChemID>
100563

> <source_casrn>
114-26-1

> <CAS>
114-26-1

> <SMILES>
CNC(=O)Oc1ccccc1OC(C)C

> <NAME>
PROPOXUR

> <preferred_name>
Propoxur

> <iupac>
2-(propan-2-yloxy)phenyl methylcarbamate

> <MPID>
100573

> <dsstox_substance_id>
DTXSID7021948

> <Canonical_QSARr>
CNC(=O)Oc1ccccc1OC(C)C

> <InChI_Code_QSARr>
InChI=1S/C11H15NO3/c1-8(2)14-9-6-4-5-7-10(9)15-11(13)12-3/h4-8H,1-3H3,(H,12,13)

> <InChI Key_QSARr>
ISRUGXGCCGIOQO-UHFFFAOYSA-N

> <Salt_Solvent>
?

> <Ready_Biodeg>
1.0

$$$$
100564
  -INDIGO-08031722522D

  9  8  0  0  0  0  0  0  0  0999 V2000
   -0.0000    0.0000    0.0000 C   0  0  0  0  0  0  0  0  0  0  0  0
    1.3856    0.8000    0.0000 H   0  0  0  0  0  0  0  0  0  0  0  0
   -0.0000    1.6000    0.0000 H   0  0  0  0  0  0  0  0  0  0  0  0
    1.3856   -0.8000    0.0000 H   0  0  0  0  0  0  0  0  0  0  0  0
   -1.3856   -0.8000    0.0000 O   0  0  0  0  0  0  0  0  0  0  0  0
   -2.7713    0.0000    0.0000 C   0  0  0  0  0  0  0  0  0  0  0  0
   -4.1569    0.8000    0.0000 H   0  0  0  0  0  0  0  0  0  0  0  0
   -4.1569   -0.8000    0.0000 H   0  0  0  0  0  0  0  0  0  0  0  0
   -2.7713    1.6000    0.0000 H   0  0  0  0  0  0  0  0  0  0  0  0
  1  2  1  0  0  0  0
  1  3  1  0  0  0  0
  1  4  1  0  0  0  0
  1  5  1  0  0  0  0
  5  6  1  0  0  0  0
  6  7  1  0  0  0  0
  6  8  1  0  0  0  0
  6  9  1  0  0  0  0
M  END
> <ChemID>
100564

> <source_casrn>
115-10-6

> <CAS>
115-10-6

> <SMILES>
COC

> <NAME>
Methane, oxybis-

> <preferred_name>
Dimethyl ether

> <iupac>
C2H6O

> <MPID>
100574

> <dsstox_substance_id>
DTXSID8026937

> <Canonical_QSARr>
COC

> <InChI_Code_QSARr>
InChI=1S/C2H6O/c1-3-2/h1-2H3

> <InChI Key_QSARr>
LCGLNKUTAGEVQW-UHFFFAOYSA-N

> <Salt_Solvent>
?

> <Ready_Biodeg>
0.0

$$$$
100565
  -INDIGO-08031722522D

 23 24  0  0  0  0  0  0  0  0999 V2000
    1.2788   -0.6865    0.0000 C   0  0  0  0  0  0  0  0  0  0  0  0
    2.0141    0.7841    0.0000 C   0  0  0  0  0  0  0  0  0  0  0  0
    3.5511    1.2285    0.0000 Cl  0  0  0  0  0  0  0  0  0  0  0  0
    0.6372    1.6175    0.0000 C   0  0  0  0  0  0  0  0  0  0  0  0
   -0.8735    0.8197    0.0000 C   0  0  0  0  0  0  0  0  0  0  0  0
   -2.4611    1.0179    0.0000 H   0  0  0  0  0  0  0  0  0  0  0  0
   -1.5015   -0.5526    0.0000 C   0  0  0  0  0  0  0  0  0  0  0  0
   -1.3545   -2.1459    0.0000 H   0  0  0  0  0  0  0  0  0  0  0  0
   -3.0788   -0.2841    0.0000 C   0  0  0  0  0  0  0  0  0  0  0  0
   -3.6350    1.2161    0.0000 O   0  0  0  0  0  0  0  0  0  0  0  0
   -4.1000   -1.5159    0.0000 O   0  0  0  0  0  0  0  0  0  0  0  0
   -5.6773   -1.2475    0.0000 H   0  0  0  0  0  0  0  0  0  0  0  0
    0.0000    0.0000    0.0000 C   0  0  0  0  0  0  0  0  0  0  0  0
    0.2631    3.0924    0.0000 C   0  0  0  0  0  0  0  0  0  0  0  0
    1.5261    4.0745    0.0000 Cl  0  0  0  0  0  0  0  0  0  0  0  0
   -0.4093    3.5518    0.0000 Cl  0  0  0  0  0  0  0  0  0  0  0  0
   -0.1119   -1.5961    0.0000 Cl  0  0  0  0  0  0  0  0  0  0  0  0
   -1.4301    2.3198    0.0000 C   0  0  0  0  0  0  0  0  0  0  0  0
   -1.2806    3.1203    0.0000 O   0  0  0  0  0  0  0  0  0  0  0  0
   -3.0076    2.5877    0.0000 O   0  0  0  0  0  0  0  0  0  0  0  0
   -3.5642    4.0877    0.0000 H   0  0  0  0  0  0  0  0  0  0  0  0
    1.9230    2.5698    0.0000 Cl  0  0  0  0  0  0  0  0  0  0  0  0
    1.7626   -2.2115    0.0000 Cl  0  0  0  0  0  0  0  0  0  0  0  0
  1  2  2  0  0  0  0
  2  3  1  0  0  0  0
  2  4  1  0  0  0  0
  4  5  1  0  0  0  0
  5  6  1  0  0  0  0
  5  7  1  0  0  0  0
  7  8  1  0  0  0  0
  7  9  1  0  0  0  0
  9 10  2  0  0  0  0
  9 11  1  0  0  0  0
 11 12  1  0  0  0  0
  7 13  1  0  0  0  0
 13  1  1  0  0  0  0
 13 14  1  0  0  0  0
 14  4  1  0  0  0  0
 14 15  1  0  0  0  0
 14 16  1  0  0  0  0
 13 17  1  0  0  0  0
  5 18  1  0  0  0  0
 18 19  2  0  0  0  0
 18 20  1  0  0  0  0
 20 21  1  0  0  0  0
  4 22  1  0  0  0  0
  1 23  1  0  0  0  0
M  END
> <ChemID>
100565

> <source_casrn>
115-28-6

> <CAS>
115-28-6

> <SMILES>
O=C(O)C(C(C(=C(C12Cl)Cl)Cl)(C1(Cl)Cl)Cl)C2C(=O)O

> <NAME>
Bicyclo 2.2.1 hept-5-ene-2,3-dicarboxylic acid, 1,4,5,6,7,7-hexachlor

> <preferred_name>
Chlorendic acid

> <iupac>
1,4,5,6,7,7-hexachlorobicyclo[2.2.1]hept-5-ene-2,3-dicarboxylic acid

> <MPID>
100575

> <dsstox_substance_id>
DTXSID2020268

> <Canonical_QSARr>
OC(=O)C1C(C(O)=O)C2(Cl)C(Cl)=C(Cl)C1(Cl)C2(Cl)Cl

> <InChI_Code_QSARr>
InChI=1S/C9H4Cl6O4/c10-3-4(11)8(13)2(6(18)19)1(5(16)17)7(3,12)9(8,14)15/h1-2H,(H,16,17)(H,18,19)

> <InChI Key_QSARr>
DJKGDNKYTKCJKD-UHFFFAOYSA-N

> <Salt_Solvent>
?

> <Ready_Biodeg>
0.0

$$$$
100567
  -INDIGO-08031722522D

 21 20  0  0  0  0  0  0  0  0999 V2000
   -0.8000   -1.3856    0.0000 C   0  0  0  0  0  0  0  0  0  0  0  0
   -0.5912   -2.9719    0.0000 H   0  0  0  0  0  0  0  0  0  0  0  0
    0.4694   -2.3597    0.0000 H   0  0  0  0  0  0  0  0  0  0  0  0
   -0.0000    0.0000    0.0000 C   0  0  0  0  0  0  0  0  0  0  0  0
    0.8000    1.3856    0.0000 C   0  0  0  0  0  0  0  0  0  0  0  0
    0.5912    2.9719    0.0000 H   0  0  0  0  0  0  0  0  0  0  0  0
   -0.4694    2.3597    0.0000 H   0  0  0  0  0  0  0  0  0  0  0  0
    2.3757    1.6635    0.0000 O   0  0  0  0  0  0  0  0  0  0  0  0
    2.9229    3.1670    0.0000 H   0  0  0  0  0  0  0  0  0  0  0  0
   -1.3856    0.8000    0.0000 C   0  0  0  0  0  0  0  0  0  0  0  0
   -2.9719    0.5912    0.0000 H   0  0  0  0  0  0  0  0  0  0  0  0
   -2.3597   -0.4694    0.0000 H   0  0  0  0  0  0  0  0  0  0  0  0
   -1.6635    2.3757    0.0000 O   0  0  0  0  0  0  0  0  0  0  0  0
   -3.1670    2.9229    0.0000 H   0  0  0  0  0  0  0  0  0  0  0  0
    1.3856   -0.8000    0.0000 C   0  0  0  0  0  0  0  0  0  0  0  0
    2.9719   -0.5912    0.0000 H   0  0  0  0  0  0  0  0  0  0  0  0
    2.3597    0.4694    0.0000 H   0  0  0  0  0  0  0  0  0  0  0  0
    1.6635   -2.3757    0.0000 O   0  0  0  0  0  0  0  0  0  0  0  0
    3.1670   -2.9229    0.0000 H   0  0  0  0  0  0  0  0  0  0  0  0
   -2.3757   -1.6635    0.0000 O   0  0  0  0  0  0  0  0  0  0  0  0
   -2.9229   -3.1670    0.0000 H   0  0  0  0  0  0  0  0  0  0  0  0
  1  2  1  0  0  0  0
  1  3  1  0  0  0  0
  1  4  1  0  0  0  0
  4  5  1  0  0  0  0
  5  6  1  0  0  0  0
  5  7  1  0  0  0  0
  5  8  1  0  0  0  0
  8  9  1  0  0  0  0
  4 10  1  0  0  0  0
 10 11  1  0  0  0  0
 10 12  1  0  0  0  0
 10 13  1  0  0  0  0
 13 14  1  0  0  0  0
  4 15  1  0  0  0  0
 15 16  1  0  0  0  0
 15 17  1  0  0  0  0
 15 18  1  0  0  0  0
 18 19  1  0  0  0  0
  1 20  1  0  0  0  0
 20 21  1  0  0  0  0
M  END
> <ChemID>
100567

> <source_casrn>
115-77-5

> <CAS>
115-77-5

> <SMILES>
OCC(CO)(CO)CO

> <NAME>
1,3-Propanediol, 2,2-bis(hydroxymethyl)-

> <preferred_name>
Pentaerythritol

> <iupac>
2,2-bis(hydroxymethyl)propane-1,3-diol

> <MPID>
100577

> <dsstox_substance_id>
DTXSID2026943

> <Canonical_QSARr>
OCC(CO)(CO)CO

> <InChI_Code_QSARr>
InChI=1S/C5H12O4/c6-1-5(2-7,3-8)4-9/h6-9H,1-4H2

> <InChI Key_QSARr>
WXZMFSXDPGVJKK-UHFFFAOYSA-N

> <Salt_Solvent>
?

> <Ready_Biodeg>
1.0

$$$$
100568
  -INDIGO-08031722522D

 38 40  0  0  0  0  0  0  0  0999 V2000
    4.3291   -0.4812    0.0000 C   0  0  0  0  0  0  0  0  0  0  0  0
    4.6070    1.0944    0.0000 H   0  0  0  0  0  0  0  0  0  0  0  0
    5.5549   -1.5097    0.0000 C   0  0  0  0  0  0  0  0  0  0  0  0
    7.0584   -0.9624    0.0000 H   0  0  0  0  0  0  0  0  0  0  0  0
    5.2771   -3.0853    0.0000 C   0  0  0  0  0  0  0  0  0  0  0  0
    6.5026   -4.1139    0.0000 H   0  0  0  0  0  0  0  0  0  0  0  0
    3.7736   -3.6326    0.0000 C   0  0  0  0  0  0  0  0  0  0  0  0
    3.4957   -5.2082    0.0000 H   0  0  0  0  0  0  0  0  0  0  0  0
    2.5478   -2.6041    0.0000 C   0  0  0  0  0  0  0  0  0  0  0  0
    1.0443   -3.1514    0.0000 H   0  0  0  0  0  0  0  0  0  0  0  0
    2.8257   -1.0285    0.0000 C   0  0  0  0  0  0  0  0  0  0  0  0
    1.6001    0.0001    0.0000 O   0  0  0  0  0  0  0  0  0  0  0  0
    0.0001    0.0001    0.0000 P   0  0  0  0  0  0  0  0  0  0  0  0
   -0.8000    1.3856    0.0000 O   0  0  0  0  0  0  0  0  0  0  0  0
    0.8000    1.3856    0.0000 O   0  0  0  0  0  0  0  0  0  0  0  0
    0.0001    2.7713    0.0000 C   0  0  0  0  0  0  0  0  0  0  0  0
    0.8000    4.1570    0.0000 C   0  0  0  0  0  0  0  0  0  0  0  0
    2.3999    4.1570    0.0000 H   0  0  0  0  0  0  0  0  0  0  0  0
    0.0001    5.5425    0.0000 C   0  0  0  0  0  0  0  0  0  0  0  0
    0.8000    6.9282    0.0000 H   0  0  0  0  0  0  0  0  0  0  0  0
   -1.6001    5.5425    0.0000 C   0  0  0  0  0  0  0  0  0  0  0  0
   -2.4000    6.9282    0.0000 H   0  0  0  0  0  0  0  0  0  0  0  0
   -2.4000    4.1570    0.0000 C   0  0  0  0  0  0  0  0  0  0  0  0
   -3.9999    4.1570    0.0000 H   0  0  0  0  0  0  0  0  0  0  0  0
   -1.6001    2.7713    0.0000 C   0  0  0  0  0  0  0  0  0  0  0  0
   -2.4000    1.3856    0.0000 H   0  0  0  0  0  0  0  0  0  0  0  0
   -1.6001    0.0001    0.0000 O   0  0  0  0  0  0  0  0  0  0  0  0
   -2.4000   -1.3856    0.0000 C   0  0  0  0  0  0  0  0  0  0  0  0
   -3.9999   -1.3856    0.0000 C   0  0  0  0  0  0  0  0  0  0  0  0
   -4.8000    0.0001    0.0000 H   0  0  0  0  0  0  0  0  0  0  0  0
   -4.8000   -2.7713    0.0000 C   0  0  0  0  0  0  0  0  0  0  0  0
   -6.4000   -2.7713    0.0000 H   0  0  0  0  0  0  0  0  0  0  0  0
   -3.9999   -4.1569    0.0000 C   0  0  0  0  0  0  0  0  0  0  0  0
   -4.8000   -5.5426    0.0000 H   0  0  0  0  0  0  0  0  0  0  0  0
   -2.4000   -4.1569    0.0000 C   0  0  0  0  0  0  0  0  0  0  0  0
   -1.6001   -5.5426    0.0000 H   0  0  0  0  0  0  0  0  0  0  0  0
   -1.6001   -2.7713    0.0000 C   0  0  0  0  0  0  0  0  0  0  0  0
    0.0001   -2.7713    0.0000 H   0  0  0  0  0  0  0  0  0  0  0  0
  1  2  1  0  0  0  0
  1  3  1  0  0  0  0
  3  4  1  0  0  0  0
  3  5  2  0  0  0  0
  5  6  1  0  0  0  0
  5  7  1  0  0  0  0
  7  8  1  0  0  0  0
  7  9  2  0  0  0  0
  9 10  1  0  0  0  0
  9 11  1  0  0  0  0
 11  1  2  0  0  0  0
 11 12  1  0  0  0  0
 12 13  1  0  0  0  0
 13 14  2  0  0  0  0
 13 15  1  0  0  0  0
 15 16  1  0  0  0  0
 16 17  1  0  0  0  0
 17 18  1  0  0  0  0
 17 19  2  0  0  0  0
 19 20  1  0  0  0  0
 19 21  1  0  0  0  0
 21 22  1  0  0  0  0
 21 23  2  0  0  0  0
 23 24  1  0  0  0  0
 23 25  1  0  0  0  0
 25 16  2  0  0  0  0
 25 26  1  0  0  0  0
 13 27  1  0  0  0  0
 27 28  1  0  0  0  0
 28 29  1  0  0  0  0
 29 30  1  0  0  0  0
 29 31  2  0  0  0  0
 31 32  1  0  0  0  0
 31 33  1  0  0  0  0
 33 34  1  0  0  0  0
 33 35  2  0  0  0  0
 35 36  1  0  0  0  0
 35 37  1  0  0  0  0
 37 28  2  0  0  0  0
 37 38  1  0  0  0  0
M  END
> <ChemID>
100568

> <source_casrn>
115-86-6

> <CAS>
115-86-6

> <SMILES>
O=P(Oc1ccccc1)(Oc1ccccc1)Oc1ccccc1

> <NAME>
Phosphoric acid, triphenyl ester

> <preferred_name>
Triphenyl phosphate

> <iupac>
triphenyl phosphate

> <MPID>
100578

> <dsstox_substance_id>
DTXSID1021952

> <Canonical_QSARr>
O=P(Oc1ccccc1)(Oc1ccccc1)Oc1ccccc1

> <InChI_Code_QSARr>
InChI=1S/C18H15O4P/c19-23(20-16-10-4-1-5-11-16,21-17-12-6-2-7-13-17)22-18-14-8-3-9-15-18/h1-15H

> <InChI Key_QSARr>
XZZNDPSIHUTMOC-UHFFFAOYSA-N

> <Salt_Solvent>
?

> <Ready_Biodeg>
1.0

$$$$
100569
  -INDIGO-08031722522D

 26 25  0  0  0  0  0  0  0  0999 V2000
    0.8001   -1.3856    0.0000 O   0  0  0  0  0  0  0  0  0  0  0  0
    0.0001    0.0000    0.0000 P   0  0  0  0  0  0  0  0  0  0  0  0
    1.6001    0.0000    0.0000 O   0  0  0  0  0  0  0  0  0  0  0  0
    2.4000   -1.3856    0.0000 C   0  0  0  0  0  0  0  0  0  0  0  0
    1.1306   -2.3596    0.0000 H   0  0  0  0  0  0  0  0  0  0  0  0
    2.1912   -2.9720    0.0000 H   0  0  0  0  0  0  0  0  0  0  0  0
    4.0000   -1.3856    0.0000 C   0  0  0  0  0  0  0  0  0  0  0  0
    5.6000   -1.3856    0.0000 H   0  0  0  0  0  0  0  0  0  0  0  0
    4.8000   -2.7712    0.0000 H   0  0  0  0  0  0  0  0  0  0  0  0
    4.8000    0.0000    0.0000 Cl  0  0  0  0  0  0  0  0  0  0  0  0
    0.8001    1.3857    0.0000 O   0  0  0  0  0  0  0  0  0  0  0  0
    0.0001    2.7713    0.0000 C   0  0  0  0  0  0  0  0  0  0  0  0
   -1.4782    3.3836    0.0000 H   0  0  0  0  0  0  0  0  0  0  0  0
   -1.4782    2.1590    0.0000 H   0  0  0  0  0  0  0  0  0  0  0  0
    0.8001    4.1569    0.0000 C   0  0  0  0  0  0  0  0  0  0  0  0
    1.6001    5.5426    0.0000 H   0  0  0  0  0  0  0  0  0  0  0  0
    0.0001    5.5426    0.0000 H   0  0  0  0  0  0  0  0  0  0  0  0
    2.4000    4.1569    0.0000 Cl  0  0  0  0  0  0  0  0  0  0  0  0
   -1.6001    0.0000    0.0000 O   0  0  0  0  0  0  0  0  0  0  0  0
   -2.4000   -1.3856    0.0000 C   0  0  0  0  0  0  0  0  0  0  0  0
   -2.1912   -2.9720    0.0000 H   0  0  0  0  0  0  0  0  0  0  0  0
   -1.1306   -2.3596    0.0000 H   0  0  0  0  0  0  0  0  0  0  0  0
   -4.0000   -1.3856    0.0000 C   0  0  0  0  0  0  0  0  0  0  0  0
   -5.6000   -1.3856    0.0000 H   0  0  0  0  0  0  0  0  0  0  0  0
   -4.8000   -2.7712    0.0000 H   0  0  0  0  0  0  0  0  0  0  0  0
   -4.8000    0.0000    0.0000 Cl  0  0  0  0  0  0  0  0  0  0  0  0
  1  2  2  0  0  0  0
  2  3  1  0  0  0  0
  3  4  1  0  0  0  0
  4  5  1  0  0  0  0
  4  6  1  0  0  0  0
  4  7  1  0  0  0  0
  7  8  1  0  0  0  0
  7  9  1  0  0  0  0
  7 10  1  0  0  0  0
  2 11  1  0  0  0  0
 11 12  1  0  0  0  0
 12 13  1  0  0  0  0
 12 14  1  0  0  0  0
 12 15  1  0  0  0  0
 15 16  1  0  0  0  0
 15 17  1  0  0  0  0
 15 18  1  0  0  0  0
  2 19  1  0  0  0  0
 19 20  1  0  0  0  0
 20 21  1  0  0  0  0
 20 22  1  0  0  0  0
 20 23  1  0  0  0  0
 23 24  1  0  0  0  0
 23 25  1  0  0  0  0
 23 26  1  0  0  0  0
M  END
> <ChemID>
100569

> <source_casrn>
115-96-8

> <CAS>
115-96-8

> <SMILES>
O=P(OCCCl)(OCCCl)OCCCl

> <NAME>
Ethanol, 2-chloro-, phosphate (3:1)

> <preferred_name>
Tris(2-chloroethyl) phosphate

> <iupac>
tris(2-chloroethyl) phosphate

> <MPID>
100579

> <dsstox_substance_id>
DTXSID5021411

> <Canonical_QSARr>
O=P(OCCCl)(OCCCl)OCCCl

> <InChI_Code_QSARr>
InChI=1S/C6H12Cl3O4P/c7-1-4-11-14(10,12-5-2-8)13-6-3-9/h1-6H2

> <InChI Key_QSARr>
HQUQLFOMPYWACS-UHFFFAOYSA-N

> <Salt_Solvent>
?

> <Ready_Biodeg>
0.0

$$$$
100571
  -INDIGO-08031722522D

 25 26  0  0  0  0  0  0  0  0999 V2000
   -0.0001   -1.6000    0.0000 O   0  0  0  0  0  0  0  0  0  0  0  0
    0.0001    0.0000    0.0000 S   0  0  0  0  0  0  0  0  0  0  0  0
    0.0001    1.6000    0.0000 O   0  0  0  0  0  0  0  0  0  0  0  0
    1.5999   -0.0000    0.0000 C   0  0  0  0  0  0  0  0  0  0  0  0
    2.3999   -1.3856    0.0000 C   0  0  0  0  0  0  0  0  0  0  0  0
    1.5999   -2.7713    0.0000 H   0  0  0  0  0  0  0  0  0  0  0  0
    4.0000   -1.3856    0.0000 C   0  0  0  0  0  0  0  0  0  0  0  0
    4.8000   -2.7713    0.0000 Cl  0  0  0  0  0  0  0  0  0  0  0  0
    4.8000    0.0000    0.0000 C   0  0  0  0  0  0  0  0  0  0  0  0
    6.4000    0.0000    0.0000 Cl  0  0  0  0  0  0  0  0  0  0  0  0
    4.0000    1.3856    0.0000 C   0  0  0  0  0  0  0  0  0  0  0  0
    4.8000    2.7713    0.0000 H   0  0  0  0  0  0  0  0  0  0  0  0
    2.3999    1.3856    0.0000 C   0  0  0  0  0  0  0  0  0  0  0  0
    1.5999    2.7713    0.0000 Cl  0  0  0  0  0  0  0  0  0  0  0  0
   -1.5999    0.0000    0.0000 C   0  0  0  0  0  0  0  0  0  0  0  0
   -2.3999    1.3856    0.0000 C   0  0  0  0  0  0  0  0  0  0  0  0
   -1.5999    2.7713    0.0000 H   0  0  0  0  0  0  0  0  0  0  0  0
   -4.0000    1.3856    0.0000 C   0  0  0  0  0  0  0  0  0  0  0  0
   -4.8000    2.7713    0.0000 H   0  0  0  0  0  0  0  0  0  0  0  0
   -4.8000    0.0000    0.0000 C   0  0  0  0  0  0  0  0  0  0  0  0
   -6.4000    0.0000    0.0000 Cl  0  0  0  0  0  0  0  0  0  0  0  0
   -4.0000   -1.3856    0.0000 C   0  0  0  0  0  0  0  0  0  0  0  0
   -4.8000   -2.7713    0.0000 H   0  0  0  0  0  0  0  0  0  0  0  0
   -2.3999   -1.3856    0.0000 C   0  0  0  0  0  0  0  0  0  0  0  0
   -1.5999   -2.7713    0.0000 H   0  0  0  0  0  0  0  0  0  0  0  0
  1  2  2  0  0  0  0
  2  3  2  0  0  0  0
  2  4  1  0  0  0  0
  4  5  1  0  0  0  0
  5  6  1  0  0  0  0
  5  7  2  0  0  0  0
  7  8  1  0  0  0  0
  7  9  1  0  0  0  0
  9 10  1  0  0  0  0
  9 11  2  0  0  0  0
 11 12  1  0  0  0  0
 11 13  1  0  0  0  0
 13  4  2  0  0  0  0
 13 14  1  0  0  0  0
  2 15  1  0  0  0  0
 15 16  1  0  0  0  0
 16 17  1  0  0  0  0
 16 18  2  0  0  0  0
 18 19  1  0  0  0  0
 18 20  1  0  0  0  0
 20 21  1  0  0  0  0
 20 22  2  0  0  0  0
 22 23  1  0  0  0  0
 22 24  1  0  0  0  0
 24 15  2  0  0  0  0
 24 25  1  0  0  0  0
M  END
> <ChemID>
100571

> <source_casrn>
116-29-0

> <CAS>
116-29-0

> <SMILES>
O=S(=O)(c1cc(Cl)c(Cl)cc1Cl)c1ccc(Cl)cc1

> <NAME>
Tetradifon

> <preferred_name>
Tetradifon

> <iupac>
4-chlorophenyl 2,4,5-trichlorophenyl sulfone

> <MPID>
100581

> <dsstox_substance_id>
DTXSID7021316

> <Canonical_QSARr>
O=S(=O)(c1cc(Cl)c(Cl)cc1Cl)c1ccc(Cl)cc1

> <InChI_Code_QSARr>
InChI=1S/C12H6Cl4O2S/c13-7-1-3-8(4-2-7)19(17,18)12-6-10(15)9(14)5-11(12)16/h1-6H

> <InChI Key_QSARr>
MLGCXEBRWGEOQX-UHFFFAOYSA-N

> <Salt_Solvent>
?

> <Ready_Biodeg>
0.0

$$$$
100572
  -INDIGO-08031722522D

 26 28  0  0  0  0  0  0  0  0999 V2000
    1.3856    2.4000    0.0000 O   0  0  0  0  0  0  0  0  0  0  0  0
    1.3856    0.8000    0.0000 C   0  0  0  0  0  0  0  0  0  0  0  0
    0.0001   -0.0000    0.0000 C   0  0  0  0  0  0  0  0  0  0  0  0
    0.0001   -1.6000    0.0000 C   0  0  0  0  0  0  0  0  0  0  0  0
   -1.3856   -2.4000    0.0000 C   0  0  0  0  0  0  0  0  0  0  0  0
   -1.3856   -4.0000    0.0000 H   0  0  0  0  0  0  0  0  0  0  0  0
   -2.7713   -1.6000    0.0000 C   0  0  0  0  0  0  0  0  0  0  0  0
   -4.1569   -2.4000    0.0000 H   0  0  0  0  0  0  0  0  0  0  0  0
   -2.7713   -0.0000    0.0000 C   0  0  0  0  0  0  0  0  0  0  0  0
   -1.3856    0.8000    0.0000 C   0  0  0  0  0  0  0  0  0  0  0  0
   -1.3856    2.4000    0.0000 H   0  0  0  0  0  0  0  0  0  0  0  0
   -4.1569    0.8000    0.0000 N   0  0  0  0  0  0  0  0  0  0  0  0
   -5.5426   -0.0000    0.0000 H   0  0  0  0  0  0  0  0  0  0  0  0
   -4.1569    2.4000    0.0000 H   0  0  0  0  0  0  0  0  0  0  0  0
    1.3856   -2.4000    0.0000 C   0  0  0  0  0  0  0  0  0  0  0  0
    1.3856   -4.0000    0.0000 O   0  0  0  0  0  0  0  0  0  0  0  0
    2.7713   -1.6000    0.0000 C   0  0  0  0  0  0  0  0  0  0  0  0
    2.7713   -0.0000    0.0000 C   0  0  0  0  0  0  0  0  0  0  0  0
    4.1570    0.8000    0.0000 C   0  0  0  0  0  0  0  0  0  0  0  0
    4.1570    2.4000    0.0000 H   0  0  0  0  0  0  0  0  0  0  0  0
    5.5425   -0.0000    0.0000 C   0  0  0  0  0  0  0  0  0  0  0  0
    6.9282    0.8000    0.0000 H   0  0  0  0  0  0  0  0  0  0  0  0
    5.5425   -1.6000    0.0000 C   0  0  0  0  0  0  0  0  0  0  0  0
    6.9282   -2.4000    0.0000 H   0  0  0  0  0  0  0  0  0  0  0  0
    4.1570   -2.4000    0.0000 C   0  0  0  0  0  0  0  0  0  0  0  0
    4.1570   -4.0000    0.0000 H   0  0  0  0  0  0  0  0  0  0  0  0
  1  2  2  0  0  0  0
  2  3  1  0  0  0  0
  3  4  1  0  0  0  0
  4  5  2  0  0  0  0
  5  6  1  0  0  0  0
  5  7  1  0  0  0  0
  7  8  1  0  0  0  0
  7  9  2  0  0  0  0
  9 10  1  0  0  0  0
 10  3  2  0  0  0  0
 10 11  1  0  0  0  0
  9 12  1  0  0  0  0
 12 13  1  0  0  0  0
 12 14  1  0  0  0  0
  4 15  1  0  0  0  0
 15 16  2  0  0  0  0
 15 17  1  0  0  0  0
 17 18  1  0  0  0  0
 18  2  1  0  0  0  0
 18 19  2  0  0  0  0
 19 20  1  0  0  0  0
 19 21  1  0  0  0  0
 21 22  1  0  0  0  0
 21 23  2  0  0  0  0
 23 24  1  0  0  0  0
 23 25  1  0  0  0  0
 25 17  2  0  0  0  0
 25 26  1  0  0  0  0
M  END
> <ChemID>
100572

> <source_casrn>
117-79-3

> <CAS>
117-79-3

> <SMILES>
Nc1cc2c(cc1)C(=O)c1ccccc1C2=O

> <NAME>
9,10-Anthracenedione, 2-amino-

> <preferred_name>
2-Aminoanthraquinone

> <iupac>
2-aminoanthracene-9,10-dione

> <MPID>
100582

> <dsstox_substance_id>
DTXSID6020068

> <Canonical_QSARr>
Nc1cc2c(cc1)C(=O)c1ccccc1C2=O

> <InChI_Code_QSARr>
InChI=1S/C14H9NO2/c15-8-5-6-11-12(7-8)14(17)10-4-2-1-3-9(10)13(11)16/h1-7H,15H2

> <InChI Key_QSARr>
XOGPDSATLSAZEK-UHFFFAOYSA-N

> <Salt_Solvent>
?

> <Ready_Biodeg>
0.0

$$$$
100573
  -INDIGO-08031722522D

 18 19  0  0  0  0  0  0  0  0999 V2000
   -1.3856    4.0000    0.0000 O   0  0  0  0  0  0  0  0  0  0  0  0
   -1.3856    2.4000    0.0000 C   0  0  0  0  0  0  0  0  0  0  0  0
    0.0001    1.6000    0.0000 C   0  0  0  0  0  0  0  0  0  0  0  0
    0.0001    0.0000    0.0000 C   0  0  0  0  0  0  0  0  0  0  0  0
    1.3856   -0.8000    0.0000 C   0  0  0  0  0  0  0  0  0  0  0  0
    1.3856   -2.4000    0.0000 H   0  0  0  0  0  0  0  0  0  0  0  0
    2.7713    0.0000    0.0000 C   0  0  0  0  0  0  0  0  0  0  0  0
    4.1569   -0.8000    0.0000 H   0  0  0  0  0  0  0  0  0  0  0  0
    2.7713    1.6000    0.0000 C   0  0  0  0  0  0  0  0  0  0  0  0
    4.1569    2.4000    0.0000 H   0  0  0  0  0  0  0  0  0  0  0  0
    1.3856    2.4000    0.0000 C   0  0  0  0  0  0  0  0  0  0  0  0
    1.3856    4.0000    0.0000 H   0  0  0  0  0  0  0  0  0  0  0  0
   -1.3856   -0.8000    0.0000 C   0  0  0  0  0  0  0  0  0  0  0  0
   -1.3856   -2.4000    0.0000 O   0  0  0  0  0  0  0  0  0  0  0  0
   -2.7713    0.0000    0.0000 C   0  0  0  0  0  0  0  0  0  0  0  0
   -4.1569   -0.8000    0.0000 Cl  0  0  0  0  0  0  0  0  0  0  0  0
   -2.7713    1.6000    0.0000 C   0  0  0  0  0  0  0  0  0  0  0  0
   -4.1569    2.4000    0.0000 Cl  0  0  0  0  0  0  0  0  0  0  0  0
  1  2  2  0  0  0  0
  2  3  1  0  0  0  0
  3  4  1  0  0  0  0
  4  5  2  0  0  0  0
  5  6  1  0  0  0  0
  5  7  1  0  0  0  0
  7  8  1  0  0  0  0
  7  9  2  0  0  0  0
  9 10  1  0  0  0  0
  9 11  1  0  0  0  0
 11  3  2  0  0  0  0
 11 12  1  0  0  0  0
  4 13  1  0  0  0  0
 13 14  2  0  0  0  0
 13 15  1  0  0  0  0
 15 16  1  0  0  0  0
 15 17  2  0  0  0  0
 17  2  1  0  0  0  0
 17 18  1  0  0  0  0
M  END
> <ChemID>
100573

> <source_casrn>
117-80-6

> <CAS>
117-80-6

> <SMILES>
O=C1c2ccccc2C(=O)C(Cl)=C1Cl

> <NAME>
1,4-Naphthalenedione, 2,3-dichloro-

> <preferred_name>
Dichlone

> <iupac>
2,3-dichloronaphthalene-1,4-dione

> <MPID>
100583

> <dsstox_substance_id>
DTXSID7020425

> <Canonical_QSARr>
O=C1c2ccccc2C(=O)C(Cl)=C1Cl

> <InChI_Code_QSARr>
InChI=1S/C10H4Cl2O2/c11-7-8(12)10(14)6-4-2-1-3-5(6)9(7)13/h1-4H

> <InChI Key_QSARr>
SVPKNMBRVBMTLB-UHFFFAOYSA-N

> <Salt_Solvent>
?

> <Ready_Biodeg>
0.0

$$$$
100575
  -INDIGO-08031722522D

 66 66  0  0  0  0  0  0  0  0999 V2000
    8.8000   -4.1569    0.0000 C   0  0  0  0  0  0  0  0  0  0  0  0
    9.5999   -2.7714    0.0000 C   0  0  0  0  0  0  0  0  0  0  0  0
    8.8000   -1.3856    0.0000 O   0  0  0  0  0  0  0  0  0  0  0  0
   11.1999   -2.7714    0.0000 O   0  0  0  0  0  0  0  0  0  0  0  0
   12.0002   -1.3856    0.0000 C   0  0  0  0  0  0  0  0  0  0  0  0
   10.7306   -0.4117    0.0000 H   0  0  0  0  0  0  0  0  0  0  0  0
   11.7910    0.2007    0.0000 H   0  0  0  0  0  0  0  0  0  0  0  0
   13.5998   -1.3856    0.0000 C   0  0  0  0  0  0  0  0  0  0  0  0
   14.8694   -2.3597    0.0000 H   0  0  0  0  0  0  0  0  0  0  0  0
   13.8090   -2.9719    0.0000 H   0  0  0  0  0  0  0  0  0  0  0  0
   14.4001   -0.0000    0.0000 C   0  0  0  0  0  0  0  0  0  0  0  0
   13.1305    0.9741    0.0000 H   0  0  0  0  0  0  0  0  0  0  0  0
   14.1913    1.5863    0.0000 H   0  0  0  0  0  0  0  0  0  0  0  0
   16.0001   -0.0000    0.0000 C   0  0  0  0  0  0  0  0  0  0  0  0
   17.2693   -0.9739    0.0000 H   0  0  0  0  0  0  0  0  0  0  0  0
   16.2089   -1.5863    0.0000 H   0  0  0  0  0  0  0  0  0  0  0  0
   16.8000    1.3856    0.0000 C   0  0  0  0  0  0  0  0  0  0  0  0
   15.5308    2.3597    0.0000 H   0  0  0  0  0  0  0  0  0  0  0  0
   16.5912    2.9720    0.0000 H   0  0  0  0  0  0  0  0  0  0  0  0
   18.4000    1.3856    0.0000 C   0  0  0  0  0  0  0  0  0  0  0  0
   19.6692    0.4116    0.0000 H   0  0  0  0  0  0  0  0  0  0  0  0
   18.6088   -0.2007    0.0000 H   0  0  0  0  0  0  0  0  0  0  0  0
   19.1999    2.7713    0.0000 C   0  0  0  0  0  0  0  0  0  0  0  0
   17.9307    3.7452    0.0000 H   0  0  0  0  0  0  0  0  0  0  0  0
   18.9911    4.3576    0.0000 H   0  0  0  0  0  0  0  0  0  0  0  0
   20.7999    2.7713    0.0000 C   0  0  0  0  0  0  0  0  0  0  0  0
   22.4000    2.7713    0.0000 H   0  0  0  0  0  0  0  0  0  0  0  0
   21.6002    4.1569    0.0000 H   0  0  0  0  0  0  0  0  0  0  0  0
   21.6002    1.3856    0.0000 H   0  0  0  0  0  0  0  0  0  0  0  0
    7.2000   -4.1569    0.0000 C   0  0  0  0  0  0  0  0  0  0  0  0
    6.4001   -2.7714    0.0000 C   0  0  0  0  0  0  0  0  0  0  0  0
    7.2000   -1.3856    0.0000 O   0  0  0  0  0  0  0  0  0  0  0  0
    4.8001   -2.7714    0.0000 O   0  0  0  0  0  0  0  0  0  0  0  0
    3.9998   -1.3856    0.0000 C   0  0  0  0  0  0  0  0  0  0  0  0
    4.2090    0.2007    0.0000 H   0  0  0  0  0  0  0  0  0  0  0  0
    5.2694   -0.4117    0.0000 H   0  0  0  0  0  0  0  0  0  0  0  0
    2.4002   -1.3856    0.0000 C   0  0  0  0  0  0  0  0  0  0  0  0
    2.1910   -2.9719    0.0000 H   0  0  0  0  0  0  0  0  0  0  0  0
    1.1306   -2.3597    0.0000 H   0  0  0  0  0  0  0  0  0  0  0  0
    1.5999   -0.0000    0.0000 C   0  0  0  0  0  0  0  0  0  0  0  0
    1.8087    1.5863    0.0000 H   0  0  0  0  0  0  0  0  0  0  0  0
    2.8695    0.9741    0.0000 H   0  0  0  0  0  0  0  0  0  0  0  0
   -0.0001   -0.0000    0.0000 C   0  0  0  0  0  0  0  0  0  0  0  0
   -0.2089   -1.5863    0.0000 H   0  0  0  0  0  0  0  0  0  0  0  0
   -1.2693   -0.9739    0.0000 H   0  0  0  0  0  0  0  0  0  0  0  0
   -0.8000    1.3856    0.0000 C   0  0  0  0  0  0  0  0  0  0  0  0
   -0.5912    2.9720    0.0000 H   0  0  0  0  0  0  0  0  0  0  0  0
    0.4692    2.3597    0.0000 H   0  0  0  0  0  0  0  0  0  0  0  0
   -2.4000    1.3856    0.0000 C   0  0  0  0  0  0  0  0  0  0  0  0
   -2.6088   -0.2007    0.0000 H   0  0  0  0  0  0  0  0  0  0  0  0
   -3.6692    0.4116    0.0000 H   0  0  0  0  0  0  0  0  0  0  0  0
   -3.1999    2.7713    0.0000 C   0  0  0  0  0  0  0  0  0  0  0  0
   -2.9911    4.3576    0.0000 H   0  0  0  0  0  0  0  0  0  0  0  0
   -1.9307    3.7452    0.0000 H   0  0  0  0  0  0  0  0  0  0  0  0
   -4.7999    2.7713    0.0000 C   0  0  0  0  0  0  0  0  0  0  0  0
   -6.4000    2.7713    0.0000 H   0  0  0  0  0  0  0  0  0  0  0  0
   -5.6002    4.1569    0.0000 H   0  0  0  0  0  0  0  0  0  0  0  0
   -5.6002    1.3856    0.0000 H   0  0  0  0  0  0  0  0  0  0  0  0
    6.4001   -5.5425    0.0000 C   0  0  0  0  0  0  0  0  0  0  0  0
    4.8001   -5.5425    0.0000 H   0  0  0  0  0  0  0  0  0  0  0  0
    7.2000   -6.9283    0.0000 C   0  0  0  0  0  0  0  0  0  0  0  0
    6.4001   -8.3138    0.0000 H   0  0  0  0  0  0  0  0  0  0  0  0
    8.8000   -6.9283    0.0000 C   0  0  0  0  0  0  0  0  0  0  0  0
    9.5999   -8.3138    0.0000 H   0  0  0  0  0  0  0  0  0  0  0  0
    9.5999   -5.5425    0.0000 C   0  0  0  0  0  0  0  0  0  0  0  0
   11.1999   -5.5425    0.0000 H   0  0  0  0  0  0  0  0  0  0  0  0
  1  2  1  0  0  0  0
  2  3  2  0  0  0  0
  2  4  1  0  0  0  0
  4  5  1  0  0  0  0
  5  6  1  0  0  0  0
  5  7  1  0  0  0  0
  5  8  1  0  0  0  0
  8  9  1  0  0  0  0
  8 10  1  0  0  0  0
  8 11  1  0  0  0  0
 11 12  1  0  0  0  0
 11 13  1  0  0  0  0
 11 14  1  0  0  0  0
 14 15  1  0  0  0  0
 14 16  1  0  0  0  0
 14 17  1  0  0  0  0
 17 18  1  0  0  0  0
 17 19  1  0  0  0  0
 17 20  1  0  0  0  0
 20 21  1  0  0  0  0
 20 22  1  0  0  0  0
 20 23  1  0  0  0  0
 23 24  1  0  0  0  0
 23 25  1  0  0  0  0
 23 26  1  0  0  0  0
 26 27  1  0  0  0  0
 26 28  1  0  0  0  0
 26 29  1  0  0  0  0
  1 30  1  0  0  0  0
 30 31  1  0  0  0  0
 31 32  2  0  0  0  0
 31 33  1  0  0  0  0
 33 34  1  0  0  0  0
 34 35  1  0  0  0  0
 34 36  1  0  0  0  0
 34 37  1  0  0  0  0
 37 38  1  0  0  0  0
 37 39  1  0  0  0  0
 37 40  1  0  0  0  0
 40 41  1  0  0  0  0
 40 42  1  0  0  0  0
 40 43  1  0  0  0  0
 43 44  1  0  0  0  0
 43 45  1  0  0  0  0
 43 46  1  0  0  0  0
 46 47  1  0  0  0  0
 46 48  1  0  0  0  0
 46 49  1  0  0  0  0
 49 50  1  0  0  0  0
 49 51  1  0  0  0  0
 49 52  1  0  0  0  0
 52 53  1  0  0  0  0
 52 54  1  0  0  0  0
 52 55  1  0  0  0  0
 55 56  1  0  0  0  0
 55 57  1  0  0  0  0
 55 58  1  0  0  0  0
 30 59  2  0  0  0  0
 59 60  1  0  0  0  0
 59 61  1  0  0  0  0
 61 62  1  0  0  0  0
 61 63  2  0  0  0  0
 63 64  1  0  0  0  0
 63 65  1  0  0  0  0
 65  1  2  0  0  0  0
 65 66  1  0  0  0  0
M  END
> <ChemID>
100575

> <source_casrn>
117-84-0

> <CAS>
117-84-0

> <SMILES>
O=C(OCCCCCCCC)c(c(ccc1)C(=O)OCCCCCCCC)c1

> <NAME>
Dioctylphthalate

> <preferred_name>
Dioctyl phthalate

> <iupac>
dioctyl benzene-1,2-dicarboxylate

> <MPID>
100585

> <dsstox_substance_id>
DTXSID1021956

> <Canonical_QSARr>
CCCCCCCCOC(=O)c1ccccc1C(=O)OCCCCCCCC

> <InChI_Code_QSARr>
InChI=1S/C24H38O4/c1-3-5-7-9-11-15-19-27-23(25)21-17-13-14-18-22(21)24(26)28-20-16-12-10-8-6-4-2/h13-14,17-18H,3-12,15-16,19-20H2,1-2H3

> <InChI Key_QSARr>
MQIUGAXCHLFZKX-UHFFFAOYSA-N

> <Salt_Solvent>
?

> <Ready_Biodeg>
1.0

$$$$
100576
  -INDIGO-08031722522D

 26 27  0  0  0  0  0  0  0  0999 V2000
   -2.4001    1.3856    0.0000 N   0  0  0  0  0  0  0  0  0  0  0  0
   -1.6001    2.7713    0.0000 H   0  0  0  0  0  0  0  0  0  0  0  0
   -1.6001    0.0001    0.0000 C   0  0  0  0  0  0  0  0  0  0  0  0
    0.0001    0.0001    0.0000 C   0  0  0  0  0  0  0  0  0  0  0  0
    0.8001   -1.3856    0.0000 C   0  0  0  0  0  0  0  0  0  0  0  0
    2.4000   -1.3856    0.0000 C   0  0  0  0  0  0  0  0  0  0  0  0
    3.2000   -2.7712    0.0000 H   0  0  0  0  0  0  0  0  0  0  0  0
    3.2000    0.0001    0.0000 C   0  0  0  0  0  0  0  0  0  0  0  0
    4.8000    0.0001    0.0000 H   0  0  0  0  0  0  0  0  0  0  0  0
    2.4000    1.3856    0.0000 C   0  0  0  0  0  0  0  0  0  0  0  0
    3.2000    2.7712    0.0000 H   0  0  0  0  0  0  0  0  0  0  0  0
    0.8001    1.3856    0.0000 C   0  0  0  0  0  0  0  0  0  0  0  0
    0.0001    2.7713    0.0000 H   0  0  0  0  0  0  0  0  0  0  0  0
    0.0001   -2.7712    0.0000 C   0  0  0  0  0  0  0  0  0  0  0  0
    0.8001   -4.1569    0.0000 H   0  0  0  0  0  0  0  0  0  0  0  0
   -1.6001   -2.7712    0.0000 C   0  0  0  0  0  0  0  0  0  0  0  0
   -2.4001   -4.1569    0.0000 H   0  0  0  0  0  0  0  0  0  0  0  0
   -2.4001   -1.3856    0.0000 C   0  0  0  0  0  0  0  0  0  0  0  0
   -4.0000   -1.3856    0.0000 H   0  0  0  0  0  0  0  0  0  0  0  0
   -4.0000    1.3856    0.0000 C   0  0  0  0  0  0  0  0  0  0  0  0
   -5.2693    0.4116    0.0000 H   0  0  0  0  0  0  0  0  0  0  0  0
   -4.2089   -0.2006    0.0000 H   0  0  0  0  0  0  0  0  0  0  0  0
   -4.8000    2.7712    0.0000 C   0  0  0  0  0  0  0  0  0  0  0  0
   -5.6000    4.1569    0.0000 H   0  0  0  0  0  0  0  0  0  0  0  0
   -6.4000    2.7713    0.0000 H   0  0  0  0  0  0  0  0  0  0  0  0
   -4.0000    4.1569    0.0000 H   0  0  0  0  0  0  0  0  0  0  0  0
  1  2  1  0  0  0  0
  1  3  1  0  0  0  0
  3  4  1  0  0  0  0
  4  5  1  0  0  0  0
  5  6  2  0  0  0  0
  6  7  1  0  0  0  0
  6  8  1  0  0  0  0
  8  9  1  0  0  0  0
  8 10  2  0  0  0  0
 10 11  1  0  0  0  0
 10 12  1  0  0  0  0
 12  4  2  0  0  0  0
 12 13  1  0  0  0  0
  5 14  1  0  0  0  0
 14 15  1  0  0  0  0
 14 16  2  0  0  0  0
 16 17  1  0  0  0  0
 16 18  1  0  0  0  0
 18  3  2  0  0  0  0
 18 19  1  0  0  0  0
  1 20  1  0  0  0  0
 20 21  1  0  0  0  0
 20 22  1  0  0  0  0
 20 23  1  0  0  0  0
 23 24  1  0  0  0  0
 23 25  1  0  0  0  0
 23 26  1  0  0  0  0
M  END
> <ChemID>
100576

> <source_casrn>
118-44-5

> <CAS>
118-44-5

> <SMILES>
CCNc1cccc2ccccc21

> <NAME>
1-Naphthalenamine, N-ethyl-

> <preferred_name>
1-Naphthalenamine, N-ethyl-

> <iupac>
N-ethylnaphthalen-1-amine

> <MPID>
100586

> <dsstox_substance_id>
DTXSID8059473

> <Canonical_QSARr>
CCNc1cccc2ccccc21

> <InChI_Code_QSARr>
InChI=1S/C12H13N/c1-2-13-12-9-5-7-10-6-3-4-8-11(10)12/h3-9,13H,2H2,1H3

> <InChI Key_QSARr>
KDFFXYVOTKKBDI-UHFFFAOYSA-N

> <Salt_Solvent>
?

> <Ready_Biodeg>
0.0

$$$$
100577
  -INDIGO-08031722522D

 22 22  0  0  0  0  0  0  0  0999 V2000
    0.0001    1.6000    0.0000 C   0  0  0  0  0  0  0  0  0  0  0  0
    1.3857    2.4000    0.0000 H   0  0  0  0  0  0  0  0  0  0  0  0
   -1.3856    2.4000    0.0000 C   0  0  0  0  0  0  0  0  0  0  0  0
   -1.3856    4.0000    0.0000 H   0  0  0  0  0  0  0  0  0  0  0  0
   -2.7713    1.6000    0.0000 C   0  0  0  0  0  0  0  0  0  0  0  0
   -4.1569    2.4000    0.0000 H   0  0  0  0  0  0  0  0  0  0  0  0
   -2.7713    0.0000    0.0000 C   0  0  0  0  0  0  0  0  0  0  0  0
   -4.1569   -0.8000    0.0000 H   0  0  0  0  0  0  0  0  0  0  0  0
   -1.3856   -0.8000    0.0000 C   0  0  0  0  0  0  0  0  0  0  0  0
   -1.3856   -2.4000    0.0000 O   0  0  0  0  0  0  0  0  0  0  0  0
   -2.7713   -3.2000    0.0000 H   0  0  0  0  0  0  0  0  0  0  0  0
    0.0001    0.0000    0.0000 C   0  0  0  0  0  0  0  0  0  0  0  0
    1.3857   -0.8000    0.0000 C   0  0  0  0  0  0  0  0  0  0  0  0
    1.3857   -2.4000    0.0000 O   0  0  0  0  0  0  0  0  0  0  0  0
    2.7712    0.0000    0.0000 O   0  0  0  0  0  0  0  0  0  0  0  0
    4.1569   -0.8000    0.0000 C   0  0  0  0  0  0  0  0  0  0  0  0
    4.7692   -2.2782    0.0000 H   0  0  0  0  0  0  0  0  0  0  0  0
    3.5446   -2.2782    0.0000 H   0  0  0  0  0  0  0  0  0  0  0  0
    5.5425    0.0000    0.0000 C   0  0  0  0  0  0  0  0  0  0  0  0
    6.9282    0.8000    0.0000 H   0  0  0  0  0  0  0  0  0  0  0  0
    6.9282   -0.8000    0.0000 H   0  0  0  0  0  0  0  0  0  0  0  0
    5.5425    1.6000    0.0000 H   0  0  0  0  0  0  0  0  0  0  0  0
  1  2  1  0  0  0  0
  1  3  1  0  0  0  0
  3  4  1  0  0  0  0
  3  5  2  0  0  0  0
  5  6  1  0  0  0  0
  5  7  1  0  0  0  0
  7  8  1  0  0  0  0
  7  9  2  0  0  0  0
  9 10  1  0  0  0  0
 10 11  1  0  0  0  0
  9 12  1  0  0  0  0
 12  1  2  0  0  0  0
 12 13  1  0  0  0  0
 13 14  2  0  0  0  0
 13 15  1  0  0  0  0
 15 16  1  0  0  0  0
 16 17  1  0  0  0  0
 16 18  1  0  0  0  0
 16 19  1  0  0  0  0
 19 20  1  0  0  0  0
 19 21  1  0  0  0  0
 19 22  1  0  0  0  0
M  END
> <ChemID>
100577

> <source_casrn>
118-61-6

> <CAS>
118-61-6

> <SMILES>
CCOC(=O)c1ccccc1O

> <NAME>
ETHYL 2-HYDROXYBENZOATE

> <preferred_name>
Ethyl salicylate

> <iupac>
ethyl 2-hydroxybenzoate

> <MPID>
100587

> <dsstox_substance_id>
DTXSID1021958

> <Canonical_QSARr>
CCOC(=O)c1ccccc1O

> <InChI_Code_QSARr>
InChI=1S/C9H10O3/c1-2-12-9(11)7-5-3-4-6-8(7)10/h3-6,10H,2H2,1H3

> <InChI Key_QSARr>
GYCKQBWUSACYIF-UHFFFAOYSA-N

> <Salt_Solvent>
?

> <Ready_Biodeg>
1.0

$$$$
100579
  -INDIGO-08031722522D

 13 13  0  0  0  0  0  0  0  0999 V2000
    0.8000    1.3856    0.0000 O   0  0  0  0  0  0  0  0  0  0  0  0
    2.4000    1.3856    0.0000 H   0  0  0  0  0  0  0  0  0  0  0  0
   -0.0000   -0.0000    0.0000 C   0  0  0  0  0  0  0  0  0  0  0  0
    0.8000   -1.3857    0.0000 C   0  0  0  0  0  0  0  0  0  0  0  0
    2.4000   -1.3857    0.0000 Br  0  0  0  0  0  0  0  0  0  0  0  0
   -0.0000   -2.7713    0.0000 C   0  0  0  0  0  0  0  0  0  0  0  0
    0.8000   -4.1569    0.0000 H   0  0  0  0  0  0  0  0  0  0  0  0
   -1.6000   -2.7713    0.0000 C   0  0  0  0  0  0  0  0  0  0  0  0
   -2.4000   -4.1569    0.0000 Br  0  0  0  0  0  0  0  0  0  0  0  0
   -2.4000   -1.3856    0.0000 C   0  0  0  0  0  0  0  0  0  0  0  0
   -4.0000   -1.3856    0.0000 H   0  0  0  0  0  0  0  0  0  0  0  0
   -1.6000   -0.0000    0.0000 C   0  0  0  0  0  0  0  0  0  0  0  0
   -2.4000    1.3856    0.0000 Br  0  0  0  0  0  0  0  0  0  0  0  0
  1  2  1  0  0  0  0
  1  3  1  0  0  0  0
  3  4  1  0  0  0  0
  4  5  1  0  0  0  0
  4  6  2  0  0  0  0
  6  7  1  0  0  0  0
  6  8  1  0  0  0  0
  8  9  1  0  0  0  0
  8 10  2  0  0  0  0
 10 11  1  0  0  0  0
 10 12  1  0  0  0  0
 12  3  2  0  0  0  0
 12 13  1  0  0  0  0
M  END
> <ChemID>
100579

> <source_casrn>
118-79-6

> <CAS>
118-79-6

> <SMILES>
Oc1c(Br)cc(Br)cc1Br

> <NAME>
Phenol, 2,4,6-tribromo-

> <preferred_name>
2,4,6-Tribromophenol

> <iupac>
2,4,6-tribromophenol

> <MPID>
100589

> <dsstox_substance_id>
DTXSID6021959

> <Canonical_QSARr>
Oc1c(Br)cc(Br)cc1Br

> <InChI_Code_QSARr>
InChI=1S/C6H3Br3O/c7-3-1-4(8)6(10)5(9)2-3/h1-2,10H

> <InChI Key_QSARr>
BSWWXRFVMJHFBN-UHFFFAOYSA-N

> <Salt_Solvent>
?

> <Ready_Biodeg>
1.0

$$$$
100580
  -INDIGO-08031722522D

 75 76  0  0  0  0  0  0  0  0999 V2000
    0.0000   -0.0000    0.0000 C   0  0  0  0  0  0  0  0  0  0  0  0
   -1.0286   -1.2258    0.0000 C   0  0  0  0  0  0  0  0  0  0  0  0
   -0.4812   -2.7293    0.0000 C   0  0  0  0  0  0  0  0  0  0  0  0
    1.0944   -3.0071    0.0000 O   0  0  0  0  0  0  0  0  0  0  0  0
    2.1230   -1.7814    0.0000 H   0  0  0  0  0  0  0  0  0  0  0  0
   -1.5098   -3.9548    0.0000 C   0  0  0  0  0  0  0  0  0  0  0  0
   -0.9624   -5.4583    0.0000 C   0  0  0  0  0  0  0  0  0  0  0  0
   -0.4152   -6.9618    0.0000 C   0  0  0  0  0  0  0  0  0  0  0  0
    0.1320   -8.4653    0.0000 H   0  0  0  0  0  0  0  0  0  0  0  0
    1.1606   -7.2398    0.0000 H   0  0  0  0  0  0  0  0  0  0  0  0
   -1.4438   -8.1875    0.0000 H   0  0  0  0  0  0  0  0  0  0  0  0
    0.5412   -4.9111    0.0000 C   0  0  0  0  0  0  0  0  0  0  0  0
    1.9268   -4.1110    0.0000 H   0  0  0  0  0  0  0  0  0  0  0  0
    1.9268   -5.7111    0.0000 H   0  0  0  0  0  0  0  0  0  0  0  0
    0.5412   -6.5112    0.0000 H   0  0  0  0  0  0  0  0  0  0  0  0
   -2.4659   -6.0055    0.0000 C   0  0  0  0  0  0  0  0  0  0  0  0
   -2.7438   -7.5812    0.0000 H   0  0  0  0  0  0  0  0  0  0  0  0
   -1.4375   -7.2312    0.0000 H   0  0  0  0  0  0  0  0  0  0  0  0
   -2.4659   -4.4056    0.0000 H   0  0  0  0  0  0  0  0  0  0  0  0
   -3.0853   -3.6770    0.0000 C   0  0  0  0  0  0  0  0  0  0  0  0
   -4.1139   -4.9027    0.0000 H   0  0  0  0  0  0  0  0  0  0  0  0
   -3.6327   -2.1735    0.0000 C   0  0  0  0  0  0  0  0  0  0  0  0
   -5.2082   -1.8957    0.0000 C   0  0  0  0  0  0  0  0  0  0  0  0
   -4.8620   -0.3336    0.0000 H   0  0  0  0  0  0  0  0  0  0  0  0
   -6.0680   -0.5463    0.0000 H   0  0  0  0  0  0  0  0  0  0  0  0
   -6.5938   -2.6957    0.0000 C   0  0  0  0  0  0  0  0  0  0  0  0
   -6.5938   -4.2956    0.0000 C   0  0  0  0  0  0  0  0  0  0  0  0
   -5.2082   -5.0956    0.0000 H   0  0  0  0  0  0  0  0  0  0  0  0
   -7.9797   -5.0956    0.0000 C   0  0  0  0  0  0  0  0  0  0  0  0
   -7.9797   -6.6957    0.0000 C   0  0  0  0  0  0  0  0  0  0  0  0
   -7.9797   -8.2956    0.0000 C   0  0  0  0  0  0  0  0  0  0  0  0
   -7.9797   -9.8957    0.0000 H   0  0  0  0  0  0  0  0  0  0  0  0
   -6.7539   -9.3241    0.0000 H   0  0  0  0  0  0  0  0  0  0  0  0
   -9.2052   -9.3241    0.0000 H   0  0  0  0  0  0  0  0  0  0  0  0
   -6.3796   -6.6957    0.0000 C   0  0  0  0  0  0  0  0  0  0  0  0
   -5.5795   -8.0814    0.0000 H   0  0  0  0  0  0  0  0  0  0  0  0
   -4.7795   -6.6957    0.0000 H   0  0  0  0  0  0  0  0  0  0  0  0
   -6.9268   -8.1992    0.0000 H   0  0  0  0  0  0  0  0  0  0  0  0
   -9.5796   -6.6957    0.0000 C   0  0  0  0  0  0  0  0  0  0  0  0
  -11.1553   -6.4179    0.0000 H   0  0  0  0  0  0  0  0  0  0  0  0
  -10.6082   -7.9214    0.0000 H   0  0  0  0  0  0  0  0  0  0  0  0
   -9.0324   -8.1992    0.0000 H   0  0  0  0  0  0  0  0  0  0  0  0
   -9.3653   -4.2956    0.0000 C   0  0  0  0  0  0  0  0  0  0  0  0
  -10.7509   -5.0956    0.0000 O   0  0  0  0  0  0  0  0  0  0  0  0
  -12.1365   -4.2956    0.0000 H   0  0  0  0  0  0  0  0  0  0  0  0
   -9.3653   -2.6957    0.0000 C   0  0  0  0  0  0  0  0  0  0  0  0
  -10.7509   -1.8957    0.0000 C   0  0  0  0  0  0  0  0  0  0  0  0
  -11.9765   -0.8672    0.0000 C   0  0  0  0  0  0  0  0  0  0  0  0
  -13.2023    0.1613    0.0000 H   0  0  0  0  0  0  0  0  0  0  0  0
  -13.5522   -1.1450    0.0000 H   0  0  0  0  0  0  0  0  0  0  0  0
  -11.9765    0.7329    0.0000 H   0  0  0  0  0  0  0  0  0  0  0  0
   -9.7223   -0.6700    0.0000 C   0  0  0  0  0  0  0  0  0  0  0  0
   -8.6940    0.5558    0.0000 H   0  0  0  0  0  0  0  0  0  0  0  0
  -10.2697    0.8336    0.0000 H   0  0  0  0  0  0  0  0  0  0  0  0
  -11.2258   -0.1228    0.0000 H   0  0  0  0  0  0  0  0  0  0  0  0
  -11.7793   -3.1214    0.0000 C   0  0  0  0  0  0  0  0  0  0  0  0
  -13.3794   -3.1214    0.0000 H   0  0  0  0  0  0  0  0  0  0  0  0
  -12.5793   -1.7357    0.0000 H   0  0  0  0  0  0  0  0  0  0  0  0
  -10.2037   -3.3992    0.0000 H   0  0  0  0  0  0  0  0  0  0  0  0
   -7.9797   -1.8957    0.0000 C   0  0  0  0  0  0  0  0  0  0  0  0
   -7.9797   -0.2956    0.0000 H   0  0  0  0  0  0  0  0  0  0  0  0
   -2.6041   -0.9478    0.0000 C   0  0  0  0  0  0  0  0  0  0  0  0
   -3.1513    0.5558    0.0000 H   0  0  0  0  0  0  0  0  0  0  0  0
    0.8001    1.3856    0.0000 C   0  0  0  0  0  0  0  0  0  0  0  0
    1.5999    2.7713    0.0000 H   0  0  0  0  0  0  0  0  0  0  0  0
    2.3756    1.6634    0.0000 H   0  0  0  0  0  0  0  0  0  0  0  0
    0.2527    2.8891    0.0000 H   0  0  0  0  0  0  0  0  0  0  0  0
   -1.3856    0.8000    0.0000 C   0  0  0  0  0  0  0  0  0  0  0  0
   -2.7712    1.6000    0.0000 H   0  0  0  0  0  0  0  0  0  0  0  0
   -1.3856    2.4001    0.0000 H   0  0  0  0  0  0  0  0  0  0  0  0
   -0.1600    1.8285    0.0000 H   0  0  0  0  0  0  0  0  0  0  0  0
    1.3856   -0.8001    0.0000 C   0  0  0  0  0  0  0  0  0  0  0  0
    2.8891   -0.2527    0.0000 H   0  0  0  0  0  0  0  0  0  0  0  0
    1.6634    0.7756    0.0000 H   0  0  0  0  0  0  0  0  0  0  0  0
    0.0000   -1.5999    0.0000 H   0  0  0  0  0  0  0  0  0  0  0  0
  1  2  1  0  0  0  0
  2  3  1  0  0  0  0
  3  4  1  0  0  0  0
  4  5  1  0  0  0  0
  3  6  2  0  0  0  0
  6  7  1  0  0  0  0
  7  8  1  0  0  0  0
  8  9  1  0  0  0  0
  8 10  1  0  0  0  0
  8 11  1  0  0  0  0
  7 12  1  0  0  0  0
 12 13  1  0  0  0  0
 12 14  1  0  0  0  0
 12 15  1  0  0  0  0
  7 16  1  0  0  0  0
 16 17  1  0  0  0  0
 16 18  1  0  0  0  0
 16 19  1  0  0  0  0
  6 20  1  0  0  0  0
 20 21  1  0  0  0  0
 20 22  2  0  0  0  0
 22 23  1  0  0  0  0
 23 24  1  0  0  0  0
 23 25  1  0  0  0  0
 23 26  1  0  0  0  0
 26 27  1  0  0  0  0
 27 28  1  0  0  0  0
 27 29  2  0  0  0  0
 29 30  1  0  0  0  0
 30 31  1  0  0  0  0
 31 32  1  0  0  0  0
 31 33  1  0  0  0  0
 31 34  1  0  0  0  0
 30 35  1  0  0  0  0
 35 36  1  0  0  0  0
 35 37  1  0  0  0  0
 35 38  1  0  0  0  0
 30 39  1  0  0  0  0
 39 40  1  0  0  0  0
 39 41  1  0  0  0  0
 39 42  1  0  0  0  0
 29 43  1  0  0  0  0
 43 44  1  0  0  0  0
 44 45  1  0  0  0  0
 43 46  2  0  0  0  0
 46 47  1  0  0  0  0
 47 48  1  0  0  0  0
 48 49  1  0  0  0  0
 48 50  1  0  0  0  0
 48 51  1  0  0  0  0
 47 52  1  0  0  0  0
 52 53  1  0  0  0  0
 52 54  1  0  0  0  0
 52 55  1  0  0  0  0
 47 56  1  0  0  0  0
 56 57  1  0  0  0  0
 56 58  1  0  0  0  0
 56 59  1  0  0  0  0
 46 60  1  0  0  0  0
 60 26  2  0  0  0  0
 60 61  1  0  0  0  0
 22 62  1  0  0  0  0
 62  2  2  0  0  0  0
 62 63  1  0  0  0  0
  1 64  1  0  0  0  0
 64 65  1  0  0  0  0
 64 66  1  0  0  0  0
 64 67  1  0  0  0  0
  1 68  1  0  0  0  0
 68 69  1  0  0  0  0
 68 70  1  0  0  0  0
 68 71  1  0  0  0  0
  1 72  1  0  0  0  0
 72 73  1  0  0  0  0
 72 74  1  0  0  0  0
 72 75  1  0  0  0  0
M  END
> <ChemID>
100580

> <source_casrn>
118-82-1

> <CAS>
118-82-1

> <SMILES>
Oc(c(cc(c1)Cc(cc(c(O)c2C(C)(C)C)C(C)(C)C)c2)C(C)(C)C)c1C(C)(C)C

> <NAME>
Phenol, 4,4'-methylenebis 2,6-bis(1,1-dimethylethyl)-

> <preferred_name>
4,4'-Methylenebis(2,6-di-t-butylphenol)

> <iupac>
4,4'-methanediylbis(2,6-di-tert-butylphenol)

> <MPID>
100590

> <dsstox_substance_id>
DTXSID7022411

> <Canonical_QSARr>
CC(C)(C)c1cc(Cc2cc(c(O)c(c2)C(C)(C)C)C(C)(C)C)cc(c1O)C(C)(C)C

> <InChI_Code_QSARr>
InChI=1S/C29H44O2/c1-26(2,3)20-14-18(15-21(24(20)30)27(4,5)6)13-19-16-22(28(7,8)9)25(31)23(17-19)29(10,11)12/h14-17,30-31H,13H2,1-12H3

> <InChI Key_QSARr>
MDWVSAYEQPLWMX-UHFFFAOYSA-N

> <Salt_Solvent>
?

> <Ready_Biodeg>
0.0

$$$$
100581
  -INDIGO-08031722522D

 17 17  0  0  0  0  0  0  0  0999 V2000
   -4.1569    0.8000    0.0000 Cl  0  0  0  0  0  0  0  0  0  0  0  0
   -2.7713   -0.0000    0.0000 C   0  0  0  0  0  0  0  0  0  0  0  0
   -1.3856    0.8000    0.0000 C   0  0  0  0  0  0  0  0  0  0  0  0
   -1.3856    2.4000    0.0000 H   0  0  0  0  0  0  0  0  0  0  0  0
    0.0000   -0.0000    0.0000 C   0  0  0  0  0  0  0  0  0  0  0  0
    1.3856    0.8000    0.0000 C   0  0  0  0  0  0  0  0  0  0  0  0
    2.7713    1.6000    0.0000 F   0  0  0  0  0  0  0  0  0  0  0  0
    1.3856    2.4000    0.0000 F   0  0  0  0  0  0  0  0  0  0  0  0
    2.7713   -0.0000    0.0000 F   0  0  0  0  0  0  0  0  0  0  0  0
    0.0000   -1.6000    0.0000 C   0  0  0  0  0  0  0  0  0  0  0  0
    1.3856   -2.4000    0.0000 N   0  0  0  0  0  0  0  0  0  0  0  0
    1.3856   -4.0000    0.0000 O   0  0  0  0  0  0  0  0  0  0  0  0
    2.7713   -1.6000    0.0000 O   0  0  0  0  0  0  0  0  0  0  0  0
   -1.3856   -2.4000    0.0000 C   0  0  0  0  0  0  0  0  0  0  0  0
   -1.3856   -4.0000    0.0000 H   0  0  0  0  0  0  0  0  0  0  0  0
   -2.7713   -1.6000    0.0000 C   0  0  0  0  0  0  0  0  0  0  0  0
   -4.1569   -2.4000    0.0000 H   0  0  0  0  0  0  0  0  0  0  0  0
  1  2  1  0  0  0  0
  2  3  1  0  0  0  0
  3  4  1  0  0  0  0
  3  5  2  0  0  0  0
  5  6  1  0  0  0  0
  6  7  1  0  0  0  0
  6  8  1  0  0  0  0
  6  9  1  0  0  0  0
  5 10  1  0  0  0  0
 10 11  1  0  0  0  0
 11 12  1  0  0  0  0
 11 13  2  0  0  0  0
 10 14  2  0  0  0  0
 14 15  1  0  0  0  0
 14 16  1  0  0  0  0
 16  2  2  0  0  0  0
 16 17  1  0  0  0  0
M  CHG  2  11   1  12  -1
M  END
> <ChemID>
100581

> <source_casrn>
118-83-2

> <CAS>
118-83-2

> <SMILES>
C(F)(F)(F)c1cc(Cl)ccc1N(=O)=O

> <NAME>
4-Chloro-1-nitro-2(trifluoromethyl)benzene

> <preferred_name>
5-Chloro-alpha,alpha,alpha-trifluoro-2-nitrotoluene

> <iupac>
4-chloro-1-nitro-2-(trifluoromethyl)benzene

> <MPID>
100591

> <dsstox_substance_id>
DTXSID30151998

> <Canonical_QSARr>
[O-][N+](=O)c1ccc(Cl)cc1C(F)(F)F

> <InChI_Code_QSARr>
InChI=1S/C7H3ClF3NO2/c8-4-1-2-6(12(13)14)5(3-4)7(9,10)11/h1-3H

> <InChI Key_QSARr>
CFPIGEXZPWTNOR-UHFFFAOYSA-N

> <Salt_Solvent>
?

> <Ready_Biodeg>
0.0

$$$$
100583
  -INDIGO-08031722522D

 15 15  0  0  0  0  0  0  0  0999 V2000
   -1.3856    0.8000    0.0000 C   0  0  0  0  0  0  0  0  0  0  0  0
   -1.3856    2.4000    0.0000 O   0  0  0  0  0  0  0  0  0  0  0  0
   -2.7713   -0.0000    0.0000 O   0  0  0  0  0  0  0  0  0  0  0  0
   -4.1569    0.8000    0.0000 H   0  0  0  0  0  0  0  0  0  0  0  0
   -0.0001   -0.0000    0.0000 C   0  0  0  0  0  0  0  0  0  0  0  0
   -0.0001   -1.6000    0.0000 C   0  0  0  0  0  0  0  0  0  0  0  0
   -1.3856   -2.4000    0.0000 H   0  0  0  0  0  0  0  0  0  0  0  0
    1.3856   -2.4000    0.0000 C   0  0  0  0  0  0  0  0  0  0  0  0
    1.3856   -4.0000    0.0000 H   0  0  0  0  0  0  0  0  0  0  0  0
    2.7713   -1.6000    0.0000 C   0  0  0  0  0  0  0  0  0  0  0  0
    4.1569   -2.4000    0.0000 H   0  0  0  0  0  0  0  0  0  0  0  0
    2.7712   -0.0000    0.0000 C   0  0  0  0  0  0  0  0  0  0  0  0
    4.1569    0.8000    0.0000 H   0  0  0  0  0  0  0  0  0  0  0  0
    1.3856    0.8000    0.0000 C   0  0  0  0  0  0  0  0  0  0  0  0
    1.3856    2.4000    0.0000 Cl  0  0  0  0  0  0  0  0  0  0  0  0
  1  2  2  0  0  0  0
  1  3  1  0  0  0  0
  3  4  1  0  0  0  0
  1  5  1  0  0  0  0
  5  6  1  0  0  0  0
  6  7  1  0  0  0  0
  6  8  2  0  0  0  0
  8  9  1  0  0  0  0
  8 10  1  0  0  0  0
 10 11  1  0  0  0  0
 10 12  2  0  0  0  0
 12 13  1  0  0  0  0
 12 14  1  0  0  0  0
 14  5  2  0  0  0  0
 14 15  1  0  0  0  0
M  END
> <ChemID>
100583

> <source_casrn>
118-91-2

> <CAS>
118-91-2

> <SMILES>
OC(=O)c1ccccc1Cl

> <NAME>
2-Chlorobenzoic acid

> <preferred_name>
2-Chlorobenzoic acid

> <iupac>
2-chlorobenzoic acid

> <MPID>
100593

> <dsstox_substance_id>
DTXSID4024771

> <Canonical_QSARr>
OC(=O)c1ccccc1Cl

> <InChI_Code_QSARr>
InChI=1S/C7H5ClO2/c8-6-4-2-1-3-5(6)7(9)10/h1-4H,(H,9,10)

> <InChI Key_QSARr>
IKCLCGXPQILATA-UHFFFAOYSA-N

> <Salt_Solvent>
?

> <Ready_Biodeg>
0.0

$$$$
100584
  -INDIGO-08031722522D

 17 17  0  0  0  0  0  0  0  0999 V2000
    0.0000    2.7713    0.0000 N   0  0  0  0  0  0  0  0  0  0  0  0
    0.8000    4.1569    0.0000 H   0  0  0  0  0  0  0  0  0  0  0  0
   -1.6000    2.7713    0.0000 H   0  0  0  0  0  0  0  0  0  0  0  0
    0.8000    1.3856    0.0000 C   0  0  0  0  0  0  0  0  0  0  0  0
    0.0000    0.0000    0.0000 C   0  0  0  0  0  0  0  0  0  0  0  0
   -1.6000    0.0000    0.0000 C   0  0  0  0  0  0  0  0  0  0  0  0
   -2.4001    1.3856    0.0000 O   0  0  0  0  0  0  0  0  0  0  0  0
   -2.4001   -1.3856    0.0000 O   0  0  0  0  0  0  0  0  0  0  0  0
   -4.0000   -1.3856    0.0000 H   0  0  0  0  0  0  0  0  0  0  0  0
    0.8000   -1.3856    0.0000 C   0  0  0  0  0  0  0  0  0  0  0  0
    0.0000   -2.7713    0.0000 H   0  0  0  0  0  0  0  0  0  0  0  0
    2.4000   -1.3856    0.0000 C   0  0  0  0  0  0  0  0  0  0  0  0
    3.2001   -2.7713    0.0000 H   0  0  0  0  0  0  0  0  0  0  0  0
    3.2001    0.0000    0.0000 C   0  0  0  0  0  0  0  0  0  0  0  0
    4.8000    0.0000    0.0000 H   0  0  0  0  0  0  0  0  0  0  0  0
    2.4000    1.3856    0.0000 C   0  0  0  0  0  0  0  0  0  0  0  0
    3.2001    2.7713    0.0000 H   0  0  0  0  0  0  0  0  0  0  0  0
  1  2  1  0  0  0  0
  1  3  1  0  0  0  0
  1  4  1  0  0  0  0
  4  5  1  0  0  0  0
  5  6  1  0  0  0  0
  6  7  2  0  0  0  0
  6  8  1  0  0  0  0
  8  9  1  0  0  0  0
  5 10  2  0  0  0  0
 10 11  1  0  0  0  0
 10 12  1  0  0  0  0
 12 13  1  0  0  0  0
 12 14  2  0  0  0  0
 14 15  1  0  0  0  0
 14 16  1  0  0  0  0
 16  4  2  0  0  0  0
 16 17  1  0  0  0  0
M  END
> <ChemID>
100584

> <source_casrn>
118-92-3

> <CAS>
118-92-3

> <SMILES>
Nc1ccccc1C(O)=O

> <NAME>
o-Aminobenzoic acid

> <preferred_name>
Anthranilic acid

> <iupac>
2-aminobenzoic acid

> <MPID>
100594

> <dsstox_substance_id>
DTXSID8020094

> <Canonical_QSARr>
Nc1ccccc1C(O)=O

> <InChI_Code_QSARr>
InChI=1S/C7H7NO2/c8-6-4-2-1-3-5(6)7(9)10/h1-4H,8H2,(H,9,10)

> <InChI Key_QSARr>
RWZYAGGXGHYGMB-UHFFFAOYSA-N

> <Salt_Solvent>
?

> <Ready_Biodeg>
1.0

$$$$
100585
  -INDIGO-08031722522D

 18 18  0  0  0  0  0  0  0  0999 V2000
    2.7713   -1.6000    0.0000 C   0  0  0  0  0  0  0  0  0  0  0  0
    4.1569   -2.4000    0.0000 O   0  0  0  0  0  0  0  0  0  0  0  0
    4.1569   -4.0000    0.0000 H   0  0  0  0  0  0  0  0  0  0  0  0
    2.7713   -0.0000    0.0000 C   0  0  0  0  0  0  0  0  0  0  0  0
    4.1570    0.8000    0.0000 N   0  0  0  0  0  0  0  0  0  0  0  0
    5.5426   -0.0000    0.0000 O   0  0  0  0  0  0  0  0  0  0  0  0
    4.1570    2.4000    0.0000 O   0  0  0  0  0  0  0  0  0  0  0  0
    1.3857    0.8000    0.0000 C   0  0  0  0  0  0  0  0  0  0  0  0
    1.3857    2.4000    0.0000 H   0  0  0  0  0  0  0  0  0  0  0  0
    0.0000   -0.0000    0.0000 C   0  0  0  0  0  0  0  0  0  0  0  0
   -1.3856    0.8000    0.0000 C   0  0  0  0  0  0  0  0  0  0  0  0
   -2.7713    1.6000    0.0000 H   0  0  0  0  0  0  0  0  0  0  0  0
   -2.7713   -0.0000    0.0000 H   0  0  0  0  0  0  0  0  0  0  0  0
   -1.3856    2.4000    0.0000 H   0  0  0  0  0  0  0  0  0  0  0  0
    0.0000   -1.6000    0.0000 C   0  0  0  0  0  0  0  0  0  0  0  0
   -1.3856   -2.4000    0.0000 H   0  0  0  0  0  0  0  0  0  0  0  0
    1.3857   -2.4000    0.0000 C   0  0  0  0  0  0  0  0  0  0  0  0
    1.3857   -4.0000    0.0000 H   0  0  0  0  0  0  0  0  0  0  0  0
  1  2  1  0  0  0  0
  2  3  1  0  0  0  0
  1  4  1  0  0  0  0
  4  5  1  0  0  0  0
  5  6  1  0  0  0  0
  5  7  2  0  0  0  0
  4  8  2  0  0  0  0
  8  9  1  0  0  0  0
  8 10  1  0  0  0  0
 10 11  1  0  0  0  0
 11 12  1  0  0  0  0
 11 13  1  0  0  0  0
 11 14  1  0  0  0  0
 10 15  2  0  0  0  0
 15 16  1  0  0  0  0
 15 17  1  0  0  0  0
 17  1  2  0  0  0  0
 17 18  1  0  0  0  0
M  CHG  2   5   1   6  -1
M  END
> <ChemID>
100585

> <source_casrn>
119-33-5

> <CAS>
119-33-5

> <SMILES>
Cc1cc(c(O)cc1)[N+]([O-])=O

> <NAME>
Phenol, 4-methyl-2-nitro-

> <preferred_name>
4-Methyl-2-nitrophenol

> <iupac>
4-methyl-2-nitrophenol

> <MPID>
100595

> <dsstox_substance_id>
DTXSID0026961

> <Canonical_QSARr>
Cc1cc(c(O)cc1)[N+]([O-])=O

> <InChI_Code_QSARr>
InChI=1S/C7H7NO3/c1-5-2-3-7(9)6(4-5)8(10)11/h2-4,9H,1H3

> <InChI Key_QSARr>
SYDNSSSQVSOXTN-UHFFFAOYSA-N

> <Salt_Solvent>
?

> <Ready_Biodeg>
0.0

$$$$
100587
  -INDIGO-08031722522D

 28 29  0  0  0  0  0  0  0  0999 V2000
    4.1569   -0.8000    0.0000 C   0  0  0  0  0  0  0  0  0  0  0  0
    5.5426    0.0001    0.0000 H   0  0  0  0  0  0  0  0  0  0  0  0
    4.1569   -2.4000    0.0000 C   0  0  0  0  0  0  0  0  0  0  0  0
    5.5426   -3.2000    0.0000 H   0  0  0  0  0  0  0  0  0  0  0  0
    2.7713   -3.2000    0.0000 C   0  0  0  0  0  0  0  0  0  0  0  0
    2.7713   -4.8000    0.0000 H   0  0  0  0  0  0  0  0  0  0  0  0
    1.3856   -2.4000    0.0000 C   0  0  0  0  0  0  0  0  0  0  0  0
   -0.0001   -3.2000    0.0000 H   0  0  0  0  0  0  0  0  0  0  0  0
    1.3856   -0.8000    0.0000 C   0  0  0  0  0  0  0  0  0  0  0  0
   -0.0001    0.0001    0.0000 C   0  0  0  0  0  0  0  0  0  0  0  0
   -0.8000   -1.3856    0.0000 H   0  0  0  0  0  0  0  0  0  0  0  0
   -1.3856    0.8000    0.0000 C   0  0  0  0  0  0  0  0  0  0  0  0
   -2.7713    0.0001    0.0000 C   0  0  0  0  0  0  0  0  0  0  0  0
   -2.7713   -1.6000    0.0000 C   0  0  0  0  0  0  0  0  0  0  0  0
   -1.3856   -2.4000    0.0000 H   0  0  0  0  0  0  0  0  0  0  0  0
   -4.1570   -2.4000    0.0000 C   0  0  0  0  0  0  0  0  0  0  0  0
   -4.1570   -4.0000    0.0000 H   0  0  0  0  0  0  0  0  0  0  0  0
   -5.5425   -1.6000    0.0000 C   0  0  0  0  0  0  0  0  0  0  0  0
   -6.9282   -2.4000    0.0000 H   0  0  0  0  0  0  0  0  0  0  0  0
   -5.5425    0.0001    0.0000 C   0  0  0  0  0  0  0  0  0  0  0  0
   -6.9282    0.8000    0.0000 H   0  0  0  0  0  0  0  0  0  0  0  0
   -4.1570    0.8000    0.0000 C   0  0  0  0  0  0  0  0  0  0  0  0
   -4.1570    2.4000    0.0000 H   0  0  0  0  0  0  0  0  0  0  0  0
   -1.3856    2.4000    0.0000 O   0  0  0  0  0  0  0  0  0  0  0  0
    0.7999    1.3856    0.0000 O   0  0  0  0  0  0  0  0  0  0  0  0
   -0.0001    2.7713    0.0000 H   0  0  0  0  0  0  0  0  0  0  0  0
    2.7713    0.0001    0.0000 C   0  0  0  0  0  0  0  0  0  0  0  0
    2.7713    1.6000    0.0000 H   0  0  0  0  0  0  0  0  0  0  0  0
  1  2  1  0  0  0  0
  1  3  1  0  0  0  0
  3  4  1  0  0  0  0
  3  5  2  0  0  0  0
  5  6  1  0  0  0  0
  5  7  1  0  0  0  0
  7  8  1  0  0  0  0
  7  9  2  0  0  0  0
  9 10  1  0  0  0  0
 10 11  1  0  0  0  0
 10 12  1  0  0  0  0
 12 13  1  0  0  0  0
 13 14  1  0  0  0  0
 14 15  1  0  0  0  0
 14 16  2  0  0  0  0
 16 17  1  0  0  0  0
 16 18  1  0  0  0  0
 18 19  1  0  0  0  0
 18 20  2  0  0  0  0
 20 21  1  0  0  0  0
 20 22  1  0  0  0  0
 22 13  2  0  0  0  0
 22 23  1  0  0  0  0
 12 24  2  0  0  0  0
 10 25  1  0  0  0  0
 25 26  1  0  0  0  0
  9 27  1  0  0  0  0
 27  1  2  0  0  0  0
 27 28  1  0  0  0  0
M  END
> <ChemID>
100587

> <source_casrn>
119-53-9

> <CAS>
119-53-9

> <SMILES>
OC(C(=O)c1ccccc1)c1ccccc1

> <NAME>
Ethanone, 2-hydroxy-1,2-diphenyl-

> <preferred_name>
Benzoin

> <iupac>
2-hydroxy-1,2-diphenylethanone

> <MPID>
100597

> <dsstox_substance_id>
DTXSID1020144

> <Canonical_QSARr>
OC(C(=O)c1ccccc1)c1ccccc1

> <InChI_Code_QSARr>
InChI=1S/C14H12O2/c15-13(11-7-3-1-4-8-11)14(16)12-9-5-2-6-10-12/h1-10,13,15H

> <InChI Key_QSARr>
ISAOCJYIOMOJEB-UHFFFAOYSA-N

> <Salt_Solvent>
?

> <Ready_Biodeg>
1.0

$$$$
100588
  -INDIGO-08031722522D

 24 25  0  0  0  0  0  0  0  0999 V2000
   -0.5473   -1.5035    0.0000 C   0  0  0  0  0  0  0  0  0  0  0  0
    0.4812   -2.7292    0.0000 H   0  0  0  0  0  0  0  0  0  0  0  0
   -2.1229   -1.7813    0.0000 C   0  0  0  0  0  0  0  0  0  0  0  0
   -2.6702   -3.2849    0.0000 H   0  0  0  0  0  0  0  0  0  0  0  0
   -3.1513   -0.5556    0.0000 C   0  0  0  0  0  0  0  0  0  0  0  0
   -4.7271   -0.8335    0.0000 H   0  0  0  0  0  0  0  0  0  0  0  0
   -2.6042    0.9479    0.0000 C   0  0  0  0  0  0  0  0  0  0  0  0
   -3.6326    2.1735    0.0000 H   0  0  0  0  0  0  0  0  0  0  0  0
   -1.0284    1.2257    0.0000 C   0  0  0  0  0  0  0  0  0  0  0  0
   -0.4813    2.7292    0.0000 H   0  0  0  0  0  0  0  0  0  0  0  0
    0.0000    0.0000    0.0000 C   0  0  0  0  0  0  0  0  0  0  0  0
    1.5756    0.2779    0.0000 C   0  0  0  0  0  0  0  0  0  0  0  0
    1.8536    1.8535    0.0000 O   0  0  0  0  0  0  0  0  0  0  0  0
    2.9614   -0.5221    0.0000 C   0  0  0  0  0  0  0  0  0  0  0  0
    2.9614   -2.1222    0.0000 C   0  0  0  0  0  0  0  0  0  0  0  0
    1.5756   -2.9222    0.0000 H   0  0  0  0  0  0  0  0  0  0  0  0
    4.3470   -2.9222    0.0000 C   0  0  0  0  0  0  0  0  0  0  0  0
    4.3470   -4.5222    0.0000 H   0  0  0  0  0  0  0  0  0  0  0  0
    5.7326   -2.1222    0.0000 C   0  0  0  0  0  0  0  0  0  0  0  0
    7.1183   -2.9222    0.0000 H   0  0  0  0  0  0  0  0  0  0  0  0
    5.7326   -0.5221    0.0000 C   0  0  0  0  0  0  0  0  0  0  0  0
    7.1183    0.2779    0.0000 H   0  0  0  0  0  0  0  0  0  0  0  0
    4.3470    0.2779    0.0000 C   0  0  0  0  0  0  0  0  0  0  0  0
    4.3470    1.8779    0.0000 H   0  0  0  0  0  0  0  0  0  0  0  0
  1  2  1  0  0  0  0
  1  3  1  0  0  0  0
  3  4  1  0  0  0  0
  3  5  2  0  0  0  0
  5  6  1  0  0  0  0
  5  7  1  0  0  0  0
  7  8  1  0  0  0  0
  7  9  2  0  0  0  0
  9 10  1  0  0  0  0
  9 11  1  0  0  0  0
 11  1  2  0  0  0  0
 11 12  1  0  0  0  0
 12 13  2  0  0  0  0
 12 14  1  0  0  0  0
 14 15  1  0  0  0  0
 15 16  1  0  0  0  0
 15 17  2  0  0  0  0
 17 18  1  0  0  0  0
 17 19  1  0  0  0  0
 19 20  1  0  0  0  0
 19 21  2  0  0  0  0
 21 22  1  0  0  0  0
 21 23  1  0  0  0  0
 23 14  2  0  0  0  0
 23 24  1  0  0  0  0
M  END
> <ChemID>
100588

> <source_casrn>
119-61-9

> <CAS>
119-61-9

> <SMILES>
O=C(c1ccccc1)c1ccccc1

> <NAME>
Methanone, diphenyl-

> <preferred_name>
Benzophenone

> <iupac>
diphenylmethanone

> <MPID>
100598

> <dsstox_substance_id>
DTXSID0021961

> <Canonical_QSARr>
O=C(c1ccccc1)c1ccccc1

> <InChI_Code_QSARr>
InChI=1S/C13H10O/c14-13(11-7-3-1-4-8-11)12-9-5-2-6-10-12/h1-10H

> <InChI Key_QSARr>
RWCCWEUUXYIKHB-UHFFFAOYSA-N

> <Salt_Solvent>
?

> <Ready_Biodeg>
0.0

$$$$
100589
  -INDIGO-08031722522D

 22 23  0  0  0  0  0  0  0  0999 V2000
   -2.7713    1.6000    0.0000 C   0  0  0  0  0  0  0  0  0  0  0  0
   -1.3856    2.4000    0.0000 C   0  0  0  0  0  0  0  0  0  0  0  0
   -2.4141    3.6257    0.0000 H   0  0  0  0  0  0  0  0  0  0  0  0
   -0.3572    3.6257    0.0000 H   0  0  0  0  0  0  0  0  0  0  0  0
    0.0000    1.6000    0.0000 C   0  0  0  0  0  0  0  0  0  0  0  0
    0.5472    3.1035    0.0000 H   0  0  0  0  0  0  0  0  0  0  0  0
    1.5757    1.3221    0.0000 H   0  0  0  0  0  0  0  0  0  0  0  0
    0.0000    0.0000    0.0000 C   0  0  0  0  0  0  0  0  0  0  0  0
    1.5757    0.2779    0.0000 H   0  0  0  0  0  0  0  0  0  0  0  0
    0.5472   -1.5035    0.0000 H   0  0  0  0  0  0  0  0  0  0  0  0
   -1.3856   -0.8000    0.0000 C   0  0  0  0  0  0  0  0  0  0  0  0
   -0.3572   -2.0257    0.0000 H   0  0  0  0  0  0  0  0  0  0  0  0
   -2.4141   -2.0257    0.0000 H   0  0  0  0  0  0  0  0  0  0  0  0
   -2.7713    0.0000    0.0000 C   0  0  0  0  0  0  0  0  0  0  0  0
   -4.1569   -0.8000    0.0000 C   0  0  0  0  0  0  0  0  0  0  0  0
   -4.1569   -2.4000    0.0000 H   0  0  0  0  0  0  0  0  0  0  0  0
   -5.5426    0.0000    0.0000 C   0  0  0  0  0  0  0  0  0  0  0  0
   -6.9282   -0.8000    0.0000 H   0  0  0  0  0  0  0  0  0  0  0  0
   -5.5426    1.6000    0.0000 C   0  0  0  0  0  0  0  0  0  0  0  0
   -6.9282    2.4000    0.0000 H   0  0  0  0  0  0  0  0  0  0  0  0
   -4.1569    2.4000    0.0000 C   0  0  0  0  0  0  0  0  0  0  0  0
   -4.1569    4.0000    0.0000 H   0  0  0  0  0  0  0  0  0  0  0  0
  1  2  1  0  0  0  0
  2  3  1  0  0  0  0
  2  4  1  0  0  0  0
  2  5  1  0  0  0  0
  5  6  1  0  0  0  0
  5  7  1  0  0  0  0
  5  8  1  0  0  0  0
  8  9  1  0  0  0  0
  8 10  1  0  0  0  0
  8 11  1  0  0  0  0
 11 12  1  0  0  0  0
 11 13  1  0  0  0  0
 11 14  1  0  0  0  0
 14  1  1  0  0  0  0
 14 15  2  0  0  0  0
 15 16  1  0  0  0  0
 15 17  1  0  0  0  0
 17 18  1  0  0  0  0
 17 19  2  0  0  0  0
 19 20  1  0  0  0  0
 19 21  1  0  0  0  0
 21  1  2  0  0  0  0
 21 22  1  0  0  0  0
M  END
> <ChemID>
100589

> <source_casrn>
119-64-2

> <CAS>
119-64-2

> <SMILES>
C1CCCc2ccccc21

> <NAME>
Naphthalene, 1,2,3,4-tetrahydro-

> <preferred_name>
Tetralin

> <iupac>
1,2,3,4-tetrahydronaphthalene

> <MPID>
100599

> <dsstox_substance_id>
DTXSID1026118

> <Canonical_QSARr>
C1CCCc2ccccc21

> <InChI_Code_QSARr>
InChI=1S/C10H12/c1-2-6-10-8-4-3-7-9(10)5-1/h1-2,5-6H,3-4,7-8H2

> <InChI Key_QSARr>
CXWXQJXEFPUFDZ-UHFFFAOYSA-N

> <Salt_Solvent>
?

> <Ready_Biodeg>
0.0

$$$$
100591
  -INDIGO-08031722522D

 34 35  0  0  0  0  0  0  0  0999 V2000
    3.2001   -2.7713    0.0000 O   0  0  0  0  0  0  0  0  0  0  0  0
    2.4000   -1.3856    0.0000 C   0  0  0  0  0  0  0  0  0  0  0  0
    3.2001    0.0000    0.0000 C   0  0  0  0  0  0  0  0  0  0  0  0
    4.7999    0.0000    0.0000 N   0  0  0  0  0  0  0  0  0  0  0  0
    5.6000    1.3856    0.0000 H   0  0  0  0  0  0  0  0  0  0  0  0
    5.6000   -1.3856    0.0000 H   0  0  0  0  0  0  0  0  0  0  0  0
    2.4000    1.3856    0.0000 C   0  0  0  0  0  0  0  0  0  0  0  0
    3.2001    2.7713    0.0000 H   0  0  0  0  0  0  0  0  0  0  0  0
    0.8000    1.3856    0.0000 C   0  0  0  0  0  0  0  0  0  0  0  0
   -0.0001    2.7713    0.0000 H   0  0  0  0  0  0  0  0  0  0  0  0
   -0.0001    0.0000    0.0000 C   0  0  0  0  0  0  0  0  0  0  0  0
   -1.5999    0.0000    0.0000 C   0  0  0  0  0  0  0  0  0  0  0  0
   -2.4000    1.3856    0.0000 C   0  0  0  0  0  0  0  0  0  0  0  0
   -1.5999    2.7713    0.0000 H   0  0  0  0  0  0  0  0  0  0  0  0
   -4.0000    1.3856    0.0000 C   0  0  0  0  0  0  0  0  0  0  0  0
   -4.8001    2.7713    0.0000 H   0  0  0  0  0  0  0  0  0  0  0  0
   -4.8001    0.0000    0.0000 C   0  0  0  0  0  0  0  0  0  0  0  0
   -6.3999    0.0000    0.0000 N   0  0  0  0  0  0  0  0  0  0  0  0
   -7.2000    1.3856    0.0000 H   0  0  0  0  0  0  0  0  0  0  0  0
   -7.2000   -1.3856    0.0000 H   0  0  0  0  0  0  0  0  0  0  0  0
   -4.0000   -1.3856    0.0000 C   0  0  0  0  0  0  0  0  0  0  0  0
   -4.8001   -2.7713    0.0000 O   0  0  0  0  0  0  0  0  0  0  0  0
   -6.3999   -2.7713    0.0000 C   0  0  0  0  0  0  0  0  0  0  0  0
   -7.2000   -4.1569    0.0000 H   0  0  0  0  0  0  0  0  0  0  0  0
   -8.0000   -2.7713    0.0000 H   0  0  0  0  0  0  0  0  0  0  0  0
   -5.5999   -4.1569    0.0000 H   0  0  0  0  0  0  0  0  0  0  0  0
   -2.4000   -1.3856    0.0000 C   0  0  0  0  0  0  0  0  0  0  0  0
   -1.5999   -2.7713    0.0000 H   0  0  0  0  0  0  0  0  0  0  0  0
    0.8000   -1.3856    0.0000 C   0  0  0  0  0  0  0  0  0  0  0  0
   -0.0001   -2.7713    0.0000 H   0  0  0  0  0  0  0  0  0  0  0  0
    4.7999   -2.7713    0.0000 C   0  0  0  0  0  0  0  0  0  0  0  0
    5.6000   -4.1569    0.0000 H   0  0  0  0  0  0  0  0  0  0  0  0
    6.4000   -2.7713    0.0000 H   0  0  0  0  0  0  0  0  0  0  0  0
    4.0001   -4.1569    0.0000 H   0  0  0  0  0  0  0  0  0  0  0  0
  1  2  1  0  0  0  0
  2  3  1  0  0  0  0
  3  4  1  0  0  0  0
  4  5  1  0  0  0  0
  4  6  1  0  0  0  0
  3  7  2  0  0  0  0
  7  8  1  0  0  0  0
  7  9  1  0  0  0  0
  9 10  1  0  0  0  0
  9 11  2  0  0  0  0
 11 12  1  0  0  0  0
 12 13  1  0  0  0  0
 13 14  1  0  0  0  0
 13 15  2  0  0  0  0
 15 16  1  0  0  0  0
 15 17  1  0  0  0  0
 17 18  1  0  0  0  0
 18 19  1  0  0  0  0
 18 20  1  0  0  0  0
 17 21  2  0  0  0  0
 21 22  1  0  0  0  0
 22 23  1  0  0  0  0
 23 24  1  0  0  0  0
 23 25  1  0  0  0  0
 23 26  1  0  0  0  0
 21 27  1  0  0  0  0
 27 12  2  0  0  0  0
 27 28  1  0  0  0  0
 11 29  1  0  0  0  0
 29  2  2  0  0  0  0
 29 30  1  0  0  0  0
  1 31  1  0  0  0  0
 31 32  1  0  0  0  0
 31 33  1  0  0  0  0
 31 34  1  0  0  0  0
M  END
> <ChemID>
100591

> <source_casrn>
119-90-4

> <CAS>
119-90-4

> <SMILES>
COc1cc(ccc1N)-c1cc(OC)c(N)cc1

> <NAME>
1,1'-Biphenyl -4,4'-diamine, 3,3'-dimethoxy-

> <preferred_name>
3,3'-Dimethoxybenzidine

> <iupac>
3,3'-dimethoxybiphenyl-4,4'-diamine

> <MPID>
100601

> <dsstox_substance_id>
DTXSID3025091

> <Canonical_QSARr>
COc1cc(ccc1N)-c1cc(OC)c(N)cc1

> <InChI_Code_QSARr>
InChI=1S/C14H16N2O2/c1-17-13-7-9(3-5-11(13)15)10-4-6-12(16)14(8-10)18-2/h3-8H,15-16H2,1-2H3

> <InChI Key_QSARr>
JRBJSXQPQWSCCF-UHFFFAOYSA-N

> <Salt_Solvent>
?

> <Ready_Biodeg>
0.0

$$$$
100592
  -INDIGO-08031722522D

 32 33  0  0  0  0  0  0  0  0999 V2000
    0.0001   -0.0001    0.0000 C   0  0  0  0  0  0  0  0  0  0  0  0
    1.5999   -0.0001    0.0000 C   0  0  0  0  0  0  0  0  0  0  0  0
    2.3999   -1.3856    0.0000 C   0  0  0  0  0  0  0  0  0  0  0  0
    1.5999   -2.7713    0.0000 H   0  0  0  0  0  0  0  0  0  0  0  0
    4.0000   -1.3856    0.0000 C   0  0  0  0  0  0  0  0  0  0  0  0
    4.8000   -2.7712    0.0000 C   0  0  0  0  0  0  0  0  0  0  0  0
    5.6000   -4.1569    0.0000 H   0  0  0  0  0  0  0  0  0  0  0  0
    6.4000   -2.7712    0.0000 H   0  0  0  0  0  0  0  0  0  0  0  0
    4.0000   -4.1569    0.0000 H   0  0  0  0  0  0  0  0  0  0  0  0
    4.8000    0.0001    0.0000 C   0  0  0  0  0  0  0  0  0  0  0  0
    6.4000    0.0001    0.0000 N   0  0  0  0  0  0  0  0  0  0  0  0
    7.2000    1.3856    0.0000 H   0  0  0  0  0  0  0  0  0  0  0  0
    7.2000   -1.3856    0.0000 H   0  0  0  0  0  0  0  0  0  0  0  0
    4.0000    1.3856    0.0000 C   0  0  0  0  0  0  0  0  0  0  0  0
    4.8000    2.7713    0.0000 H   0  0  0  0  0  0  0  0  0  0  0  0
    2.3999    1.3856    0.0000 C   0  0  0  0  0  0  0  0  0  0  0  0
    1.5999    2.7713    0.0000 H   0  0  0  0  0  0  0  0  0  0  0  0
   -0.7999    1.3856    0.0000 C   0  0  0  0  0  0  0  0  0  0  0  0
    0.0001    2.7713    0.0000 H   0  0  0  0  0  0  0  0  0  0  0  0
   -2.4000    1.3856    0.0000 C   0  0  0  0  0  0  0  0  0  0  0  0
   -3.2000    2.7713    0.0000 C   0  0  0  0  0  0  0  0  0  0  0  0
   -4.0000    4.1569    0.0000 H   0  0  0  0  0  0  0  0  0  0  0  0
   -4.8000    2.7713    0.0000 H   0  0  0  0  0  0  0  0  0  0  0  0
   -2.4000    4.1569    0.0000 H   0  0  0  0  0  0  0  0  0  0  0  0
   -3.2000   -0.0001    0.0000 C   0  0  0  0  0  0  0  0  0  0  0  0
   -4.8000   -0.0001    0.0000 N   0  0  0  0  0  0  0  0  0  0  0  0
   -5.6000   -1.3856    0.0000 H   0  0  0  0  0  0  0  0  0  0  0  0
   -5.6000    1.3856    0.0000 H   0  0  0  0  0  0  0  0  0  0  0  0
   -2.4000   -1.3856    0.0000 C   0  0  0  0  0  0  0  0  0  0  0  0
   -3.2000   -2.7712    0.0000 H   0  0  0  0  0  0  0  0  0  0  0  0
   -0.7999   -1.3856    0.0000 C   0  0  0  0  0  0  0  0  0  0  0  0
    0.0001   -2.7712    0.0000 H   0  0  0  0  0  0  0  0  0  0  0  0
  1  2  1  0  0  0  0
  2  3  1  0  0  0  0
  3  4  1  0  0  0  0
  3  5  2  0  0  0  0
  5  6  1  0  0  0  0
  6  7  1  0  0  0  0
  6  8  1  0  0  0  0
  6  9  1  0  0  0  0
  5 10  1  0  0  0  0
 10 11  1  0  0  0  0
 11 12  1  0  0  0  0
 11 13  1  0  0  0  0
 10 14  2  0  0  0  0
 14 15  1  0  0  0  0
 14 16  1  0  0  0  0
 16  2  2  0  0  0  0
 16 17  1  0  0  0  0
  1 18  1  0  0  0  0
 18 19  1  0  0  0  0
 18 20  2  0  0  0  0
 20 21  1  0  0  0  0
 21 22  1  0  0  0  0
 21 23  1  0  0  0  0
 21 24  1  0  0  0  0
 20 25  1  0  0  0  0
 25 26  1  0  0  0  0
 26 27  1  0  0  0  0
 26 28  1  0  0  0  0
 25 29  2  0  0  0  0
 29 30  1  0  0  0  0
 29 31  1  0  0  0  0
 31  1  2  0  0  0  0
 31 32  1  0  0  0  0
M  END
> <ChemID>
100592

> <source_casrn>
119-93-7

> <CAS>
119-93-7

> <SMILES>
Cc1cc(ccc1N)-c1cc(C)c(N)cc1

> <NAME>
1,1'-Biphenyl -4,4'-diamine, 3,3'-dimethyl-

> <preferred_name>
3,3'-Dimethylbenzidine

> <iupac>
3,3'-dimethylbiphenyl-4,4'-diamine

> <MPID>
100602

> <dsstox_substance_id>
DTXSID5024059

> <Canonical_QSARr>
Cc1cc(ccc1N)-c1cc(C)c(N)cc1

> <InChI_Code_QSARr>
InChI=1S/C14H16N2/c1-9-7-11(3-5-13(9)15)12-4-6-14(16)10(2)8-12/h3-8H,15-16H2,1-2H3

> <InChI Key_QSARr>
NUIURNJTPRWVAP-UHFFFAOYSA-N

> <Salt_Solvent>
?

> <Ready_Biodeg>
0.0

$$$$
100594
  -INDIGO-08031722522D

 24 26  0  0  0  0  0  0  0  0999 V2000
   -1.3856    0.8000    0.0000 C   0  0  0  0  0  0  0  0  0  0  0  0
   -1.3856    2.4000    0.0000 H   0  0  0  0  0  0  0  0  0  0  0  0
   -2.7712   -0.0000    0.0000 C   0  0  0  0  0  0  0  0  0  0  0  0
   -2.7712   -1.6000    0.0000 C   0  0  0  0  0  0  0  0  0  0  0  0
   -4.1569   -2.4000    0.0000 C   0  0  0  0  0  0  0  0  0  0  0  0
   -4.1569   -4.0000    0.0000 H   0  0  0  0  0  0  0  0  0  0  0  0
   -5.5425   -1.6000    0.0000 C   0  0  0  0  0  0  0  0  0  0  0  0
   -6.9282   -2.4000    0.0000 H   0  0  0  0  0  0  0  0  0  0  0  0
   -5.5425   -0.0000    0.0000 C   0  0  0  0  0  0  0  0  0  0  0  0
   -6.9282    0.8000    0.0000 H   0  0  0  0  0  0  0  0  0  0  0  0
   -4.1569    0.8000    0.0000 C   0  0  0  0  0  0  0  0  0  0  0  0
   -4.1569    2.4000    0.0000 H   0  0  0  0  0  0  0  0  0  0  0  0
   -1.3856   -2.4000    0.0000 C   0  0  0  0  0  0  0  0  0  0  0  0
   -1.3856   -4.0000    0.0000 H   0  0  0  0  0  0  0  0  0  0  0  0
   -0.0001   -1.6000    0.0000 C   0  0  0  0  0  0  0  0  0  0  0  0
   -0.0001   -0.0000    0.0000 C   0  0  0  0  0  0  0  0  0  0  0  0
    1.3856    0.8000    0.0000 C   0  0  0  0  0  0  0  0  0  0  0  0
    1.3856    2.4000    0.0000 H   0  0  0  0  0  0  0  0  0  0  0  0
    2.7713   -0.0000    0.0000 C   0  0  0  0  0  0  0  0  0  0  0  0
    4.1569    0.8000    0.0000 H   0  0  0  0  0  0  0  0  0  0  0  0
    2.7713   -1.6000    0.0000 C   0  0  0  0  0  0  0  0  0  0  0  0
    4.1569   -2.4000    0.0000 H   0  0  0  0  0  0  0  0  0  0  0  0
    1.3856   -2.4000    0.0000 C   0  0  0  0  0  0  0  0  0  0  0  0
    1.3856   -4.0000    0.0000 H   0  0  0  0  0  0  0  0  0  0  0  0
  1  2  1  0  0  0  0
  1  3  1  0  0  0  0
  3  4  1  0  0  0  0
  4  5  2  0  0  0  0
  5  6  1  0  0  0  0
  5  7  1  0  0  0  0
  7  8  1  0  0  0  0
  7  9  2  0  0  0  0
  9 10  1  0  0  0  0
  9 11  1  0  0  0  0
 11  3  2  0  0  0  0
 11 12  1  0  0  0  0
  4 13  1  0  0  0  0
 13 14  1  0  0  0  0
 13 15  2  0  0  0  0
 15 16  1  0  0  0  0
 16  1  2  0  0  0  0
 16 17  1  0  0  0  0
 17 18  1  0  0  0  0
 17 19  2  0  0  0  0
 19 20  1  0  0  0  0
 19 21  1  0  0  0  0
 21 22  1  0  0  0  0
 21 23  2  0  0  0  0
 23 15  1  0  0  0  0
 23 24  1  0  0  0  0
M  END
> <ChemID>
100594

> <source_casrn>
120-12-7

> <CAS>
120-12-7

> <SMILES>
c1c2ccccc2cc2ccccc21

> <NAME>
Anthracene

> <preferred_name>
Anthracene

> <iupac>
anthracene

> <MPID>
100603

> <dsstox_substance_id>
DTXSID0023878

> <Canonical_QSARr>
c1c2ccccc2cc2ccccc21

> <InChI_Code_QSARr>
InChI=1S/C14H10/c1-2-6-12-10-14-8-4-3-7-13(14)9-11(12)5-1/h1-10H

> <InChI Key_QSARr>
MWPLVEDNUUSJAV-UHFFFAOYSA-N

> <Salt_Solvent>
?

> <Ready_Biodeg>
0.0

$$$$
100596
  -INDIGO-08031722522D

 53 52  0  0  0  0  0  0  0  0999 V2000
    8.0361   -1.5757    0.0000 O   0  0  0  0  0  0  0  0  0  0  0  0
    8.3139    0.0001    0.0000 C   0  0  0  0  0  0  0  0  0  0  0  0
    9.8175    0.5472    0.0000 N   0  0  0  0  0  0  0  0  0  0  0  0
   11.0430   -0.4813    0.0000 C   0  0  0  0  0  0  0  0  0  0  0  0
   12.6415   -0.5510    0.0000 H   0  0  0  0  0  0  0  0  0  0  0  0
   12.2228    0.5997    0.0000 H   0  0  0  0  0  0  0  0  0  0  0  0
   10.7652   -2.0569    0.0000 C   0  0  0  0  0  0  0  0  0  0  0  0
    9.1666   -1.9872    0.0000 H   0  0  0  0  0  0  0  0  0  0  0  0
    9.5857   -3.1378    0.0000 H   0  0  0  0  0  0  0  0  0  0  0  0
   11.9910   -3.0854    0.0000 O   0  0  0  0  0  0  0  0  0  0  0  0
   11.7129   -4.6611    0.0000 H   0  0  0  0  0  0  0  0  0  0  0  0
   10.0953    2.1229    0.0000 C   0  0  0  0  0  0  0  0  0  0  0  0
    8.5692    2.6041    0.0000 H   0  0  0  0  0  0  0  0  0  0  0  0
    9.3563    3.5422    0.0000 H   0  0  0  0  0  0  0  0  0  0  0  0
   11.5988    2.6702    0.0000 C   0  0  0  0  0  0  0  0  0  0  0  0
   12.4584    4.0196    0.0000 H   0  0  0  0  0  0  0  0  0  0  0  0
   11.2523    4.2322    0.0000 H   0  0  0  0  0  0  0  0  0  0  0  0
   12.8243    1.6417    0.0000 O   0  0  0  0  0  0  0  0  0  0  0  0
   14.3279    2.1889    0.0000 H   0  0  0  0  0  0  0  0  0  0  0  0
    6.9282    0.8000    0.0000 C   0  0  0  0  0  0  0  0  0  0  0  0
    6.3160    2.2782    0.0000 H   0  0  0  0  0  0  0  0  0  0  0  0
    7.5404    2.2782    0.0000 H   0  0  0  0  0  0  0  0  0  0  0  0
    5.5424    0.0001    0.0000 C   0  0  0  0  0  0  0  0  0  0  0  0
    6.1550   -1.4782    0.0000 H   0  0  0  0  0  0  0  0  0  0  0  0
    4.9302   -1.4782    0.0000 H   0  0  0  0  0  0  0  0  0  0  0  0
    4.1570    0.8000    0.0000 C   0  0  0  0  0  0  0  0  0  0  0  0
    3.5448    2.2782    0.0000 H   0  0  0  0  0  0  0  0  0  0  0  0
    4.7692    2.2782    0.0000 H   0  0  0  0  0  0  0  0  0  0  0  0
    2.7712    0.0001    0.0000 C   0  0  0  0  0  0  0  0  0  0  0  0
    3.3834   -1.4782    0.0000 H   0  0  0  0  0  0  0  0  0  0  0  0
    2.1590   -1.4782    0.0000 H   0  0  0  0  0  0  0  0  0  0  0  0
    1.3858    0.8000    0.0000 C   0  0  0  0  0  0  0  0  0  0  0  0
    0.7732    2.2782    0.0000 H   0  0  0  0  0  0  0  0  0  0  0  0
    1.9980    2.2782    0.0000 H   0  0  0  0  0  0  0  0  0  0  0  0
    0.0000    0.0001    0.0000 C   0  0  0  0  0  0  0  0  0  0  0  0
    0.6122   -1.4782    0.0000 H   0  0  0  0  0  0  0  0  0  0  0  0
   -0.6122   -1.4782    0.0000 H   0  0  0  0  0  0  0  0  0  0  0  0
   -1.3857    0.8000    0.0000 C   0  0  0  0  0  0  0  0  0  0  0  0
   -1.9979    2.2782    0.0000 H   0  0  0  0  0  0  0  0  0  0  0  0
   -0.7735    2.2782    0.0000 H   0  0  0  0  0  0  0  0  0  0  0  0
   -2.7711    0.0001    0.0000 C   0  0  0  0  0  0  0  0  0  0  0  0
   -2.1589   -1.4782    0.0000 H   0  0  0  0  0  0  0  0  0  0  0  0
   -3.3837   -1.4782    0.0000 H   0  0  0  0  0  0  0  0  0  0  0  0
   -4.1569    0.8000    0.0000 C   0  0  0  0  0  0  0  0  0  0  0  0
   -4.7691    2.2782    0.0000 H   0  0  0  0  0  0  0  0  0  0  0  0
   -3.5447    2.2782    0.0000 H   0  0  0  0  0  0  0  0  0  0  0  0
   -5.5427    0.0001    0.0000 C   0  0  0  0  0  0  0  0  0  0  0  0
   -4.9301   -1.4782    0.0000 H   0  0  0  0  0  0  0  0  0  0  0  0
   -6.1549   -1.4782    0.0000 H   0  0  0  0  0  0  0  0  0  0  0  0
   -6.9281    0.8000    0.0000 C   0  0  0  0  0  0  0  0  0  0  0  0
   -8.3138    1.6000    0.0000 H   0  0  0  0  0  0  0  0  0  0  0  0
   -8.3138    0.0001    0.0000 H   0  0  0  0  0  0  0  0  0  0  0  0
   -6.9281    2.4000    0.0000 H   0  0  0  0  0  0  0  0  0  0  0  0
  1  2  2  0  0  0  0
  2  3  1  0  0  0  0
  3  4  1  0  0  0  0
  4  5  1  0  0  0  0
  4  6  1  0  0  0  0
  4  7  1  0  0  0  0
  7  8  1  0  0  0  0
  7  9  1  0  0  0  0
  7 10  1  0  0  0  0
 10 11  1  0  0  0  0
  3 12  1  0  0  0  0
 12 13  1  0  0  0  0
 12 14  1  0  0  0  0
 12 15  1  0  0  0  0
 15 16  1  0  0  0  0
 15 17  1  0  0  0  0
 15 18  1  0  0  0  0
 18 19  1  0  0  0  0
  2 20  1  0  0  0  0
 20 21  1  0  0  0  0
 20 22  1  0  0  0  0
 20 23  1  0  0  0  0
 23 24  1  0  0  0  0
 23 25  1  0  0  0  0
 23 26  1  0  0  0  0
 26 27  1  0  0  0  0
 26 28  1  0  0  0  0
 26 29  1  0  0  0  0
 29 30  1  0  0  0  0
 29 31  1  0  0  0  0
 29 32  1  0  0  0  0
 32 33  1  0  0  0  0
 32 34  1  0  0  0  0
 32 35  1  0  0  0  0
 35 36  1  0  0  0  0
 35 37  1  0  0  0  0
 35 38  1  0  0  0  0
 38 39  1  0  0  0  0
 38 40  1  0  0  0  0
 38 41  1  0  0  0  0
 41 42  1  0  0  0  0
 41 43  1  0  0  0  0
 41 44  1  0  0  0  0
 44 45  1  0  0  0  0
 44 46  1  0  0  0  0
 44 47  1  0  0  0  0
 47 48  1  0  0  0  0
 47 49  1  0  0  0  0
 47 50  1  0  0  0  0
 50 51  1  0  0  0  0
 50 52  1  0  0  0  0
 50 53  1  0  0  0  0
M  END
> <ChemID>
100596

> <source_casrn>
120-40-1

> <CAS>
120-40-1

> <SMILES>
O=C(N(CCO)CCO)CCCCCCCCCCC

> <NAME>
Dodecanamide, N,N-bis(2-hydroxyethyl)-

> <preferred_name>
N,N-Bis(2-hydroxyethyl)dodecanamide

> <iupac>
N,N-bis(2-hydroxyethyl)dodecanamide

> <MPID>
100605

> <dsstox_substance_id>
DTXSID5025491

> <Canonical_QSARr>
CCCCCCCCCCCC(=O)N(CCO)CCO

> <InChI_Code_QSARr>
InChI=1S/C16H33NO3/c1-2-3-4-5-6-7-8-9-10-11-16(20)17(12-14-18)13-15-19/h18-19H,2-15H2,1H3

> <InChI Key_QSARr>
AOMUHOFOVNGZAN-UHFFFAOYSA-N

> <Salt_Solvent>
?

> <Ready_Biodeg>
1.0

$$$$
100597
  -INDIGO-08031722522D

 29 30  0  0  0  0  0  0  0  0999 V2000
   -2.7712   -0.0000    0.0000 C   0  0  0  0  0  0  0  0  0  0  0  0
   -2.7714   -1.6000    0.0000 C   0  0  0  0  0  0  0  0  0  0  0  0
   -1.3856   -2.4000    0.0000 H   0  0  0  0  0  0  0  0  0  0  0  0
   -4.1569   -2.4000    0.0000 C   0  0  0  0  0  0  0  0  0  0  0  0
   -4.1569   -4.0000    0.0000 H   0  0  0  0  0  0  0  0  0  0  0  0
   -5.5427   -1.6000    0.0000 C   0  0  0  0  0  0  0  0  0  0  0  0
   -6.9282   -2.4000    0.0000 H   0  0  0  0  0  0  0  0  0  0  0  0
   -5.5425   -0.0000    0.0000 C   0  0  0  0  0  0  0  0  0  0  0  0
   -6.9282    0.8000    0.0000 H   0  0  0  0  0  0  0  0  0  0  0  0
   -4.1569    0.8000    0.0000 C   0  0  0  0  0  0  0  0  0  0  0  0
   -4.1569    2.4000    0.0000 H   0  0  0  0  0  0  0  0  0  0  0  0
   -1.3856    0.8000    0.0000 C   0  0  0  0  0  0  0  0  0  0  0  0
    0.0001   -0.0000    0.0000 C   0  0  0  0  0  0  0  0  0  0  0  0
   -0.6122   -1.4782    0.0000 H   0  0  0  0  0  0  0  0  0  0  0  0
    0.6122   -1.4782    0.0000 H   0  0  0  0  0  0  0  0  0  0  0  0
    1.3856    0.8000    0.0000 C   0  0  0  0  0  0  0  0  0  0  0  0
    1.3856    2.4000    0.0000 O   0  0  0  0  0  0  0  0  0  0  0  0
    2.7714   -0.0000    0.0000 C   0  0  0  0  0  0  0  0  0  0  0  0
    4.1569    0.8000    0.0000 C   0  0  0  0  0  0  0  0  0  0  0  0
    4.1569    2.4000    0.0000 H   0  0  0  0  0  0  0  0  0  0  0  0
    5.5427   -0.0000    0.0000 C   0  0  0  0  0  0  0  0  0  0  0  0
    6.9282    0.8000    0.0000 H   0  0  0  0  0  0  0  0  0  0  0  0
    5.5427   -1.6000    0.0000 C   0  0  0  0  0  0  0  0  0  0  0  0
    6.9282   -2.4000    0.0000 H   0  0  0  0  0  0  0  0  0  0  0  0
    4.1569   -2.4000    0.0000 C   0  0  0  0  0  0  0  0  0  0  0  0
    4.1569   -4.0000    0.0000 H   0  0  0  0  0  0  0  0  0  0  0  0
    2.7714   -1.6000    0.0000 C   0  0  0  0  0  0  0  0  0  0  0  0
    1.3856   -2.4000    0.0000 H   0  0  0  0  0  0  0  0  0  0  0  0
   -1.3856    2.4000    0.0000 O   0  0  0  0  0  0  0  0  0  0  0  0
  1  2  1  0  0  0  0
  2  3  1  0  0  0  0
  2  4  2  0  0  0  0
  4  5  1  0  0  0  0
  4  6  1  0  0  0  0
  6  7  1  0  0  0  0
  6  8  2  0  0  0  0
  8  9  1  0  0  0  0
  8 10  1  0  0  0  0
 10  1  2  0  0  0  0
 10 11  1  0  0  0  0
  1 12  1  0  0  0  0
 12 13  1  0  0  0  0
 13 14  1  0  0  0  0
 13 15  1  0  0  0  0
 13 16  1  0  0  0  0
 16 17  2  0  0  0  0
 16 18  1  0  0  0  0
 18 19  1  0  0  0  0
 19 20  1  0  0  0  0
 19 21  2  0  0  0  0
 21 22  1  0  0  0  0
 21 23  1  0  0  0  0
 23 24  1  0  0  0  0
 23 25  2  0  0  0  0
 25 26  1  0  0  0  0
 25 27  1  0  0  0  0
 27 18  2  0  0  0  0
 27 28  1  0  0  0  0
 12 29  2  0  0  0  0
M  END
> <ChemID>
100597

> <source_casrn>
120-46-7

> <CAS>
120-46-7

> <SMILES>
O=C(CC(=O)c1ccccc1)c1ccccc1

> <NAME>
1,3-Propanedione, 1,3-diphenyl-

> <preferred_name>
1,3-Diphenyl-1,3-propanedione

> <iupac>
1,3-diphenylpropane-1,3-dione

> <MPID>
100606

> <dsstox_substance_id>
DTXSID3041247

> <Canonical_QSARr>
O=C(CC(=O)c1ccccc1)c1ccccc1

> <InChI_Code_QSARr>
InChI=1S/C15H12O2/c16-14(12-7-3-1-4-8-12)11-15(17)13-9-5-2-6-10-13/h1-10H,11H2

> <InChI Key_QSARr>
NZZIMKJIVMHWJC-UHFFFAOYSA-N

> <Salt_Solvent>
?

> <Ready_Biodeg>
1.0

$$$$
100598
  -INDIGO-08031722522D

 22 22  0  0  0  0  0  0  0  0999 V2000
   -1.3856    0.8000    0.0000 C   0  0  0  0  0  0  0  0  0  0  0  0
   -0.0001   -0.0000    0.0000 C   0  0  0  0  0  0  0  0  0  0  0  0
   -0.0001   -1.6000    0.0000 C   0  0  0  0  0  0  0  0  0  0  0  0
   -1.3856   -2.4000    0.0000 H   0  0  0  0  0  0  0  0  0  0  0  0
    1.3856   -2.4000    0.0000 C   0  0  0  0  0  0  0  0  0  0  0  0
    1.3856   -4.0000    0.0000 H   0  0  0  0  0  0  0  0  0  0  0  0
    2.7713   -1.6000    0.0000 C   0  0  0  0  0  0  0  0  0  0  0  0
    4.1569   -2.4000    0.0000 O   0  0  0  0  0  0  0  0  0  0  0  0
    5.5426   -1.6000    0.0000 H   0  0  0  0  0  0  0  0  0  0  0  0
    2.7713   -0.0000    0.0000 C   0  0  0  0  0  0  0  0  0  0  0  0
    4.1569    0.8000    0.0000 H   0  0  0  0  0  0  0  0  0  0  0  0
    1.3856    0.8000    0.0000 C   0  0  0  0  0  0  0  0  0  0  0  0
    1.3856    2.4000    0.0000 H   0  0  0  0  0  0  0  0  0  0  0  0
   -1.3856    2.4000    0.0000 O   0  0  0  0  0  0  0  0  0  0  0  0
   -2.7713   -0.0000    0.0000 O   0  0  0  0  0  0  0  0  0  0  0  0
   -4.1570    0.8000    0.0000 C   0  0  0  0  0  0  0  0  0  0  0  0
   -4.7692    2.2782    0.0000 H   0  0  0  0  0  0  0  0  0  0  0  0
   -3.5446    2.2782    0.0000 H   0  0  0  0  0  0  0  0  0  0  0  0
   -5.5425   -0.0000    0.0000 C   0  0  0  0  0  0  0  0  0  0  0  0
   -6.9282   -0.8000    0.0000 H   0  0  0  0  0  0  0  0  0  0  0  0
   -6.9282    0.8000    0.0000 H   0  0  0  0  0  0  0  0  0  0  0  0
   -5.5425   -1.6000    0.0000 H   0  0  0  0  0  0  0  0  0  0  0  0
  1  2  1  0  0  0  0
  2  3  1  0  0  0  0
  3  4  1  0  0  0  0
  3  5  2  0  0  0  0
  5  6  1  0  0  0  0
  5  7  1  0  0  0  0
  7  8  1  0  0  0  0
  8  9  1  0  0  0  0
  7 10  2  0  0  0  0
 10 11  1  0  0  0  0
 10 12  1  0  0  0  0
 12  2  2  0  0  0  0
 12 13  1  0  0  0  0
  1 14  2  0  0  0  0
  1 15  1  0  0  0  0
 15 16  1  0  0  0  0
 16 17  1  0  0  0  0
 16 18  1  0  0  0  0
 16 19  1  0  0  0  0
 19 20  1  0  0  0  0
 19 21  1  0  0  0  0
 19 22  1  0  0  0  0
M  END
> <ChemID>
100598

> <source_casrn>
120-47-8

> <CAS>
120-47-8

> <SMILES>
CCOC(=O)c1ccc(O)cc1

> <NAME>
ETHYL P-HYDROXYBENZOATE

> <preferred_name>
Ethylparaben

> <iupac>
ethyl 4-hydroxybenzoate

> <MPID>
100607

> <dsstox_substance_id>
DTXSID9022528

> <Canonical_QSARr>
CCOC(=O)c1ccc(O)cc1

> <InChI_Code_QSARr>
InChI=1S/C9H10O3/c1-2-12-9(11)7-3-5-8(10)6-4-7/h3-6,10H,2H2,1H3

> <InChI Key_QSARr>
NUVBSKCKDOMJSU-UHFFFAOYSA-N

> <Salt_Solvent>
?

> <Ready_Biodeg>
1.0

$$$$
100600
  -INDIGO-08031722522D

 17 18  0  0  0  0  0  0  0  0999 V2000
    4.1569    0.8000    0.0000 C   0  0  0  0  0  0  0  0  0  0  0  0
    5.5426   -0.0000    0.0000 H   0  0  0  0  0  0  0  0  0  0  0  0
    4.1569    2.4000    0.0000 O   0  0  0  0  0  0  0  0  0  0  0  0
    2.7713   -0.0000    0.0000 C   0  0  0  0  0  0  0  0  0  0  0  0
    2.7713   -1.6000    0.0000 C   0  0  0  0  0  0  0  0  0  0  0  0
    4.1569   -2.4000    0.0000 H   0  0  0  0  0  0  0  0  0  0  0  0
    1.3857   -2.4000    0.0000 C   0  0  0  0  0  0  0  0  0  0  0  0
    1.3857   -4.0000    0.0000 H   0  0  0  0  0  0  0  0  0  0  0  0
   -0.0001   -1.6000    0.0000 C   0  0  0  0  0  0  0  0  0  0  0  0
   -0.0001   -0.0000    0.0000 C   0  0  0  0  0  0  0  0  0  0  0  0
   -1.5218    0.4944    0.0000 O   0  0  0  0  0  0  0  0  0  0  0  0
   -2.4621   -0.8000    0.0000 C   0  0  0  0  0  0  0  0  0  0  0  0
   -3.6512   -1.8706    0.0000 H   0  0  0  0  0  0  0  0  0  0  0  0
   -3.6512    0.2706    0.0000 H   0  0  0  0  0  0  0  0  0  0  0  0
   -1.5218   -2.0944    0.0000 O   0  0  0  0  0  0  0  0  0  0  0  0
    1.3857    0.8000    0.0000 C   0  0  0  0  0  0  0  0  0  0  0  0
    1.3857    2.4000    0.0000 H   0  0  0  0  0  0  0  0  0  0  0  0
  1  2  1  0  0  0  0
  1  3  2  0  0  0  0
  1  4  1  0  0  0  0
  4  5  1  0  0  0  0
  5  6  1  0  0  0  0
  5  7  2  0  0  0  0
  7  8  1  0  0  0  0
  7  9  1  0  0  0  0
  9 10  2  0  0  0  0
 10 11  1  0  0  0  0
 11 12  1  0  0  0  0
 12 13  1  0  0  0  0
 12 14  1  0  0  0  0
 12 15  1  0  0  0  0
 15  9  1  0  0  0  0
 10 16  1  0  0  0  0
 16  4  2  0  0  0  0
 16 17  1  0  0  0  0
M  END
> <ChemID>
100600

> <source_casrn>
120-57-0

> <CAS>
120-57-0

> <SMILES>
O=Cc1cc2OCOc2cc1

> <NAME>
1,3-Benzodioxole-5-carboxaldehyde

> <preferred_name>
Piperonal

> <iupac>
1,3-benzodioxole-5-carbaldehyde

> <MPID>
100609

> <dsstox_substance_id>
DTXSID7025924

> <Canonical_QSARr>
O=Cc1cc2OCOc2cc1

> <InChI_Code_QSARr>
InChI=1S/C8H6O3/c9-4-6-1-2-7-8(3-6)11-5-10-7/h1-4H,5H2

> <InChI Key_QSARr>
SATCULPHIDQDRE-UHFFFAOYSA-N

> <Salt_Solvent>
?

> <Ready_Biodeg>
1.0

$$$$
100601
  -INDIGO-08031722522D

 24 24  0  0  0  0  0  0  0  0999 V2000
   -2.4001    1.3856    0.0000 O   0  0  0  0  0  0  0  0  0  0  0  0
   -1.6000   -0.0000    0.0000 C   0  0  0  0  0  0  0  0  0  0  0  0
    0.0000    0.0000    0.0000 C   0  0  0  0  0  0  0  0  0  0  0  0
    0.8001    1.3856    0.0000 C   0  0  0  0  0  0  0  0  0  0  0  0
    0.0000    2.7713    0.0000 H   0  0  0  0  0  0  0  0  0  0  0  0
    2.3999    1.3856    0.0000 C   0  0  0  0  0  0  0  0  0  0  0  0
    3.2000    2.7713    0.0000 H   0  0  0  0  0  0  0  0  0  0  0  0
    3.2000    0.0000    0.0000 C   0  0  0  0  0  0  0  0  0  0  0  0
    4.8000   -0.0000    0.0000 C   0  0  0  0  0  0  0  0  0  0  0  0
    5.6001   -1.3856    0.0000 O   0  0  0  0  0  0  0  0  0  0  0  0
    5.6001    1.3856    0.0000 O   0  0  0  0  0  0  0  0  0  0  0  0
    7.1999    1.3856    0.0000 C   0  0  0  0  0  0  0  0  0  0  0  0
    8.8000    1.3856    0.0000 H   0  0  0  0  0  0  0  0  0  0  0  0
    8.0000    2.7713    0.0000 H   0  0  0  0  0  0  0  0  0  0  0  0
    8.0000   -0.0000    0.0000 H   0  0  0  0  0  0  0  0  0  0  0  0
    2.3999   -1.3856    0.0000 C   0  0  0  0  0  0  0  0  0  0  0  0
    3.2000   -2.7713    0.0000 H   0  0  0  0  0  0  0  0  0  0  0  0
    0.8001   -1.3856    0.0000 C   0  0  0  0  0  0  0  0  0  0  0  0
    0.0000   -2.7713    0.0000 H   0  0  0  0  0  0  0  0  0  0  0  0
   -2.4001   -1.3856    0.0000 O   0  0  0  0  0  0  0  0  0  0  0  0
   -3.9999   -1.3856    0.0000 C   0  0  0  0  0  0  0  0  0  0  0  0
   -5.6000   -1.3856    0.0000 H   0  0  0  0  0  0  0  0  0  0  0  0
   -4.8000   -2.7713    0.0000 H   0  0  0  0  0  0  0  0  0  0  0  0
   -4.8000   -0.0000    0.0000 H   0  0  0  0  0  0  0  0  0  0  0  0
  1  2  2  0  0  0  0
  2  3  1  0  0  0  0
  3  4  1  0  0  0  0
  4  5  1  0  0  0  0
  4  6  2  0  0  0  0
  6  7  1  0  0  0  0
  6  8  1  0  0  0  0
  8  9  1  0  0  0  0
  9 10  2  0  0  0  0
  9 11  1  0  0  0  0
 11 12  1  0  0  0  0
 12 13  1  0  0  0  0
 12 14  1  0  0  0  0
 12 15  1  0  0  0  0
  8 16  2  0  0  0  0
 16 17  1  0  0  0  0
 16 18  1  0  0  0  0
 18  3  2  0  0  0  0
 18 19  1  0  0  0  0
  2 20  1  0  0  0  0
 20 21  1  0  0  0  0
 21 22  1  0  0  0  0
 21 23  1  0  0  0  0
 21 24  1  0  0  0  0
M  END
> <ChemID>
100601

> <source_casrn>
120-61-6

> <CAS>
120-61-6

> <SMILES>
COC(=O)c1ccc(cc1)C(=O)OC

> <NAME>
1,4-Benzenedicarboxylic acid, dimethyl ester

> <preferred_name>
Dimethyl terephthalate

> <iupac>
dimethyl benzene-1,4-dicarboxylate

> <MPID>
100610

> <dsstox_substance_id>
DTXSID0020498

> <Canonical_QSARr>
COC(=O)c1ccc(cc1)C(=O)OC

> <InChI_Code_QSARr>
InChI=1S/C10H10O4/c1-13-9(11)7-3-5-8(6-4-7)10(12)14-2/h3-6H,1-2H3

> <InChI Key_QSARr>
WOZVHXUHUFLZGK-UHFFFAOYSA-N

> <Salt_Solvent>
?

> <Ready_Biodeg>
1.0

$$$$
100602
  -INDIGO-08031722522D

 21 21  0  0  0  0  0  0  0  0999 V2000
   -3.2000    2.7713    0.0000 N   0  0  0  0  0  0  0  0  0  0  0  0
   -2.4000    4.1569    0.0000 H   0  0  0  0  0  0  0  0  0  0  0  0
   -4.8001    2.7713    0.0000 H   0  0  0  0  0  0  0  0  0  0  0  0
   -2.4000    1.3856    0.0000 C   0  0  0  0  0  0  0  0  0  0  0  0
   -0.8000    1.3856    0.0000 C   0  0  0  0  0  0  0  0  0  0  0  0
   -0.0001    2.7713    0.0000 H   0  0  0  0  0  0  0  0  0  0  0  0
   -0.0001    0.0000    0.0000 C   0  0  0  0  0  0  0  0  0  0  0  0
    1.6000    0.0000    0.0000 C   0  0  0  0  0  0  0  0  0  0  0  0
    3.2000    0.0000    0.0000 H   0  0  0  0  0  0  0  0  0  0  0  0
    2.4000   -1.3856    0.0000 H   0  0  0  0  0  0  0  0  0  0  0  0
    2.4000    1.3856    0.0000 H   0  0  0  0  0  0  0  0  0  0  0  0
   -0.8000   -1.3856    0.0000 C   0  0  0  0  0  0  0  0  0  0  0  0
   -0.0001   -2.7713    0.0000 H   0  0  0  0  0  0  0  0  0  0  0  0
   -2.4000   -1.3856    0.0000 C   0  0  0  0  0  0  0  0  0  0  0  0
   -3.2000   -2.7713    0.0000 H   0  0  0  0  0  0  0  0  0  0  0  0
   -3.2000    0.0000    0.0000 C   0  0  0  0  0  0  0  0  0  0  0  0
   -4.8001    0.0000    0.0000 O   0  0  0  0  0  0  0  0  0  0  0  0
   -5.6000   -1.3856    0.0000 C   0  0  0  0  0  0  0  0  0  0  0  0
   -7.2000   -1.3856    0.0000 H   0  0  0  0  0  0  0  0  0  0  0  0
   -6.4000   -2.7713    0.0000 H   0  0  0  0  0  0  0  0  0  0  0  0
   -6.4000    0.0000    0.0000 H   0  0  0  0  0  0  0  0  0  0  0  0
  1  2  1  0  0  0  0
  1  3  1  0  0  0  0
  1  4  1  0  0  0  0
  4  5  1  0  0  0  0
  5  6  1  0  0  0  0
  5  7  2  0  0  0  0
  7  8  1  0  0  0  0
  8  9  1  0  0  0  0
  8 10  1  0  0  0  0
  8 11  1  0  0  0  0
  7 12  1  0  0  0  0
 12 13  1  0  0  0  0
 12 14  2  0  0  0  0
 14 15  1  0  0  0  0
 14 16  1  0  0  0  0
 16  4  2  0  0  0  0
 16 17  1  0  0  0  0
 17 18  1  0  0  0  0
 18 19  1  0  0  0  0
 18 20  1  0  0  0  0
 18 21  1  0  0  0  0
M  END
> <ChemID>
100602

> <source_casrn>
120-71-8

> <CAS>
120-71-8

> <SMILES>
Cc1ccc(OC)c(N)c1

> <NAME>
Benzenamine, 2-methoxy-5-methyl-

> <preferred_name>
2-Methoxy-5-methylaniline

> <iupac>
2-methoxy-5-methylaniline

> <MPID>
100611

> <dsstox_substance_id>
DTXSID1020350

> <Canonical_QSARr>
Cc1ccc(OC)c(N)c1

> <InChI_Code_QSARr>
InChI=1S/C8H11NO/c1-6-3-4-8(10-2)7(9)5-6/h3-5H,9H2,1-2H3

> <InChI Key_QSARr>
WXWCDTXEKCVRRO-UHFFFAOYSA-N

> <Salt_Solvent>
?

> <Ready_Biodeg>
0.0

$$$$
100604
  -INDIGO-08031722522D

 28 31  0  0  0  0  0  0  0  0999 V2000
   -1.5218   -0.4944    0.0000 N   0  0  0  0  0  0  0  0  0  0  0  0
   -2.4621    0.8000    0.0000 C   0  0  0  0  0  0  0  0  0  0  0  0
   -4.0622    0.8000    0.0000 S   0  0  0  0  0  0  0  0  0  0  0  0
   -4.8621   -0.5856    0.0000 S   0  0  0  0  0  0  0  0  0  0  0  0
   -6.4621   -0.5856    0.0000 C   0  0  0  0  0  0  0  0  0  0  0  0
   -7.4025   -1.8801    0.0000 N   0  0  0  0  0  0  0  0  0  0  0  0
   -8.9242   -1.3856    0.0000 C   0  0  0  0  0  0  0  0  0  0  0  0
   -8.9242    0.2144    0.0000 C   0  0  0  0  0  0  0  0  0  0  0  0
  -10.3099    1.0144    0.0000 C   0  0  0  0  0  0  0  0  0  0  0  0
  -10.3099    2.6143    0.0000 H   0  0  0  0  0  0  0  0  0  0  0  0
  -11.6955    0.2144    0.0000 C   0  0  0  0  0  0  0  0  0  0  0  0
  -13.0812    1.0144    0.0000 H   0  0  0  0  0  0  0  0  0  0  0  0
  -11.6955   -1.3856    0.0000 C   0  0  0  0  0  0  0  0  0  0  0  0
  -13.0812   -2.1856    0.0000 H   0  0  0  0  0  0  0  0  0  0  0  0
  -10.3099   -2.1856    0.0000 C   0  0  0  0  0  0  0  0  0  0  0  0
  -10.3099   -3.7856    0.0000 H   0  0  0  0  0  0  0  0  0  0  0  0
   -7.4025    0.7087    0.0000 S   0  0  0  0  0  0  0  0  0  0  0  0
   -1.5218    2.0944    0.0000 S   0  0  0  0  0  0  0  0  0  0  0  0
   -0.0001    1.6000    0.0000 C   0  0  0  0  0  0  0  0  0  0  0  0
   -0.0001   -0.0000    0.0000 C   0  0  0  0  0  0  0  0  0  0  0  0
    1.3856   -0.8000    0.0000 C   0  0  0  0  0  0  0  0  0  0  0  0
    1.3856   -2.3999    0.0000 H   0  0  0  0  0  0  0  0  0  0  0  0
    2.7712   -0.0000    0.0000 C   0  0  0  0  0  0  0  0  0  0  0  0
    4.1569   -0.8000    0.0000 H   0  0  0  0  0  0  0  0  0  0  0  0
    2.7712    1.6000    0.0000 C   0  0  0  0  0  0  0  0  0  0  0  0
    4.1569    2.4000    0.0000 H   0  0  0  0  0  0  0  0  0  0  0  0
    1.3856    2.4000    0.0000 C   0  0  0  0  0  0  0  0  0  0  0  0
    1.3856    4.0000    0.0000 H   0  0  0  0  0  0  0  0  0  0  0  0
  1  2  2  0  0  0  0
  2  3  1  0  0  0  0
  3  4  1  0  0  0  0
  4  5  1  0  0  0  0
  5  6  2  0  0  0  0
  6  7  1  0  0  0  0
  7  8  1  0  0  0  0
  8  9  2  0  0  0  0
  9 10  1  0  0  0  0
  9 11  1  0  0  0  0
 11 12  1  0  0  0  0
 11 13  2  0  0  0  0
 13 14  1  0  0  0  0
 13 15  1  0  0  0  0
 15  7  2  0  0  0  0
 15 16  1  0  0  0  0
  8 17  1  0  0  0  0
 17  5  1  0  0  0  0
  2 18  1  0  0  0  0
 18 19  1  0  0  0  0
 19 20  1  0  0  0  0
 20  1  1  0  0  0  0
 20 21  2  0  0  0  0
 21 22  1  0  0  0  0
 21 23  1  0  0  0  0
 23 24  1  0  0  0  0
 23 25  2  0  0  0  0
 25 26  1  0  0  0  0
 25 27  1  0  0  0  0
 27 19  2  0  0  0  0
 27 28  1  0  0  0  0
M  END
> <ChemID>
100604

> <source_casrn>
120-78-5

> <CAS>
120-78-5

> <SMILES>
c1cccc2[s]c([n]c21)SSc1[n]c2ccccc2[s]1

> <NAME>
Benzothiazole, 2,2'-dithiobis-

> <preferred_name>
2,2'-Dithiobisbenzothiazole

> <iupac>
2,2'-disulfanediylbis(1,3-benzothiazole)

> <MPID>
100613

> <dsstox_substance_id>
DTXSID1020146

> <Canonical_QSARr>
c1cccc2[s]c([n]c21)SSc1[n]c2ccccc2[s]1

> <InChI_Code_QSARr>
InChI=1S/C14H8N2S4/c1-3-7-11-9(5-1)15-13(17-11)19-20-14-16-10-6-2-4-8-12(10)18-14/h1-8H

> <InChI Key_QSARr>
AFZSMODLJJCVPP-UHFFFAOYSA-N

> <Salt_Solvent>
?

> <Ready_Biodeg>
0.0

$$$$
100605
  -INDIGO-08031722522D

 14 14  0  0  0  0  0  0  0  0999 V2000
    0.8000    1.3856    0.0000 O   0  0  0  0  0  0  0  0  0  0  0  0
    2.4000    1.3856    0.0000 H   0  0  0  0  0  0  0  0  0  0  0  0
   -0.0000   -0.0000    0.0000 C   0  0  0  0  0  0  0  0  0  0  0  0
   -1.6000   -0.0000    0.0000 C   0  0  0  0  0  0  0  0  0  0  0  0
   -2.4000    1.3856    0.0000 O   0  0  0  0  0  0  0  0  0  0  0  0
   -4.0000    1.3856    0.0000 H   0  0  0  0  0  0  0  0  0  0  0  0
   -2.4000   -1.3856    0.0000 C   0  0  0  0  0  0  0  0  0  0  0  0
   -4.0000   -1.3856    0.0000 H   0  0  0  0  0  0  0  0  0  0  0  0
   -1.6000   -2.7713    0.0000 C   0  0  0  0  0  0  0  0  0  0  0  0
   -2.4000   -4.1569    0.0000 H   0  0  0  0  0  0  0  0  0  0  0  0
   -0.0000   -2.7713    0.0000 C   0  0  0  0  0  0  0  0  0  0  0  0
    0.8000   -4.1569    0.0000 H   0  0  0  0  0  0  0  0  0  0  0  0
    0.8000   -1.3856    0.0000 C   0  0  0  0  0  0  0  0  0  0  0  0
    2.4000   -1.3856    0.0000 H   0  0  0  0  0  0  0  0  0  0  0  0
  1  2  1  0  0  0  0
  1  3  1  0  0  0  0
  3  4  1  0  0  0  0
  4  5  1  0  0  0  0
  5  6  1  0  0  0  0
  4  7  2  0  0  0  0
  7  8  1  0  0  0  0
  7  9  1  0  0  0  0
  9 10  1  0  0  0  0
  9 11  2  0  0  0  0
 11 12  1  0  0  0  0
 11 13  1  0  0  0  0
 13  3  2  0  0  0  0
 13 14  1  0  0  0  0
M  END
> <ChemID>
100605

> <source_casrn>
120-80-9

> <CAS>
120-80-9

> <SMILES>
Oc1ccccc1O

> <NAME>
1,2-Dihydroxybenzene

> <preferred_name>
Catechol

> <iupac>
benzene-1,2-diol

> <MPID>
100614

> <dsstox_substance_id>
DTXSID3020257

> <Canonical_QSARr>
Oc1ccccc1O

> <InChI_Code_QSARr>
InChI=1S/C6H6O2/c7-5-3-1-2-4-6(5)8/h1-4,7-8H

> <InChI Key_QSARr>
YCIMNLLNPGFGHC-UHFFFAOYSA-N

> <Salt_Solvent>
?

> <Ready_Biodeg>
1.0

$$$$
100606
  -INDIGO-08031722522D

 12 12  0  0  0  0  0  0  0  0999 V2000
    0.8000    1.3856    0.0000 Cl  0  0  0  0  0  0  0  0  0  0  0  0
   -0.0000   -0.0000    0.0000 C   0  0  0  0  0  0  0  0  0  0  0  0
    0.8000   -1.3857    0.0000 C   0  0  0  0  0  0  0  0  0  0  0  0
    2.4000   -1.3857    0.0000 Cl  0  0  0  0  0  0  0  0  0  0  0  0
   -0.0000   -2.7713    0.0000 C   0  0  0  0  0  0  0  0  0  0  0  0
    0.8000   -4.1569    0.0000 H   0  0  0  0  0  0  0  0  0  0  0  0
   -1.6000   -2.7713    0.0000 C   0  0  0  0  0  0  0  0  0  0  0  0
   -2.4000   -4.1569    0.0000 Cl  0  0  0  0  0  0  0  0  0  0  0  0
   -2.4000   -1.3856    0.0000 C   0  0  0  0  0  0  0  0  0  0  0  0
   -4.0000   -1.3856    0.0000 H   0  0  0  0  0  0  0  0  0  0  0  0
   -1.6000   -0.0000    0.0000 C   0  0  0  0  0  0  0  0  0  0  0  0
   -2.4000    1.3856    0.0000 H   0  0  0  0  0  0  0  0  0  0  0  0
  1  2  1  0  0  0  0
  2  3  1  0  0  0  0
  3  4  1  0  0  0  0
  3  5  2  0  0  0  0
  5  6  1  0  0  0  0
  5  7  1  0  0  0  0
  7  8  1  0  0  0  0
  7  9  2  0  0  0  0
  9 10  1  0  0  0  0
  9 11  1  0  0  0  0
 11  2  2  0  0  0  0
 11 12  1  0  0  0  0
M  END
> <ChemID>
100606

> <source_casrn>
120-82-1

> <CAS>
120-82-1

> <SMILES>
Clc1cc(Cl)c(Cl)cc1

> <NAME>
Benzene, 1,2,4-trichloro-

> <preferred_name>
1,2,4-Trichlorobenzene

> <iupac>
C6H3Cl3

> <MPID>
100615

> <dsstox_substance_id>
DTXSID0021965

> <Canonical_QSARr>
Clc1cc(Cl)c(Cl)cc1

> <InChI_Code_QSARr>
InChI=1S/C6H3Cl3/c7-4-1-2-5(8)6(9)3-4/h1-3H

> <InChI Key_QSARr>
PBKONEOXTCPAFI-UHFFFAOYSA-N

> <Salt_Solvent>
?

> <Ready_Biodeg>
0.0

$$$$
100608
  -INDIGO-08031722522D

 19 19  0  0  0  0  0  0  0  0999 V2000
    2.7713    0.0001    0.0000 C   0  0  0  0  0  0  0  0  0  0  0  0
    4.1570    0.8000    0.0000 C   0  0  0  0  0  0  0  0  0  0  0  0
    5.5426   -0.0001    0.0000 H   0  0  0  0  0  0  0  0  0  0  0  0
    4.1570    2.4000    0.0000 O   0  0  0  0  0  0  0  0  0  0  0  0
    1.3857    0.8000    0.0000 C   0  0  0  0  0  0  0  0  0  0  0  0
    1.3856    2.4000    0.0000 H   0  0  0  0  0  0  0  0  0  0  0  0
    0.0000    0.0001    0.0000 C   0  0  0  0  0  0  0  0  0  0  0  0
   -1.3857    0.8000    0.0000 O   0  0  0  0  0  0  0  0  0  0  0  0
   -1.3856    2.4000    0.0000 C   0  0  0  0  0  0  0  0  0  0  0  0
   -2.7713    3.2001    0.0000 H   0  0  0  0  0  0  0  0  0  0  0  0
   -1.3856    4.0000    0.0000 H   0  0  0  0  0  0  0  0  0  0  0  0
   -2.7713    1.6001    0.0000 H   0  0  0  0  0  0  0  0  0  0  0  0
    0.0000   -1.5999    0.0000 C   0  0  0  0  0  0  0  0  0  0  0  0
   -1.3856   -2.4000    0.0000 O   0  0  0  0  0  0  0  0  0  0  0  0
   -1.3856   -4.0000    0.0000 H   0  0  0  0  0  0  0  0  0  0  0  0
    1.3857   -2.4000    0.0000 C   0  0  0  0  0  0  0  0  0  0  0  0
    1.3857   -4.0000    0.0000 H   0  0  0  0  0  0  0  0  0  0  0  0
    2.7713   -1.5999    0.0000 C   0  0  0  0  0  0  0  0  0  0  0  0
    4.1570   -2.4000    0.0000 H   0  0  0  0  0  0  0  0  0  0  0  0
  1  2  1  0  0  0  0
  2  3  1  0  0  0  0
  2  4  2  0  0  0  0
  1  5  1  0  0  0  0
  5  6  1  0  0  0  0
  5  7  2  0  0  0  0
  7  8  1  0  0  0  0
  8  9  1  0  0  0  0
  9 10  1  0  0  0  0
  9 11  1  0  0  0  0
  9 12  1  0  0  0  0
  7 13  1  0  0  0  0
 13 14  1  0  0  0  0
 14 15  1  0  0  0  0
 13 16  2  0  0  0  0
 16 17  1  0  0  0  0
 16 18  1  0  0  0  0
 18  1  2  0  0  0  0
 18 19  1  0  0  0  0
M  END
> <ChemID>
100608

> <source_casrn>
121-33-5

> <CAS>
121-33-5

> <SMILES>
COc1cc(C=O)ccc1O

> <NAME>
Vanillin

> <preferred_name>
4-Hydroxy-3-methoxybenzaldehyde

> <iupac>
4-hydroxy-3-methoxybenzaldehyde

> <MPID>
100617

> <dsstox_substance_id>
DTXSID0021969

> <Canonical_QSARr>
COc1cc(C=O)ccc1O

> <InChI_Code_QSARr>
InChI=1S/C8H8O3/c1-11-8-4-6(5-9)2-3-7(8)10/h2-5,10H,1H3

> <InChI Key_QSARr>
MWOOGOJBHIARFG-UHFFFAOYSA-N

> <Salt_Solvent>
?

> <Ready_Biodeg>
1.0

$$$$
100609
  -INDIGO-08031722522D

 20 20  0  0  0  0  0  0  0  0999 V2000
    1.3857    2.4000    0.0000 C   0  0  0  0  0  0  0  0  0  0  0  0
    2.7713    3.2001    0.0000 H   0  0  0  0  0  0  0  0  0  0  0  0
    1.3857    4.0000    0.0000 H   0  0  0  0  0  0  0  0  0  0  0  0
    2.7713    1.5999    0.0000 H   0  0  0  0  0  0  0  0  0  0  0  0
    1.3857    0.8000    0.0000 O   0  0  0  0  0  0  0  0  0  0  0  0
    0.0000    0.0001    0.0000 C   0  0  0  0  0  0  0  0  0  0  0  0
   -1.3856    0.8000    0.0000 C   0  0  0  0  0  0  0  0  0  0  0  0
   -1.3856    2.4000    0.0000 H   0  0  0  0  0  0  0  0  0  0  0  0
   -2.7713    0.0001    0.0000 C   0  0  0  0  0  0  0  0  0  0  0  0
   -4.1570    0.8000    0.0000 C   0  0  0  0  0  0  0  0  0  0  0  0
   -4.1570    2.4000    0.0000 O   0  0  0  0  0  0  0  0  0  0  0  0
   -5.5426    0.0001    0.0000 O   0  0  0  0  0  0  0  0  0  0  0  0
   -6.9282    0.8000    0.0000 H   0  0  0  0  0  0  0  0  0  0  0  0
   -2.7713   -1.5999    0.0000 C   0  0  0  0  0  0  0  0  0  0  0  0
   -4.1570   -2.4000    0.0000 H   0  0  0  0  0  0  0  0  0  0  0  0
   -1.3856   -2.4000    0.0000 C   0  0  0  0  0  0  0  0  0  0  0  0
   -1.3856   -4.0000    0.0000 H   0  0  0  0  0  0  0  0  0  0  0  0
    0.0000   -1.5999    0.0000 C   0  0  0  0  0  0  0  0  0  0  0  0
    1.3857   -2.4000    0.0000 O   0  0  0  0  0  0  0  0  0  0  0  0
    1.3857   -4.0000    0.0000 H   0  0  0  0  0  0  0  0  0  0  0  0
  1  2  1  0  0  0  0
  1  3  1  0  0  0  0
  1  4  1  0  0  0  0
  1  5  1  0  0  0  0
  5  6  1  0  0  0  0
  6  7  1  0  0  0  0
  7  8  1  0  0  0  0
  7  9  2  0  0  0  0
  9 10  1  0  0  0  0
 10 11  2  0  0  0  0
 10 12  1  0  0  0  0
 12 13  1  0  0  0  0
  9 14  1  0  0  0  0
 14 15  1  0  0  0  0
 14 16  2  0  0  0  0
 16 17  1  0  0  0  0
 16 18  1  0  0  0  0
 18  6  2  0  0  0  0
 18 19  1  0  0  0  0
 19 20  1  0  0  0  0
M  END
> <ChemID>
100609

> <source_casrn>
121-34-6

> <CAS>
121-34-6

> <SMILES>
O=C(O)c(ccc(O)c1OC)c1

> <NAME>
3-Methoxy-4-hydoxybenzoic acid

> <preferred_name>
Vanillic acid

> <iupac>
4-Hydroxy-3-methoxybenzoic acid

> <MPID>
100618

> <dsstox_substance_id>
DTXSID6059522

> <Canonical_QSARr>
COc1cc(ccc1O)C(O)=O

> <InChI_Code_QSARr>
InChI=1S/C8H8O4/c1-12-7-4-5(8(10)11)2-3-6(7)9/h2-4,9H,1H3,(H,10,11)

> <InChI Key_QSARr>
WKOLLVMJNQIZCI-UHFFFAOYSA-N

> <Salt_Solvent>
?

> <Ready_Biodeg>
1.0

$$$$
100610
  -INDIGO-08031722522D

 22 21  0  0  0  0  0  0  0  0999 V2000
    2.4000    1.3856    0.0000 C   0  0  0  0  0  0  0  0  0  0  0  0
    3.2001    2.7713    0.0000 H   0  0  0  0  0  0  0  0  0  0  0  0
    4.0000    1.3856    0.0000 H   0  0  0  0  0  0  0  0  0  0  0  0
    1.6001    2.7713    0.0000 H   0  0  0  0  0  0  0  0  0  0  0  0
    1.6001   -0.0000    0.0000 C   0  0  0  0  0  0  0  0  0  0  0  0
    2.8694   -0.9740    0.0000 H   0  0  0  0  0  0  0  0  0  0  0  0
    1.8088   -1.5864    0.0000 H   0  0  0  0  0  0  0  0  0  0  0  0
    0.0001   -0.0000    0.0000 N   0  0  0  0  0  0  0  0  0  0  0  0
   -0.8000    1.3856    0.0000 C   0  0  0  0  0  0  0  0  0  0  0  0
   -0.5911    2.9720    0.0000 H   0  0  0  0  0  0  0  0  0  0  0  0
    0.4693    2.3596    0.0000 H   0  0  0  0  0  0  0  0  0  0  0  0
   -2.4000    1.3856    0.0000 C   0  0  0  0  0  0  0  0  0  0  0  0
   -4.0000    1.3856    0.0000 H   0  0  0  0  0  0  0  0  0  0  0  0
   -3.2001    2.7713    0.0000 H   0  0  0  0  0  0  0  0  0  0  0  0
   -3.2001   -0.0000    0.0000 H   0  0  0  0  0  0  0  0  0  0  0  0
   -0.8000   -1.3857    0.0000 C   0  0  0  0  0  0  0  0  0  0  0  0
   -2.2782   -1.9980    0.0000 H   0  0  0  0  0  0  0  0  0  0  0  0
   -2.2782   -0.7733    0.0000 H   0  0  0  0  0  0  0  0  0  0  0  0
    0.0001   -2.7713    0.0000 C   0  0  0  0  0  0  0  0  0  0  0  0
    0.8000   -4.1569    0.0000 H   0  0  0  0  0  0  0  0  0  0  0  0
   -0.8000   -4.1569    0.0000 H   0  0  0  0  0  0  0  0  0  0  0  0
    1.6001   -2.7713    0.0000 H   0  0  0  0  0  0  0  0  0  0  0  0
  1  2  1  0  0  0  0
  1  3  1  0  0  0  0
  1  4  1  0  0  0  0
  1  5  1  0  0  0  0
  5  6  1  0  0  0  0
  5  7  1  0  0  0  0
  5  8  1  0  0  0  0
  8  9  1  0  0  0  0
  9 10  1  0  0  0  0
  9 11  1  0  0  0  0
  9 12  1  0  0  0  0
 12 13  1  0  0  0  0
 12 14  1  0  0  0  0
 12 15  1  0  0  0  0
  8 16  1  0  0  0  0
 16 17  1  0  0  0  0
 16 18  1  0  0  0  0
 16 19  1  0  0  0  0
 19 20  1  0  0  0  0
 19 21  1  0  0  0  0
 19 22  1  0  0  0  0
M  END
> <ChemID>
100610

> <source_casrn>
121-44-8

> <CAS>
121-44-8

> <SMILES>
CCN(CC)CC

> <NAME>
Triethylamine

> <preferred_name>
Triethylamine

> <iupac>
N,N-diethylethanamine

> <MPID>
100619

> <dsstox_substance_id>
DTXSID3024366

> <Canonical_QSARr>
CCN(CC)CC

> <InChI_Code_QSARr>
InChI=1S/C6H15N/c1-4-7(5-2)6-3/h4-6H2,1-3H3

> <InChI Key_QSARr>
ZMANZCXQSJIPKH-UHFFFAOYSA-N

> <Salt_Solvent>
?

> <Ready_Biodeg>
0.0

$$$$
100612
  -INDIGO-08031722522D

 19 19  0  0  0  0  0  0  0  0999 V2000
    0.0001   -0.0000    0.0000 C   0  0  0  0  0  0  0  0  0  0  0  0
    1.3857    0.8000    0.0000 C   0  0  0  0  0  0  0  0  0  0  0  0
    1.3857    2.4000    0.0000 H   0  0  0  0  0  0  0  0  0  0  0  0
    2.7712   -0.0000    0.0000 C   0  0  0  0  0  0  0  0  0  0  0  0
    4.1569    0.8000    0.0000 C   0  0  0  0  0  0  0  0  0  0  0  0
    5.5425   -0.0000    0.0000 O   0  0  0  0  0  0  0  0  0  0  0  0
    6.9282    0.8000    0.0000 H   0  0  0  0  0  0  0  0  0  0  0  0
    4.1569    2.4000    0.0000 O   0  0  0  0  0  0  0  0  0  0  0  0
    2.7712   -1.6000    0.0000 C   0  0  0  0  0  0  0  0  0  0  0  0
    4.1569   -2.4000    0.0000 H   0  0  0  0  0  0  0  0  0  0  0  0
    1.3857   -2.4000    0.0000 C   0  0  0  0  0  0  0  0  0  0  0  0
    1.3857   -4.0000    0.0000 H   0  0  0  0  0  0  0  0  0  0  0  0
    0.0001   -1.6000    0.0000 C   0  0  0  0  0  0  0  0  0  0  0  0
   -1.3856   -2.4000    0.0000 H   0  0  0  0  0  0  0  0  0  0  0  0
   -1.3856    0.8000    0.0000 S   0  0  0  0  0  0  0  0  0  0  0  0
   -2.7713    1.6000    0.0000 O   0  0  0  0  0  0  0  0  0  0  0  0
   -4.1569    0.8000    0.0000 H   0  0  0  0  0  0  0  0  0  0  0  0
   -2.1857   -0.5856    0.0000 O   0  0  0  0  0  0  0  0  0  0  0  0
   -0.5857    2.1856    0.0000 O   0  0  0  0  0  0  0  0  0  0  0  0
  1  2  1  0  0  0  0
  2  3  1  0  0  0  0
  2  4  2  0  0  0  0
  4  5  1  0  0  0  0
  5  6  1  0  0  0  0
  6  7  1  0  0  0  0
  5  8  2  0  0  0  0
  4  9  1  0  0  0  0
  9 10  1  0  0  0  0
  9 11  2  0  0  0  0
 11 12  1  0  0  0  0
 11 13  1  0  0  0  0
 13  1  2  0  0  0  0
 13 14  1  0  0  0  0
  1 15  1  0  0  0  0
 15 16  1  0  0  0  0
 16 17  1  0  0  0  0
 15 18  2  0  0  0  0
 15 19  2  0  0  0  0
M  END
> <ChemID>
100612

> <source_casrn>
121-53-9

> <CAS>
121-53-9

> <SMILES>
OC(=O)c1cc(ccc1)S(O)(=O)=O

> <NAME>
Benzoic acid, 3-sulfo-

> <preferred_name>
3-Sulfobenzoic acid

> <iupac>
3-Sulfobenzoic acid

> <MPID>
100621

> <dsstox_substance_id>
DTXSID6059528

> <Canonical_QSARr>
OC(=O)c1cc(ccc1)S(O)(=O)=O

> <InChI_Code_QSARr>
InChI=1S/C7H6O5S/c8-7(9)5-2-1-3-6(4-5)13(10,11)12/h1-4H,(H,8,9)(H,10,11,12)

> <InChI Key_QSARr>
QMWGSOMVXSRXQX-UHFFFAOYSA-N

> <Salt_Solvent>
?

> <Ready_Biodeg>
0.0

$$$$
100613
  -INDIGO-08031722522D

 72 73  0  0  0  0  0  0  0  0999 V2000
   -1.3855    2.3999    0.0000 C   0  0  0  0  0  0  0  0  0  0  0  0
    0.0001    3.2000    0.0000 H   0  0  0  0  0  0  0  0  0  0  0  0
   -1.3855    0.7999    0.0000 C   0  0  0  0  0  0  0  0  0  0  0  0
    0.0001    0.0000    0.0000 C   0  0  0  0  0  0  0  0  0  0  0  0
    1.2257   -1.0284    0.0000 C   0  0  0  0  0  0  0  0  0  0  0  0
    0.3659   -2.3778    0.0000 H   0  0  0  0  0  0  0  0  0  0  0  0
    1.5721   -2.5905    0.0000 H   0  0  0  0  0  0  0  0  0  0  0  0
    2.7292   -0.4812    0.0000 C   0  0  0  0  0  0  0  0  0  0  0  0
    4.2327    0.0660    0.0000 C   0  0  0  0  0  0  0  0  0  0  0  0
    5.7362    0.6132    0.0000 H   0  0  0  0  0  0  0  0  0  0  0  0
    5.4582   -0.9625    0.0000 H   0  0  0  0  0  0  0  0  0  0  0  0
    4.5106    1.6417    0.0000 H   0  0  0  0  0  0  0  0  0  0  0  0
    3.2764   -1.9848    0.0000 C   0  0  0  0  0  0  0  0  0  0  0  0
    3.8235   -3.4883    0.0000 H   0  0  0  0  0  0  0  0  0  0  0  0
    2.2478   -3.2104    0.0000 H   0  0  0  0  0  0  0  0  0  0  0  0
    4.8521   -2.2626    0.0000 H   0  0  0  0  0  0  0  0  0  0  0  0
    2.1820    1.0223    0.0000 C   0  0  0  0  0  0  0  0  0  0  0  0
    3.4075    2.0508    0.0000 H   0  0  0  0  0  0  0  0  0  0  0  0
    3.7577    0.7445    0.0000 H   0  0  0  0  0  0  0  0  0  0  0  0
    2.4512    2.0570    0.0000 H   0  0  0  0  0  0  0  0  0  0  0  0
    1.2257    1.0285    0.0000 C   0  0  0  0  0  0  0  0  0  0  0  0
    1.5074    2.0598    0.0000 H   0  0  0  0  0  0  0  0  0  0  0  0
    0.6785    2.5320    0.0000 H   0  0  0  0  0  0  0  0  0  0  0  0
   -0.2779    1.5758    0.0000 H   0  0  0  0  0  0  0  0  0  0  0  0
   -1.0285   -1.2256    0.0000 C   0  0  0  0  0  0  0  0  0  0  0  0
   -0.4813   -2.7292    0.0000 H   0  0  0  0  0  0  0  0  0  0  0  0
   -2.0571   -2.4514    0.0000 H   0  0  0  0  0  0  0  0  0  0  0  0
    0.5473   -1.5034    0.0000 H   0  0  0  0  0  0  0  0  0  0  0  0
   -2.7712    0.0000    0.0000 C   0  0  0  0  0  0  0  0  0  0  0  0
   -2.7712   -1.6000    0.0000 H   0  0  0  0  0  0  0  0  0  0  0  0
   -4.1568    0.7999    0.0000 C   0  0  0  0  0  0  0  0  0  0  0  0
   -5.5424    0.0000    0.0000 H   0  0  0  0  0  0  0  0  0  0  0  0
   -4.1568    2.3999    0.0000 C   0  0  0  0  0  0  0  0  0  0  0  0
   -5.5424    3.2000    0.0000 O   0  0  0  0  0  0  0  0  0  0  0  0
   -6.9281    2.3999    0.0000 C   0  0  0  0  0  0  0  0  0  0  0  0
   -7.5407    0.9218    0.0000 H   0  0  0  0  0  0  0  0  0  0  0  0
   -6.3159    0.9218    0.0000 H   0  0  0  0  0  0  0  0  0  0  0  0
   -8.3137    3.2000    0.0000 C   0  0  0  0  0  0  0  0  0  0  0  0
   -7.7015    4.6783    0.0000 H   0  0  0  0  0  0  0  0  0  0  0  0
   -8.9263    4.6783    0.0000 H   0  0  0  0  0  0  0  0  0  0  0  0
   -9.6993    2.3999    0.0000 O   0  0  0  0  0  0  0  0  0  0  0  0
  -11.0850    3.2000    0.0000 C   0  0  0  0  0  0  0  0  0  0  0  0
  -10.4728    4.6783    0.0000 H   0  0  0  0  0  0  0  0  0  0  0  0
  -11.6976    4.6783    0.0000 H   0  0  0  0  0  0  0  0  0  0  0  0
  -12.4706    2.3999    0.0000 C   0  0  0  0  0  0  0  0  0  0  0  0
  -13.8901    3.1388    0.0000 H   0  0  0  0  0  0  0  0  0  0  0  0
  -12.9520    3.9259    0.0000 H   0  0  0  0  0  0  0  0  0  0  0  0
  -13.0182    0.8965    0.0000 N   0  0  0  0  0  0  0  0  0  0  0  0
  -13.5653   -0.6070    0.0000 C   0  0  0  0  0  0  0  0  0  0  0  0
  -12.1459   -1.3457    0.0000 H   0  0  0  0  0  0  0  0  0  0  0  0
  -13.0840   -2.1330    0.0000 H   0  0  0  0  0  0  0  0  0  0  0  0
  -14.9510   -1.4071    0.0000 C   0  0  0  0  0  0  0  0  0  0  0  0
  -16.4545   -0.8598    0.0000 C   0  0  0  0  0  0  0  0  0  0  0  0
  -16.7321    0.7159    0.0000 H   0  0  0  0  0  0  0  0  0  0  0  0
  -17.6800   -1.8883    0.0000 C   0  0  0  0  0  0  0  0  0  0  0  0
  -19.1836   -1.3410    0.0000 H   0  0  0  0  0  0  0  0  0  0  0  0
  -17.4021   -3.4640    0.0000 C   0  0  0  0  0  0  0  0  0  0  0  0
  -18.6280   -4.4925    0.0000 H   0  0  0  0  0  0  0  0  0  0  0  0
  -15.8986   -4.0111    0.0000 C   0  0  0  0  0  0  0  0  0  0  0  0
  -15.6210   -5.5869    0.0000 H   0  0  0  0  0  0  0  0  0  0  0  0
  -14.6730   -2.9827    0.0000 C   0  0  0  0  0  0  0  0  0  0  0  0
  -13.1695   -3.5299    0.0000 H   0  0  0  0  0  0  0  0  0  0  0  0
  -14.5217    1.4437    0.0000 C   0  0  0  0  0  0  0  0  0  0  0  0
  -16.0252    1.9910    0.0000 H   0  0  0  0  0  0  0  0  0  0  0  0
  -14.7993    3.0195    0.0000 H   0  0  0  0  0  0  0  0  0  0  0  0
  -15.7472    0.4153    0.0000 H   0  0  0  0  0  0  0  0  0  0  0  0
  -11.5147    0.3492    0.0000 C   0  0  0  0  0  0  0  0  0  0  0  0
  -10.0111   -0.1979    0.0000 H   0  0  0  0  0  0  0  0  0  0  0  0
  -11.2367   -1.2264    0.0000 H   0  0  0  0  0  0  0  0  0  0  0  0
  -10.2887    1.3777    0.0000 H   0  0  0  0  0  0  0  0  0  0  0  0
   -2.7712    3.2000    0.0000 C   0  0  0  0  0  0  0  0  0  0  0  0
   -2.7712    4.8000    0.0000 H   0  0  0  0  0  0  0  0  0  0  0  0
  1  2  1  0  0  0  0
  1  3  1  0  0  0  0
  3  4  1  0  0  0  0
  4  5  1  0  0  0  0
  5  6  1  0  0  0  0
  5  7  1  0  0  0  0
  5  8  1  0  0  0  0
  8  9  1  0  0  0  0
  9 10  1  0  0  0  0
  9 11  1  0  0  0  0
  9 12  1  0  0  0  0
  8 13  1  0  0  0  0
 13 14  1  0  0  0  0
 13 15  1  0  0  0  0
 13 16  1  0  0  0  0
  8 17  1  0  0  0  0
 17 18  1  0  0  0  0
 17 19  1  0  0  0  0
 17 20  1  0  0  0  0
  4 21  1  0  0  0  0
 21 22  1  0  0  0  0
 21 23  1  0  0  0  0
 21 24  1  0  0  0  0
  4 25  1  0  0  0  0
 25 26  1  0  0  0  0
 25 27  1  0  0  0  0
 25 28  1  0  0  0  0
  3 29  2  0  0  0  0
 29 30  1  0  0  0  0
 29 31  1  0  0  0  0
 31 32  1  0  0  0  0
 31 33  2  0  0  0  0
 33 34  1  0  0  0  0
 34 35  1  0  0  0  0
 35 36  1  0  0  0  0
 35 37  1  0  0  0  0
 35 38  1  0  0  0  0
 38 39  1  0  0  0  0
 38 40  1  0  0  0  0
 38 41  1  0  0  0  0
 41 42  1  0  0  0  0
 42 43  1  0  0  0  0
 42 44  1  0  0  0  0
 42 45  1  0  0  0  0
 45 46  1  0  0  0  0
 45 47  1  0  0  0  0
 45 48  1  0  0  0  0
 48 49  1  0  0  0  0
 49 50  1  0  0  0  0
 49 51  1  0  0  0  0
 49 52  1  0  0  0  0
 52 53  1  0  0  0  0
 53 54  1  0  0  0  0
 53 55  2  0  0  0  0
 55 56  1  0  0  0  0
 55 57  1  0  0  0  0
 57 58  1  0  0  0  0
 57 59  2  0  0  0  0
 59 60  1  0  0  0  0
 59 61  1  0  0  0  0
 61 52  2  0  0  0  0
 61 62  1  0  0  0  0
 48 63  1  0  0  0  0
 63 64  1  0  0  0  0
 63 65  1  0  0  0  0
 63 66  1  0  0  0  0
 48 67  1  0  0  0  0
 67 68  1  0  0  0  0
 67 69  1  0  0  0  0
 67 70  1  0  0  0  0
 33 71  1  0  0  0  0
 71  1  2  0  0  0  0
 71 72  1  0  0  0  0
M  CHG  1  48   1
M  END
> <ChemID>
100613

> <source_casrn>
121-54-0

> <CAS>
121-54-0

> <SMILES>
[Cl-].CC(C)(C)CC(C)(C)c1ccc(cc1)OCCOCC[N+](C)(C)Cc1ccccc1

> <NAME>
Benzethonium chloride

> <preferred_name>
Benzethonium chloride

> <iupac>
N-benzyl-N,N-dimethyl-2-{2-[4-(2,4,4-trimethylpentan-2-yl)phenoxy]ethoxy}ethanaminium chloride

> <MPID>
100622

> <dsstox_substance_id>
DTXSID6023810

> <Canonical_QSARr>
CC(C)(C)CC(C)(C)c1ccc(cc1)OCCOCC[N+](C)(C)Cc1ccccc1

> <InChI_Code_QSARr>
InChI=1S/C27H42NO2/c1-26(2,3)22-27(4,5)24-13-15-25(16-14-24)30-20-19-29-18-17-28(6,7)21-23-11-9-8-10-12-23/h8-16H,17-22H2,1-7H3/q+1

> <InChI Key_QSARr>
SIYLLGKDQZGJHK-UHFFFAOYSA-N

> <Salt_Solvent>
[Cl-]

> <Ready_Biodeg>
0.0

$$$$
100614
  -INDIGO-08031722522D

 23 23  0  0  0  0  0  0  0  0999 V2000
   -0.0001   -0.0000    0.0000 C   0  0  0  0  0  0  0  0  0  0  0  0
   -0.8001    1.3856    0.0000 C   0  0  0  0  0  0  0  0  0  0  0  0
   -0.0001    2.7713    0.0000 H   0  0  0  0  0  0  0  0  0  0  0  0
   -2.4001    1.3856    0.0000 C   0  0  0  0  0  0  0  0  0  0  0  0
   -3.1999    2.7713    0.0000 H   0  0  0  0  0  0  0  0  0  0  0  0
   -3.1999   -0.0000    0.0000 C   0  0  0  0  0  0  0  0  0  0  0  0
   -4.7999   -0.0000    0.0000 N   0  0  0  0  0  0  0  0  0  0  0  0
   -5.6000   -1.3856    0.0000 H   0  0  0  0  0  0  0  0  0  0  0  0
   -5.6000    1.3856    0.0000 C   0  0  0  0  0  0  0  0  0  0  0  0
   -7.2000    1.3856    0.0000 C   0  0  0  0  0  0  0  0  0  0  0  0
   -8.8000    1.3856    0.0000 H   0  0  0  0  0  0  0  0  0  0  0  0
   -8.0000    2.7713    0.0000 H   0  0  0  0  0  0  0  0  0  0  0  0
   -8.0000   -0.0000    0.0000 H   0  0  0  0  0  0  0  0  0  0  0  0
   -4.7999    2.7713    0.0000 O   0  0  0  0  0  0  0  0  0  0  0  0
   -2.4001   -1.3856    0.0000 C   0  0  0  0  0  0  0  0  0  0  0  0
   -3.1999   -2.7713    0.0000 H   0  0  0  0  0  0  0  0  0  0  0  0
   -0.8001   -1.3856    0.0000 C   0  0  0  0  0  0  0  0  0  0  0  0
   -0.0001   -2.7713    0.0000 H   0  0  0  0  0  0  0  0  0  0  0  0
    1.6000   -0.0000    0.0000 S   0  0  0  0  0  0  0  0  0  0  0  0
    3.2000   -0.0000    0.0000 O   0  0  0  0  0  0  0  0  0  0  0  0
    4.0000   -1.3856    0.0000 H   0  0  0  0  0  0  0  0  0  0  0  0
    1.6000    1.6000    0.0000 O   0  0  0  0  0  0  0  0  0  0  0  0
    1.6000   -1.6000    0.0000 O   0  0  0  0  0  0  0  0  0  0  0  0
  1  2  1  0  0  0  0
  2  3  1  0  0  0  0
  2  4  2  0  0  0  0
  4  5  1  0  0  0  0
  4  6  1  0  0  0  0
  6  7  1  0  0  0  0
  7  8  1  0  0  0  0
  7  9  1  0  0  0  0
  9 10  1  0  0  0  0
 10 11  1  0  0  0  0
 10 12  1  0  0  0  0
 10 13  1  0  0  0  0
  9 14  2  0  0  0  0
  6 15  2  0  0  0  0
 15 16  1  0  0  0  0
 15 17  1  0  0  0  0
 17  1  2  0  0  0  0
 17 18  1  0  0  0  0
  1 19  1  0  0  0  0
 19 20  1  0  0  0  0
 20 21  1  0  0  0  0
 19 22  2  0  0  0  0
 19 23  2  0  0  0  0
M  END
> <ChemID>
100614

> <source_casrn>
121-62-0

> <CAS>
121-62-0

> <SMILES>
CC(=O)Nc1ccc(cc1)S(O)(=O)=O

> <NAME>
Benzenesulfonic acid, 4-(acetylamino)-

> <preferred_name>
4-(Acetylamino)benzenesulfonic acid

> <iupac>
4-acetamidobenzenesulfonic acid

> <MPID>
100623

> <dsstox_substance_id>
DTXSID0059530

> <Canonical_QSARr>
CC(=O)Nc1ccc(cc1)S(O)(=O)=O

> <InChI_Code_QSARr>
InChI=1S/C8H9NO4S/c1-6(10)9-7-2-4-8(5-3-7)14(11,12)13/h2-5H,1H3,(H,9,10)(H,11,12,13)

> <InChI Key_QSARr>
ZQPVMSLLKQTRMG-UHFFFAOYSA-N

> <Salt_Solvent>
?

> <Ready_Biodeg>
0.0

$$$$
100615
  -INDIGO-08031722522D

 20 20  0  0  0  0  0  0  0  0999 V2000
    0.8001    1.3856    0.0000 C   0  0  0  0  0  0  0  0  0  0  0  0
    1.6000    2.7713    0.0000 H   0  0  0  0  0  0  0  0  0  0  0  0
    2.4000    1.3856    0.0000 H   0  0  0  0  0  0  0  0  0  0  0  0
    0.0000    2.7713    0.0000 H   0  0  0  0  0  0  0  0  0  0  0  0
    0.0000   -0.0000    0.0000 N   0  0  0  0  0  0  0  0  0  0  0  0
   -1.6000    0.0000    0.0000 C   0  0  0  0  0  0  0  0  0  0  0  0
   -2.4000    1.3856    0.0000 C   0  0  0  0  0  0  0  0  0  0  0  0
   -1.6000    2.7713    0.0000 H   0  0  0  0  0  0  0  0  0  0  0  0
   -4.0000    1.3856    0.0000 C   0  0  0  0  0  0  0  0  0  0  0  0
   -4.8001    2.7713    0.0000 H   0  0  0  0  0  0  0  0  0  0  0  0
   -4.8001    0.0000    0.0000 C   0  0  0  0  0  0  0  0  0  0  0  0
   -6.4000    0.0000    0.0000 H   0  0  0  0  0  0  0  0  0  0  0  0
   -4.0000   -1.3856    0.0000 C   0  0  0  0  0  0  0  0  0  0  0  0
   -4.8001   -2.7713    0.0000 H   0  0  0  0  0  0  0  0  0  0  0  0
   -2.4000   -1.3856    0.0000 C   0  0  0  0  0  0  0  0  0  0  0  0
   -1.6000   -2.7713    0.0000 H   0  0  0  0  0  0  0  0  0  0  0  0
    0.8001   -1.3856    0.0000 C   0  0  0  0  0  0  0  0  0  0  0  0
    1.6000   -2.7713    0.0000 H   0  0  0  0  0  0  0  0  0  0  0  0
    2.4000   -1.3856    0.0000 H   0  0  0  0  0  0  0  0  0  0  0  0
    0.0000   -2.7713    0.0000 H   0  0  0  0  0  0  0  0  0  0  0  0
  1  2  1  0  0  0  0
  1  3  1  0  0  0  0
  1  4  1  0  0  0  0
  1  5  1  0  0  0  0
  5  6  1  0  0  0  0
  6  7  1  0  0  0  0
  7  8  1  0  0  0  0
  7  9  2  0  0  0  0
  9 10  1  0  0  0  0
  9 11  1  0  0  0  0
 11 12  1  0  0  0  0
 11 13  2  0  0  0  0
 13 14  1  0  0  0  0
 13 15  1  0  0  0  0
 15  6  2  0  0  0  0
 15 16  1  0  0  0  0
  5 17  1  0  0  0  0
 17 18  1  0  0  0  0
 17 19  1  0  0  0  0
 17 20  1  0  0  0  0
M  END
> <ChemID>
100615

> <source_casrn>
121-69-7

> <CAS>
121-69-7

> <SMILES>
CN(C)c1ccccc1

> <NAME>
Benzenamine, N,N-dimethyl-

> <preferred_name>
N,N-Dimethylaniline

> <iupac>
N,N-dimethylaniline

> <MPID>
100624

> <dsstox_substance_id>
DTXSID2020507

> <Canonical_QSARr>
CN(C)c1ccccc1

> <InChI_Code_QSARr>
InChI=1S/C8H11N/c1-9(2)8-6-4-3-5-7-8/h3-7H,1-2H3

> <InChI Key_QSARr>
JLTDJTHDQAWBAV-UHFFFAOYSA-N

> <Salt_Solvent>
?

> <Ready_Biodeg>
0.0

$$$$
100617
  -INDIGO-08031722522D

 38 37  0  0  0  0  0  0  0  0999 V2000
   -2.4000    1.3856    0.0000 O   0  0  0  0  0  0  0  0  0  0  0  0
   -1.6000    0.0001    0.0000 C   0  0  0  0  0  0  0  0  0  0  0  0
    0.0001    0.0001    0.0000 C   0  0  0  0  0  0  0  0  0  0  0  0
    0.0001   -1.6000    0.0000 H   0  0  0  0  0  0  0  0  0  0  0  0
    0.0001    1.5999    0.0000 S   0  0  0  0  0  0  0  0  0  0  0  0
    1.2257    2.6285    0.0000 P   0  0  0  0  0  0  0  0  0  0  0  0
   -0.2779    3.1756    0.0000 S   0  0  0  0  0  0  0  0  0  0  0  0
    0.9478    4.2042    0.0000 O   0  0  0  0  0  0  0  0  0  0  0  0
    2.1734    5.2326    0.0000 C   0  0  0  0  0  0  0  0  0  0  0  0
    1.8957    6.8083    0.0000 H   0  0  0  0  0  0  0  0  0  0  0  0
    3.3991    6.2610    0.0000 H   0  0  0  0  0  0  0  0  0  0  0  0
    0.6700    5.7799    0.0000 H   0  0  0  0  0  0  0  0  0  0  0  0
    2.4514    3.6569    0.0000 O   0  0  0  0  0  0  0  0  0  0  0  0
    3.9548    3.1097    0.0000 C   0  0  0  0  0  0  0  0  0  0  0  0
    5.1804    4.1381    0.0000 H   0  0  0  0  0  0  0  0  0  0  0  0
    5.4584    2.5624    0.0000 H   0  0  0  0  0  0  0  0  0  0  0  0
    4.2327    1.5340    0.0000 H   0  0  0  0  0  0  0  0  0  0  0  0
    1.5999    0.0001    0.0000 C   0  0  0  0  0  0  0  0  0  0  0  0
    1.8089    1.5863    0.0000 H   0  0  0  0  0  0  0  0  0  0  0  0
    2.8693    0.9740    0.0000 H   0  0  0  0  0  0  0  0  0  0  0  0
    2.4000   -1.3856    0.0000 C   0  0  0  0  0  0  0  0  0  0  0  0
    1.5999   -2.7713    0.0000 O   0  0  0  0  0  0  0  0  0  0  0  0
    4.0000   -1.3856    0.0000 O   0  0  0  0  0  0  0  0  0  0  0  0
    4.8001   -2.7713    0.0000 C   0  0  0  0  0  0  0  0  0  0  0  0
    4.5911   -4.3576    0.0000 H   0  0  0  0  0  0  0  0  0  0  0  0
    3.5307   -3.7452    0.0000 H   0  0  0  0  0  0  0  0  0  0  0  0
    6.3999   -2.7713    0.0000 C   0  0  0  0  0  0  0  0  0  0  0  0
    8.0000   -2.7713    0.0000 H   0  0  0  0  0  0  0  0  0  0  0  0
    7.2000   -4.1569    0.0000 H   0  0  0  0  0  0  0  0  0  0  0  0
    7.2000   -1.3856    0.0000 H   0  0  0  0  0  0  0  0  0  0  0  0
   -2.4000   -1.3856    0.0000 O   0  0  0  0  0  0  0  0  0  0  0  0
   -3.9999   -1.3856    0.0000 C   0  0  0  0  0  0  0  0  0  0  0  0
   -5.2693   -0.4116    0.0000 H   0  0  0  0  0  0  0  0  0  0  0  0
   -4.2089    0.2006    0.0000 H   0  0  0  0  0  0  0  0  0  0  0  0
   -4.7999   -2.7713    0.0000 C   0  0  0  0  0  0  0  0  0  0  0  0
   -5.6000   -4.1569    0.0000 H   0  0  0  0  0  0  0  0  0  0  0  0
   -6.4000   -2.7713    0.0000 H   0  0  0  0  0  0  0  0  0  0  0  0
   -3.9999   -4.1569    0.0000 H   0  0  0  0  0  0  0  0  0  0  0  0
  1  2  2  0  0  0  0
  2  3  1  0  0  0  0
  3  4  1  0  0  0  0
  3  5  1  0  0  0  0
  5  6  1  0  0  0  0
  6  7  2  0  0  0  0
  6  8  1  0  0  0  0
  8  9  1  0  0  0  0
  9 10  1  0  0  0  0
  9 11  1  0  0  0  0
  9 12  1  0  0  0  0
  6 13  1  0  0  0  0
 13 14  1  0  0  0  0
 14 15  1  0  0  0  0
 14 16  1  0  0  0  0
 14 17  1  0  0  0  0
  3 18  1  0  0  0  0
 18 19  1  0  0  0  0
 18 20  1  0  0  0  0
 18 21  1  0  0  0  0
 21 22  2  0  0  0  0
 21 23  1  0  0  0  0
 23 24  1  0  0  0  0
 24 25  1  0  0  0  0
 24 26  1  0  0  0  0
 24 27  1  0  0  0  0
 27 28  1  0  0  0  0
 27 29  1  0  0  0  0
 27 30  1  0  0  0  0
  2 31  1  0  0  0  0
 31 32  1  0  0  0  0
 32 33  1  0  0  0  0
 32 34  1  0  0  0  0
 32 35  1  0  0  0  0
 35 36  1  0  0  0  0
 35 37  1  0  0  0  0
 35 38  1  0  0  0  0
M  END
> <ChemID>
100617

> <source_casrn>
121-75-5

> <CAS>
121-75-5

> <SMILES>
CCOC(=O)C(CC(=O)OCC)SP(=S)(OC)OC

> <NAME>
Malathion

> <preferred_name>
Malathion

> <iupac>
diethyl 2-[(dimethoxyphosphorothioyl)sulfanyl]butanedioate

> <MPID>
100626

> <dsstox_substance_id>
DTXSID4020791

> <Canonical_QSARr>
CCOC(=O)C(CC(=O)OCC)SP(=S)(OC)OC

> <InChI_Code_QSARr>
InChI=1S/C10H19O6PS2/c1-5-15-9(11)7-8(10(12)16-6-2)19-17(18,13-3)14-4/h8H,5-7H2,1-4H3

> <InChI Key_QSARr>
JXSJBGJIGXNWCI-UHFFFAOYSA-N

> <Salt_Solvent>
?

> <Ready_Biodeg>
0.0

$$$$
100618
  -INDIGO-08031722522D

 18 18  0  0  0  0  0  0  0  0999 V2000
    2.7713   -0.0000    0.0000 O   0  0  0  0  0  0  0  0  0  0  0  0
    4.1569    0.8000    0.0000 H   0  0  0  0  0  0  0  0  0  0  0  0
    1.3856    0.8000    0.0000 C   0  0  0  0  0  0  0  0  0  0  0  0
   -0.0001   -0.0000    0.0000 C   0  0  0  0  0  0  0  0  0  0  0  0
   -1.3857    0.8000    0.0000 C   0  0  0  0  0  0  0  0  0  0  0  0
   -1.3857    2.4000    0.0000 H   0  0  0  0  0  0  0  0  0  0  0  0
   -2.7712   -0.0000    0.0000 C   0  0  0  0  0  0  0  0  0  0  0  0
   -4.1569    0.8000    0.0000 C   0  0  0  0  0  0  0  0  0  0  0  0
   -5.5425   -0.0000    0.0000 O   0  0  0  0  0  0  0  0  0  0  0  0
   -6.9282    0.8000    0.0000 H   0  0  0  0  0  0  0  0  0  0  0  0
   -4.1569    2.4000    0.0000 O   0  0  0  0  0  0  0  0  0  0  0  0
   -2.7712   -1.6000    0.0000 C   0  0  0  0  0  0  0  0  0  0  0  0
   -4.1569   -2.4000    0.0000 H   0  0  0  0  0  0  0  0  0  0  0  0
   -1.3856   -2.4000    0.0000 C   0  0  0  0  0  0  0  0  0  0  0  0
   -1.3857   -4.0000    0.0000 H   0  0  0  0  0  0  0  0  0  0  0  0
   -0.0001   -1.6000    0.0000 C   0  0  0  0  0  0  0  0  0  0  0  0
    1.3856   -2.4000    0.0000 H   0  0  0  0  0  0  0  0  0  0  0  0
    1.3856    2.4000    0.0000 O   0  0  0  0  0  0  0  0  0  0  0  0
  1  2  1  0  0  0  0
  1  3  1  0  0  0  0
  3  4  1  0  0  0  0
  4  5  1  0  0  0  0
  5  6  1  0  0  0  0
  5  7  2  0  0  0  0
  7  8  1  0  0  0  0
  8  9  1  0  0  0  0
  9 10  1  0  0  0  0
  8 11  2  0  0  0  0
  7 12  1  0  0  0  0
 12 13  1  0  0  0  0
 12 14  2  0  0  0  0
 14 15  1  0  0  0  0
 14 16  1  0  0  0  0
 16  4  2  0  0  0  0
 16 17  1  0  0  0  0
  3 18  2  0  0  0  0
M  END
> <ChemID>
100618

> <source_casrn>
121-91-5

> <CAS>
121-91-5

> <SMILES>
OC(=O)c1cc(ccc1)C(O)=O

> <NAME>
1,3-Benzenedicarboxylic acid

> <preferred_name>
1,3-Benzenedicarboxylic acid

> <iupac>
benzene-1,3-dicarboxylic acid

> <MPID>
100627

> <dsstox_substance_id>
DTXSID3021485

> <Canonical_QSARr>
OC(=O)c1cc(ccc1)C(O)=O

> <InChI_Code_QSARr>
InChI=1S/C8H6O4/c9-7(10)5-2-1-3-6(4-5)8(11)12/h1-4H,(H,9,10)(H,11,12)

> <InChI Key_QSARr>
QQVIHTHCMHWDBS-UHFFFAOYSA-N

> <Salt_Solvent>
?

> <Ready_Biodeg>
1.0

$$$$
100619
  -INDIGO-08031722522D

 17 17  0  0  0  0  0  0  0  0999 V2000
   -1.3857    0.8000    0.0000 C   0  0  0  0  0  0  0  0  0  0  0  0
   -1.3857    2.4000    0.0000 O   0  0  0  0  0  0  0  0  0  0  0  0
   -2.7713   -0.0000    0.0000 O   0  0  0  0  0  0  0  0  0  0  0  0
   -4.1569    0.8000    0.0000 H   0  0  0  0  0  0  0  0  0  0  0  0
   -0.0001   -0.0000    0.0000 C   0  0  0  0  0  0  0  0  0  0  0  0
   -0.0001   -1.6000    0.0000 C   0  0  0  0  0  0  0  0  0  0  0  0
   -1.3857   -2.4000    0.0000 H   0  0  0  0  0  0  0  0  0  0  0  0
    1.3857   -2.4000    0.0000 C   0  0  0  0  0  0  0  0  0  0  0  0
    1.3857   -4.0000    0.0000 H   0  0  0  0  0  0  0  0  0  0  0  0
    2.7713   -1.6000    0.0000 C   0  0  0  0  0  0  0  0  0  0  0  0
    4.1569   -2.4000    0.0000 H   0  0  0  0  0  0  0  0  0  0  0  0
    2.7713   -0.0000    0.0000 C   0  0  0  0  0  0  0  0  0  0  0  0
    4.1569    0.8000    0.0000 N   0  0  0  0  0  0  0  0  0  0  0  0
    5.5426   -0.0000    0.0000 O   0  0  0  0  0  0  0  0  0  0  0  0
    4.1569    2.4000    0.0000 O   0  0  0  0  0  0  0  0  0  0  0  0
    1.3857    0.8000    0.0000 C   0  0  0  0  0  0  0  0  0  0  0  0
    1.3857    2.4000    0.0000 H   0  0  0  0  0  0  0  0  0  0  0  0
  1  2  2  0  0  0  0
  1  3  1  0  0  0  0
  3  4  1  0  0  0  0
  1  5  1  0  0  0  0
  5  6  1  0  0  0  0
  6  7  1  0  0  0  0
  6  8  2  0  0  0  0
  8  9  1  0  0  0  0
  8 10  1  0  0  0  0
 10 11  1  0  0  0  0
 10 12  2  0  0  0  0
 12 13  1  0  0  0  0
 13 14  2  0  0  0  0
 13 15  1  0  0  0  0
 12 16  1  0  0  0  0
 16  5  2  0  0  0  0
 16 17  1  0  0  0  0
M  CHG  2  13   1  15  -1
M  END
> <ChemID>
100619

> <source_casrn>
121-92-6

> <CAS>
121-92-6

> <SMILES>
[O-][N+](=O)c1cc(ccc1)C(O)=O

> <NAME>
Benzoic acid, 3-nitro-

> <preferred_name>
3-Nitrobenzoic acid

> <iupac>
3-nitrobenzoic acid

> <MPID>
100628

> <dsstox_substance_id>
DTXSID0025737

> <Canonical_QSARr>
[O-][N+](=O)c1cc(ccc1)C(O)=O

> <InChI_Code_QSARr>
InChI=1S/C7H5NO4/c9-7(10)5-2-1-3-6(4-5)8(11)12/h1-4H,(H,9,10)

> <InChI Key_QSARr>
AFPHTEQTJZKQAQ-UHFFFAOYSA-N

> <Salt_Solvent>
?

> <Ready_Biodeg>
0.0

$$$$
100621
  -INDIGO-08031722522D

 34 33  0  0  0  0  0  0  0  0999 V2000
    4.0514    2.0569    0.0000 C   0  0  0  0  0  0  0  0  0  0  0  0
    5.2770    3.0853    0.0000 H   0  0  0  0  0  0  0  0  0  0  0  0
    5.5549    1.5096    0.0000 H   0  0  0  0  0  0  0  0  0  0  0  0
    3.7735    3.6327    0.0000 H   0  0  0  0  0  0  0  0  0  0  0  0
    2.8257    1.0285    0.0000 C   0  0  0  0  0  0  0  0  0  0  0  0
    1.7973    2.2541    0.0000 H   0  0  0  0  0  0  0  0  0  0  0  0
    1.6000   -0.0000    0.0000 C   0  0  0  0  0  0  0  0  0  0  0  0
    2.8693   -0.9740    0.0000 H   0  0  0  0  0  0  0  0  0  0  0  0
    1.8089   -1.5863    0.0000 H   0  0  0  0  0  0  0  0  0  0  0  0
    0.0001   -0.0000    0.0000 N   0  0  0  0  0  0  0  0  0  0  0  0
   -0.8001    1.3856    0.0000 C   0  0  0  0  0  0  0  0  0  0  0  0
   -0.5912    2.9719    0.0000 H   0  0  0  0  0  0  0  0  0  0  0  0
    0.4694    2.3596    0.0000 H   0  0  0  0  0  0  0  0  0  0  0  0
   -2.3035    1.9328    0.0000 C   0  0  0  0  0  0  0  0  0  0  0  0
   -2.8508    0.4294    0.0000 H   0  0  0  0  0  0  0  0  0  0  0  0
   -3.8071    2.4801    0.0000 C   0  0  0  0  0  0  0  0  0  0  0  0
   -5.3105    3.0273    0.0000 H   0  0  0  0  0  0  0  0  0  0  0  0
   -4.0848    4.0559    0.0000 H   0  0  0  0  0  0  0  0  0  0  0  0
   -5.0327    1.4516    0.0000 H   0  0  0  0  0  0  0  0  0  0  0  0
   -1.7562    3.4364    0.0000 O   0  0  0  0  0  0  0  0  0  0  0  0
   -2.7848    4.6621    0.0000 H   0  0  0  0  0  0  0  0  0  0  0  0
   -0.8001   -1.3857    0.0000 C   0  0  0  0  0  0  0  0  0  0  0  0
   -2.2781   -1.9980    0.0000 H   0  0  0  0  0  0  0  0  0  0  0  0
   -2.2781   -0.7734    0.0000 H   0  0  0  0  0  0  0  0  0  0  0  0
   -0.5222   -2.9613    0.0000 C   0  0  0  0  0  0  0  0  0  0  0  0
    1.0535   -2.6836    0.0000 H   0  0  0  0  0  0  0  0  0  0  0  0
   -0.2443   -4.5370    0.0000 C   0  0  0  0  0  0  0  0  0  0  0  0
    0.0335   -6.1127    0.0000 H   0  0  0  0  0  0  0  0  0  0  0  0
   -1.4700   -5.5656    0.0000 H   0  0  0  0  0  0  0  0  0  0  0  0
    1.2591   -5.0843    0.0000 H   0  0  0  0  0  0  0  0  0  0  0  0
   -2.0979   -3.2391    0.0000 O   0  0  0  0  0  0  0  0  0  0  0  0
   -2.6450   -4.7427    0.0000 H   0  0  0  0  0  0  0  0  0  0  0  0
    3.8541   -0.1972    0.0000 O   0  0  0  0  0  0  0  0  0  0  0  0
    5.4298    0.0807    0.0000 H   0  0  0  0  0  0  0  0  0  0  0  0
  1  2  1  0  0  0  0
  1  3  1  0  0  0  0
  1  4  1  0  0  0  0
  1  5  1  0  0  0  0
  5  6  1  0  0  0  0
  5  7  1  0  0  0  0
  7  8  1  0  0  0  0
  7  9  1  0  0  0  0
  7 10  1  0  0  0  0
 10 11  1  0  0  0  0
 11 12  1  0  0  0  0
 11 13  1  0  0  0  0
 11 14  1  0  0  0  0
 14 15  1  0  0  0  0
 14 16  1  0  0  0  0
 16 17  1  0  0  0  0
 16 18  1  0  0  0  0
 16 19  1  0  0  0  0
 14 20  1  0  0  0  0
 20 21  1  0  0  0  0
 10 22  1  0  0  0  0
 22 23  1  0  0  0  0
 22 24  1  0  0  0  0
 22 25  1  0  0  0  0
 25 26  1  0  0  0  0
 25 27  1  0  0  0  0
 27 28  1  0  0  0  0
 27 29  1  0  0  0  0
 27 30  1  0  0  0  0
 25 31  1  0  0  0  0
 31 32  1  0  0  0  0
  5 33  1  0  0  0  0
 33 34  1  0  0  0  0
M  END
> <ChemID>
100621

> <source_casrn>
122-20-3

> <CAS>
122-20-3

> <SMILES>
CC(O)CN(CC(C)O)CC(C)O

> <NAME>
2-Propanol, 1,1',1''-nitrilotris-

> <preferred_name>
Triisopropanolamine

> <iupac>
1,1',1''-nitrilotripropan-2-ol

> <MPID>
100630

> <dsstox_substance_id>
DTXSID5021415

> <Canonical_QSARr>
CC(O)CN(CC(C)O)CC(C)O

> <InChI_Code_QSARr>
InChI=1S/C9H21NO3/c1-7(11)4-10(5-8(2)12)6-9(3)13/h7-9,11-13H,4-6H2,1-3H3

> <InChI Key_QSARr>
SLINHMUFWFWBMU-UHFFFAOYSA-N

> <Salt_Solvent>
?

> <Ready_Biodeg>
0.0

$$$$
100622
  -INDIGO-08031722522D

167166  0  0  0  0  0  0  0  0999 V2000
   20.7845    0.8002    0.0000 C   0  0  0  0  0  0  0  0  0  0  0  0
   21.3971    2.2784    0.0000 H   0  0  0  0  0  0  0  0  0  0  0  0
   20.1727    2.2784    0.0000 H   0  0  0  0  0  0  0  0  0  0  0  0
   22.1700   -0.0003    0.0000 C   0  0  0  0  0  0  0  0  0  0  0  0
   20.7845   -0.8001    0.0000 H   0  0  0  0  0  0  0  0  0  0  0  0
   22.9704   -1.3857    0.0000 C   0  0  0  0  0  0  0  0  0  0  0  0
   21.7009   -2.3596    0.0000 H   0  0  0  0  0  0  0  0  0  0  0  0
   22.7618   -2.9722    0.0000 H   0  0  0  0  0  0  0  0  0  0  0  0
   24.5705   -1.3857    0.0000 O   0  0  0  0  0  0  0  0  0  0  0  0
   25.3700   -2.7712    0.0000 C   0  0  0  0  0  0  0  0  0  0  0  0
   24.5705   -4.1567    0.0000 O   0  0  0  0  0  0  0  0  0  0  0  0
   26.9701   -2.7712    0.0000 C   0  0  0  0  0  0  0  0  0  0  0  0
   28.2396   -1.7974    0.0000 H   0  0  0  0  0  0  0  0  0  0  0  0
   27.1787   -1.1847    0.0000 H   0  0  0  0  0  0  0  0  0  0  0  0
   27.7705   -4.1567    0.0000 C   0  0  0  0  0  0  0  0  0  0  0  0
   26.5010   -5.1311    0.0000 H   0  0  0  0  0  0  0  0  0  0  0  0
   27.5618   -5.7432    0.0000 H   0  0  0  0  0  0  0  0  0  0  0  0
   29.3705   -4.1567    0.0000 C   0  0  0  0  0  0  0  0  0  0  0  0
   30.6400   -3.1829    0.0000 H   0  0  0  0  0  0  0  0  0  0  0  0
   29.5792   -2.5708    0.0000 H   0  0  0  0  0  0  0  0  0  0  0  0
   30.1701   -5.5428    0.0000 C   0  0  0  0  0  0  0  0  0  0  0  0
   28.9006   -6.5166    0.0000 H   0  0  0  0  0  0  0  0  0  0  0  0
   29.9614   -7.1287    0.0000 H   0  0  0  0  0  0  0  0  0  0  0  0
   31.7701   -5.5428    0.0000 C   0  0  0  0  0  0  0  0  0  0  0  0
   33.0396   -4.5684    0.0000 H   0  0  0  0  0  0  0  0  0  0  0  0
   31.9788   -3.9563    0.0000 H   0  0  0  0  0  0  0  0  0  0  0  0
   32.5705   -6.9283    0.0000 C   0  0  0  0  0  0  0  0  0  0  0  0
   31.3010   -7.9021    0.0000 H   0  0  0  0  0  0  0  0  0  0  0  0
   32.3610   -8.5147    0.0000 H   0  0  0  0  0  0  0  0  0  0  0  0
   34.1705   -6.9283    0.0000 C   0  0  0  0  0  0  0  0  0  0  0  0
   35.4400   -5.9544    0.0000 H   0  0  0  0  0  0  0  0  0  0  0  0
   34.3792   -5.3418    0.0000 H   0  0  0  0  0  0  0  0  0  0  0  0
   34.9701   -8.3137    0.0000 C   0  0  0  0  0  0  0  0  0  0  0  0
   34.1705   -9.6992    0.0000 H   0  0  0  0  0  0  0  0  0  0  0  0
   36.5701   -8.3137    0.0000 C   0  0  0  0  0  0  0  0  0  0  0  0
   37.3706   -6.9283    0.0000 H   0  0  0  0  0  0  0  0  0  0  0  0
   37.3706   -9.6992    0.0000 C   0  0  0  0  0  0  0  0  0  0  0  0
   36.1011  -10.6736    0.0000 H   0  0  0  0  0  0  0  0  0  0  0  0
   37.1611  -11.2857    0.0000 H   0  0  0  0  0  0  0  0  0  0  0  0
   38.9706   -9.6992    0.0000 C   0  0  0  0  0  0  0  0  0  0  0  0
   40.2392   -8.7254    0.0000 H   0  0  0  0  0  0  0  0  0  0  0  0
   39.1792   -8.1133    0.0000 H   0  0  0  0  0  0  0  0  0  0  0  0
   39.7702  -11.0853    0.0000 C   0  0  0  0  0  0  0  0  0  0  0  0
   38.5007  -12.0591    0.0000 H   0  0  0  0  0  0  0  0  0  0  0  0
   39.5615  -12.6712    0.0000 H   0  0  0  0  0  0  0  0  0  0  0  0
   41.3702  -11.0853    0.0000 C   0  0  0  0  0  0  0  0  0  0  0  0
   42.6397  -10.1109    0.0000 H   0  0  0  0  0  0  0  0  0  0  0  0
   41.5788   -9.4988    0.0000 H   0  0  0  0  0  0  0  0  0  0  0  0
   42.1706  -12.4708    0.0000 C   0  0  0  0  0  0  0  0  0  0  0  0
   40.9011  -13.4446    0.0000 H   0  0  0  0  0  0  0  0  0  0  0  0
   41.9611  -14.0573    0.0000 H   0  0  0  0  0  0  0  0  0  0  0  0
   43.7706  -12.4708    0.0000 C   0  0  0  0  0  0  0  0  0  0  0  0
   45.0393  -11.4969    0.0000 H   0  0  0  0  0  0  0  0  0  0  0  0
   43.9793  -10.8843    0.0000 H   0  0  0  0  0  0  0  0  0  0  0  0
   44.5702  -13.8562    0.0000 C   0  0  0  0  0  0  0  0  0  0  0  0
   43.3007  -14.8306    0.0000 H   0  0  0  0  0  0  0  0  0  0  0  0
   44.3616  -15.4427    0.0000 H   0  0  0  0  0  0  0  0  0  0  0  0
   46.1702  -13.8562    0.0000 C   0  0  0  0  0  0  0  0  0  0  0  0
   47.7702  -13.8562    0.0000 H   0  0  0  0  0  0  0  0  0  0  0  0
   46.9707  -15.2423    0.0000 H   0  0  0  0  0  0  0  0  0  0  0  0
   46.9707  -12.4708    0.0000 H   0  0  0  0  0  0  0  0  0  0  0  0
   23.5555    0.8002    0.0000 O   0  0  0  0  0  0  0  0  0  0  0  0
   23.5555    2.3999    0.0000 C   0  0  0  0  0  0  0  0  0  0  0  0
   22.1700    3.1998    0.0000 O   0  0  0  0  0  0  0  0  0  0  0  0
   24.9419    3.1998    0.0000 C   0  0  0  0  0  0  0  0  0  0  0  0
   25.9159    1.9305    0.0000 H   0  0  0  0  0  0  0  0  0  0  0  0
   26.5277    2.9910    0.0000 H   0  0  0  0  0  0  0  0  0  0  0  0
   24.9419    4.8001    0.0000 C   0  0  0  0  0  0  0  0  0  0  0  0
   23.9678    6.0695    0.0000 H   0  0  0  0  0  0  0  0  0  0  0  0
   23.3552    5.0090    0.0000 H   0  0  0  0  0  0  0  0  0  0  0  0
   26.3274    5.6000    0.0000 C   0  0  0  0  0  0  0  0  0  0  0  0
   27.3014    4.3307    0.0000 H   0  0  0  0  0  0  0  0  0  0  0  0
   27.9132    5.3912    0.0000 H   0  0  0  0  0  0  0  0  0  0  0  0
   26.3274    7.1997    0.0000 C   0  0  0  0  0  0  0  0  0  0  0  0
   25.3534    8.4691    0.0000 H   0  0  0  0  0  0  0  0  0  0  0  0
   24.7407    7.4086    0.0000 H   0  0  0  0  0  0  0  0  0  0  0  0
   27.7129    8.0002    0.0000 C   0  0  0  0  0  0  0  0  0  0  0  0
   28.6869    6.7309    0.0000 H   0  0  0  0  0  0  0  0  0  0  0  0
   29.2987    7.7914    0.0000 H   0  0  0  0  0  0  0  0  0  0  0  0
   27.7129    9.6000    0.0000 C   0  0  0  0  0  0  0  0  0  0  0  0
   26.7389   10.8693    0.0000 H   0  0  0  0  0  0  0  0  0  0  0  0
   26.1262    9.8088    0.0000 H   0  0  0  0  0  0  0  0  0  0  0  0
   29.0984   10.3998    0.0000 C   0  0  0  0  0  0  0  0  0  0  0  0
   30.0724    9.1305    0.0000 H   0  0  0  0  0  0  0  0  0  0  0  0
   30.6851   10.1910    0.0000 H   0  0  0  0  0  0  0  0  0  0  0  0
   29.0984   12.0002    0.0000 C   0  0  0  0  0  0  0  0  0  0  0  0
   27.7129   12.8000    0.0000 H   0  0  0  0  0  0  0  0  0  0  0  0
   30.4839   12.8000    0.0000 C   0  0  0  0  0  0  0  0  0  0  0  0
   31.8694   12.0002    0.0000 H   0  0  0  0  0  0  0  0  0  0  0  0
   30.4839   14.3998    0.0000 C   0  0  0  0  0  0  0  0  0  0  0  0
   29.5099   15.6691    0.0000 H   0  0  0  0  0  0  0  0  0  0  0  0
   28.8981   14.6086    0.0000 H   0  0  0  0  0  0  0  0  0  0  0  0
   31.8694   15.2002    0.0000 C   0  0  0  0  0  0  0  0  0  0  0  0
   32.8435   13.9309    0.0000 H   0  0  0  0  0  0  0  0  0  0  0  0
   33.4561   14.9914    0.0000 H   0  0  0  0  0  0  0  0  0  0  0  0
   31.8694   16.8000    0.0000 C   0  0  0  0  0  0  0  0  0  0  0  0
   30.8954   18.0693    0.0000 H   0  0  0  0  0  0  0  0  0  0  0  0
   30.2836   17.0088    0.0000 H   0  0  0  0  0  0  0  0  0  0  0  0
   33.2558   17.5998    0.0000 C   0  0  0  0  0  0  0  0  0  0  0  0
   34.2298   16.3305    0.0000 H   0  0  0  0  0  0  0  0  0  0  0  0
   34.8416   17.3910    0.0000 H   0  0  0  0  0  0  0  0  0  0  0  0
   33.2558   19.2002    0.0000 C   0  0  0  0  0  0  0  0  0  0  0  0
   32.2817   20.4695    0.0000 H   0  0  0  0  0  0  0  0  0  0  0  0
   31.6691   19.4090    0.0000 H   0  0  0  0  0  0  0  0  0  0  0  0
   34.6413   20.0000    0.0000 C   0  0  0  0  0  0  0  0  0  0  0  0
   35.6153   18.7307    0.0000 H   0  0  0  0  0  0  0  0  0  0  0  0
   36.2271   19.7912    0.0000 H   0  0  0  0  0  0  0  0  0  0  0  0
   34.6413   21.5998    0.0000 C   0  0  0  0  0  0  0  0  0  0  0  0
   33.6673   22.8691    0.0000 H   0  0  0  0  0  0  0  0  0  0  0  0
   33.0546   21.8086    0.0000 H   0  0  0  0  0  0  0  0  0  0  0  0
   36.0268   22.4003    0.0000 C   0  0  0  0  0  0  0  0  0  0  0  0
   37.4123   23.2001    0.0000 H   0  0  0  0  0  0  0  0  0  0  0  0
   36.0268   24.0000    0.0000 H   0  0  0  0  0  0  0  0  0  0  0  0
   37.4123   21.5998    0.0000 H   0  0  0  0  0  0  0  0  0  0  0  0
   19.3990   -0.0003    0.0000 O   0  0  0  0  0  0  0  0  0  0  0  0
   18.0135    0.8002    0.0000 C   0  0  0  0  0  0  0  0  0  0  0  0
   18.0135    2.3999    0.0000 O   0  0  0  0  0  0  0  0  0  0  0  0
   16.6280   -0.0003    0.0000 C   0  0  0  0  0  0  0  0  0  0  0  0
   16.0153   -1.4784    0.0000 H   0  0  0  0  0  0  0  0  0  0  0  0
   17.2398   -1.4784    0.0000 H   0  0  0  0  0  0  0  0  0  0  0  0
   15.2416    0.8002    0.0000 C   0  0  0  0  0  0  0  0  0  0  0  0
   15.8543    2.2784    0.0000 H   0  0  0  0  0  0  0  0  0  0  0  0
   14.6298    2.2784    0.0000 H   0  0  0  0  0  0  0  0  0  0  0  0
   13.8561   -0.0003    0.0000 C   0  0  0  0  0  0  0  0  0  0  0  0
   13.2443   -1.4784    0.0000 H   0  0  0  0  0  0  0  0  0  0  0  0
   14.4688   -1.4784    0.0000 H   0  0  0  0  0  0  0  0  0  0  0  0
   12.4706    0.8002    0.0000 C   0  0  0  0  0  0  0  0  0  0  0  0
   13.0832    2.2784    0.0000 H   0  0  0  0  0  0  0  0  0  0  0  0
   11.8588    2.2784    0.0000 H   0  0  0  0  0  0  0  0  0  0  0  0
   11.0851   -0.0003    0.0000 C   0  0  0  0  0  0  0  0  0  0  0  0
   10.4725   -1.4784    0.0000 H   0  0  0  0  0  0  0  0  0  0  0  0
   11.6977   -1.4784    0.0000 H   0  0  0  0  0  0  0  0  0  0  0  0
    9.6996    0.8002    0.0000 C   0  0  0  0  0  0  0  0  0  0  0  0
   10.3114    2.2784    0.0000 H   0  0  0  0  0  0  0  0  0  0  0  0
    9.0870    2.2784    0.0000 H   0  0  0  0  0  0  0  0  0  0  0  0
    8.3141   -0.0003    0.0000 C   0  0  0  0  0  0  0  0  0  0  0  0
    7.7015   -1.4784    0.0000 H   0  0  0  0  0  0  0  0  0  0  0  0
    8.9259   -1.4784    0.0000 H   0  0  0  0  0  0  0  0  0  0  0  0
    6.9286    0.8002    0.0000 C   0  0  0  0  0  0  0  0  0  0  0  0
    6.9286    2.3999    0.0000 H   0  0  0  0  0  0  0  0  0  0  0  0
    5.5422   -0.0003    0.0000 C   0  0  0  0  0  0  0  0  0  0  0  0
    5.5422   -1.6000    0.0000 H   0  0  0  0  0  0  0  0  0  0  0  0
    4.1567    0.8002    0.0000 C   0  0  0  0  0  0  0  0  0  0  0  0
    4.7693    2.2784    0.0000 H   0  0  0  0  0  0  0  0  0  0  0  0
    3.5449    2.2784    0.0000 H   0  0  0  0  0  0  0  0  0  0  0  0
    2.7712   -0.0003    0.0000 C   0  0  0  0  0  0  0  0  0  0  0  0
    2.1586   -1.4784    0.0000 H   0  0  0  0  0  0  0  0  0  0  0  0
    3.3838   -1.4784    0.0000 H   0  0  0  0  0  0  0  0  0  0  0  0
    1.3857    0.8002    0.0000 C   0  0  0  0  0  0  0  0  0  0  0  0
    1.9983    2.2784    0.0000 H   0  0  0  0  0  0  0  0  0  0  0  0
    0.7731    2.2784    0.0000 H   0  0  0  0  0  0  0  0  0  0  0  0
    0.0002   -0.0003    0.0000 C   0  0  0  0  0  0  0  0  0  0  0  0
   -0.6124   -1.4784    0.0000 H   0  0  0  0  0  0  0  0  0  0  0  0
    0.6120   -1.4784    0.0000 H   0  0  0  0  0  0  0  0  0  0  0  0
   -1.3853    0.8002    0.0000 C   0  0  0  0  0  0  0  0  0  0  0  0
   -0.7735    2.2784    0.0000 H   0  0  0  0  0  0  0  0  0  0  0  0
   -1.9980    2.2784    0.0000 H   0  0  0  0  0  0  0  0  0  0  0  0
   -2.7717   -0.0003    0.0000 C   0  0  0  0  0  0  0  0  0  0  0  0
   -3.3835   -1.4784    0.0000 H   0  0  0  0  0  0  0  0  0  0  0  0
   -2.1590   -1.4784    0.0000 H   0  0  0  0  0  0  0  0  0  0  0  0
   -4.1572    0.8002    0.0000 C   0  0  0  0  0  0  0  0  0  0  0  0
   -3.5446    2.2784    0.0000 H   0  0  0  0  0  0  0  0  0  0  0  0
   -4.7690    2.2784    0.0000 H   0  0  0  0  0  0  0  0  0  0  0  0
   -5.5427   -0.0003    0.0000 C   0  0  0  0  0  0  0  0  0  0  0  0
   -6.9282   -0.8001    0.0000 H   0  0  0  0  0  0  0  0  0  0  0  0
   -6.9282    0.8002    0.0000 H   0  0  0  0  0  0  0  0  0  0  0  0
   -5.5427   -1.6000    0.0000 H   0  0  0  0  0  0  0  0  0  0  0  0
  1  2  1  0  0  0  0
  1  3  1  0  0  0  0
  1  4  1  0  0  0  0
  4  5  1  0  0  0  0
  4  6  1  0  0  0  0
  6  7  1  0  0  0  0
  6  8  1  0  0  0  0
  6  9  1  0  0  0  0
  9 10  1  0  0  0  0
 10 11  2  0  0  0  0
 10 12  1  0  0  0  0
 12 13  1  0  0  0  0
 12 14  1  0  0  0  0
 12 15  1  0  0  0  0
 15 16  1  0  0  0  0
 15 17  1  0  0  0  0
 15 18  1  0  0  0  0
 18 19  1  0  0  0  0
 18 20  1  0  0  0  0
 18 21  1  0  0  0  0
 21 22  1  0  0  0  0
 21 23  1  0  0  0  0
 21 24  1  0  0  0  0
 24 25  1  0  0  0  0
 24 26  1  0  0  0  0
 24 27  1  0  0  0  0
 27 28  1  0  0  0  0
 27 29  1  0  0  0  0
 27 30  1  0  0  0  0
 30 31  1  0  0  0  0
 30 32  1  0  0  0  0
 30 33  1  0  0  0  0
 33 34  1  0  0  0  0
 33 35  2  0  0  0  0
 35 36  1  0  0  0  0
 35 37  1  0  0  0  0
 37 38  1  0  0  0  0
 37 39  1  0  0  0  0
 37 40  1  0  0  0  0
 40 41  1  0  0  0  0
 40 42  1  0  0  0  0
 40 43  1  0  0  0  0
 43 44  1  0  0  0  0
 43 45  1  0  0  0  0
 43 46  1  0  0  0  0
 46 47  1  0  0  0  0
 46 48  1  0  0  0  0
 46 49  1  0  0  0  0
 49 50  1  0  0  0  0
 49 51  1  0  0  0  0
 49 52  1  0  0  0  0
 52 53  1  0  0  0  0
 52 54  1  0  0  0  0
 52 55  1  0  0  0  0
 55 56  1  0  0  0  0
 55 57  1  0  0  0  0
 55 58  1  0  0  0  0
 58 59  1  0  0  0  0
 58 60  1  0  0  0  0
 58 61  1  0  0  0  0
  4 62  1  0  0  0  0
 62 63  1  0  0  0  0
 63 64  2  0  0  0  0
 63 65  1  0  0  0  0
 65 66  1  0  0  0  0
 65 67  1  0  0  0  0
 65 68  1  0  0  0  0
 68 69  1  0  0  0  0
 68 70  1  0  0  0  0
 68 71  1  0  0  0  0
 71 72  1  0  0  0  0
 71 73  1  0  0  0  0
 71 74  1  0  0  0  0
 74 75  1  0  0  0  0
 74 76  1  0  0  0  0
 74 77  1  0  0  0  0
 77 78  1  0  0  0  0
 77 79  1  0  0  0  0
 77 80  1  0  0  0  0
 80 81  1  0  0  0  0
 80 82  1  0  0  0  0
 80 83  1  0  0  0  0
 83 84  1  0  0  0  0
 83 85  1  0  0  0  0
 83 86  1  0  0  0  0
 86 87  1  0  0  0  0
 86 88  2  0  0  0  0
 88 89  1  0  0  0  0
 88 90  1  0  0  0  0
 90 91  1  0  0  0  0
 90 92  1  0  0  0  0
 90 93  1  0  0  0  0
 93 94  1  0  0  0  0
 93 95  1  0  0  0  0
 93 96  1  0  0  0  0
 96 97  1  0  0  0  0
 96 98  1  0  0  0  0
 96 99  1  0  0  0  0
 99100  1  0  0  0  0
 99101  1  0  0  0  0
 99102  1  0  0  0  0
102103  1  0  0  0  0
102104  1  0  0  0  0
102105  1  0  0  0  0
105106  1  0  0  0  0
105107  1  0  0  0  0
105108  1  0  0  0  0
108109  1  0  0  0  0
108110  1  0  0  0  0
108111  1  0  0  0  0
111112  1  0  0  0  0
111113  1  0  0  0  0
111114  1  0  0  0  0
  1115  1  0  0  0  0
115116  1  0  0  0  0
116117  2  0  0  0  0
116118  1  0  0  0  0
118119  1  0  0  0  0
118120  1  0  0  0  0
118121  1  0  0  0  0
121122  1  0  0  0  0
121123  1  0  0  0  0
121124  1  0  0  0  0
124125  1  0  0  0  0
124126  1  0  0  0  0
124127  1  0  0  0  0
127128  1  0  0  0  0
127129  1  0  0  0  0
127130  1  0  0  0  0
130131  1  0  0  0  0
130132  1  0  0  0  0
130133  1  0  0  0  0
133134  1  0  0  0  0
133135  1  0  0  0  0
133136  1  0  0  0  0
136137  1  0  0  0  0
136138  1  0  0  0  0
136139  1  0  0  0  0
139140  1  0  0  0  0
139141  2  0  0  0  0
141142  1  0  0  0  0
141143  1  0  0  0  0
143144  1  0  0  0  0
143145  1  0  0  0  0
143146  1  0  0  0  0
146147  1  0  0  0  0
146148  1  0  0  0  0
146149  1  0  0  0  0
149150  1  0  0  0  0
149151  1  0  0  0  0
149152  1  0  0  0  0
152153  1  0  0  0  0
152154  1  0  0  0  0
152155  1  0  0  0  0
155156  1  0  0  0  0
155157  1  0  0  0  0
155158  1  0  0  0  0
158159  1  0  0  0  0
158160  1  0  0  0  0
158161  1  0  0  0  0
161162  1  0  0  0  0
161163  1  0  0  0  0
161164  1  0  0  0  0
164165  1  0  0  0  0
164166  1  0  0  0  0
164167  1  0  0  0  0
M  END
> <ChemID>
100622

> <source_casrn>
122-32-7

> <CAS>
122-32-7

> <SMILES>
CCCCCCCC/C=C\CCCCCCCC(=O)OC(COC(=O)CCCCCCC/C=C\CCCCCCCC)COC(=O)CCCCCCC/C=C\CCCCCCCC

> <NAME>
Glycerol trioleate

> <preferred_name>
Glyceryl trioleate

> <iupac>
C57H104O6

> <MPID>
100631

> <dsstox_substance_id>
DTXSID3026988

> <Canonical_QSARr>
CCCCCCCCC=CCCCCCCCC(=O)OC(COC(=O)CCCCCCCC=CCCCCCCCC)COC(=O)CCCCCCCC=CCCCCCCCC

> <InChI_Code_QSARr>
InChI=1S/C57H104O6/c1-4-7-10-13-16-19-22-25-28-31-34-37-40-43-46-49-55(58)61-52-54(63-57(60)51-48-45-42-39-36-33-30-27-24-21-18-15-12-9-6-3)53-62-56(59)50-47-44-41-38-35-32-29-26-23-20-17-14-11-8-5-2/h25-30,54H,4-24,31-53H2,1-3H3/b28-25+,29-26+,30-27+

> <InChI Key_QSARr>
PHYFQTYBJUILEZ-WUOFIQDXSA-N

> <Salt_Solvent>
?

> <Ready_Biodeg>
1.0

$$$$
100623
  -INDIGO-08031722522D

 25 25  0  0  0  0  0  0  0  0999 V2000
    4.1568    4.0000    0.0000 Cl  0  0  0  0  0  0  0  0  0  0  0  0
    4.1570    2.4000    0.0000 C   0  0  0  0  0  0  0  0  0  0  0  0
    5.5426    1.6000    0.0000 N   0  0  0  0  0  0  0  0  0  0  0  0
    5.5426    0.0000    0.0000 C   0  0  0  0  0  0  0  0  0  0  0  0
    6.9283   -0.8000    0.0000 N   0  0  0  0  0  0  0  0  0  0  0  0
    6.9283   -2.4000    0.0000 H   0  0  0  0  0  0  0  0  0  0  0  0
    8.3138    0.0000    0.0000 C   0  0  0  0  0  0  0  0  0  0  0  0
    8.9262    1.4782    0.0000 H   0  0  0  0  0  0  0  0  0  0  0  0
    7.7015    1.4782    0.0000 H   0  0  0  0  0  0  0  0  0  0  0  0
    9.6996   -0.8000    0.0000 C   0  0  0  0  0  0  0  0  0  0  0  0
   11.0851   -1.6000    0.0000 H   0  0  0  0  0  0  0  0  0  0  0  0
   11.0851    0.0000    0.0000 H   0  0  0  0  0  0  0  0  0  0  0  0
    9.6996   -2.4000    0.0000 H   0  0  0  0  0  0  0  0  0  0  0  0
    4.1570   -0.8000    0.0000 N   0  0  0  0  0  0  0  0  0  0  0  0
    2.7713    0.0000    0.0000 C   0  0  0  0  0  0  0  0  0  0  0  0
    1.3857   -0.8000    0.0000 N   0  0  0  0  0  0  0  0  0  0  0  0
    1.3857   -2.4000    0.0000 H   0  0  0  0  0  0  0  0  0  0  0  0
    0.0000    0.0000    0.0000 C   0  0  0  0  0  0  0  0  0  0  0  0
    0.6123    1.4782    0.0000 H   0  0  0  0  0  0  0  0  0  0  0  0
   -0.6123    1.4782    0.0000 H   0  0  0  0  0  0  0  0  0  0  0  0
   -1.3855   -0.8000    0.0000 C   0  0  0  0  0  0  0  0  0  0  0  0
   -2.7713   -1.6000    0.0000 H   0  0  0  0  0  0  0  0  0  0  0  0
   -2.7713    0.0000    0.0000 H   0  0  0  0  0  0  0  0  0  0  0  0
   -1.3855   -2.4000    0.0000 H   0  0  0  0  0  0  0  0  0  0  0  0
    2.7713    1.6000    0.0000 N   0  0  0  0  0  0  0  0  0  0  0  0
  1  2  1  0  0  0  0
  2  3  1  0  0  0  0
  3  4  2  0  0  0  0
  4  5  1  0  0  0  0
  5  6  1  0  0  0  0
  5  7  1  0  0  0  0
  7  8  1  0  0  0  0
  7  9  1  0  0  0  0
  7 10  1  0  0  0  0
 10 11  1  0  0  0  0
 10 12  1  0  0  0  0
 10 13  1  0  0  0  0
  4 14  1  0  0  0  0
 14 15  2  0  0  0  0
 15 16  1  0  0  0  0
 16 17  1  0  0  0  0
 16 18  1  0  0  0  0
 18 19  1  0  0  0  0
 18 20  1  0  0  0  0
 18 21  1  0  0  0  0
 21 22  1  0  0  0  0
 21 23  1  0  0  0  0
 21 24  1  0  0  0  0
 15 25  1  0  0  0  0
 25  2  2  0  0  0  0
M  END
> <ChemID>
100623

> <source_casrn>
122-34-9

> <CAS>
122-34-9

> <SMILES>
CCNc1[n]c(Cl)[n]c(NCC)[n]1

> <NAME>
1,3,5-Triazine-2,4-diamine, 6-chloro-N,N'-diethyl-

> <preferred_name>
Simazine

> <iupac>
6-chloro-N,N'-diethyl-1,3,5-triazine-2,4-diamine

> <MPID>
100632

> <dsstox_substance_id>
DTXSID4021268

> <Canonical_QSARr>
CCNc1[n]c(Cl)[n]c(NCC)[n]1

> <InChI_Code_QSARr>
InChI=1S/C7H12ClN5/c1-3-9-6-11-5(8)12-7(13-6)10-4-2/h3-4H2,1-2H3,(H2,9,10,11,12,13)

> <InChI Key_QSARr>
ODCWYMIRDDJXKW-UHFFFAOYSA-N

> <Salt_Solvent>
?

> <Ready_Biodeg>
0.0

$$$$
100625
  -INDIGO-08031722522D

 33 33  0  0  0  0  0  0  0  0999 V2000
   -3.0070    1.0945    0.0000 C   0  0  0  0  0  0  0  0  0  0  0  0
   -1.7813    2.1229    0.0000 H   0  0  0  0  0  0  0  0  0  0  0  0
   -2.7291   -0.4812    0.0000 C   0  0  0  0  0  0  0  0  0  0  0  0
   -1.2257   -1.0285    0.0000 C   0  0  0  0  0  0  0  0  0  0  0  0
   -1.5719   -2.5906    0.0000 H   0  0  0  0  0  0  0  0  0  0  0  0
   -0.3661   -2.3779    0.0000 H   0  0  0  0  0  0  0  0  0  0  0  0
    0.0000    0.0000    0.0000 C   0  0  0  0  0  0  0  0  0  0  0  0
    0.3462    1.5620    0.0000 H   0  0  0  0  0  0  0  0  0  0  0  0
   -0.8596    1.3494    0.0000 H   0  0  0  0  0  0  0  0  0  0  0  0
    1.5034   -0.5472    0.0000 C   0  0  0  0  0  0  0  0  0  0  0  0
    1.1572   -2.1093    0.0000 H   0  0  0  0  0  0  0  0  0  0  0  0
    2.3633   -1.8967    0.0000 H   0  0  0  0  0  0  0  0  0  0  0  0
    2.7291    0.4812    0.0000 C   0  0  0  0  0  0  0  0  0  0  0  0
    3.0756    2.0433    0.0000 H   0  0  0  0  0  0  0  0  0  0  0  0
    1.8695    1.8307    0.0000 H   0  0  0  0  0  0  0  0  0  0  0  0
    4.2328   -0.0660    0.0000 C   0  0  0  0  0  0  0  0  0  0  0  0
    5.7362   -0.6133    0.0000 H   0  0  0  0  0  0  0  0  0  0  0  0
    5.4583    0.9624    0.0000 H   0  0  0  0  0  0  0  0  0  0  0  0
    4.5105   -1.6417    0.0000 H   0  0  0  0  0  0  0  0  0  0  0  0
   -3.9548   -1.5097    0.0000 C   0  0  0  0  0  0  0  0  0  0  0  0
   -3.6771   -3.0854    0.0000 H   0  0  0  0  0  0  0  0  0  0  0  0
   -5.5549   -1.5097    0.0000 C   0  0  0  0  0  0  0  0  0  0  0  0
   -6.3549   -0.1241    0.0000 C   0  0  0  0  0  0  0  0  0  0  0  0
   -5.5549    1.2615    0.0000 H   0  0  0  0  0  0  0  0  0  0  0  0
   -7.9548   -0.1241    0.0000 C   0  0  0  0  0  0  0  0  0  0  0  0
   -8.7550    1.2615    0.0000 H   0  0  0  0  0  0  0  0  0  0  0  0
   -8.7550   -1.5097    0.0000 C   0  0  0  0  0  0  0  0  0  0  0  0
  -10.3548   -1.5097    0.0000 H   0  0  0  0  0  0  0  0  0  0  0  0
   -7.9548   -2.8953    0.0000 C   0  0  0  0  0  0  0  0  0  0  0  0
   -8.7550   -4.2810    0.0000 H   0  0  0  0  0  0  0  0  0  0  0  0
   -6.3549   -2.8953    0.0000 C   0  0  0  0  0  0  0  0  0  0  0  0
   -5.5549   -4.2810    0.0000 H   0  0  0  0  0  0  0  0  0  0  0  0
   -4.5104    1.6417    0.0000 O   0  0  0  0  0  0  0  0  0  0  0  0
  1  2  1  0  0  0  0
  1  3  1  0  0  0  0
  3  4  1  0  0  0  0
  4  5  1  0  0  0  0
  4  6  1  0  0  0  0
  4  7  1  0  0  0  0
  7  8  1  0  0  0  0
  7  9  1  0  0  0  0
  7 10  1  0  0  0  0
 10 11  1  0  0  0  0
 10 12  1  0  0  0  0
 10 13  1  0  0  0  0
 13 14  1  0  0  0  0
 13 15  1  0  0  0  0
 13 16  1  0  0  0  0
 16 17  1  0  0  0  0
 16 18  1  0  0  0  0
 16 19  1  0  0  0  0
  3 20  2  0  0  0  0
 20 21  1  0  0  0  0
 20 22  1  0  0  0  0
 22 23  1  0  0  0  0
 23 24  1  0  0  0  0
 23 25  2  0  0  0  0
 25 26  1  0  0  0  0
 25 27  1  0  0  0  0
 27 28  1  0  0  0  0
 27 29  2  0  0  0  0
 29 30  1  0  0  0  0
 29 31  1  0  0  0  0
 31 22  2  0  0  0  0
 31 32  1  0  0  0  0
  1 33  2  0  0  0  0
M  END
> <ChemID>
100625

> <source_casrn>
122-40-7

> <CAS>
NOCAS_859230

> <SMILES>
CCCCCC(C=O)=Cc1ccccc1

> <NAME>
Heptanal, 2-(phenylmethylene)-

> <preferred_name>
Pentylcinnamaldehyde

> <iupac>


> <MPID>
100634

> <dsstox_substance_id>
DTXSID80859230

> <Canonical_QSARr>
CCCCCC(C=O)=Cc1ccccc1

> <InChI_Code_QSARr>
InChI=1S/C14H18O/c1-2-3-5-10-14(12-15)11-13-8-6-4-7-9-13/h4,6-9,11-12H,2-3,5,10H2,1H3/b14-11-

> <InChI Key_QSARr>
HMKKIXGYKWDQSV-KAMYIIQDSA-N

> <Salt_Solvent>
?

> <Ready_Biodeg>
1.0

$$$$
100626
  -INDIGO-08031722522D

 21 21  0  0  0  0  0  0  0  0999 V2000
   -4.1569    2.4000    0.0000 O   0  0  0  0  0  0  0  0  0  0  0  0
   -4.1569    0.8000    0.0000 C   0  0  0  0  0  0  0  0  0  0  0  0
   -2.7712   -0.0000    0.0000 C   0  0  0  0  0  0  0  0  0  0  0  0
   -2.7712   -1.6000    0.0000 H   0  0  0  0  0  0  0  0  0  0  0  0
   -1.3857    0.8000    0.0000 C   0  0  0  0  0  0  0  0  0  0  0  0
   -1.3857    2.4000    0.0000 H   0  0  0  0  0  0  0  0  0  0  0  0
   -0.0001   -0.0000    0.0000 C   0  0  0  0  0  0  0  0  0  0  0  0
    1.3856    0.8000    0.0000 C   0  0  0  0  0  0  0  0  0  0  0  0
    1.3856    2.4000    0.0000 H   0  0  0  0  0  0  0  0  0  0  0  0
    2.7713   -0.0000    0.0000 C   0  0  0  0  0  0  0  0  0  0  0  0
    4.1569    0.8000    0.0000 H   0  0  0  0  0  0  0  0  0  0  0  0
    2.7713   -1.6000    0.0000 C   0  0  0  0  0  0  0  0  0  0  0  0
    4.1569   -2.4000    0.0000 H   0  0  0  0  0  0  0  0  0  0  0  0
    1.3856   -2.4000    0.0000 C   0  0  0  0  0  0  0  0  0  0  0  0
    1.3856   -4.0000    0.0000 H   0  0  0  0  0  0  0  0  0  0  0  0
   -0.0001   -1.6000    0.0000 C   0  0  0  0  0  0  0  0  0  0  0  0
   -1.3857   -2.4000    0.0000 H   0  0  0  0  0  0  0  0  0  0  0  0
   -5.5425   -0.0000    0.0000 C   0  0  0  0  0  0  0  0  0  0  0  0
   -6.9282   -0.8000    0.0000 H   0  0  0  0  0  0  0  0  0  0  0  0
   -6.9282    0.8000    0.0000 H   0  0  0  0  0  0  0  0  0  0  0  0
   -5.5425   -1.6000    0.0000 H   0  0  0  0  0  0  0  0  0  0  0  0
  1  2  2  0  0  0  0
  2  3  1  0  0  0  0
  3  4  1  0  0  0  0
  3  5  2  0  0  0  0
  5  6  1  0  0  0  0
  5  7  1  0  0  0  0
  7  8  1  0  0  0  0
  8  9  1  0  0  0  0
  8 10  2  0  0  0  0
 10 11  1  0  0  0  0
 10 12  1  0  0  0  0
 12 13  1  0  0  0  0
 12 14  2  0  0  0  0
 14 15  1  0  0  0  0
 14 16  1  0  0  0  0
 16  7  2  0  0  0  0
 16 17  1  0  0  0  0
  2 18  1  0  0  0  0
 18 19  1  0  0  0  0
 18 20  1  0  0  0  0
 18 21  1  0  0  0  0
M  END
> <ChemID>
100626

> <source_casrn>
122-57-6

> <CAS>
122-57-6

> <SMILES>
CC(=O)C=Cc1ccccc1

> <NAME>
3-Buten-2-one, 4-phenyl-

> <preferred_name>
Methyl styryl ketone

> <iupac>
4-phenylbut-3-en-2-one

> <MPID>
100635

> <dsstox_substance_id>
DTXSID4025662

> <Canonical_QSARr>
CC(=O)C=Cc1ccccc1

> <InChI_Code_QSARr>
InChI=1S/C10H10O/c1-9(11)7-8-10-5-3-2-4-6-10/h2-8H,1H3/b8-7+

> <InChI Key_QSARr>
BWHOZHOGCMHOBV-BQYQJAHWSA-N

> <Salt_Solvent>
?

> <Ready_Biodeg>
0.0

$$$$
100627
  -INDIGO-08031722522D

 21 22  0  0  0  0  0  0  0  0999 V2000
    2.4001    1.3856    0.0000 O   0  0  0  0  0  0  0  0  0  0  0  0
    3.9999    1.3856    0.0000 C   0  0  0  0  0  0  0  0  0  0  0  0
    4.8000    2.7713    0.0000 C   0  0  0  0  0  0  0  0  0  0  0  0
    3.9999    4.1569    0.0000 H   0  0  0  0  0  0  0  0  0  0  0  0
    6.4000    2.7713    0.0000 C   0  0  0  0  0  0  0  0  0  0  0  0
    7.2000    4.1569    0.0000 H   0  0  0  0  0  0  0  0  0  0  0  0
    7.2000    1.3856    0.0000 C   0  0  0  0  0  0  0  0  0  0  0  0
    8.8000    1.3856    0.0000 H   0  0  0  0  0  0  0  0  0  0  0  0
    6.4000    0.0000    0.0000 C   0  0  0  0  0  0  0  0  0  0  0  0
    7.2000   -1.3856    0.0000 H   0  0  0  0  0  0  0  0  0  0  0  0
    4.8000    0.0000    0.0000 C   0  0  0  0  0  0  0  0  0  0  0  0
    3.9999   -1.3856    0.0000 H   0  0  0  0  0  0  0  0  0  0  0  0
    1.6000    0.0000    0.0000 C   0  0  0  0  0  0  0  0  0  0  0  0
    1.8088   -1.5863    0.0000 H   0  0  0  0  0  0  0  0  0  0  0  0
    2.8694   -0.9740    0.0000 H   0  0  0  0  0  0  0  0  0  0  0  0
   -0.0001    0.0000    0.0000 C   0  0  0  0  0  0  0  0  0  0  0  0
   -0.2779   -1.5757    0.0000 H   0  0  0  0  0  0  0  0  0  0  0  0
   -1.5035    0.5472    0.0000 C   0  0  0  0  0  0  0  0  0  0  0  0
   -2.3034   -0.8384    0.0000 H   0  0  0  0  0  0  0  0  0  0  0  0
   -2.7292    1.5757    0.0000 H   0  0  0  0  0  0  0  0  0  0  0  0
   -0.2779    1.5757    0.0000 O   0  0  0  0  0  0  0  0  0  0  0  0
  1  2  1  0  0  0  0
  2  3  1  0  0  0  0
  3  4  1  0  0  0  0
  3  5  2  0  0  0  0
  5  6  1  0  0  0  0
  5  7  1  0  0  0  0
  7  8  1  0  0  0  0
  7  9  2  0  0  0  0
  9 10  1  0  0  0  0
  9 11  1  0  0  0  0
 11  2  2  0  0  0  0
 11 12  1  0  0  0  0
  1 13  1  0  0  0  0
 13 14  1  0  0  0  0
 13 15  1  0  0  0  0
 13 16  1  0  0  0  0
 16 17  1  0  0  0  0
 16 18  1  0  0  0  0
 18 19  1  0  0  0  0
 18 20  1  0  0  0  0
 18 21  1  0  0  0  0
 21 16  1  0  0  0  0
M  END
> <ChemID>
100627

> <source_casrn>
122-60-1

> <CAS>
122-60-1

> <SMILES>
C(Oc1ccccc1)C1CO1

> <NAME>
Oxirane, (phenoxymethyl)-

> <preferred_name>
Phenyl glycidyl ether

> <iupac>
2-(phenoxymethyl)oxirane

> <MPID>
100636

> <dsstox_substance_id>
DTXSID8021145

> <Canonical_QSARr>
C(Oc1ccccc1)C1CO1

> <InChI_Code_QSARr>
InChI=1S/C9H10O2/c1-2-4-8(5-3-1)10-6-9-7-11-9/h1-5,9H,6-7H2

> <InChI Key_QSARr>
FQYUMYWMJTYZTK-UHFFFAOYSA-N

> <Salt_Solvent>
?

> <Ready_Biodeg>
0.0

$$$$
100629
  -INDIGO-08031722522D

 48 48  0  0  0  0  0  0  0  0999 V2000
   -8.3138   -0.0000    0.0000 C   0  0  0  0  0  0  0  0  0  0  0  0
   -8.3138   -1.6000    0.0000 C   0  0  0  0  0  0  0  0  0  0  0  0
   -6.9281   -2.4000    0.0000 H   0  0  0  0  0  0  0  0  0  0  0  0
   -9.6994   -2.4000    0.0000 C   0  0  0  0  0  0  0  0  0  0  0  0
   -9.6994   -4.0000    0.0000 H   0  0  0  0  0  0  0  0  0  0  0  0
  -11.0851   -1.6000    0.0000 C   0  0  0  0  0  0  0  0  0  0  0  0
  -12.4708   -2.4000    0.0000 H   0  0  0  0  0  0  0  0  0  0  0  0
  -11.0851   -0.0000    0.0000 C   0  0  0  0  0  0  0  0  0  0  0  0
  -12.4708    0.8000    0.0000 H   0  0  0  0  0  0  0  0  0  0  0  0
   -9.6994    0.8000    0.0000 C   0  0  0  0  0  0  0  0  0  0  0  0
   -9.6994    2.4000    0.0000 H   0  0  0  0  0  0  0  0  0  0  0  0
   -6.9281    0.8000    0.0000 C   0  0  0  0  0  0  0  0  0  0  0  0
   -6.3158    2.2782    0.0000 H   0  0  0  0  0  0  0  0  0  0  0  0
   -7.5404    2.2782    0.0000 H   0  0  0  0  0  0  0  0  0  0  0  0
   -5.5425   -0.0000    0.0000 C   0  0  0  0  0  0  0  0  0  0  0  0
   -6.1548   -1.4782    0.0000 H   0  0  0  0  0  0  0  0  0  0  0  0
   -4.9301   -1.4782    0.0000 H   0  0  0  0  0  0  0  0  0  0  0  0
   -4.1568    0.8000    0.0000 C   0  0  0  0  0  0  0  0  0  0  0  0
   -3.5445    2.2782    0.0000 H   0  0  0  0  0  0  0  0  0  0  0  0
   -4.7691    2.2782    0.0000 H   0  0  0  0  0  0  0  0  0  0  0  0
   -2.7711   -0.0000    0.0000 C   0  0  0  0  0  0  0  0  0  0  0  0
   -3.3834   -1.4782    0.0000 H   0  0  0  0  0  0  0  0  0  0  0  0
   -2.1592   -1.4782    0.0000 H   0  0  0  0  0  0  0  0  0  0  0  0
   -1.3855    0.8000    0.0000 C   0  0  0  0  0  0  0  0  0  0  0  0
   -0.7735    2.2782    0.0000 H   0  0  0  0  0  0  0  0  0  0  0  0
   -1.9978    2.2782    0.0000 H   0  0  0  0  0  0  0  0  0  0  0  0
   -0.0001   -0.0000    0.0000 C   0  0  0  0  0  0  0  0  0  0  0  0
   -0.6121   -1.4782    0.0000 H   0  0  0  0  0  0  0  0  0  0  0  0
    0.6122   -1.4782    0.0000 H   0  0  0  0  0  0  0  0  0  0  0  0
    1.3855    0.8000    0.0000 C   0  0  0  0  0  0  0  0  0  0  0  0
    1.9978    2.2782    0.0000 H   0  0  0  0  0  0  0  0  0  0  0  0
    0.7732    2.2782    0.0000 H   0  0  0  0  0  0  0  0  0  0  0  0
    2.7712   -0.0000    0.0000 C   0  0  0  0  0  0  0  0  0  0  0  0
    2.1589   -1.4782    0.0000 H   0  0  0  0  0  0  0  0  0  0  0  0
    3.3835   -1.4782    0.0000 H   0  0  0  0  0  0  0  0  0  0  0  0
    4.1568    0.8000    0.0000 C   0  0  0  0  0  0  0  0  0  0  0  0
    4.7692    2.2782    0.0000 H   0  0  0  0  0  0  0  0  0  0  0  0
    3.5445    2.2782    0.0000 H   0  0  0  0  0  0  0  0  0  0  0  0
    5.5425   -0.0000    0.0000 C   0  0  0  0  0  0  0  0  0  0  0  0
    4.9302   -1.4782    0.0000 H   0  0  0  0  0  0  0  0  0  0  0  0
    6.1548   -1.4782    0.0000 H   0  0  0  0  0  0  0  0  0  0  0  0
    6.9282    0.8000    0.0000 C   0  0  0  0  0  0  0  0  0  0  0  0
    7.5405    2.2782    0.0000 H   0  0  0  0  0  0  0  0  0  0  0  0
    6.3158    2.2782    0.0000 H   0  0  0  0  0  0  0  0  0  0  0  0
    8.3138   -0.0000    0.0000 C   0  0  0  0  0  0  0  0  0  0  0  0
    9.6995   -0.8000    0.0000 H   0  0  0  0  0  0  0  0  0  0  0  0
    9.6995    0.8000    0.0000 H   0  0  0  0  0  0  0  0  0  0  0  0
    8.3138   -1.6000    0.0000 H   0  0  0  0  0  0  0  0  0  0  0  0
  1  2  1  0  0  0  0
  2  3  1  0  0  0  0
  2  4  2  0  0  0  0
  4  5  1  0  0  0  0
  4  6  1  0  0  0  0
  6  7  1  0  0  0  0
  6  8  2  0  0  0  0
  8  9  1  0  0  0  0
  8 10  1  0  0  0  0
 10  1  2  0  0  0  0
 10 11  1  0  0  0  0
  1 12  1  0  0  0  0
 12 13  1  0  0  0  0
 12 14  1  0  0  0  0
 12 15  1  0  0  0  0
 15 16  1  0  0  0  0
 15 17  1  0  0  0  0
 15 18  1  0  0  0  0
 18 19  1  0  0  0  0
 18 20  1  0  0  0  0
 18 21  1  0  0  0  0
 21 22  1  0  0  0  0
 21 23  1  0  0  0  0
 21 24  1  0  0  0  0
 24 25  1  0  0  0  0
 24 26  1  0  0  0  0
 24 27  1  0  0  0  0
 27 28  1  0  0  0  0
 27 29  1  0  0  0  0
 27 30  1  0  0  0  0
 30 31  1  0  0  0  0
 30 32  1  0  0  0  0
 30 33  1  0  0  0  0
 33 34  1  0  0  0  0
 33 35  1  0  0  0  0
 33 36  1  0  0  0  0
 36 37  1  0  0  0  0
 36 38  1  0  0  0  0
 36 39  1  0  0  0  0
 39 40  1  0  0  0  0
 39 41  1  0  0  0  0
 39 42  1  0  0  0  0
 42 43  1  0  0  0  0
 42 44  1  0  0  0  0
 42 45  1  0  0  0  0
 45 46  1  0  0  0  0
 45 47  1  0  0  0  0
 45 48  1  0  0  0  0
M  END
> <ChemID>
100629

> <source_casrn>
123-01-3

> <CAS>
123-01-3

> <SMILES>
CCCCCCCCCCCCc1ccccc1

> <NAME>
DODECYLBENZENE

> <preferred_name>
Dodecylbenzene

> <iupac>
dodecylbenzene

> <MPID>
100638

> <dsstox_substance_id>
DTXSID7026994

> <Canonical_QSARr>
CCCCCCCCCCCCc1ccccc1

> <InChI_Code_QSARr>
InChI=1S/C18H30/c1-2-3-4-5-6-7-8-9-10-12-15-18-16-13-11-14-17-18/h11,13-14,16-17H,2-10,12,15H2,1H3

> <InChI Key_QSARr>
KWKXNDCHNDYVRT-UHFFFAOYSA-N

> <Salt_Solvent>
?

> <Ready_Biodeg>
1.0

$$$$
100630
  -INDIGO-08031722522D

 93 92  0  0  0  0  0  0  0  0999 V2000
    9.6995    0.8000    0.0000 C   0  0  0  0  0  0  0  0  0  0  0  0
   11.0848    0.0000    0.0000 C   0  0  0  0  0  0  0  0  0  0  0  0
   10.4730   -1.4782    0.0000 H   0  0  0  0  0  0  0  0  0  0  0  0
   11.6973   -1.4782    0.0000 H   0  0  0  0  0  0  0  0  0  0  0  0
   12.4708    0.8000    0.0000 C   0  0  0  0  0  0  0  0  0  0  0  0
   13.0833    2.2782    0.0000 H   0  0  0  0  0  0  0  0  0  0  0  0
   11.8583    2.2782    0.0000 H   0  0  0  0  0  0  0  0  0  0  0  0
   13.8568    0.0000    0.0000 S   0  0  0  0  0  0  0  0  0  0  0  0
   15.2420    0.8000    0.0000 C   0  0  0  0  0  0  0  0  0  0  0  0
   15.8545    2.2782    0.0000 H   0  0  0  0  0  0  0  0  0  0  0  0
   14.6296    2.2782    0.0000 H   0  0  0  0  0  0  0  0  0  0  0  0
   16.6280    0.0000    0.0000 C   0  0  0  0  0  0  0  0  0  0  0  0
   16.0156   -1.4782    0.0000 H   0  0  0  0  0  0  0  0  0  0  0  0
   17.2398   -1.4782    0.0000 H   0  0  0  0  0  0  0  0  0  0  0  0
   18.0133    0.8000    0.0000 C   0  0  0  0  0  0  0  0  0  0  0  0
   19.3993    0.0000    0.0000 O   0  0  0  0  0  0  0  0  0  0  0  0
   20.7846    0.8000    0.0000 C   0  0  0  0  0  0  0  0  0  0  0  0
   21.3971    2.2782    0.0000 H   0  0  0  0  0  0  0  0  0  0  0  0
   20.1721    2.2782    0.0000 H   0  0  0  0  0  0  0  0  0  0  0  0
   22.1699    0.0000    0.0000 C   0  0  0  0  0  0  0  0  0  0  0  0
   21.5581   -1.4782    0.0000 H   0  0  0  0  0  0  0  0  0  0  0  0
   22.7824   -1.4782    0.0000 H   0  0  0  0  0  0  0  0  0  0  0  0
   23.5559    0.8000    0.0000 C   0  0  0  0  0  0  0  0  0  0  0  0
   24.1684    2.2782    0.0000 H   0  0  0  0  0  0  0  0  0  0  0  0
   22.9434    2.2782    0.0000 H   0  0  0  0  0  0  0  0  0  0  0  0
   24.9412    0.0000    0.0000 C   0  0  0  0  0  0  0  0  0  0  0  0
   24.3294   -1.4782    0.0000 H   0  0  0  0  0  0  0  0  0  0  0  0
   25.5537   -1.4782    0.0000 H   0  0  0  0  0  0  0  0  0  0  0  0
   26.3272    0.8000    0.0000 C   0  0  0  0  0  0  0  0  0  0  0  0
   26.9397    2.2782    0.0000 H   0  0  0  0  0  0  0  0  0  0  0  0
   25.7147    2.2782    0.0000 H   0  0  0  0  0  0  0  0  0  0  0  0
   27.7132    0.0000    0.0000 C   0  0  0  0  0  0  0  0  0  0  0  0
   27.1007   -1.4782    0.0000 H   0  0  0  0  0  0  0  0  0  0  0  0
   28.3249   -1.4782    0.0000 H   0  0  0  0  0  0  0  0  0  0  0  0
   29.0985    0.8000    0.0000 C   0  0  0  0  0  0  0  0  0  0  0  0
   29.7109    2.2782    0.0000 H   0  0  0  0  0  0  0  0  0  0  0  0
   28.4860    2.2782    0.0000 H   0  0  0  0  0  0  0  0  0  0  0  0
   30.4845    0.0000    0.0000 C   0  0  0  0  0  0  0  0  0  0  0  0
   29.8720   -1.4782    0.0000 H   0  0  0  0  0  0  0  0  0  0  0  0
   31.0962   -1.4782    0.0000 H   0  0  0  0  0  0  0  0  0  0  0  0
   31.8697    0.8000    0.0000 C   0  0  0  0  0  0  0  0  0  0  0  0
   32.4822    2.2782    0.0000 H   0  0  0  0  0  0  0  0  0  0  0  0
   31.2572    2.2782    0.0000 H   0  0  0  0  0  0  0  0  0  0  0  0
   33.2557    0.0000    0.0000 C   0  0  0  0  0  0  0  0  0  0  0  0
   32.6432   -1.4782    0.0000 H   0  0  0  0  0  0  0  0  0  0  0  0
   33.8675   -1.4782    0.0000 H   0  0  0  0  0  0  0  0  0  0  0  0
   34.6410    0.8000    0.0000 C   0  0  0  0  0  0  0  0  0  0  0  0
   35.2535    2.2782    0.0000 H   0  0  0  0  0  0  0  0  0  0  0  0
   34.0285    2.2782    0.0000 H   0  0  0  0  0  0  0  0  0  0  0  0
   36.0270    0.0000    0.0000 C   0  0  0  0  0  0  0  0  0  0  0  0
   37.4123   -0.8000    0.0000 H   0  0  0  0  0  0  0  0  0  0  0  0
   37.4123    0.8000    0.0000 H   0  0  0  0  0  0  0  0  0  0  0  0
   36.0270   -1.6000    0.0000 H   0  0  0  0  0  0  0  0  0  0  0  0
   18.0133    2.4000    0.0000 O   0  0  0  0  0  0  0  0  0  0  0  0
    8.3142    0.0000    0.0000 O   0  0  0  0  0  0  0  0  0  0  0  0
    6.9282    0.8000    0.0000 C   0  0  0  0  0  0  0  0  0  0  0  0
    7.5407    2.2782    0.0000 H   0  0  0  0  0  0  0  0  0  0  0  0
    6.3157    2.2782    0.0000 H   0  0  0  0  0  0  0  0  0  0  0  0
    5.5422    0.0000    0.0000 C   0  0  0  0  0  0  0  0  0  0  0  0
    4.9304   -1.4782    0.0000 H   0  0  0  0  0  0  0  0  0  0  0  0
    6.1547   -1.4782    0.0000 H   0  0  0  0  0  0  0  0  0  0  0  0
    4.1569    0.8000    0.0000 C   0  0  0  0  0  0  0  0  0  0  0  0
    4.7694    2.2782    0.0000 H   0  0  0  0  0  0  0  0  0  0  0  0
    3.5444    2.2782    0.0000 H   0  0  0  0  0  0  0  0  0  0  0  0
    2.7716    0.0000    0.0000 C   0  0  0  0  0  0  0  0  0  0  0  0
    2.1592   -1.4782    0.0000 H   0  0  0  0  0  0  0  0  0  0  0  0
    3.3834   -1.4782    0.0000 H   0  0  0  0  0  0  0  0  0  0  0  0
    1.3856    0.8000    0.0000 C   0  0  0  0  0  0  0  0  0  0  0  0
    1.9981    2.2782    0.0000 H   0  0  0  0  0  0  0  0  0  0  0  0
    0.7732    2.2782    0.0000 H   0  0  0  0  0  0  0  0  0  0  0  0
    0.0004    0.0000    0.0000 C   0  0  0  0  0  0  0  0  0  0  0  0
   -0.6121   -1.4782    0.0000 H   0  0  0  0  0  0  0  0  0  0  0  0
    0.6121   -1.4782    0.0000 H   0  0  0  0  0  0  0  0  0  0  0  0
   -1.3856    0.8000    0.0000 C   0  0  0  0  0  0  0  0  0  0  0  0
   -0.7732    2.2782    0.0000 H   0  0  0  0  0  0  0  0  0  0  0  0
   -1.9981    2.2782    0.0000 H   0  0  0  0  0  0  0  0  0  0  0  0
   -2.7709    0.0000    0.0000 C   0  0  0  0  0  0  0  0  0  0  0  0
   -3.3834   -1.4782    0.0000 H   0  0  0  0  0  0  0  0  0  0  0  0
   -2.1592   -1.4782    0.0000 H   0  0  0  0  0  0  0  0  0  0  0  0
   -4.1569    0.8000    0.0000 C   0  0  0  0  0  0  0  0  0  0  0  0
   -3.5444    2.2782    0.0000 H   0  0  0  0  0  0  0  0  0  0  0  0
   -4.7694    2.2782    0.0000 H   0  0  0  0  0  0  0  0  0  0  0  0
   -5.5422    0.0000    0.0000 C   0  0  0  0  0  0  0  0  0  0  0  0
   -6.1547   -1.4782    0.0000 H   0  0  0  0  0  0  0  0  0  0  0  0
   -4.9304   -1.4782    0.0000 H   0  0  0  0  0  0  0  0  0  0  0  0
   -6.9282    0.8000    0.0000 C   0  0  0  0  0  0  0  0  0  0  0  0
   -6.3157    2.2782    0.0000 H   0  0  0  0  0  0  0  0  0  0  0  0
   -7.5407    2.2782    0.0000 H   0  0  0  0  0  0  0  0  0  0  0  0
   -8.3135    0.0000    0.0000 C   0  0  0  0  0  0  0  0  0  0  0  0
   -9.6995   -0.8000    0.0000 H   0  0  0  0  0  0  0  0  0  0  0  0
   -9.6995    0.8000    0.0000 H   0  0  0  0  0  0  0  0  0  0  0  0
   -8.3135   -1.6000    0.0000 H   0  0  0  0  0  0  0  0  0  0  0  0
    9.6995    2.4000    0.0000 O   0  0  0  0  0  0  0  0  0  0  0  0
  1  2  1  0  0  0  0
  2  3  1  0  0  0  0
  2  4  1  0  0  0  0
  2  5  1  0  0  0  0
  5  6  1  0  0  0  0
  5  7  1  0  0  0  0
  5  8  1  0  0  0  0
  8  9  1  0  0  0  0
  9 10  1  0  0  0  0
  9 11  1  0  0  0  0
  9 12  1  0  0  0  0
 12 13  1  0  0  0  0
 12 14  1  0  0  0  0
 12 15  1  0  0  0  0
 15 16  1  0  0  0  0
 16 17  1  0  0  0  0
 17 18  1  0  0  0  0
 17 19  1  0  0  0  0
 17 20  1  0  0  0  0
 20 21  1  0  0  0  0
 20 22  1  0  0  0  0
 20 23  1  0  0  0  0
 23 24  1  0  0  0  0
 23 25  1  0  0  0  0
 23 26  1  0  0  0  0
 26 27  1  0  0  0  0
 26 28  1  0  0  0  0
 26 29  1  0  0  0  0
 29 30  1  0  0  0  0
 29 31  1  0  0  0  0
 29 32  1  0  0  0  0
 32 33  1  0  0  0  0
 32 34  1  0  0  0  0
 32 35  1  0  0  0  0
 35 36  1  0  0  0  0
 35 37  1  0  0  0  0
 35 38  1  0  0  0  0
 38 39  1  0  0  0  0
 38 40  1  0  0  0  0
 38 41  1  0  0  0  0
 41 42  1  0  0  0  0
 41 43  1  0  0  0  0
 41 44  1  0  0  0  0
 44 45  1  0  0  0  0
 44 46  1  0  0  0  0
 44 47  1  0  0  0  0
 47 48  1  0  0  0  0
 47 49  1  0  0  0  0
 47 50  1  0  0  0  0
 50 51  1  0  0  0  0
 50 52  1  0  0  0  0
 50 53  1  0  0  0  0
 15 54  2  0  0  0  0
  1 55  1  0  0  0  0
 55 56  1  0  0  0  0
 56 57  1  0  0  0  0
 56 58  1  0  0  0  0
 56 59  1  0  0  0  0
 59 60  1  0  0  0  0
 59 61  1  0  0  0  0
 59 62  1  0  0  0  0
 62 63  1  0  0  0  0
 62 64  1  0  0  0  0
 62 65  1  0  0  0  0
 65 66  1  0  0  0  0
 65 67  1  0  0  0  0
 65 68  1  0  0  0  0
 68 69  1  0  0  0  0
 68 70  1  0  0  0  0
 68 71  1  0  0  0  0
 71 72  1  0  0  0  0
 71 73  1  0  0  0  0
 71 74  1  0  0  0  0
 74 75  1  0  0  0  0
 74 76  1  0  0  0  0
 74 77  1  0  0  0  0
 77 78  1  0  0  0  0
 77 79  1  0  0  0  0
 77 80  1  0  0  0  0
 80 81  1  0  0  0  0
 80 82  1  0  0  0  0
 80 83  1  0  0  0  0
 83 84  1  0  0  0  0
 83 85  1  0  0  0  0
 83 86  1  0  0  0  0
 86 87  1  0  0  0  0
 86 88  1  0  0  0  0
 86 89  1  0  0  0  0
 89 90  1  0  0  0  0
 89 91  1  0  0  0  0
 89 92  1  0  0  0  0
  1 93  2  0  0  0  0
M  END
> <ChemID>
100630

> <source_casrn>
123-28-4

> <CAS>
123-28-4

> <SMILES>
CCCCCCCCCCCCOC(=O)CCSCCC(=O)OCCCCCCCCCCCC

> <NAME>
Propanoic acid, 3,3'-thiobis-, didodecyl ester

> <preferred_name>
Propanoic acid, 3,3'-thiobis-, didodecyl ester

> <iupac>
didodecyl 3,3'-sulfanediyldipropanoate

> <MPID>
100639

> <dsstox_substance_id>
DTXSID2026999

> <Canonical_QSARr>
CCCCCCCCCCCCOC(=O)CCSCCC(=O)OCCCCCCCCCCCC

> <InChI_Code_QSARr>
InChI=1S/C30H58O4S/c1-3-5-7-9-11-13-15-17-19-21-25-33-29(31)23-27-35-28-24-30(32)34-26-22-20-18-16-14-12-10-8-6-4-2/h3-28H2,1-2H3

> <InChI Key_QSARr>
GHKOFFNLGXMVNJ-UHFFFAOYSA-N

> <Salt_Solvent>
?

> <Ready_Biodeg>
1.0

$$$$
100631
  -INDIGO-08031722522D

 15 15  0  0  0  0  0  0  0  0999 V2000
    4.8001   -0.0000    0.0000 O   0  0  0  0  0  0  0  0  0  0  0  0
    5.6000    1.3856    0.0000 H   0  0  0  0  0  0  0  0  0  0  0  0
    3.2001   -0.0000    0.0000 C   0  0  0  0  0  0  0  0  0  0  0  0
    2.4000    1.3856    0.0000 C   0  0  0  0  0  0  0  0  0  0  0  0
    3.2001    2.7713    0.0000 H   0  0  0  0  0  0  0  0  0  0  0  0
    0.8000    1.3856    0.0000 C   0  0  0  0  0  0  0  0  0  0  0  0
    0.0001    2.7713    0.0000 H   0  0  0  0  0  0  0  0  0  0  0  0
    0.0001   -0.0000    0.0000 C   0  0  0  0  0  0  0  0  0  0  0  0
   -1.5999   -0.0000    0.0000 N   0  0  0  0  0  0  0  0  0  0  0  0
   -2.4000    1.3856    0.0000 H   0  0  0  0  0  0  0  0  0  0  0  0
   -2.4000   -1.3856    0.0000 H   0  0  0  0  0  0  0  0  0  0  0  0
    0.8000   -1.3856    0.0000 C   0  0  0  0  0  0  0  0  0  0  0  0
    0.0001   -2.7713    0.0000 H   0  0  0  0  0  0  0  0  0  0  0  0
    2.4000   -1.3856    0.0000 C   0  0  0  0  0  0  0  0  0  0  0  0
    3.2001   -2.7713    0.0000 H   0  0  0  0  0  0  0  0  0  0  0  0
  1  2  1  0  0  0  0
  1  3  1  0  0  0  0
  3  4  1  0  0  0  0
  4  5  1  0  0  0  0
  4  6  2  0  0  0  0
  6  7  1  0  0  0  0
  6  8  1  0  0  0  0
  8  9  1  0  0  0  0
  9 10  1  0  0  0  0
  9 11  1  0  0  0  0
  8 12  2  0  0  0  0
 12 13  1  0  0  0  0
 12 14  1  0  0  0  0
 14  3  2  0  0  0  0
 14 15  1  0  0  0  0
M  END
> <ChemID>
100631

> <source_casrn>
123-30-8

> <CAS>
123-30-8

> <SMILES>
Nc1ccc(O)cc1

> <NAME>
4-Aminophenol

> <preferred_name>
4-Aminophenol

> <iupac>
4-aminophenol

> <MPID>
100640

> <dsstox_substance_id>
DTXSID3024499

> <Canonical_QSARr>
Nc1ccc(O)cc1

> <InChI_Code_QSARr>
InChI=1S/C6H7NO/c7-5-1-3-6(8)4-2-5/h1-4,8H,7H2

> <InChI Key_QSARr>
PLIKAWJENQZMHA-UHFFFAOYSA-N

> <Salt_Solvent>
?

> <Ready_Biodeg>
1.0

$$$$
100633
  -INDIGO-08031722522D

 12 12  0  0  0  0  0  0  0  0999 V2000
    0.8000    1.3856    0.0000 O   0  0  0  0  0  0  0  0  0  0  0  0
   -0.0000   -0.0000    0.0000 C   0  0  0  0  0  0  0  0  0  0  0  0
    0.8000   -1.3857    0.0000 C   0  0  0  0  0  0  0  0  0  0  0  0
    2.4000   -1.3857    0.0000 H   0  0  0  0  0  0  0  0  0  0  0  0
   -0.0000   -2.7713    0.0000 C   0  0  0  0  0  0  0  0  0  0  0  0
    0.8000   -4.1569    0.0000 H   0  0  0  0  0  0  0  0  0  0  0  0
   -1.6000   -2.7713    0.0000 C   0  0  0  0  0  0  0  0  0  0  0  0
   -2.4000   -4.1569    0.0000 O   0  0  0  0  0  0  0  0  0  0  0  0
   -2.4000   -1.3856    0.0000 N   0  0  0  0  0  0  0  0  0  0  0  0
   -4.0000   -1.3856    0.0000 H   0  0  0  0  0  0  0  0  0  0  0  0
   -1.6000   -0.0000    0.0000 N   0  0  0  0  0  0  0  0  0  0  0  0
   -2.4000    1.3856    0.0000 H   0  0  0  0  0  0  0  0  0  0  0  0
  1  2  2  0  0  0  0
  2  3  1  0  0  0  0
  3  4  1  0  0  0  0
  3  5  2  0  0  0  0
  5  6  1  0  0  0  0
  5  7  1  0  0  0  0
  7  8  2  0  0  0  0
  7  9  1  0  0  0  0
  9 10  1  0  0  0  0
  9 11  1  0  0  0  0
 11  2  1  0  0  0  0
 11 12  1  0  0  0  0
M  END
> <ChemID>
100633

> <source_casrn>
123-33-1

> <CAS>
123-33-1

> <SMILES>
C1=CC(=O)NNC1(=O)

> <NAME>
Maleic hydrazide

> <preferred_name>
Maleic hydrazide

> <iupac>
1,2-dihydropyridazine-3,6-dione

> <MPID>
100642

> <dsstox_substance_id>
DTXSID9020792

> <Canonical_QSARr>
O=C1C=CC(=O)NN1

> <InChI_Code_QSARr>
InChI=1S/C4H4N2O2/c7-3-1-2-4(8)6-5-3/h1-2H,(H,5,7)(H,6,8)

> <InChI Key_QSARr>
BGRDGMRNKXEXQD-UHFFFAOYSA-N

> <Salt_Solvent>
?

> <Ready_Biodeg>
1.0

$$$$
100634
  -INDIGO-08031722522D

 26 25  0  0  0  0  0  0  0  0999 V2000
    1.3856    0.8000    0.0000 C   0  0  0  0  0  0  0  0  0  0  0  0
    1.3856    2.4000    0.0000 C   0  0  0  0  0  0  0  0  0  0  0  0
    2.7713    3.2000    0.0000 H   0  0  0  0  0  0  0  0  0  0  0  0
   -0.0001    3.2000    0.0000 H   0  0  0  0  0  0  0  0  0  0  0  0
    2.7713   -0.0000    0.0000 C   0  0  0  0  0  0  0  0  0  0  0  0
    2.7713   -1.6000    0.0000 H   0  0  0  0  0  0  0  0  0  0  0  0
    4.1569    0.8000    0.0000 C   0  0  0  0  0  0  0  0  0  0  0  0
    5.5426   -0.0000    0.0000 H   0  0  0  0  0  0  0  0  0  0  0  0
    4.1569    2.4000    0.0000 H   0  0  0  0  0  0  0  0  0  0  0  0
   -0.0001   -0.0000    0.0000 C   0  0  0  0  0  0  0  0  0  0  0  0
   -0.6122   -1.4782    0.0000 H   0  0  0  0  0  0  0  0  0  0  0  0
    0.6123   -1.4782    0.0000 H   0  0  0  0  0  0  0  0  0  0  0  0
   -1.3856    0.8000    0.0000 C   0  0  0  0  0  0  0  0  0  0  0  0
   -0.7734    2.2782    0.0000 H   0  0  0  0  0  0  0  0  0  0  0  0
   -1.9979    2.2782    0.0000 H   0  0  0  0  0  0  0  0  0  0  0  0
   -2.7713   -0.0000    0.0000 C   0  0  0  0  0  0  0  0  0  0  0  0
   -2.7713   -1.6000    0.0000 H   0  0  0  0  0  0  0  0  0  0  0  0
   -4.1570    0.8000    0.0000 C   0  0  0  0  0  0  0  0  0  0  0  0
   -5.5425   -0.0000    0.0000 C   0  0  0  0  0  0  0  0  0  0  0  0
   -6.9282   -0.8000    0.0000 H   0  0  0  0  0  0  0  0  0  0  0  0
   -6.9282    0.8000    0.0000 H   0  0  0  0  0  0  0  0  0  0  0  0
   -5.5425   -1.6000    0.0000 H   0  0  0  0  0  0  0  0  0  0  0  0
   -4.1570    2.4000    0.0000 C   0  0  0  0  0  0  0  0  0  0  0  0
   -4.1570    4.0000    0.0000 H   0  0  0  0  0  0  0  0  0  0  0  0
   -5.5425    3.2000    0.0000 H   0  0  0  0  0  0  0  0  0  0  0  0
   -2.7713    3.2000    0.0000 H   0  0  0  0  0  0  0  0  0  0  0  0
  1  2  2  0  0  0  0
  2  3  1  0  0  0  0
  2  4  1  0  0  0  0
  1  5  1  0  0  0  0
  5  6  1  0  0  0  0
  5  7  2  0  0  0  0
  7  8  1  0  0  0  0
  7  9  1  0  0  0  0
  1 10  1  0  0  0  0
 10 11  1  0  0  0  0
 10 12  1  0  0  0  0
 10 13  1  0  0  0  0
 13 14  1  0  0  0  0
 13 15  1  0  0  0  0
 13 16  1  0  0  0  0
 16 17  1  0  0  0  0
 16 18  2  0  0  0  0
 18 19  1  0  0  0  0
 19 20  1  0  0  0  0
 19 21  1  0  0  0  0
 19 22  1  0  0  0  0
 18 23  1  0  0  0  0
 23 24  1  0  0  0  0
 23 25  1  0  0  0  0
 23 26  1  0  0  0  0
M  END
> <ChemID>
100634

> <source_casrn>
123-35-3

> <CAS>
123-35-3

> <SMILES>
CC(C)=CCCC(=C)C=C

> <NAME>
1,6-Octadiene, 7-methyl-3-methylene-

> <preferred_name>
Myrcene

> <iupac>
7-methyl-3-methylideneocta-1,6-diene

> <MPID>
100643

> <dsstox_substance_id>
DTXSID6025692

> <Canonical_QSARr>
CC(C)=CCCC(=C)C=C

> <InChI_Code_QSARr>
InChI=1S/C10H16/c1-5-10(4)8-6-7-9(2)3/h5,7H,1,4,6,8H2,2-3H3

> <InChI Key_QSARr>
UAHWPYUMFXYFJY-UHFFFAOYSA-N

> <Salt_Solvent>
?

> <Ready_Biodeg>
1.0

$$$$
100635
  -INDIGO-08031722522D

 10  9  0  0  0  0  0  0  0  0999 V2000
    1.3856    0.8000    0.0000 C   0  0  0  0  0  0  0  0  0  0  0  0
    2.7713    1.6000    0.0000 H   0  0  0  0  0  0  0  0  0  0  0  0
    2.7713    0.0000    0.0000 H   0  0  0  0  0  0  0  0  0  0  0  0
    1.3856    2.4000    0.0000 H   0  0  0  0  0  0  0  0  0  0  0  0
   -0.0000    0.0000    0.0000 C   0  0  0  0  0  0  0  0  0  0  0  0
    0.6123   -1.4782    0.0000 H   0  0  0  0  0  0  0  0  0  0  0  0
   -0.6123   -1.4782    0.0000 H   0  0  0  0  0  0  0  0  0  0  0  0
   -1.3856    0.8000    0.0000 C   0  0  0  0  0  0  0  0  0  0  0  0
   -2.7713    0.0000    0.0000 H   0  0  0  0  0  0  0  0  0  0  0  0
   -1.3856    2.4000    0.0000 O   0  0  0  0  0  0  0  0  0  0  0  0
  1  2  1  0  0  0  0
  1  3  1  0  0  0  0
  1  4  1  0  0  0  0
  1  5  1  0  0  0  0
  5  6  1  0  0  0  0
  5  7  1  0  0  0  0
  5  8  1  0  0  0  0
  8  9  1  0  0  0  0
  8 10  2  0  0  0  0
M  END
> <ChemID>
100635

> <source_casrn>
123-38-6

> <CAS>
123-38-6

> <SMILES>
CCC=O

> <NAME>
Propanal

> <preferred_name>
Propanal

> <iupac>
propanal

> <MPID>
100644

> <dsstox_substance_id>
DTXSID2021658

> <Canonical_QSARr>
CCC=O

> <InChI_Code_QSARr>
InChI=1S/C3H6O/c1-2-3-4/h3H,2H2,1H3

> <InChI Key_QSARr>
NBBJYMSMWIIQGU-UHFFFAOYSA-N

> <Salt_Solvent>
?

> <Ready_Biodeg>
1.0

$$$$
100637
  -INDIGO-08031722522D

 18 17  0  0  0  0  0  0  0  0999 V2000
   -1.5035    0.5472    0.0000 C   0  0  0  0  0  0  0  0  0  0  0  0
   -1.1572    2.1093    0.0000 H   0  0  0  0  0  0  0  0  0  0  0  0
   -2.3632    1.8967    0.0000 H   0  0  0  0  0  0  0  0  0  0  0  0
   -2.7292   -0.4813    0.0000 C   0  0  0  0  0  0  0  0  0  0  0  0
   -3.0754   -2.0433    0.0000 H   0  0  0  0  0  0  0  0  0  0  0  0
   -1.8695   -1.8307    0.0000 H   0  0  0  0  0  0  0  0  0  0  0  0
   -4.2327    0.0660    0.0000 O   0  0  0  0  0  0  0  0  0  0  0  0
   -5.4584   -0.9624    0.0000 H   0  0  0  0  0  0  0  0  0  0  0  0
   -0.0001    0.0000    0.0000 C   0  0  0  0  0  0  0  0  0  0  0  0
   -0.8000   -1.3856    0.0000 H   0  0  0  0  0  0  0  0  0  0  0  0
    1.3857   -0.8000    0.0000 C   0  0  0  0  0  0  0  0  0  0  0  0
    2.7713   -1.6000    0.0000 H   0  0  0  0  0  0  0  0  0  0  0  0
    1.3857   -2.4000    0.0000 H   0  0  0  0  0  0  0  0  0  0  0  0
    2.7713    0.0000    0.0000 H   0  0  0  0  0  0  0  0  0  0  0  0
    0.8000    1.3856    0.0000 C   0  0  0  0  0  0  0  0  0  0  0  0
    1.6000    2.7713    0.0000 H   0  0  0  0  0  0  0  0  0  0  0  0
   -0.0001    2.7713    0.0000 H   0  0  0  0  0  0  0  0  0  0  0  0
    2.4000    1.3856    0.0000 H   0  0  0  0  0  0  0  0  0  0  0  0
  1  2  1  0  0  0  0
  1  3  1  0  0  0  0
  1  4  1  0  0  0  0
  4  5  1  0  0  0  0
  4  6  1  0  0  0  0
  4  7  1  0  0  0  0
  7  8  1  0  0  0  0
  1  9  1  0  0  0  0
  9 10  1  0  0  0  0
  9 11  1  0  0  0  0
 11 12  1  0  0  0  0
 11 13  1  0  0  0  0
 11 14  1  0  0  0  0
  9 15  1  0  0  0  0
 15 16  1  0  0  0  0
 15 17  1  0  0  0  0
 15 18  1  0  0  0  0
M  END
> <ChemID>
100637

> <source_casrn>
123-51-3

> <CAS>
123-51-3

> <SMILES>
CC(C)CCO

> <NAME>
3-Methyl-1-butanol

> <preferred_name>
Isopentyl alcohol

> <iupac>
3-methylbutan-1-ol

> <MPID>
100646

> <dsstox_substance_id>
DTXSID3025469

> <Canonical_QSARr>
CC(C)CCO

> <InChI_Code_QSARr>
InChI=1S/C5H12O/c1-5(2)3-4-6/h5-6H,3-4H2,1-2H3

> <InChI Key_QSARr>
PHTQWCKDNZKARW-UHFFFAOYSA-N

> <Salt_Solvent>
?

> <Ready_Biodeg>
1.0

$$$$
100638
  -INDIGO-08031722522D

 15 14  0  0  0  0  0  0  0  0999 V2000
    2.7713    0.0000    0.0000 C   0  0  0  0  0  0  0  0  0  0  0  0
    4.1569   -0.8000    0.0000 H   0  0  0  0  0  0  0  0  0  0  0  0
    4.1569    0.8000    0.0000 H   0  0  0  0  0  0  0  0  0  0  0  0
    2.7713   -1.6000    0.0000 H   0  0  0  0  0  0  0  0  0  0  0  0
    1.3856    0.8000    0.0000 C   0  0  0  0  0  0  0  0  0  0  0  0
    1.3856    2.4000    0.0000 O   0  0  0  0  0  0  0  0  0  0  0  0
    0.0001    0.0000    0.0000 C   0  0  0  0  0  0  0  0  0  0  0  0
    0.6123   -1.4782    0.0000 H   0  0  0  0  0  0  0  0  0  0  0  0
   -0.6123   -1.4782    0.0000 H   0  0  0  0  0  0  0  0  0  0  0  0
   -1.3856    0.8000    0.0000 C   0  0  0  0  0  0  0  0  0  0  0  0
   -1.3856    2.4000    0.0000 O   0  0  0  0  0  0  0  0  0  0  0  0
   -2.7713    0.0000    0.0000 C   0  0  0  0  0  0  0  0  0  0  0  0
   -4.1569   -0.8000    0.0000 H   0  0  0  0  0  0  0  0  0  0  0  0
   -4.1569    0.8000    0.0000 H   0  0  0  0  0  0  0  0  0  0  0  0
   -2.7713   -1.6000    0.0000 H   0  0  0  0  0  0  0  0  0  0  0  0
  1  2  1  0  0  0  0
  1  3  1  0  0  0  0
  1  4  1  0  0  0  0
  1  5  1  0  0  0  0
  5  6  2  0  0  0  0
  5  7  1  0  0  0  0
  7  8  1  0  0  0  0
  7  9  1  0  0  0  0
  7 10  1  0  0  0  0
 10 11  2  0  0  0  0
 10 12  1  0  0  0  0
 12 13  1  0  0  0  0
 12 14  1  0  0  0  0
 12 15  1  0  0  0  0
M  END
> <ChemID>
100638

> <source_casrn>
123-54-6

> <CAS>
123-54-6

> <SMILES>
CC(=O)CC(C)=O

> <NAME>
2,4-Pentanedione

> <preferred_name>
2,4-Pentanedione

> <iupac>
pentane-2,4-dione

> <MPID>
100647

> <dsstox_substance_id>
DTXSID4021979

> <Canonical_QSARr>
CC(=O)CC(C)=O

> <InChI_Code_QSARr>
InChI=1S/C5H8O2/c1-4(6)3-5(2)7/h3H2,1-2H3

> <InChI Key_QSARr>
YRKCREAYFQTBPV-UHFFFAOYSA-N

> <Salt_Solvent>
?

> <Ready_Biodeg>
1.0

$$$$
100639
  -INDIGO-08031722522D

 21 21  0  0  0  0  0  0  0  0999 V2000
    0.0000    0.0000    0.0000 C   0  0  0  0  0  0  0  0  0  0  0  0
    0.2779    1.5757    0.0000 H   0  0  0  0  0  0  0  0  0  0  0  0
   -1.5036    0.5472    0.0000 C   0  0  0  0  0  0  0  0  0  0  0  0
   -3.0070    1.0945    0.0000 H   0  0  0  0  0  0  0  0  0  0  0  0
   -1.7814    2.1229    0.0000 H   0  0  0  0  0  0  0  0  0  0  0  0
   -2.7292   -0.4812    0.0000 H   0  0  0  0  0  0  0  0  0  0  0  0
   -0.8000   -1.3857    0.0000 O   0  0  0  0  0  0  0  0  0  0  0  0
    0.0000   -2.7713    0.0000 C   0  0  0  0  0  0  0  0  0  0  0  0
   -1.5036   -3.3185    0.0000 H   0  0  0  0  0  0  0  0  0  0  0  0
    0.2779   -4.3469    0.0000 C   0  0  0  0  0  0  0  0  0  0  0  0
    0.5557   -5.9227    0.0000 H   0  0  0  0  0  0  0  0  0  0  0  0
   -0.9479   -5.3755    0.0000 H   0  0  0  0  0  0  0  0  0  0  0  0
    1.7813   -4.8942    0.0000 H   0  0  0  0  0  0  0  0  0  0  0  0
    1.6000   -2.7713    0.0000 O   0  0  0  0  0  0  0  0  0  0  0  0
    2.4000   -1.3857    0.0000 C   0  0  0  0  0  0  0  0  0  0  0  0
    3.6257   -2.4141    0.0000 H   0  0  0  0  0  0  0  0  0  0  0  0
    3.6257   -0.3572    0.0000 C   0  0  0  0  0  0  0  0  0  0  0  0
    4.8513    0.6713    0.0000 H   0  0  0  0  0  0  0  0  0  0  0  0
    5.1292   -0.9044    0.0000 H   0  0  0  0  0  0  0  0  0  0  0  0
    3.3479    1.2185    0.0000 H   0  0  0  0  0  0  0  0  0  0  0  0
    1.6000    0.0000    0.0000 O   0  0  0  0  0  0  0  0  0  0  0  0
  1  2  1  0  0  0  0
  1  3  1  0  0  0  0
  3  4  1  0  0  0  0
  3  5  1  0  0  0  0
  3  6  1  0  0  0  0
  1  7  1  0  0  0  0
  7  8  1  0  0  0  0
  8  9  1  0  0  0  0
  8 10  1  0  0  0  0
 10 11  1  0  0  0  0
 10 12  1  0  0  0  0
 10 13  1  0  0  0  0
  8 14  1  0  0  0  0
 14 15  1  0  0  0  0
 15 16  1  0  0  0  0
 15 17  1  0  0  0  0
 17 18  1  0  0  0  0
 17 19  1  0  0  0  0
 17 20  1  0  0  0  0
 15 21  1  0  0  0  0
 21  1  1  0  0  0  0
M  END
> <ChemID>
100639

> <source_casrn>
123-63-7

> <CAS>
123-63-7

> <SMILES>
CC1OC(C)OC(C)O1

> <NAME>
1,3,5-Trioxane, 2,4,6-trimethyl-

> <preferred_name>
Paraldehyde

> <iupac>
2,4,6-trimethyl-1,3,5-trioxane

> <MPID>
100648

> <dsstox_substance_id>
DTXSID9023419

> <Canonical_QSARr>
CC1OC(C)OC(C)O1

> <InChI_Code_QSARr>
InChI=1S/C6H12O3/c1-4-7-5(2)9-6(3)8-4/h4-6H,1-3H3

> <InChI Key_QSARr>
SQYNKIJPMDEDEG-UHFFFAOYSA-N

> <Salt_Solvent>
?

> <Ready_Biodeg>
0.0

$$$$
100641
  -INDIGO-08031722522D

 20 19  0  0  0  0  0  0  0  0999 V2000
    5.5425    0.0000    0.0000 C   0  0  0  0  0  0  0  0  0  0  0  0
    6.9282   -0.8000    0.0000 H   0  0  0  0  0  0  0  0  0  0  0  0
    6.9282    0.8000    0.0000 H   0  0  0  0  0  0  0  0  0  0  0  0
    5.5425   -1.6000    0.0000 H   0  0  0  0  0  0  0  0  0  0  0  0
    4.1569    0.8000    0.0000 C   0  0  0  0  0  0  0  0  0  0  0  0
    4.1569    2.4000    0.0000 O   0  0  0  0  0  0  0  0  0  0  0  0
    2.7712    0.0000    0.0000 O   0  0  0  0  0  0  0  0  0  0  0  0
    1.3857    0.8000    0.0000 C   0  0  0  0  0  0  0  0  0  0  0  0
    1.9979    2.2782    0.0000 H   0  0  0  0  0  0  0  0  0  0  0  0
    0.7734    2.2782    0.0000 H   0  0  0  0  0  0  0  0  0  0  0  0
    0.0001    0.0000    0.0000 C   0  0  0  0  0  0  0  0  0  0  0  0
   -0.6123   -1.4782    0.0000 H   0  0  0  0  0  0  0  0  0  0  0  0
    0.6122   -1.4782    0.0000 H   0  0  0  0  0  0  0  0  0  0  0  0
   -1.3856    0.8000    0.0000 C   0  0  0  0  0  0  0  0  0  0  0  0
   -0.7733    2.2782    0.0000 H   0  0  0  0  0  0  0  0  0  0  0  0
   -1.9979    2.2782    0.0000 H   0  0  0  0  0  0  0  0  0  0  0  0
   -2.7713    0.0000    0.0000 C   0  0  0  0  0  0  0  0  0  0  0  0
   -4.1569   -0.8000    0.0000 H   0  0  0  0  0  0  0  0  0  0  0  0
   -4.1569    0.8000    0.0000 H   0  0  0  0  0  0  0  0  0  0  0  0
   -2.7713   -1.6000    0.0000 H   0  0  0  0  0  0  0  0  0  0  0  0
  1  2  1  0  0  0  0
  1  3  1  0  0  0  0
  1  4  1  0  0  0  0
  1  5  1  0  0  0  0
  5  6  2  0  0  0  0
  5  7  1  0  0  0  0
  7  8  1  0  0  0  0
  8  9  1  0  0  0  0
  8 10  1  0  0  0  0
  8 11  1  0  0  0  0
 11 12  1  0  0  0  0
 11 13  1  0  0  0  0
 11 14  1  0  0  0  0
 14 15  1  0  0  0  0
 14 16  1  0  0  0  0
 14 17  1  0  0  0  0
 17 18  1  0  0  0  0
 17 19  1  0  0  0  0
 17 20  1  0  0  0  0
M  END
> <ChemID>
100641

> <source_casrn>
123-86-4

> <CAS>
123-86-4

> <SMILES>
CCCCOC(C)=O

> <NAME>
N-BUTYL ACETATE

> <preferred_name>
Butyl acetate

> <iupac>
butyl acetate

> <MPID>
100650

> <dsstox_substance_id>
DTXSID3021982

> <Canonical_QSARr>
CCCCOC(C)=O

> <InChI_Code_QSARr>
InChI=1S/C6H12O2/c1-3-4-5-8-6(2)7/h3-5H2,1-2H3

> <InChI Key_QSARr>
DKPFZGUDAPQIHT-UHFFFAOYSA-N

> <Salt_Solvent>
?

> <Ready_Biodeg>
1.0

$$$$
100642
  -INDIGO-08031722522D

 14 14  0  0  0  0  0  0  0  0999 V2000
    0.0000   -0.0000    0.0000 C   0  0  0  0  0  0  0  0  0  0  0  0
    1.5757    0.2779    0.0000 H   0  0  0  0  0  0  0  0  0  0  0  0
    0.5472   -1.5035    0.0000 H   0  0  0  0  0  0  0  0  0  0  0  0
    0.0000    1.6000    0.0000 C   0  0  0  0  0  0  0  0  0  0  0  0
    1.5757    1.3221    0.0000 H   0  0  0  0  0  0  0  0  0  0  0  0
    0.5472    3.1035    0.0000 H   0  0  0  0  0  0  0  0  0  0  0  0
   -1.3856    2.4000    0.0000 O   0  0  0  0  0  0  0  0  0  0  0  0
   -2.7713    1.6000    0.0000 C   0  0  0  0  0  0  0  0  0  0  0  0
   -3.3185    3.1035    0.0000 H   0  0  0  0  0  0  0  0  0  0  0  0
   -4.3470    1.3221    0.0000 H   0  0  0  0  0  0  0  0  0  0  0  0
   -2.7713   -0.0000    0.0000 C   0  0  0  0  0  0  0  0  0  0  0  0
   -4.3470    0.2779    0.0000 H   0  0  0  0  0  0  0  0  0  0  0  0
   -3.3185   -1.5035    0.0000 H   0  0  0  0  0  0  0  0  0  0  0  0
   -1.3856   -0.8000    0.0000 O   0  0  0  0  0  0  0  0  0  0  0  0
  1  2  1  0  0  0  0
  1  3  1  0  0  0  0
  1  4  1  0  0  0  0
  4  5  1  0  0  0  0
  4  6  1  0  0  0  0
  4  7  1  0  0  0  0
  7  8  1  0  0  0  0
  8  9  1  0  0  0  0
  8 10  1  0  0  0  0
  8 11  1  0  0  0  0
 11 12  1  0  0  0  0
 11 13  1  0  0  0  0
 11 14  1  0  0  0  0
 14  1  1  0  0  0  0
M  END
> <ChemID>
100642

> <source_casrn>
123-91-1

> <CAS>
123-91-1

> <SMILES>
C1COCCO1

> <NAME>
1,4-Dioxane

> <preferred_name>
1,4-Dioxane

> <iupac>
1,4-dioxane

> <MPID>
100651

> <dsstox_substance_id>
DTXSID4020533

> <Canonical_QSARr>
C1COCCO1

> <InChI_Code_QSARr>
InChI=1S/C4H8O2/c1-2-6-4-3-5-1/h1-4H2

> <InChI Key_QSARr>
RYHBNJHYFVUHQT-UHFFFAOYSA-N

> <Salt_Solvent>
?

> <Ready_Biodeg>
0.0

$$$$
100643
  -INDIGO-08031722522D

 67 66  0  0  0  0  0  0  0  0999 V2000
  -11.0850   -0.0000    0.0000 C   0  0  0  0  0  0  0  0  0  0  0  0
   -9.6997   -0.8000    0.0000 C   0  0  0  0  0  0  0  0  0  0  0  0
   -9.0872   -2.2782    0.0000 H   0  0  0  0  0  0  0  0  0  0  0  0
  -10.3117   -2.2782    0.0000 H   0  0  0  0  0  0  0  0  0  0  0  0
   -8.3138   -0.0000    0.0000 C   0  0  0  0  0  0  0  0  0  0  0  0
   -8.9263    1.4782    0.0000 H   0  0  0  0  0  0  0  0  0  0  0  0
   -7.7014    1.4782    0.0000 H   0  0  0  0  0  0  0  0  0  0  0  0
   -6.9280   -0.8000    0.0000 C   0  0  0  0  0  0  0  0  0  0  0  0
   -6.3160   -2.2782    0.0000 H   0  0  0  0  0  0  0  0  0  0  0  0
   -7.5405   -2.2782    0.0000 H   0  0  0  0  0  0  0  0  0  0  0  0
   -5.5427   -0.0000    0.0000 C   0  0  0  0  0  0  0  0  0  0  0  0
   -6.1547    1.4782    0.0000 H   0  0  0  0  0  0  0  0  0  0  0  0
   -4.9302    1.4782    0.0000 H   0  0  0  0  0  0  0  0  0  0  0  0
   -4.1569   -0.8000    0.0000 C   0  0  0  0  0  0  0  0  0  0  0  0
   -3.5449   -2.2782    0.0000 H   0  0  0  0  0  0  0  0  0  0  0  0
   -4.7693   -2.2782    0.0000 H   0  0  0  0  0  0  0  0  0  0  0  0
   -2.7710   -0.0000    0.0000 C   0  0  0  0  0  0  0  0  0  0  0  0
   -3.3835    1.4782    0.0000 H   0  0  0  0  0  0  0  0  0  0  0  0
   -2.1590    1.4782    0.0000 H   0  0  0  0  0  0  0  0  0  0  0  0
   -1.3857   -0.8000    0.0000 C   0  0  0  0  0  0  0  0  0  0  0  0
   -0.7732   -2.2782    0.0000 H   0  0  0  0  0  0  0  0  0  0  0  0
   -1.9977   -2.2782    0.0000 H   0  0  0  0  0  0  0  0  0  0  0  0
    0.0001   -0.0000    0.0000 C   0  0  0  0  0  0  0  0  0  0  0  0
   -0.6124    1.4782    0.0000 H   0  0  0  0  0  0  0  0  0  0  0  0
    0.6121    1.4782    0.0000 H   0  0  0  0  0  0  0  0  0  0  0  0
    1.3855   -0.8000    0.0000 C   0  0  0  0  0  0  0  0  0  0  0  0
    1.9979   -2.2782    0.0000 H   0  0  0  0  0  0  0  0  0  0  0  0
    0.7735   -2.2782    0.0000 H   0  0  0  0  0  0  0  0  0  0  0  0
    2.7713   -0.0000    0.0000 C   0  0  0  0  0  0  0  0  0  0  0  0
    2.1588    1.4782    0.0000 H   0  0  0  0  0  0  0  0  0  0  0  0
    3.3838    1.4782    0.0000 H   0  0  0  0  0  0  0  0  0  0  0  0
    4.1571   -0.8000    0.0000 C   0  0  0  0  0  0  0  0  0  0  0  0
    4.7691   -2.2782    0.0000 H   0  0  0  0  0  0  0  0  0  0  0  0
    3.5446   -2.2782    0.0000 H   0  0  0  0  0  0  0  0  0  0  0  0
    5.5424   -0.0000    0.0000 C   0  0  0  0  0  0  0  0  0  0  0  0
    4.9305    1.4782    0.0000 H   0  0  0  0  0  0  0  0  0  0  0  0
    6.1549    1.4782    0.0000 H   0  0  0  0  0  0  0  0  0  0  0  0
    6.9283   -0.8000    0.0000 C   0  0  0  0  0  0  0  0  0  0  0  0
    7.5408   -2.2782    0.0000 H   0  0  0  0  0  0  0  0  0  0  0  0
    6.3158   -2.2782    0.0000 H   0  0  0  0  0  0  0  0  0  0  0  0
    8.3141   -0.0000    0.0000 C   0  0  0  0  0  0  0  0  0  0  0  0
    7.7016    1.4782    0.0000 H   0  0  0  0  0  0  0  0  0  0  0  0
    8.9261    1.4782    0.0000 H   0  0  0  0  0  0  0  0  0  0  0  0
    9.6994   -0.8000    0.0000 C   0  0  0  0  0  0  0  0  0  0  0  0
   10.3119   -2.2782    0.0000 H   0  0  0  0  0  0  0  0  0  0  0  0
    9.0874   -2.2782    0.0000 H   0  0  0  0  0  0  0  0  0  0  0  0
   11.0853   -0.0000    0.0000 C   0  0  0  0  0  0  0  0  0  0  0  0
   10.4728    1.4782    0.0000 H   0  0  0  0  0  0  0  0  0  0  0  0
   11.6972    1.4782    0.0000 H   0  0  0  0  0  0  0  0  0  0  0  0
   12.4706   -0.8000    0.0000 C   0  0  0  0  0  0  0  0  0  0  0  0
   13.8564   -1.6000    0.0000 H   0  0  0  0  0  0  0  0  0  0  0  0
   13.8564   -0.0000    0.0000 H   0  0  0  0  0  0  0  0  0  0  0  0
   12.4706   -2.4000    0.0000 H   0  0  0  0  0  0  0  0  0  0  0  0
  -12.4708   -0.8000    0.0000 O   0  0  0  0  0  0  0  0  0  0  0  0
  -13.8562   -0.0000    0.0000 C   0  0  0  0  0  0  0  0  0  0  0  0
  -14.4686    1.4782    0.0000 H   0  0  0  0  0  0  0  0  0  0  0  0
  -13.2442    1.4782    0.0000 H   0  0  0  0  0  0  0  0  0  0  0  0
  -15.2420   -0.8000    0.0000 C   0  0  0  0  0  0  0  0  0  0  0  0
  -14.4423   -2.1856    0.0000 H   0  0  0  0  0  0  0  0  0  0  0  0
  -16.6278   -1.6000    0.0000 C   0  0  0  0  0  0  0  0  0  0  0  0
  -16.0153   -3.0782    0.0000 H   0  0  0  0  0  0  0  0  0  0  0  0
  -17.2398   -3.0782    0.0000 H   0  0  0  0  0  0  0  0  0  0  0  0
  -18.0131   -0.8000    0.0000 O   0  0  0  0  0  0  0  0  0  0  0  0
  -19.3990   -1.6000    0.0000 H   0  0  0  0  0  0  0  0  0  0  0  0
  -16.0422    0.5856    0.0000 O   0  0  0  0  0  0  0  0  0  0  0  0
  -17.6422    0.5856    0.0000 H   0  0  0  0  0  0  0  0  0  0  0  0
  -11.0850    1.6000    0.0000 O   0  0  0  0  0  0  0  0  0  0  0  0
  1  2  1  0  0  0  0
  2  3  1  0  0  0  0
  2  4  1  0  0  0  0
  2  5  1  0  0  0  0
  5  6  1  0  0  0  0
  5  7  1  0  0  0  0
  5  8  1  0  0  0  0
  8  9  1  0  0  0  0
  8 10  1  0  0  0  0
  8 11  1  0  0  0  0
 11 12  1  0  0  0  0
 11 13  1  0  0  0  0
 11 14  1  0  0  0  0
 14 15  1  0  0  0  0
 14 16  1  0  0  0  0
 14 17  1  0  0  0  0
 17 18  1  0  0  0  0
 17 19  1  0  0  0  0
 17 20  1  0  0  0  0
 20 21  1  0  0  0  0
 20 22  1  0  0  0  0
 20 23  1  0  0  0  0
 23 24  1  0  0  0  0
 23 25  1  0  0  0  0
 23 26  1  0  0  0  0
 26 27  1  0  0  0  0
 26 28  1  0  0  0  0
 26 29  1  0  0  0  0
 29 30  1  0  0  0  0
 29 31  1  0  0  0  0
 29 32  1  0  0  0  0
 32 33  1  0  0  0  0
 32 34  1  0  0  0  0
 32 35  1  0  0  0  0
 35 36  1  0  0  0  0
 35 37  1  0  0  0  0
 35 38  1  0  0  0  0
 38 39  1  0  0  0  0
 38 40  1  0  0  0  0
 38 41  1  0  0  0  0
 41 42  1  0  0  0  0
 41 43  1  0  0  0  0
 41 44  1  0  0  0  0
 44 45  1  0  0  0  0
 44 46  1  0  0  0  0
 44 47  1  0  0  0  0
 47 48  1  0  0  0  0
 47 49  1  0  0  0  0
 47 50  1  0  0  0  0
 50 51  1  0  0  0  0
 50 52  1  0  0  0  0
 50 53  1  0  0  0  0
  1 54  1  0  0  0  0
 54 55  1  0  0  0  0
 55 56  1  0  0  0  0
 55 57  1  0  0  0  0
 55 58  1  0  0  0  0
 58 59  1  0  0  0  0
 58 60  1  0  0  0  0
 60 61  1  0  0  0  0
 60 62  1  0  0  0  0
 60 63  1  0  0  0  0
 63 64  1  0  0  0  0
 58 65  1  0  0  0  0
 65 66  1  0  0  0  0
  1 67  2  0  0  0  0
M  END
> <ChemID>
100643

> <source_casrn>
123-94-4

> <CAS>
123-94-4

> <SMILES>
O=C(OCC(O)CO)CCCCCCCCCCCCCCCCC

> <NAME>
Glycerol monostearate

> <preferred_name>
1-Stearoyl-rac-glycerol

> <iupac>
2,3-dihydroxypropyl octadecanoate

> <MPID>
100652

> <dsstox_substance_id>
DTXSID7029160

> <Canonical_QSARr>
CCCCCCCCCCCCCCCCCC(=O)OCC(O)CO

> <InChI_Code_QSARr>
InChI=1S/C21H42O4/c1-2-3-4-5-6-7-8-9-10-11-12-13-14-15-16-17-21(24)25-19-20(23)18-22/h20,22-23H,2-19H2,1H3

> <InChI Key_QSARr>
VBICKXHEKHSIBG-UHFFFAOYSA-N

> <Salt_Solvent>
?

> <Ready_Biodeg>
1.0

$$$$
100645
  -INDIGO-08031722522D

 26 25  0  0  0  0  0  0  0  0999 V2000
    4.1570    0.8000    0.0000 C   0  0  0  0  0  0  0  0  0  0  0  0
    5.5426    1.6000    0.0000 H   0  0  0  0  0  0  0  0  0  0  0  0
    5.5426    0.0000    0.0000 H   0  0  0  0  0  0  0  0  0  0  0  0
    4.1570    2.4000    0.0000 H   0  0  0  0  0  0  0  0  0  0  0  0
    2.7713    0.0000    0.0000 C   0  0  0  0  0  0  0  0  0  0  0  0
    2.1590   -1.4782    0.0000 H   0  0  0  0  0  0  0  0  0  0  0  0
    3.3836   -1.4782    0.0000 H   0  0  0  0  0  0  0  0  0  0  0  0
    1.3857    0.8000    0.0000 C   0  0  0  0  0  0  0  0  0  0  0  0
    1.9979    2.2782    0.0000 H   0  0  0  0  0  0  0  0  0  0  0  0
    0.7734    2.2782    0.0000 H   0  0  0  0  0  0  0  0  0  0  0  0
    0.0000    0.0000    0.0000 C   0  0  0  0  0  0  0  0  0  0  0  0
   -0.6123   -1.4782    0.0000 H   0  0  0  0  0  0  0  0  0  0  0  0
    0.6123   -1.4782    0.0000 H   0  0  0  0  0  0  0  0  0  0  0  0
   -1.3855    0.8000    0.0000 C   0  0  0  0  0  0  0  0  0  0  0  0
   -0.7734    2.2782    0.0000 H   0  0  0  0  0  0  0  0  0  0  0  0
   -1.9979    2.2782    0.0000 H   0  0  0  0  0  0  0  0  0  0  0  0
   -2.7713    0.0000    0.0000 C   0  0  0  0  0  0  0  0  0  0  0  0
   -3.3836   -1.4782    0.0000 H   0  0  0  0  0  0  0  0  0  0  0  0
   -2.1590   -1.4782    0.0000 H   0  0  0  0  0  0  0  0  0  0  0  0
   -4.1568    0.8000    0.0000 C   0  0  0  0  0  0  0  0  0  0  0  0
   -3.5447    2.2782    0.0000 H   0  0  0  0  0  0  0  0  0  0  0  0
   -4.7691    2.2782    0.0000 H   0  0  0  0  0  0  0  0  0  0  0  0
   -5.5426    0.0000    0.0000 C   0  0  0  0  0  0  0  0  0  0  0  0
   -6.9281    0.8000    0.0000 O   0  0  0  0  0  0  0  0  0  0  0  0
   -8.3138    0.0000    0.0000 H   0  0  0  0  0  0  0  0  0  0  0  0
   -5.5426   -1.6000    0.0000 O   0  0  0  0  0  0  0  0  0  0  0  0
  1  2  1  0  0  0  0
  1  3  1  0  0  0  0
  1  4  1  0  0  0  0
  1  5  1  0  0  0  0
  5  6  1  0  0  0  0
  5  7  1  0  0  0  0
  5  8  1  0  0  0  0
  8  9  1  0  0  0  0
  8 10  1  0  0  0  0
  8 11  1  0  0  0  0
 11 12  1  0  0  0  0
 11 13  1  0  0  0  0
 11 14  1  0  0  0  0
 14 15  1  0  0  0  0
 14 16  1  0  0  0  0
 14 17  1  0  0  0  0
 17 18  1  0  0  0  0
 17 19  1  0  0  0  0
 17 20  1  0  0  0  0
 20 21  1  0  0  0  0
 20 22  1  0  0  0  0
 20 23  1  0  0  0  0
 23 24  1  0  0  0  0
 24 25  1  0  0  0  0
 23 26  2  0  0  0  0
M  END
> <ChemID>
100645

> <source_casrn>
124-07-2

> <CAS>
124-07-2

> <SMILES>
CCCCCCCC(O)=O

> <NAME>
Octanoic acid

> <preferred_name>
Octanoic acid

> <iupac>
octanoic acid

> <MPID>
100654

> <dsstox_substance_id>
DTXSID3021645

> <Canonical_QSARr>
CCCCCCCC(O)=O

> <InChI_Code_QSARr>
InChI=1S/C8H16O2/c1-2-3-4-5-6-7-8(9)10/h2-7H2,1H3,(H,9,10)

> <InChI Key_QSARr>
WWZKQHOCKIZLMA-UHFFFAOYSA-N

> <Salt_Solvent>
?

> <Ready_Biodeg>
1.0

$$$$
100646
  -INDIGO-08031722522D

 24 23  0  0  0  0  0  0  0  0999 V2000
   -0.0001    0.0000    0.0000 C   0  0  0  0  0  0  0  0  0  0  0  0
    0.6123    1.4782    0.0000 H   0  0  0  0  0  0  0  0  0  0  0  0
   -0.6122    1.4782    0.0000 H   0  0  0  0  0  0  0  0  0  0  0  0
    1.3856   -0.8000    0.0000 C   0  0  0  0  0  0  0  0  0  0  0  0
    0.7733   -2.2782    0.0000 H   0  0  0  0  0  0  0  0  0  0  0  0
    1.9980   -2.2782    0.0000 H   0  0  0  0  0  0  0  0  0  0  0  0
    2.7713    0.0000    0.0000 C   0  0  0  0  0  0  0  0  0  0  0  0
    3.3835    1.4782    0.0000 H   0  0  0  0  0  0  0  0  0  0  0  0
    2.1590    1.4782    0.0000 H   0  0  0  0  0  0  0  0  0  0  0  0
    4.1569   -0.8000    0.0000 N   0  0  0  0  0  0  0  0  0  0  0  0
    5.5426    0.0000    0.0000 H   0  0  0  0  0  0  0  0  0  0  0  0
    4.1569   -2.4000    0.0000 H   0  0  0  0  0  0  0  0  0  0  0  0
   -1.3856   -0.8000    0.0000 C   0  0  0  0  0  0  0  0  0  0  0  0
   -1.9979   -2.2782    0.0000 H   0  0  0  0  0  0  0  0  0  0  0  0
   -0.7734   -2.2782    0.0000 H   0  0  0  0  0  0  0  0  0  0  0  0
   -2.7713    0.0000    0.0000 C   0  0  0  0  0  0  0  0  0  0  0  0
   -2.1589    1.4782    0.0000 H   0  0  0  0  0  0  0  0  0  0  0  0
   -3.3836    1.4782    0.0000 H   0  0  0  0  0  0  0  0  0  0  0  0
   -4.1570   -0.8000    0.0000 C   0  0  0  0  0  0  0  0  0  0  0  0
   -4.7692   -2.2782    0.0000 H   0  0  0  0  0  0  0  0  0  0  0  0
   -3.5446   -2.2782    0.0000 H   0  0  0  0  0  0  0  0  0  0  0  0
   -5.5425    0.0000    0.0000 N   0  0  0  0  0  0  0  0  0  0  0  0
   -6.9282   -0.8000    0.0000 H   0  0  0  0  0  0  0  0  0  0  0  0
   -5.5425    1.6000    0.0000 H   0  0  0  0  0  0  0  0  0  0  0  0
  1  2  1  0  0  0  0
  1  3  1  0  0  0  0
  1  4  1  0  0  0  0
  4  5  1  0  0  0  0
  4  6  1  0  0  0  0
  4  7  1  0  0  0  0
  7  8  1  0  0  0  0
  7  9  1  0  0  0  0
  7 10  1  0  0  0  0
 10 11  1  0  0  0  0
 10 12  1  0  0  0  0
  1 13  1  0  0  0  0
 13 14  1  0  0  0  0
 13 15  1  0  0  0  0
 13 16  1  0  0  0  0
 16 17  1  0  0  0  0
 16 18  1  0  0  0  0
 16 19  1  0  0  0  0
 19 20  1  0  0  0  0
 19 21  1  0  0  0  0
 19 22  1  0  0  0  0
 22 23  1  0  0  0  0
 22 24  1  0  0  0  0
M  END
> <ChemID>
100646

> <source_casrn>
124-09-4

> <CAS>
124-09-4

> <SMILES>
NCCCCCCN

> <NAME>
1,6-Hexanediamine

> <preferred_name>
1,6-Hexanediamine

> <iupac>
hexane-1,6-diamine

> <MPID>
100655

> <dsstox_substance_id>
DTXSID5024922

> <Canonical_QSARr>
NCCCCCCN

> <InChI_Code_QSARr>
InChI=1S/C6H16N2/c7-5-3-1-2-4-6-8/h1-8H2

> <InChI Key_QSARr>
NAQMVNRVTILPCV-UHFFFAOYSA-N

> <Salt_Solvent>
?

> <Ready_Biodeg>
1.0

$$$$
100647
  -INDIGO-08031722522D

 27 26  0  0  0  0  0  0  0  0999 V2000
   -1.3855    0.8000    0.0000 C   0  0  0  0  0  0  0  0  0  0  0  0
   -0.7734    2.2782    0.0000 H   0  0  0  0  0  0  0  0  0  0  0  0
   -1.9979    2.2782    0.0000 H   0  0  0  0  0  0  0  0  0  0  0  0
    0.0000    0.0000    0.0000 C   0  0  0  0  0  0  0  0  0  0  0  0
   -0.6123   -1.4782    0.0000 H   0  0  0  0  0  0  0  0  0  0  0  0
    0.6123   -1.4782    0.0000 H   0  0  0  0  0  0  0  0  0  0  0  0
    1.3857    0.8000    0.0000 C   0  0  0  0  0  0  0  0  0  0  0  0
    1.9979    2.2782    0.0000 H   0  0  0  0  0  0  0  0  0  0  0  0
    0.7734    2.2782    0.0000 H   0  0  0  0  0  0  0  0  0  0  0  0
    2.7713    0.0000    0.0000 C   0  0  0  0  0  0  0  0  0  0  0  0
    2.1590   -1.4782    0.0000 H   0  0  0  0  0  0  0  0  0  0  0  0
    3.3836   -1.4782    0.0000 H   0  0  0  0  0  0  0  0  0  0  0  0
    4.1570    0.8000    0.0000 C   0  0  0  0  0  0  0  0  0  0  0  0
    5.5426    1.6000    0.0000 H   0  0  0  0  0  0  0  0  0  0  0  0
    5.5426    0.0000    0.0000 H   0  0  0  0  0  0  0  0  0  0  0  0
    4.1570    2.4000    0.0000 H   0  0  0  0  0  0  0  0  0  0  0  0
   -2.7713    0.0000    0.0000 C   0  0  0  0  0  0  0  0  0  0  0  0
   -3.3836   -1.4782    0.0000 H   0  0  0  0  0  0  0  0  0  0  0  0
   -2.1590   -1.4782    0.0000 H   0  0  0  0  0  0  0  0  0  0  0  0
   -4.1568    0.8000    0.0000 C   0  0  0  0  0  0  0  0  0  0  0  0
   -3.5447    2.2782    0.0000 H   0  0  0  0  0  0  0  0  0  0  0  0
   -4.7691    2.2782    0.0000 H   0  0  0  0  0  0  0  0  0  0  0  0
   -5.5426    0.0000    0.0000 C   0  0  0  0  0  0  0  0  0  0  0  0
   -5.5426   -1.6000    0.0000 H   0  0  0  0  0  0  0  0  0  0  0  0
   -6.9281    0.8000    0.0000 C   0  0  0  0  0  0  0  0  0  0  0  0
   -8.3138    0.0000    0.0000 H   0  0  0  0  0  0  0  0  0  0  0  0
   -6.9281    2.4000    0.0000 H   0  0  0  0  0  0  0  0  0  0  0  0
  1  2  1  0  0  0  0
  1  3  1  0  0  0  0
  1  4  1  0  0  0  0
  4  5  1  0  0  0  0
  4  6  1  0  0  0  0
  4  7  1  0  0  0  0
  7  8  1  0  0  0  0
  7  9  1  0  0  0  0
  7 10  1  0  0  0  0
 10 11  1  0  0  0  0
 10 12  1  0  0  0  0
 10 13  1  0  0  0  0
 13 14  1  0  0  0  0
 13 15  1  0  0  0  0
 13 16  1  0  0  0  0
  1 17  1  0  0  0  0
 17 18  1  0  0  0  0
 17 19  1  0  0  0  0
 17 20  1  0  0  0  0
 20 21  1  0  0  0  0
 20 22  1  0  0  0  0
 20 23  1  0  0  0  0
 23 24  1  0  0  0  0
 23 25  2  0  0  0  0
 25 26  1  0  0  0  0
 25 27  1  0  0  0  0
M  END
> <ChemID>
100647

> <source_casrn>
124-11-8

> <CAS>
124-11-8

> <SMILES>
CCCCCCCC=C

> <NAME>
1-Nonene

> <preferred_name>
1-Nonene

> <iupac>
non-1-ene

> <MPID>
100656

> <dsstox_substance_id>
DTXSID2059562

> <Canonical_QSARr>
CCCCCCCC=C

> <InChI_Code_QSARr>
InChI=1S/C9H18/c1-3-5-7-9-8-6-4-2/h3H,1,4-9H2,2H3

> <InChI Key_QSARr>
JRZJOMJEPLMPRA-UHFFFAOYSA-N

> <Salt_Solvent>
?

> <Ready_Biodeg>
0.0

$$$$
100649
  -INDIGO-08031722522D

 32 31  0  0  0  0  0  0  0  0999 V2000
   -4.1570   -0.8000    0.0000 C   0  0  0  0  0  0  0  0  0  0  0  0
   -3.5446   -2.2782    0.0000 H   0  0  0  0  0  0  0  0  0  0  0  0
   -4.7692   -2.2782    0.0000 H   0  0  0  0  0  0  0  0  0  0  0  0
   -2.7713    0.0000    0.0000 C   0  0  0  0  0  0  0  0  0  0  0  0
   -3.3835    1.4782    0.0000 H   0  0  0  0  0  0  0  0  0  0  0  0
   -2.1589    1.4782    0.0000 H   0  0  0  0  0  0  0  0  0  0  0  0
   -1.3856   -0.8000    0.0000 C   0  0  0  0  0  0  0  0  0  0  0  0
   -0.7732   -2.2782    0.0000 H   0  0  0  0  0  0  0  0  0  0  0  0
   -1.9980   -2.2782    0.0000 H   0  0  0  0  0  0  0  0  0  0  0  0
    0.0001    0.0000    0.0000 C   0  0  0  0  0  0  0  0  0  0  0  0
   -0.6123    1.4782    0.0000 H   0  0  0  0  0  0  0  0  0  0  0  0
    0.6122    1.4782    0.0000 H   0  0  0  0  0  0  0  0  0  0  0  0
    1.3856   -0.8000    0.0000 C   0  0  0  0  0  0  0  0  0  0  0  0
    1.9979   -2.2782    0.0000 H   0  0  0  0  0  0  0  0  0  0  0  0
    0.7734   -2.2782    0.0000 H   0  0  0  0  0  0  0  0  0  0  0  0
    2.7713    0.0000    0.0000 C   0  0  0  0  0  0  0  0  0  0  0  0
    2.1589    1.4782    0.0000 H   0  0  0  0  0  0  0  0  0  0  0  0
    3.3836    1.4782    0.0000 H   0  0  0  0  0  0  0  0  0  0  0  0
    4.1570   -0.8000    0.0000 C   0  0  0  0  0  0  0  0  0  0  0  0
    4.7691   -2.2782    0.0000 H   0  0  0  0  0  0  0  0  0  0  0  0
    3.5446   -2.2782    0.0000 H   0  0  0  0  0  0  0  0  0  0  0  0
    5.5427    0.0000    0.0000 C   0  0  0  0  0  0  0  0  0  0  0  0
    4.9303    1.4782    0.0000 H   0  0  0  0  0  0  0  0  0  0  0  0
    6.1548    1.4782    0.0000 H   0  0  0  0  0  0  0  0  0  0  0  0
    6.9281   -0.8000    0.0000 C   0  0  0  0  0  0  0  0  0  0  0  0
    8.3138   -1.6000    0.0000 H   0  0  0  0  0  0  0  0  0  0  0  0
    8.3138    0.0000    0.0000 H   0  0  0  0  0  0  0  0  0  0  0  0
    6.9281   -2.4000    0.0000 H   0  0  0  0  0  0  0  0  0  0  0  0
   -5.5425    0.0000    0.0000 C   0  0  0  0  0  0  0  0  0  0  0  0
   -6.9282    0.8000    0.0000 H   0  0  0  0  0  0  0  0  0  0  0  0
   -6.9282   -0.8000    0.0000 H   0  0  0  0  0  0  0  0  0  0  0  0
   -5.5425    1.6000    0.0000 H   0  0  0  0  0  0  0  0  0  0  0  0
  1  2  1  0  0  0  0
  1  3  1  0  0  0  0
  1  4  1  0  0  0  0
  4  5  1  0  0  0  0
  4  6  1  0  0  0  0
  4  7  1  0  0  0  0
  7  8  1  0  0  0  0
  7  9  1  0  0  0  0
  7 10  1  0  0  0  0
 10 11  1  0  0  0  0
 10 12  1  0  0  0  0
 10 13  1  0  0  0  0
 13 14  1  0  0  0  0
 13 15  1  0  0  0  0
 13 16  1  0  0  0  0
 16 17  1  0  0  0  0
 16 18  1  0  0  0  0
 16 19  1  0  0  0  0
 19 20  1  0  0  0  0
 19 21  1  0  0  0  0
 19 22  1  0  0  0  0
 22 23  1  0  0  0  0
 22 24  1  0  0  0  0
 22 25  1  0  0  0  0
 25 26  1  0  0  0  0
 25 27  1  0  0  0  0
 25 28  1  0  0  0  0
  1 29  1  0  0  0  0
 29 30  1  0  0  0  0
 29 31  1  0  0  0  0
 29 32  1  0  0  0  0
M  END
> <ChemID>
100649

> <source_casrn>
124-18-5

> <CAS>
124-18-5

> <SMILES>
CCCCCCCCCC

> <NAME>
Decane

> <preferred_name>
Decane

> <iupac>
decane

> <MPID>
100658

> <dsstox_substance_id>
DTXSID6024913

> <Canonical_QSARr>
CCCCCCCCCC

> <InChI_Code_QSARr>
InChI=1S/C10H22/c1-3-5-7-9-10-8-6-4-2/h3-10H2,1-2H3

> <InChI Key_QSARr>
DIOQZVSQGTUSAI-UHFFFAOYSA-N

> <Salt_Solvent>
?

> <Ready_Biodeg>
1.0

$$$$
100650
  -INDIGO-08031722522D

 10  9  0  0  0  0  0  0  0  0999 V2000
    1.3856    0.8000    0.0000 C   0  0  0  0  0  0  0  0  0  0  0  0
    2.7713    1.6000    0.0000 H   0  0  0  0  0  0  0  0  0  0  0  0
    2.7713    0.0000    0.0000 H   0  0  0  0  0  0  0  0  0  0  0  0
    1.3856    2.4000    0.0000 H   0  0  0  0  0  0  0  0  0  0  0  0
    0.0000    0.0000    0.0000 N   0  0  0  0  0  0  0  0  0  0  0  0
    0.0000   -1.6000    0.0000 H   0  0  0  0  0  0  0  0  0  0  0  0
   -1.3856    0.8000    0.0000 C   0  0  0  0  0  0  0  0  0  0  0  0
   -2.7713    1.6000    0.0000 H   0  0  0  0  0  0  0  0  0  0  0  0
   -2.7713    0.0000    0.0000 H   0  0  0  0  0  0  0  0  0  0  0  0
   -1.3856    2.4000    0.0000 H   0  0  0  0  0  0  0  0  0  0  0  0
  1  2  1  0  0  0  0
  1  3  1  0  0  0  0
  1  4  1  0  0  0  0
  1  5  1  0  0  0  0
  5  6  1  0  0  0  0
  5  7  1  0  0  0  0
  7  8  1  0  0  0  0
  7  9  1  0  0  0  0
  7 10  1  0  0  0  0
M  END
> <ChemID>
100650

> <source_casrn>
124-40-3

> <CAS>
124-40-3

> <SMILES>
CNC

> <NAME>
Methanamine, N-methyl-

> <preferred_name>
Dimethylamine

> <iupac>
N-methylmethanamine

> <MPID>
100659

> <dsstox_substance_id>
DTXSID5024057

> <Canonical_QSARr>
CNC

> <InChI_Code_QSARr>
InChI=1S/C2H7N/c1-3-2/h3H,1-2H3

> <InChI Key_QSARr>
ROSDSFDQCJNGOL-UHFFFAOYSA-N

> <Salt_Solvent>
?

> <Ready_Biodeg>
1.0

$$$$
100651
  -INDIGO-08031722522D

  5  4  0  0  0  0  0  0  0  0999 V2000
   -0.8000   -1.3856    0.0000 Cl  0  0  0  0  0  0  0  0  0  0  0  0
    0.0000    0.0000    0.0000 C   0  0  0  0  0  0  0  0  0  0  0  0
    0.8000    1.3856    0.0000 H   0  0  0  0  0  0  0  0  0  0  0  0
   -1.3856    0.8000    0.0000 Br  0  0  0  0  0  0  0  0  0  0  0  0
    1.3856   -0.8000    0.0000 Br  0  0  0  0  0  0  0  0  0  0  0  0
  1  2  1  0  0  0  0
  2  3  1  0  0  0  0
  2  4  1  0  0  0  0
  2  5  1  0  0  0  0
M  END
> <ChemID>
100651

> <source_casrn>
124-48-1

> <CAS>
124-48-1

> <SMILES>
ClC(Br)Br

> <NAME>
DIBROMOCHLOROMETHANE

> <preferred_name>
Chlorodibromomethane

> <iupac>
dibromo(chloro)methane

> <MPID>
100660

> <dsstox_substance_id>
DTXSID1020300

> <Canonical_QSARr>
ClC(Br)Br

> <InChI_Code_QSARr>
InChI=1S/CHBr2Cl/c2-1(3)4/h1H

> <InChI Key_QSARr>
GATVIKZLVQHOMN-UHFFFAOYSA-N

> <Salt_Solvent>
?

> <Ready_Biodeg>
0.0

$$$$
100653
  -INDIGO-08031722522D

 19 18  0  0  0  0  0  0  0  0999 V2000
    1.3856   -0.8000    0.0000 C   0  0  0  0  0  0  0  0  0  0  0  0
    1.9979   -2.2782    0.0000 H   0  0  0  0  0  0  0  0  0  0  0  0
    0.7734   -2.2782    0.0000 H   0  0  0  0  0  0  0  0  0  0  0  0
    0.0001    0.0000    0.0000 C   0  0  0  0  0  0  0  0  0  0  0  0
   -1.3856    0.8000    0.0000 C   0  0  0  0  0  0  0  0  0  0  0  0
   -1.9979    2.2782    0.0000 H   0  0  0  0  0  0  0  0  0  0  0  0
   -0.7734    2.2782    0.0000 H   0  0  0  0  0  0  0  0  0  0  0  0
   -2.7712    0.0000    0.0000 O   0  0  0  0  0  0  0  0  0  0  0  0
   -4.1569    0.8000    0.0000 H   0  0  0  0  0  0  0  0  0  0  0  0
    0.8000    1.3857    0.0000 C   0  0  0  0  0  0  0  0  0  0  0  0
    1.6000    2.7713    0.0000 H   0  0  0  0  0  0  0  0  0  0  0  0
    0.2528    2.8891    0.0000 H   0  0  0  0  0  0  0  0  0  0  0  0
    2.4000    1.3857    0.0000 H   0  0  0  0  0  0  0  0  0  0  0  0
   -0.8000   -1.3857    0.0000 C   0  0  0  0  0  0  0  0  0  0  0  0
   -1.6000   -2.7713    0.0000 H   0  0  0  0  0  0  0  0  0  0  0  0
   -0.2528   -2.8891    0.0000 H   0  0  0  0  0  0  0  0  0  0  0  0
   -2.4000   -1.3857    0.0000 H   0  0  0  0  0  0  0  0  0  0  0  0
    2.7713    0.0000    0.0000 O   0  0  0  0  0  0  0  0  0  0  0  0
    4.1569   -0.8000    0.0000 H   0  0  0  0  0  0  0  0  0  0  0  0
  1  2  1  0  0  0  0
  1  3  1  0  0  0  0
  1  4  1  0  0  0  0
  4  5  1  0  0  0  0
  5  6  1  0  0  0  0
  5  7  1  0  0  0  0
  5  8  1  0  0  0  0
  8  9  1  0  0  0  0
  4 10  1  0  0  0  0
 10 11  1  0  0  0  0
 10 12  1  0  0  0  0
 10 13  1  0  0  0  0
  4 14  1  0  0  0  0
 14 15  1  0  0  0  0
 14 16  1  0  0  0  0
 14 17  1  0  0  0  0
  1 18  1  0  0  0  0
 18 19  1  0  0  0  0
M  END
> <ChemID>
100653

> <source_casrn>
126-30-7

> <CAS>
126-30-7

> <SMILES>
CC(C)(CO)CO

> <NAME>
Neopentyl glycol

> <preferred_name>
2,2-Dimethylpropane-1,3-diol

> <iupac>
2,2-dimethylpropane-1,3-diol

> <MPID>
100662

> <dsstox_substance_id>
DTXSID8027036

> <Canonical_QSARr>
CC(C)(CO)CO

> <InChI_Code_QSARr>
InChI=1S/C5H12O2/c1-5(2,3-6)4-7/h6-7H,3-4H2,1-2H3

> <InChI Key_QSARr>
SLCVBVWXLSEKPL-UHFFFAOYSA-N

> <Salt_Solvent>
?

> <Ready_Biodeg>
0.0

$$$$
100654
  -INDIGO-08031722522D

 15 15  0  0  0  0  0  0  0  0999 V2000
    0.0000    0.0000    0.0000 S   0  0  0  0  0  0  0  0  0  0  0  0
    0.4944   -1.5217    0.0000 C   0  0  0  0  0  0  0  0  0  0  0  0
    1.9561   -0.8709    0.0000 H   0  0  0  0  0  0  0  0  0  0  0  0
    1.2944   -2.9073    0.0000 H   0  0  0  0  0  0  0  0  0  0  0  0
   -0.8000   -2.4621    0.0000 C   0  0  0  0  0  0  0  0  0  0  0  0
    0.2706   -3.6512    0.0000 H   0  0  0  0  0  0  0  0  0  0  0  0
   -1.8706   -3.6512    0.0000 H   0  0  0  0  0  0  0  0  0  0  0  0
   -2.0944   -1.5217    0.0000 C   0  0  0  0  0  0  0  0  0  0  0  0
   -2.8944   -2.9073    0.0000 H   0  0  0  0  0  0  0  0  0  0  0  0
   -3.5561   -0.8709    0.0000 H   0  0  0  0  0  0  0  0  0  0  0  0
   -1.6000    0.0000    0.0000 C   0  0  0  0  0  0  0  0  0  0  0  0
   -3.1651    0.3327    0.0000 H   0  0  0  0  0  0  0  0  0  0  0  0
   -1.4327    1.5912    0.0000 H   0  0  0  0  0  0  0  0  0  0  0  0
   -0.1673    1.5912    0.0000 O   0  0  0  0  0  0  0  0  0  0  0  0
    1.5651    0.3327    0.0000 O   0  0  0  0  0  0  0  0  0  0  0  0
  1  2  1  0  0  0  0
  2  3  1  0  0  0  0
  2  4  1  0  0  0  0
  2  5  1  0  0  0  0
  5  6  1  0  0  0  0
  5  7  1  0  0  0  0
  5  8  1  0  0  0  0
  8  9  1  0  0  0  0
  8 10  1  0  0  0  0
  8 11  1  0  0  0  0
 11  1  1  0  0  0  0
 11 12  1  0  0  0  0
 11 13  1  0  0  0  0
  1 14  2  0  0  0  0
  1 15  2  0  0  0  0
M  END
> <ChemID>
100654

> <source_casrn>
126-33-0

> <CAS>
126-33-0

> <SMILES>
O=S1(=O)CCCC1

> <NAME>
Thiophene, tetrahydro-, 1,1-dioxide

> <preferred_name>
Sulfolane

> <iupac>
tetrahydrothiophene 1,1-dioxide

> <MPID>
100663

> <dsstox_substance_id>
DTXSID3027037

> <Canonical_QSARr>
O=S1(=O)CCCC1

> <InChI_Code_QSARr>
InChI=1S/C4H8O2S/c5-7(6)3-1-2-4-7/h1-4H2

> <InChI Key_QSARr>
HXJUTPCZVOIRIF-UHFFFAOYSA-N

> <Salt_Solvent>
?

> <Ready_Biodeg>
0.0

$$$$
100655
  -INDIGO-08031722522D

 25 25  0  0  0  0  0  0  0  0999 V2000
    2.4000    1.3856    0.0000 C   0  0  0  0  0  0  0  0  0  0  0  0
    3.9035    1.9329    0.0000 H   0  0  0  0  0  0  0  0  0  0  0  0
    2.1222    2.9614    0.0000 H   0  0  0  0  0  0  0  0  0  0  0  0
    3.2000   -0.0000    0.0000 C   0  0  0  0  0  0  0  0  0  0  0  0
    4.4257    1.0285    0.0000 H   0  0  0  0  0  0  0  0  0  0  0  0
    4.4257   -1.0285    0.0000 H   0  0  0  0  0  0  0  0  0  0  0  0
    2.4000   -1.3856    0.0000 C   0  0  0  0  0  0  0  0  0  0  0  0
    3.9035   -1.9329    0.0000 H   0  0  0  0  0  0  0  0  0  0  0  0
    2.1222   -2.9614    0.0000 H   0  0  0  0  0  0  0  0  0  0  0  0
    0.7999   -1.3856    0.0000 C   0  0  0  0  0  0  0  0  0  0  0  0
    1.0779   -2.9614    0.0000 H   0  0  0  0  0  0  0  0  0  0  0  0
   -0.7034   -1.9329    0.0000 H   0  0  0  0  0  0  0  0  0  0  0  0
    0.0000   -0.0000    0.0000 C   0  0  0  0  0  0  0  0  0  0  0  0
   -1.2257   -1.0285    0.0000 O   0  0  0  0  0  0  0  0  0  0  0  0
   -2.7291   -0.4812    0.0000 C   0  0  0  0  0  0  0  0  0  0  0  0
   -3.9548   -1.5097    0.0000 N   0  0  0  0  0  0  0  0  0  0  0  0
   -5.4584   -0.9625    0.0000 H   0  0  0  0  0  0  0  0  0  0  0  0
   -3.6770   -3.0854    0.0000 H   0  0  0  0  0  0  0  0  0  0  0  0
   -3.0071    1.0945    0.0000 O   0  0  0  0  0  0  0  0  0  0  0  0
   -1.2257    1.0285    0.0000 C   0  0  0  0  0  0  0  0  0  0  0  0
   -2.4513    2.0569    0.0000 C   0  0  0  0  0  0  0  0  0  0  0  0
   -3.6770    3.0854    0.0000 H   0  0  0  0  0  0  0  0  0  0  0  0
    0.7999    1.3856    0.0000 C   0  0  0  0  0  0  0  0  0  0  0  0
   -0.7034    1.9329    0.0000 H   0  0  0  0  0  0  0  0  0  0  0  0
    1.0779    2.9614    0.0000 H   0  0  0  0  0  0  0  0  0  0  0  0
  1  2  1  0  0  0  0
  1  3  1  0  0  0  0
  1  4  1  0  0  0  0
  4  5  1  0  0  0  0
  4  6  1  0  0  0  0
  4  7  1  0  0  0  0
  7  8  1  0  0  0  0
  7  9  1  0  0  0  0
  7 10  1  0  0  0  0
 10 11  1  0  0  0  0
 10 12  1  0  0  0  0
 10 13  1  0  0  0  0
 13 14  1  0  0  0  0
 14 15  1  0  0  0  0
 15 16  1  0  0  0  0
 16 17  1  0  0  0  0
 16 18  1  0  0  0  0
 15 19  2  0  0  0  0
 13 20  1  0  0  0  0
 20 21  3  0  0  0  0
 21 22  1  0  0  0  0
 13 23  1  0  0  0  0
 23  1  1  0  0  0  0
 23 24  1  0  0  0  0
 23 25  1  0  0  0  0
M  END
> <ChemID>
100655

> <source_casrn>
126-52-3

> <CAS>
126-52-3

> <SMILES>
C#CC1(CCCCC1)OC(N)=O

> <NAME>
Ethinamate

> <preferred_name>
Ethinamate

> <iupac>
1-ethynylcyclohexyl carbamate

> <MPID>
100664

> <dsstox_substance_id>
DTXSID7023013

> <Canonical_QSARr>
C#CC1(CCCCC1)OC(N)=O

> <InChI_Code_QSARr>
InChI=1S/C9H13NO2/c1-2-9(12-8(10)11)6-4-3-5-7-9/h1H,3-7H2,(H2,10,11)

> <InChI Key_QSARr>
GXRZIMHKGDIBEW-UHFFFAOYSA-N

> <Salt_Solvent>
?

> <Ready_Biodeg>
1.0

$$$$
100657
  -INDIGO-08031722522D

 44 43  0  0  0  0  0  0  0  0999 V2000
    2.4001    1.3857    0.0000 C   0  0  0  0  0  0  0  0  0  0  0  0
    4.0000    1.3857    0.0000 H   0  0  0  0  0  0  0  0  0  0  0  0
    3.1999    2.7713    0.0000 H   0  0  0  0  0  0  0  0  0  0  0  0
    3.1999   -0.0001    0.0000 H   0  0  0  0  0  0  0  0  0  0  0  0
    0.8000    1.3857    0.0000 C   0  0  0  0  0  0  0  0  0  0  0  0
   -0.4693    2.3596    0.0000 H   0  0  0  0  0  0  0  0  0  0  0  0
    0.5913    2.9720    0.0000 H   0  0  0  0  0  0  0  0  0  0  0  0
   -0.0001   -0.0001    0.0000 C   0  0  0  0  0  0  0  0  0  0  0  0
    1.2692   -0.9740    0.0000 H   0  0  0  0  0  0  0  0  0  0  0  0
    0.2089   -1.5864    0.0000 H   0  0  0  0  0  0  0  0  0  0  0  0
   -1.5999   -0.0001    0.0000 C   0  0  0  0  0  0  0  0  0  0  0  0
   -2.8692    0.9740    0.0000 H   0  0  0  0  0  0  0  0  0  0  0  0
   -1.8089    1.5864    0.0000 H   0  0  0  0  0  0  0  0  0  0  0  0
   -2.4000   -1.3857    0.0000 O   0  0  0  0  0  0  0  0  0  0  0  0
   -3.9999   -1.3857    0.0000 P   0  0  0  0  0  0  0  0  0  0  0  0
   -4.7999   -0.0001    0.0000 O   0  0  0  0  0  0  0  0  0  0  0  0
   -5.6000   -1.3857    0.0000 O   0  0  0  0  0  0  0  0  0  0  0  0
   -6.4001   -0.0001    0.0000 C   0  0  0  0  0  0  0  0  0  0  0  0
   -6.1911    1.5864    0.0000 H   0  0  0  0  0  0  0  0  0  0  0  0
   -5.1308    0.9740    0.0000 H   0  0  0  0  0  0  0  0  0  0  0  0
   -7.9999   -0.0001    0.0000 C   0  0  0  0  0  0  0  0  0  0  0  0
   -8.2089   -1.5864    0.0000 H   0  0  0  0  0  0  0  0  0  0  0  0
   -9.2692   -0.9740    0.0000 H   0  0  0  0  0  0  0  0  0  0  0  0
   -8.8000    1.3857    0.0000 C   0  0  0  0  0  0  0  0  0  0  0  0
   -8.5913    2.9720    0.0000 H   0  0  0  0  0  0  0  0  0  0  0  0
   -7.5307    2.3596    0.0000 H   0  0  0  0  0  0  0  0  0  0  0  0
  -10.4001    1.3857    0.0000 C   0  0  0  0  0  0  0  0  0  0  0  0
  -12.0000    1.3857    0.0000 H   0  0  0  0  0  0  0  0  0  0  0  0
  -11.1999    2.7713    0.0000 H   0  0  0  0  0  0  0  0  0  0  0  0
  -11.1999   -0.0001    0.0000 H   0  0  0  0  0  0  0  0  0  0  0  0
   -4.7999   -2.7712    0.0000 O   0  0  0  0  0  0  0  0  0  0  0  0
   -3.9999   -4.1570    0.0000 C   0  0  0  0  0  0  0  0  0  0  0  0
   -2.5218   -3.5446    0.0000 H   0  0  0  0  0  0  0  0  0  0  0  0
   -2.5218   -4.7692    0.0000 H   0  0  0  0  0  0  0  0  0  0  0  0
   -4.7999   -5.5426    0.0000 C   0  0  0  0  0  0  0  0  0  0  0  0
   -6.2782   -6.1549    0.0000 H   0  0  0  0  0  0  0  0  0  0  0  0
   -6.2782   -4.9302    0.0000 H   0  0  0  0  0  0  0  0  0  0  0  0
   -3.9999   -6.9281    0.0000 C   0  0  0  0  0  0  0  0  0  0  0  0
   -2.5218   -6.3160    0.0000 H   0  0  0  0  0  0  0  0  0  0  0  0
   -2.5218   -7.5405    0.0000 H   0  0  0  0  0  0  0  0  0  0  0  0
   -4.7999   -8.3139    0.0000 C   0  0  0  0  0  0  0  0  0  0  0  0
   -5.6000   -9.6995    0.0000 H   0  0  0  0  0  0  0  0  0  0  0  0
   -3.9999   -9.6995    0.0000 H   0  0  0  0  0  0  0  0  0  0  0  0
   -6.4001   -8.3139    0.0000 H   0  0  0  0  0  0  0  0  0  0  0  0
  1  2  1  0  0  0  0
  1  3  1  0  0  0  0
  1  4  1  0  0  0  0
  1  5  1  0  0  0  0
  5  6  1  0  0  0  0
  5  7  1  0  0  0  0
  5  8  1  0  0  0  0
  8  9  1  0  0  0  0
  8 10  1  0  0  0  0
  8 11  1  0  0  0  0
 11 12  1  0  0  0  0
 11 13  1  0  0  0  0
 11 14  1  0  0  0  0
 14 15  1  0  0  0  0
 15 16  2  0  0  0  0
 15 17  1  0  0  0  0
 17 18  1  0  0  0  0
 18 19  1  0  0  0  0
 18 20  1  0  0  0  0
 18 21  1  0  0  0  0
 21 22  1  0  0  0  0
 21 23  1  0  0  0  0
 21 24  1  0  0  0  0
 24 25  1  0  0  0  0
 24 26  1  0  0  0  0
 24 27  1  0  0  0  0
 27 28  1  0  0  0  0
 27 29  1  0  0  0  0
 27 30  1  0  0  0  0
 15 31  1  0  0  0  0
 31 32  1  0  0  0  0
 32 33  1  0  0  0  0
 32 34  1  0  0  0  0
 32 35  1  0  0  0  0
 35 36  1  0  0  0  0
 35 37  1  0  0  0  0
 35 38  1  0  0  0  0
 38 39  1  0  0  0  0
 38 40  1  0  0  0  0
 38 41  1  0  0  0  0
 41 42  1  0  0  0  0
 41 43  1  0  0  0  0
 41 44  1  0  0  0  0
M  END
> <ChemID>
100657

> <source_casrn>
126-73-8

> <CAS>
126-73-8

> <SMILES>
CCCCOP(=O)(OCCCC)OCCCC

> <NAME>
Phosphoric acid tributyl ester

> <preferred_name>
Tributyl phosphate

> <iupac>
tributyl phosphate

> <MPID>
100666

> <dsstox_substance_id>
DTXSID3021986

> <Canonical_QSARr>
CCCCOP(=O)(OCCCC)OCCCC

> <InChI_Code_QSARr>
InChI=1S/C12H27O4P/c1-4-7-10-14-17(13,15-11-8-5-2)16-12-9-6-3/h4-12H2,1-3H3

> <InChI Key_QSARr>
STCOOQWBFONSKY-UHFFFAOYSA-N

> <Salt_Solvent>
?

> <Ready_Biodeg>
0.0

$$$$
100658
  -INDIGO-08031722522D

  8  7  0  0  0  0  0  0  0  0999 V2000
    2.4000    1.3856    0.0000 O   0  0  0  0  0  0  0  0  0  0  0  0
    4.0000    1.3856    0.0000 H   0  0  0  0  0  0  0  0  0  0  0  0
    1.6000    0.0000    0.0000 C   0  0  0  0  0  0  0  0  0  0  0  0
   -0.0000    0.0000    0.0000 C   0  0  0  0  0  0  0  0  0  0  0  0
   -1.6000    0.0000    0.0000 H   0  0  0  0  0  0  0  0  0  0  0  0
   -0.8000    1.3856    0.0000 H   0  0  0  0  0  0  0  0  0  0  0  0
   -0.8000   -1.3856    0.0000 H   0  0  0  0  0  0  0  0  0  0  0  0
    2.4000   -1.3856    0.0000 O   0  0  0  0  0  0  0  0  0  0  0  0
  1  2  1  0  0  0  0
  1  3  1  0  0  0  0
  3  4  1  0  0  0  0
  4  5  1  0  0  0  0
  4  6  1  0  0  0  0
  4  7  1  0  0  0  0
  3  8  2  0  0  0  0
M  END
> <ChemID>
100658

> <source_casrn>
127-09-3

> <CAS>
127-09-3

> <SMILES>
[Na+].CC([O-])=O

> <NAME>
Sodium acetate

> <preferred_name>
Sodium acetate

> <iupac>
sodium acetate

> <MPID>
100667

> <dsstox_substance_id>
DTXSID2027044

> <Canonical_QSARr>
CC(O)=O

> <InChI_Code_QSARr>
InChI=1S/C2H4O2/c1-2(3)4/h1H3,(H,3,4)

> <InChI Key_QSARr>
QTBSBXVTEAMEQO-UHFFFAOYSA-N

> <Salt_Solvent>
[Na+]

> <Ready_Biodeg>
1.0

$$$$
100659
  -INDIGO-08031722522D

  6  5  0  0  0  0  0  0  0  0999 V2000
   -0.8000   -1.3856    0.0000 Cl  0  0  0  0  0  0  0  0  0  0  0  0
    0.0000    0.0000    0.0000 C   0  0  0  0  0  0  0  0  0  0  0  0
    1.6000    0.0000    0.0000 C   0  0  0  0  0  0  0  0  0  0  0  0
    2.4000    1.3856    0.0000 Cl  0  0  0  0  0  0  0  0  0  0  0  0
    2.4000   -1.3856    0.0000 Cl  0  0  0  0  0  0  0  0  0  0  0  0
   -0.8000    1.3856    0.0000 Cl  0  0  0  0  0  0  0  0  0  0  0  0
  1  2  1  0  0  0  0
  2  3  2  0  0  0  0
  3  4  1  0  0  0  0
  3  5  1  0  0  0  0
  2  6  1  0  0  0  0
M  END
> <ChemID>
100659

> <source_casrn>
127-18-4

> <CAS>
127-18-4

> <SMILES>
ClC(Cl)=C(Cl)Cl

> <NAME>
Ethene, tetrachloro-

> <preferred_name>
Tetrachloroethylene

> <iupac>
tetrachloroethene

> <MPID>
100668

> <dsstox_substance_id>
DTXSID2021319

> <Canonical_QSARr>
ClC(Cl)=C(Cl)Cl

> <InChI_Code_QSARr>
InChI=1S/C2Cl4/c3-1(4)2(5)6

> <InChI Key_QSARr>
CYTYCFOTNPOANT-UHFFFAOYSA-N

> <Salt_Solvent>
?

> <Ready_Biodeg>
0.0

$$$$
100660
  -INDIGO-08031722522D

 15 14  0  0  0  0  0  0  0  0999 V2000
   -1.6000    0.0000    0.0000 C   0  0  0  0  0  0  0  0  0  0  0  0
   -0.0000    0.0000    0.0000 N   0  0  0  0  0  0  0  0  0  0  0  0
    0.8000    1.3856    0.0000 C   0  0  0  0  0  0  0  0  0  0  0  0
    1.6000    2.7713    0.0000 H   0  0  0  0  0  0  0  0  0  0  0  0
    2.4000    1.3856    0.0000 H   0  0  0  0  0  0  0  0  0  0  0  0
   -0.0000    2.7713    0.0000 H   0  0  0  0  0  0  0  0  0  0  0  0
    0.8000   -1.3856    0.0000 C   0  0  0  0  0  0  0  0  0  0  0  0
    1.6000   -2.7713    0.0000 H   0  0  0  0  0  0  0  0  0  0  0  0
   -0.0000   -2.7713    0.0000 H   0  0  0  0  0  0  0  0  0  0  0  0
    2.4000   -1.3856    0.0000 H   0  0  0  0  0  0  0  0  0  0  0  0
   -2.4000   -1.3856    0.0000 O   0  0  0  0  0  0  0  0  0  0  0  0
   -2.4000    1.3856    0.0000 C   0  0  0  0  0  0  0  0  0  0  0  0
   -3.2000    2.7713    0.0000 H   0  0  0  0  0  0  0  0  0  0  0  0
   -4.0000    1.3856    0.0000 H   0  0  0  0  0  0  0  0  0  0  0  0
   -1.6000    2.7713    0.0000 H   0  0  0  0  0  0  0  0  0  0  0  0
  1  2  1  0  0  0  0
  2  3  1  0  0  0  0
  3  4  1  0  0  0  0
  3  5  1  0  0  0  0
  3  6  1  0  0  0  0
  2  7  1  0  0  0  0
  7  8  1  0  0  0  0
  7  9  1  0  0  0  0
  7 10  1  0  0  0  0
  1 11  2  0  0  0  0
  1 12  1  0  0  0  0
 12 13  1  0  0  0  0
 12 14  1  0  0  0  0
 12 15  1  0  0  0  0
M  END
> <ChemID>
100660

> <source_casrn>
127-19-5

> <CAS>
127-19-5

> <SMILES>
CC(=O)N(C)C

> <NAME>
Acetamide, N,N-dimethyl-

> <preferred_name>
N,N-Dimethylacetamide

> <iupac>
N,N-dimethylacetamide

> <MPID>
100669

> <dsstox_substance_id>
DTXSID5020499

> <Canonical_QSARr>
CC(=O)N(C)C

> <InChI_Code_QSARr>
InChI=1S/C4H9NO/c1-4(6)5(2)3/h1-3H3

> <InChI Key_QSARr>
FXHOOIRPVKKKFG-UHFFFAOYSA-N

> <Salt_Solvent>
?

> <Ready_Biodeg>
1.0

$$$$
100662
  -INDIGO-08031722522D

 40 40  0  0  0  0  0  0  0  0999 V2000
    2.7713    1.6000    0.0000 O   0  0  0  0  0  0  0  0  0  0  0  0
    4.1568    2.4000    0.0000 H   0  0  0  0  0  0  0  0  0  0  0  0
    2.7713    0.0000    0.0000 C   0  0  0  0  0  0  0  0  0  0  0  0
    4.1568   -0.8000    0.0000 C   0  0  0  0  0  0  0  0  0  0  0  0
    5.5425    0.0000    0.0000 C   0  0  0  0  0  0  0  0  0  0  0  0
    7.0461    0.5473    0.0000 C   0  0  0  0  0  0  0  0  0  0  0  0
    8.5496    1.0944    0.0000 H   0  0  0  0  0  0  0  0  0  0  0  0
    7.5933    2.0507    0.0000 H   0  0  0  0  0  0  0  0  0  0  0  0
    8.4318   -0.2527    0.0000 H   0  0  0  0  0  0  0  0  0  0  0  0
    6.0897   -1.5035    0.0000 C   0  0  0  0  0  0  0  0  0  0  0  0
    6.6371   -3.0069    0.0000 H   0  0  0  0  0  0  0  0  0  0  0  0
    7.6655   -1.7813    0.0000 H   0  0  0  0  0  0  0  0  0  0  0  0
    7.3154   -0.4750    0.0000 H   0  0  0  0  0  0  0  0  0  0  0  0
    4.9953    1.5035    0.0000 C   0  0  0  0  0  0  0  0  0  0  0  0
    5.7953    2.8891    0.0000 H   0  0  0  0  0  0  0  0  0  0  0  0
    6.5954    1.5035    0.0000 H   0  0  0  0  0  0  0  0  0  0  0  0
    3.9669    0.2778    0.0000 H   0  0  0  0  0  0  0  0  0  0  0  0
    4.1568   -2.4000    0.0000 C   0  0  0  0  0  0  0  0  0  0  0  0
    5.5425   -3.2000    0.0000 H   0  0  0  0  0  0  0  0  0  0  0  0
    2.7713   -3.2000    0.0000 C   0  0  0  0  0  0  0  0  0  0  0  0
    2.7713   -4.8000    0.0000 C   0  0  0  0  0  0  0  0  0  0  0  0
    2.7713   -6.4000    0.0000 H   0  0  0  0  0  0  0  0  0  0  0  0
    1.3856   -5.6000    0.0000 H   0  0  0  0  0  0  0  0  0  0  0  0
    4.1568   -5.6000    0.0000 H   0  0  0  0  0  0  0  0  0  0  0  0
    1.3856   -2.4000    0.0000 C   0  0  0  0  0  0  0  0  0  0  0  0
    0.0001   -3.2000    0.0000 H   0  0  0  0  0  0  0  0  0  0  0  0
    1.3856   -0.8000    0.0000 C   0  0  0  0  0  0  0  0  0  0  0  0
    0.0001    0.0000    0.0000 C   0  0  0  0  0  0  0  0  0  0  0  0
   -1.3856    0.8000    0.0000 C   0  0  0  0  0  0  0  0  0  0  0  0
   -2.7713    1.6000    0.0000 H   0  0  0  0  0  0  0  0  0  0  0  0
   -2.8891    0.2527    0.0000 H   0  0  0  0  0  0  0  0  0  0  0  0
   -1.6635    2.3758    0.0000 H   0  0  0  0  0  0  0  0  0  0  0  0
   -0.8000   -1.3857    0.0000 C   0  0  0  0  0  0  0  0  0  0  0  0
   -1.3472   -2.8892    0.0000 H   0  0  0  0  0  0  0  0  0  0  0  0
   -2.3756   -1.6635    0.0000 H   0  0  0  0  0  0  0  0  0  0  0  0
   -1.8284   -0.1600    0.0000 H   0  0  0  0  0  0  0  0  0  0  0  0
    0.8000    1.3857    0.0000 C   0  0  0  0  0  0  0  0  0  0  0  0
    1.8284    2.6113    0.0000 H   0  0  0  0  0  0  0  0  0  0  0  0
    0.2528    2.8891    0.0000 H   0  0  0  0  0  0  0  0  0  0  0  0
   -0.7758    1.6635    0.0000 H   0  0  0  0  0  0  0  0  0  0  0  0
  1  2  1  0  0  0  0
  1  3  1  0  0  0  0
  3  4  1  0  0  0  0
  4  5  1  0  0  0  0
  5  6  1  0  0  0  0
  6  7  1  0  0  0  0
  6  8  1  0  0  0  0
  6  9  1  0  0  0  0
  5 10  1  0  0  0  0
 10 11  1  0  0  0  0
 10 12  1  0  0  0  0
 10 13  1  0  0  0  0
  5 14  1  0  0  0  0
 14 15  1  0  0  0  0
 14 16  1  0  0  0  0
 14 17  1  0  0  0  0
  4 18  2  0  0  0  0
 18 19  1  0  0  0  0
 18 20  1  0  0  0  0
 20 21  1  0  0  0  0
 21 22  1  0  0  0  0
 21 23  1  0  0  0  0
 21 24  1  0  0  0  0
 20 25  2  0  0  0  0
 25 26  1  0  0  0  0
 25 27  1  0  0  0  0
 27  3  2  0  0  0  0
 27 28  1  0  0  0  0
 28 29  1  0  0  0  0
 29 30  1  0  0  0  0
 29 31  1  0  0  0  0
 29 32  1  0  0  0  0
 28 33  1  0  0  0  0
 33 34  1  0  0  0  0
 33 35  1  0  0  0  0
 33 36  1  0  0  0  0
 28 37  1  0  0  0  0
 37 38  1  0  0  0  0
 37 39  1  0  0  0  0
 37 40  1  0  0  0  0
M  END
> <ChemID>
100662

> <source_casrn>
128-37-0

> <CAS>
128-37-0

> <SMILES>
Cc1cc(c(O)c(c1)C(C)(C)C)C(C)(C)C

> <NAME>
Phenol, 2,6-bis(1,1-dimethylethyl)-4-methyl-

> <preferred_name>
Butylated hydroxytoluene

> <iupac>
2,6-di-tert-butyl-4-methylphenol

> <MPID>
100671

> <dsstox_substance_id>
DTXSID2020216

> <Canonical_QSARr>
Cc1cc(c(O)c(c1)C(C)(C)C)C(C)(C)C

> <InChI_Code_QSARr>
InChI=1S/C15H24O/c1-10-8-11(14(2,3)4)13(16)12(9-10)15(5,6)7/h8-9,16H,1-7H3

> <InChI Key_QSARr>
NLZUEZXRPGMBCV-UHFFFAOYSA-N

> <Salt_Solvent>
?

> <Ready_Biodeg>
1.0

$$$$
100663
  -INDIGO-08031722522D

 37 37  0  0  0  0  0  0  0  0999 V2000
    2.7713    0.0000    0.0000 C   0  0  0  0  0  0  0  0  0  0  0  0
    2.7713    1.6001    0.0000 O   0  0  0  0  0  0  0  0  0  0  0  0
    4.1568    2.4000    0.0000 H   0  0  0  0  0  0  0  0  0  0  0  0
    4.1568   -0.8000    0.0000 C   0  0  0  0  0  0  0  0  0  0  0  0
    5.5425    0.0000    0.0000 C   0  0  0  0  0  0  0  0  0  0  0  0
    7.0461    0.5473    0.0000 C   0  0  0  0  0  0  0  0  0  0  0  0
    8.5496    1.0945    0.0000 H   0  0  0  0  0  0  0  0  0  0  0  0
    7.5933    2.0507    0.0000 H   0  0  0  0  0  0  0  0  0  0  0  0
    8.4318   -0.2528    0.0000 H   0  0  0  0  0  0  0  0  0  0  0  0
    6.0897   -1.5035    0.0000 C   0  0  0  0  0  0  0  0  0  0  0  0
    6.6371   -3.0070    0.0000 H   0  0  0  0  0  0  0  0  0  0  0  0
    7.6655   -1.7814    0.0000 H   0  0  0  0  0  0  0  0  0  0  0  0
    7.3154   -0.4750    0.0000 H   0  0  0  0  0  0  0  0  0  0  0  0
    4.9953    1.5035    0.0000 C   0  0  0  0  0  0  0  0  0  0  0  0
    5.7953    2.8891    0.0000 H   0  0  0  0  0  0  0  0  0  0  0  0
    6.5954    1.5035    0.0000 H   0  0  0  0  0  0  0  0  0  0  0  0
    3.9669    0.2779    0.0000 H   0  0  0  0  0  0  0  0  0  0  0  0
    4.1568   -2.4000    0.0000 C   0  0  0  0  0  0  0  0  0  0  0  0
    5.5425   -3.2000    0.0000 H   0  0  0  0  0  0  0  0  0  0  0  0
    2.7713   -3.2000    0.0000 C   0  0  0  0  0  0  0  0  0  0  0  0
    2.7713   -4.8000    0.0000 H   0  0  0  0  0  0  0  0  0  0  0  0
    1.3856   -2.4000    0.0000 C   0  0  0  0  0  0  0  0  0  0  0  0
    0.0001   -3.2000    0.0000 H   0  0  0  0  0  0  0  0  0  0  0  0
    1.3856   -0.8000    0.0000 C   0  0  0  0  0  0  0  0  0  0  0  0
    0.0001    0.0000    0.0000 C   0  0  0  0  0  0  0  0  0  0  0  0
   -1.3856    0.8000    0.0000 C   0  0  0  0  0  0  0  0  0  0  0  0
   -2.7713    1.6001    0.0000 H   0  0  0  0  0  0  0  0  0  0  0  0
   -2.8891    0.2528    0.0000 H   0  0  0  0  0  0  0  0  0  0  0  0
   -1.6635    2.3757    0.0000 H   0  0  0  0  0  0  0  0  0  0  0  0
   -0.8000   -1.3856    0.0000 C   0  0  0  0  0  0  0  0  0  0  0  0
   -1.3472   -2.8892    0.0000 H   0  0  0  0  0  0  0  0  0  0  0  0
   -2.3756   -1.6634    0.0000 H   0  0  0  0  0  0  0  0  0  0  0  0
   -1.8284   -0.1600    0.0000 H   0  0  0  0  0  0  0  0  0  0  0  0
    0.8000    1.3857    0.0000 C   0  0  0  0  0  0  0  0  0  0  0  0
    1.8284    2.6113    0.0000 H   0  0  0  0  0  0  0  0  0  0  0  0
    0.2528    2.8891    0.0000 H   0  0  0  0  0  0  0  0  0  0  0  0
   -0.7758    1.6635    0.0000 H   0  0  0  0  0  0  0  0  0  0  0  0
  1  2  1  0  0  0  0
  2  3  1  0  0  0  0
  1  4  1  0  0  0  0
  4  5  1  0  0  0  0
  5  6  1  0  0  0  0
  6  7  1  0  0  0  0
  6  8  1  0  0  0  0
  6  9  1  0  0  0  0
  5 10  1  0  0  0  0
 10 11  1  0  0  0  0
 10 12  1  0  0  0  0
 10 13  1  0  0  0  0
  5 14  1  0  0  0  0
 14 15  1  0  0  0  0
 14 16  1  0  0  0  0
 14 17  1  0  0  0  0
  4 18  2  0  0  0  0
 18 19  1  0  0  0  0
 18 20  1  0  0  0  0
 20 21  1  0  0  0  0
 20 22  2  0  0  0  0
 22 23  1  0  0  0  0
 22 24  1  0  0  0  0
 24  1  2  0  0  0  0
 24 25  1  0  0  0  0
 25 26  1  0  0  0  0
 26 27  1  0  0  0  0
 26 28  1  0  0  0  0
 26 29  1  0  0  0  0
 25 30  1  0  0  0  0
 30 31  1  0  0  0  0
 30 32  1  0  0  0  0
 30 33  1  0  0  0  0
 25 34  1  0  0  0  0
 34 35  1  0  0  0  0
 34 36  1  0  0  0  0
 34 37  1  0  0  0  0
M  END
> <ChemID>
100663

> <source_casrn>
128-39-2

> <CAS>
128-39-2

> <SMILES>
CC(C)(C)c1cccc(c1O)C(C)(C)C

> <NAME>
2,6-Di-t-butylphenol

> <preferred_name>
2,6-Di-tert-butylphenol

> <iupac>
2,6-di-tert-butylphenol

> <MPID>
100672

> <dsstox_substance_id>
DTXSID6027052

> <Canonical_QSARr>
CC(C)(C)c1cccc(c1O)C(C)(C)C

> <InChI_Code_QSARr>
InChI=1S/C14H22O/c1-13(2,3)10-8-7-9-11(12(10)15)14(4,5)6/h7-9,15H,1-6H3

> <InChI Key_QSARr>
DKCPKDPYUFEZCP-UHFFFAOYSA-N

> <Salt_Solvent>
?

> <Ready_Biodeg>
0.0

$$$$
100664
  -INDIGO-08031722522D

 25 27  0  0  0  0  0  0  0  0999 V2000
    1.3857    2.4000    0.0000 O   0  0  0  0  0  0  0  0  0  0  0  0
    1.3857    0.8000    0.0000 C   0  0  0  0  0  0  0  0  0  0  0  0
    0.0001   -0.0000    0.0000 C   0  0  0  0  0  0  0  0  0  0  0  0
    0.0001   -1.6000    0.0000 C   0  0  0  0  0  0  0  0  0  0  0  0
   -1.3856   -2.4000    0.0000 C   0  0  0  0  0  0  0  0  0  0  0  0
   -1.3856   -4.0000    0.0000 H   0  0  0  0  0  0  0  0  0  0  0  0
   -2.7713   -1.6000    0.0000 C   0  0  0  0  0  0  0  0  0  0  0  0
   -4.1569   -2.4000    0.0000 H   0  0  0  0  0  0  0  0  0  0  0  0
   -2.7713   -0.0000    0.0000 C   0  0  0  0  0  0  0  0  0  0  0  0
   -4.1569    0.8000    0.0000 H   0  0  0  0  0  0  0  0  0  0  0  0
   -1.3856    0.8000    0.0000 C   0  0  0  0  0  0  0  0  0  0  0  0
   -1.3856    2.4000    0.0000 O   0  0  0  0  0  0  0  0  0  0  0  0
   -2.7713    3.2000    0.0000 H   0  0  0  0  0  0  0  0  0  0  0  0
    1.3857   -2.4000    0.0000 C   0  0  0  0  0  0  0  0  0  0  0  0
    1.3857   -4.0000    0.0000 O   0  0  0  0  0  0  0  0  0  0  0  0
    2.7712   -1.6000    0.0000 C   0  0  0  0  0  0  0  0  0  0  0  0
    2.7712   -0.0000    0.0000 C   0  0  0  0  0  0  0  0  0  0  0  0
    4.1569    0.8000    0.0000 C   0  0  0  0  0  0  0  0  0  0  0  0
    4.1569    2.4000    0.0000 H   0  0  0  0  0  0  0  0  0  0  0  0
    5.5425   -0.0000    0.0000 C   0  0  0  0  0  0  0  0  0  0  0  0
    6.9282    0.8000    0.0000 H   0  0  0  0  0  0  0  0  0  0  0  0
    5.5425   -1.6000    0.0000 C   0  0  0  0  0  0  0  0  0  0  0  0
    6.9282   -2.4000    0.0000 H   0  0  0  0  0  0  0  0  0  0  0  0
    4.1569   -2.4000    0.0000 C   0  0  0  0  0  0  0  0  0  0  0  0
    4.1569   -4.0000    0.0000 H   0  0  0  0  0  0  0  0  0  0  0  0
  1  2  2  0  0  0  0
  2  3  1  0  0  0  0
  3  4  1  0  0  0  0
  4  5  2  0  0  0  0
  5  6  1  0  0  0  0
  5  7  1  0  0  0  0
  7  8  1  0  0  0  0
  7  9  2  0  0  0  0
  9 10  1  0  0  0  0
  9 11  1  0  0  0  0
 11  3  2  0  0  0  0
 11 12  1  0  0  0  0
 12 13  1  0  0  0  0
  4 14  1  0  0  0  0
 14 15  2  0  0  0  0
 14 16  1  0  0  0  0
 16 17  1  0  0  0  0
 17  2  1  0  0  0  0
 17 18  2  0  0  0  0
 18 19  1  0  0  0  0
 18 20  1  0  0  0  0
 20 21  1  0  0  0  0
 20 22  2  0  0  0  0
 22 23  1  0  0  0  0
 22 24  1  0  0  0  0
 24 16  2  0  0  0  0
 24 25  1  0  0  0  0
M  END
> <ChemID>
100664

> <source_casrn>
129-43-1

> <CAS>
129-43-1

> <SMILES>
Oc1cccc2c1C(=O)c1ccccc1C2=O

> <NAME>
9,10-Anthracenedione, 1-hydroxy-

> <preferred_name>
1-Hydroxyanthraquinone

> <iupac>
1-hydroxyanthracene-9,10-dione

> <MPID>
100673

> <dsstox_substance_id>
DTXSID1020722

> <Canonical_QSARr>
Oc1cccc2c1C(=O)c1ccccc1C2=O

> <InChI_Code_QSARr>
InChI=1S/C14H8O3/c15-11-7-3-6-10-12(11)14(17)9-5-2-1-4-8(9)13(10)16/h1-7,15H

> <InChI Key_QSARr>
BTLXPCBPYBNQNR-UHFFFAOYSA-N

> <Salt_Solvent>
?

> <Ready_Biodeg>
0.0

$$$$
100665
  -INDIGO-08031722522D

 30 32  0  0  0  0  0  0  0  0999 V2000
    5.5426   -3.2000    0.0000 O   0  0  0  0  0  0  0  0  0  0  0  0
    5.5426   -4.8000    0.0000 H   0  0  0  0  0  0  0  0  0  0  0  0
    4.1569   -2.3999    0.0000 S   0  0  0  0  0  0  0  0  0  0  0  0
    2.7713   -1.6000    0.0000 C   0  0  0  0  0  0  0  0  0  0  0  0
    1.3856   -2.3999    0.0000 C   0  0  0  0  0  0  0  0  0  0  0  0
    1.3856   -4.0001    0.0000 H   0  0  0  0  0  0  0  0  0  0  0  0
   -0.0001   -1.6000    0.0000 C   0  0  0  0  0  0  0  0  0  0  0  0
   -1.3856   -2.4001    0.0000 C   0  0  0  0  0  0  0  0  0  0  0  0
   -2.7713   -1.6000    0.0000 C   0  0  0  0  0  0  0  0  0  0  0  0
   -2.7713    0.0000    0.0000 C   0  0  0  0  0  0  0  0  0  0  0  0
   -1.3856    0.8001    0.0000 C   0  0  0  0  0  0  0  0  0  0  0  0
   -1.3856    2.4001    0.0000 O   0  0  0  0  0  0  0  0  0  0  0  0
   -0.0001    0.0000    0.0000 C   0  0  0  0  0  0  0  0  0  0  0  0
    1.3856    0.7999    0.0000 C   0  0  0  0  0  0  0  0  0  0  0  0
    1.3856    2.3999    0.0000 O   0  0  0  0  0  0  0  0  0  0  0  0
    2.7713    3.2000    0.0000 H   0  0  0  0  0  0  0  0  0  0  0  0
    2.7713    0.0000    0.0000 C   0  0  0  0  0  0  0  0  0  0  0  0
    4.1569    0.7999    0.0000 O   0  0  0  0  0  0  0  0  0  0  0  0
    4.1569    2.3999    0.0000 H   0  0  0  0  0  0  0  0  0  0  0  0
   -4.1570    0.7999    0.0000 C   0  0  0  0  0  0  0  0  0  0  0  0
   -4.1570    2.3999    0.0000 H   0  0  0  0  0  0  0  0  0  0  0  0
   -5.5425    0.0000    0.0000 C   0  0  0  0  0  0  0  0  0  0  0  0
   -6.9282    0.7999    0.0000 H   0  0  0  0  0  0  0  0  0  0  0  0
   -5.5425   -1.6000    0.0000 C   0  0  0  0  0  0  0  0  0  0  0  0
   -6.9282   -2.3999    0.0000 H   0  0  0  0  0  0  0  0  0  0  0  0
   -4.1570   -2.3999    0.0000 C   0  0  0  0  0  0  0  0  0  0  0  0
   -4.1570   -4.0001    0.0000 H   0  0  0  0  0  0  0  0  0  0  0  0
   -1.3856   -4.0001    0.0000 O   0  0  0  0  0  0  0  0  0  0  0  0
    4.9568   -1.0143    0.0000 O   0  0  0  0  0  0  0  0  0  0  0  0
    3.3569   -3.7856    0.0000 O   0  0  0  0  0  0  0  0  0  0  0  0
  1  2  1  0  0  0  0
  1  3  1  0  0  0  0
  3  4  1  0  0  0  0
  4  5  1  0  0  0  0
  5  6  1  0  0  0  0
  5  7  2  0  0  0  0
  7  8  1  0  0  0  0
  8  9  1  0  0  0  0
  9 10  1  0  0  0  0
 10 11  1  0  0  0  0
 11 12  2  0  0  0  0
 11 13  1  0  0  0  0
 13  7  1  0  0  0  0
 13 14  2  0  0  0  0
 14 15  1  0  0  0  0
 15 16  1  0  0  0  0
 14 17  1  0  0  0  0
 17  4  2  0  0  0  0
 17 18  1  0  0  0  0
 18 19  1  0  0  0  0
 10 20  2  0  0  0  0
 20 21  1  0  0  0  0
 20 22  1  0  0  0  0
 22 23  1  0  0  0  0
 22 24  2  0  0  0  0
 24 25  1  0  0  0  0
 24 26  1  0  0  0  0
 26  9  2  0  0  0  0
 26 27  1  0  0  0  0
  8 28  2  0  0  0  0
  3 29  2  0  0  0  0
  3 30  2  0  0  0  0
M  END
> <ChemID>
100665

> <source_casrn>
130-22-3

> <CAS>
24623-77-6

> <SMILES>
c1ccc2C(=O)c3c(O)c(O)c(S(=O)(=O)O[Na])cc3C(=O)c2c1

> <NAME>
C.I. Mordant Red 3

> <preferred_name>
Aluminium hydroxide oxide

> <iupac>
sodium 3,4-dihydroxy-9,10-dioxo-9,10-dihydroanthracene-2-sulfonate

> <MPID>
100674

> <dsstox_substance_id>
DTXSID0052679

> <Canonical_QSARr>
Oc1c(cc2c(C(=O)c3ccccc3C2=O)c1O)S(O)(=O)=O

> <InChI_Code_QSARr>
InChI=1S/C14H8O7S/c15-11-6-3-1-2-4-7(6)12(16)10-8(11)5-9(22(19,20)21)13(17)14(10)18/h1-5,17-18H,(H,19,20,21)

> <InChI Key_QSARr>
JKYKXTRKURYNGW-UHFFFAOYSA-N

> <Salt_Solvent>
[Na+]

> <Ready_Biodeg>
0.0

$$$$
100667
  -INDIGO-08031722522D

 24 24  0  0  0  0  0  0  0  0999 V2000
   -0.0001    0.0001    0.0000 C   0  0  0  0  0  0  0  0  0  0  0  0
    1.6001    0.0001    0.0000 C   0  0  0  0  0  0  0  0  0  0  0  0
    2.4001    1.3856    0.0000 C   0  0  0  0  0  0  0  0  0  0  0  0
    1.6001    2.7713    0.0000 O   0  0  0  0  0  0  0  0  0  0  0  0
    4.0000    1.3856    0.0000 O   0  0  0  0  0  0  0  0  0  0  0  0
    4.8000    2.7713    0.0000 C   0  0  0  0  0  0  0  0  0  0  0  0
    5.6000    4.1569    0.0000 H   0  0  0  0  0  0  0  0  0  0  0  0
    6.4000    2.7713    0.0000 H   0  0  0  0  0  0  0  0  0  0  0  0
    4.0000    4.1569    0.0000 H   0  0  0  0  0  0  0  0  0  0  0  0
    2.4001   -1.3856    0.0000 C   0  0  0  0  0  0  0  0  0  0  0  0
    4.0000   -1.3856    0.0000 H   0  0  0  0  0  0  0  0  0  0  0  0
    1.6001   -2.7712    0.0000 C   0  0  0  0  0  0  0  0  0  0  0  0
    2.4001   -4.1569    0.0000 H   0  0  0  0  0  0  0  0  0  0  0  0
   -0.0001   -2.7712    0.0000 C   0  0  0  0  0  0  0  0  0  0  0  0
   -0.8001   -4.1569    0.0000 H   0  0  0  0  0  0  0  0  0  0  0  0
   -0.8001   -1.3856    0.0000 C   0  0  0  0  0  0  0  0  0  0  0  0
   -2.4000   -1.3856    0.0000 H   0  0  0  0  0  0  0  0  0  0  0  0
   -0.8001    1.3856    0.0000 C   0  0  0  0  0  0  0  0  0  0  0  0
   -0.0001    2.7713    0.0000 O   0  0  0  0  0  0  0  0  0  0  0  0
   -2.4000    1.3856    0.0000 O   0  0  0  0  0  0  0  0  0  0  0  0
   -3.2000    2.7713    0.0000 C   0  0  0  0  0  0  0  0  0  0  0  0
   -4.0000    4.1569    0.0000 H   0  0  0  0  0  0  0  0  0  0  0  0
   -4.8000    2.7713    0.0000 H   0  0  0  0  0  0  0  0  0  0  0  0
   -2.4000    4.1569    0.0000 H   0  0  0  0  0  0  0  0  0  0  0  0
  1  2  1  0  0  0  0
  2  3  1  0  0  0  0
  3  4  2  0  0  0  0
  3  5  1  0  0  0  0
  5  6  1  0  0  0  0
  6  7  1  0  0  0  0
  6  8  1  0  0  0  0
  6  9  1  0  0  0  0
  2 10  2  0  0  0  0
 10 11  1  0  0  0  0
 10 12  1  0  0  0  0
 12 13  1  0  0  0  0
 12 14  2  0  0  0  0
 14 15  1  0  0  0  0
 14 16  1  0  0  0  0
 16  1  2  0  0  0  0
 16 17  1  0  0  0  0
  1 18  1  0  0  0  0
 18 19  2  0  0  0  0
 18 20  1  0  0  0  0
 20 21  1  0  0  0  0
 21 22  1  0  0  0  0
 21 23  1  0  0  0  0
 21 24  1  0  0  0  0
M  END
> <ChemID>
100667

> <source_casrn>
131-11-3

> <CAS>
131-11-3

> <SMILES>
COC(=O)c1ccccc1C(=O)OC

> <NAME>
Dimethyl phthalate

> <preferred_name>
Dimethyl phthalate

> <iupac>
dimethyl benzene-1,2-dicarboxylate

> <MPID>
100676

> <dsstox_substance_id>
DTXSID3022455

> <Canonical_QSARr>
COC(=O)c1ccccc1C(=O)OC

> <InChI_Code_QSARr>
InChI=1S/C10H10O4/c1-13-9(11)7-5-3-4-6-8(7)10(12)14-2/h3-6H,1-2H3

> <InChI Key_QSARr>
NIQCNGHVCWTJSM-UHFFFAOYSA-N

> <Salt_Solvent>
?

> <Ready_Biodeg>
1.0

$$$$
100668
  -INDIGO-08031722522D

 32 32  0  0  0  0  0  0  0  0999 V2000
    0.0001    2.7713    0.0000 O   0  0  0  0  0  0  0  0  0  0  0  0
   -0.8000    1.3857    0.0000 C   0  0  0  0  0  0  0  0  0  0  0  0
    0.0001   -0.0001    0.0000 C   0  0  0  0  0  0  0  0  0  0  0  0
    1.5999   -0.0001    0.0000 C   0  0  0  0  0  0  0  0  0  0  0  0
    2.4000    1.3857    0.0000 C   0  0  0  0  0  0  0  0  0  0  0  0
    1.5999    2.7713    0.0000 O   0  0  0  0  0  0  0  0  0  0  0  0
    4.0001    1.3857    0.0000 O   0  0  0  0  0  0  0  0  0  0  0  0
    4.7999    2.7713    0.0000 C   0  0  0  0  0  0  0  0  0  0  0  0
    4.5912    4.3576    0.0000 H   0  0  0  0  0  0  0  0  0  0  0  0
    3.5306    3.7453    0.0000 H   0  0  0  0  0  0  0  0  0  0  0  0
    6.4001    2.7713    0.0000 C   0  0  0  0  0  0  0  0  0  0  0  0
    7.2001    1.3857    0.0000 H   0  0  0  0  0  0  0  0  0  0  0  0
    7.2001    4.1569    0.0000 C   0  0  0  0  0  0  0  0  0  0  0  0
    8.8000    4.1569    0.0000 H   0  0  0  0  0  0  0  0  0  0  0  0
    6.4001    5.5426    0.0000 H   0  0  0  0  0  0  0  0  0  0  0  0
    2.4000   -1.3857    0.0000 C   0  0  0  0  0  0  0  0  0  0  0  0
    4.0001   -1.3857    0.0000 H   0  0  0  0  0  0  0  0  0  0  0  0
    1.5999   -2.7713    0.0000 C   0  0  0  0  0  0  0  0  0  0  0  0
    2.4000   -4.1569    0.0000 H   0  0  0  0  0  0  0  0  0  0  0  0
    0.0001   -2.7713    0.0000 C   0  0  0  0  0  0  0  0  0  0  0  0
   -0.8000   -4.1569    0.0000 H   0  0  0  0  0  0  0  0  0  0  0  0
   -0.8000   -1.3857    0.0000 C   0  0  0  0  0  0  0  0  0  0  0  0
   -2.3999   -1.3857    0.0000 H   0  0  0  0  0  0  0  0  0  0  0  0
   -2.3999    1.3857    0.0000 O   0  0  0  0  0  0  0  0  0  0  0  0
   -3.1999    2.7713    0.0000 C   0  0  0  0  0  0  0  0  0  0  0  0
   -1.9306    3.7453    0.0000 H   0  0  0  0  0  0  0  0  0  0  0  0
   -2.9912    4.3576    0.0000 H   0  0  0  0  0  0  0  0  0  0  0  0
   -4.8001    2.7713    0.0000 C   0  0  0  0  0  0  0  0  0  0  0  0
   -5.6001    1.3857    0.0000 H   0  0  0  0  0  0  0  0  0  0  0  0
   -5.6001    4.1569    0.0000 C   0  0  0  0  0  0  0  0  0  0  0  0
   -7.2000    4.1569    0.0000 H   0  0  0  0  0  0  0  0  0  0  0  0
   -4.8001    5.5426    0.0000 H   0  0  0  0  0  0  0  0  0  0  0  0
  1  2  2  0  0  0  0
  2  3  1  0  0  0  0
  3  4  1  0  0  0  0
  4  5  1  0  0  0  0
  5  6  2  0  0  0  0
  5  7  1  0  0  0  0
  7  8  1  0  0  0  0
  8  9  1  0  0  0  0
  8 10  1  0  0  0  0
  8 11  1  0  0  0  0
 11 12  1  0  0  0  0
 11 13  2  0  0  0  0
 13 14  1  0  0  0  0
 13 15  1  0  0  0  0
  4 16  2  0  0  0  0
 16 17  1  0  0  0  0
 16 18  1  0  0  0  0
 18 19  1  0  0  0  0
 18 20  2  0  0  0  0
 20 21  1  0  0  0  0
 20 22  1  0  0  0  0
 22  3  2  0  0  0  0
 22 23  1  0  0  0  0
  2 24  1  0  0  0  0
 24 25  1  0  0  0  0
 25 26  1  0  0  0  0
 25 27  1  0  0  0  0
 25 28  1  0  0  0  0
 28 29  1  0  0  0  0
 28 30  2  0  0  0  0
 30 31  1  0  0  0  0
 30 32  1  0  0  0  0
M  END
> <ChemID>
100668

> <source_casrn>
131-17-9

> <CAS>
131-17-9

> <SMILES>
O=C(OCC=C)c(c(ccc1)C(=O)OCC=C)c1

> <NAME>
1,2-Benzenedicarboxylic acid, di-2-propenyl ester

> <preferred_name>
Diallyl phthalate

> <iupac>
diprop-2-en-1-yl benzene-1,2-dicarboxylate

> <MPID>
100677

> <dsstox_substance_id>
DTXSID7020392

> <Canonical_QSARr>
C=CCOC(=O)c1ccccc1C(=O)OCC=C

> <InChI_Code_QSARr>
InChI=1S/C14H14O4/c1-3-9-17-13(15)11-7-5-6-8-12(11)14(16)18-10-4-2/h3-8H,1-2,9-10H2

> <InChI Key_QSARr>
QUDWYFHPNIMBFC-UHFFFAOYSA-N

> <Salt_Solvent>
?

> <Ready_Biodeg>
1.0

$$$$
100669
  -INDIGO-08031722522D

 29 30  0  0  0  0  0  0  0  0999 V2000
   -0.0000   -0.0000    0.0000 C   0  0  0  0  0  0  0  0  0  0  0  0
    1.3856    0.8000    0.0000 C   0  0  0  0  0  0  0  0  0  0  0  0
    1.1078    2.3757    0.0000 O   0  0  0  0  0  0  0  0  0  0  0  0
    2.9613    0.5221    0.0000 C   0  0  0  0  0  0  0  0  0  0  0  0
    3.5086   -0.9814    0.0000 C   0  0  0  0  0  0  0  0  0  0  0  0
    2.4800   -2.2070    0.0000 H   0  0  0  0  0  0  0  0  0  0  0  0
    5.0842   -1.2592    0.0000 C   0  0  0  0  0  0  0  0  0  0  0  0
    5.6315   -2.7627    0.0000 H   0  0  0  0  0  0  0  0  0  0  0  0
    6.1126   -0.0335    0.0000 C   0  0  0  0  0  0  0  0  0  0  0  0
    7.6884   -0.3113    0.0000 H   0  0  0  0  0  0  0  0  0  0  0  0
    5.5655    1.4700    0.0000 C   0  0  0  0  0  0  0  0  0  0  0  0
    6.5940    2.6957    0.0000 H   0  0  0  0  0  0  0  0  0  0  0  0
    3.9898    1.7478    0.0000 C   0  0  0  0  0  0  0  0  0  0  0  0
    3.4426    3.2513    0.0000 H   0  0  0  0  0  0  0  0  0  0  0  0
   -1.3856    0.8000    0.0000 C   0  0  0  0  0  0  0  0  0  0  0  0
   -1.3856    2.4000    0.0000 O   0  0  0  0  0  0  0  0  0  0  0  0
   -2.7712    3.2000    0.0000 H   0  0  0  0  0  0  0  0  0  0  0  0
   -2.7712   -0.0000    0.0000 C   0  0  0  0  0  0  0  0  0  0  0  0
   -4.1570    0.8000    0.0000 H   0  0  0  0  0  0  0  0  0  0  0  0
   -2.7712   -1.6000    0.0000 C   0  0  0  0  0  0  0  0  0  0  0  0
   -4.1570   -2.4000    0.0000 O   0  0  0  0  0  0  0  0  0  0  0  0
   -4.1570   -4.0000    0.0000 C   0  0  0  0  0  0  0  0  0  0  0  0
   -5.5426   -4.8000    0.0000 H   0  0  0  0  0  0  0  0  0  0  0  0
   -4.1570   -5.6000    0.0000 H   0  0  0  0  0  0  0  0  0  0  0  0
   -5.5426   -3.1999    0.0000 H   0  0  0  0  0  0  0  0  0  0  0  0
   -1.3856   -2.4000    0.0000 C   0  0  0  0  0  0  0  0  0  0  0  0
   -1.3856   -4.0000    0.0000 H   0  0  0  0  0  0  0  0  0  0  0  0
   -0.0000   -1.6000    0.0000 C   0  0  0  0  0  0  0  0  0  0  0  0
    1.3856   -2.4000    0.0000 H   0  0  0  0  0  0  0  0  0  0  0  0
  1  2  1  0  0  0  0
  2  3  2  0  0  0  0
  2  4  1  0  0  0  0
  4  5  1  0  0  0  0
  5  6  1  0  0  0  0
  5  7  2  0  0  0  0
  7  8  1  0  0  0  0
  7  9  1  0  0  0  0
  9 10  1  0  0  0  0
  9 11  2  0  0  0  0
 11 12  1  0  0  0  0
 11 13  1  0  0  0  0
 13  4  2  0  0  0  0
 13 14  1  0  0  0  0
  1 15  1  0  0  0  0
 15 16  1  0  0  0  0
 16 17  1  0  0  0  0
 15 18  2  0  0  0  0
 18 19  1  0  0  0  0
 18 20  1  0  0  0  0
 20 21  1  0  0  0  0
 21 22  1  0  0  0  0
 22 23  1  0  0  0  0
 22 24  1  0  0  0  0
 22 25  1  0  0  0  0
 20 26  2  0  0  0  0
 26 27  1  0  0  0  0
 26 28  1  0  0  0  0
 28  1  2  0  0  0  0
 28 29  1  0  0  0  0
M  END
> <ChemID>
100669

> <source_casrn>
131-57-7

> <CAS>
131-57-7

> <SMILES>
COc1cc(O)c(cc1)C(=O)c1ccccc1

> <NAME>
Methanone, (2-hydroxy-4-methoxyphenyl)phenyl-

> <preferred_name>
2-Hydroxy-4-methoxybenzophenone

> <iupac>
(2-hydroxy-4-methoxyphenyl)(phenyl)methanone

> <MPID>
100678

> <dsstox_substance_id>
DTXSID3022405

> <Canonical_QSARr>
COc1cc(O)c(cc1)C(=O)c1ccccc1

> <InChI_Code_QSARr>
InChI=1S/C14H12O3/c1-17-11-7-8-12(13(15)9-11)14(16)10-5-3-2-4-6-10/h2-9,15H,1H3

> <InChI Key_QSARr>
DXGLGDHPHMLXJC-UHFFFAOYSA-N

> <Salt_Solvent>
?

> <Ready_Biodeg>
0.0

$$$$
100671
  -INDIGO-08031722522D

 21 23  0  0  0  0  0  0  0  0999 V2000
   -0.8000    1.3856    0.0000 C   0  0  0  0  0  0  0  0  0  0  0  0
    0.2707    2.5747    0.0000 S   0  0  0  0  0  0  0  0  0  0  0  0
    1.7322    1.9239    0.0000 C   0  0  0  0  0  0  0  0  0  0  0  0
    1.5651    0.3327    0.0000 C   0  0  0  0  0  0  0  0  0  0  0  0
    2.8595   -0.6078    0.0000 C   0  0  0  0  0  0  0  0  0  0  0  0
    2.6921   -2.1990    0.0000 H   0  0  0  0  0  0  0  0  0  0  0  0
    4.3212    0.0430    0.0000 C   0  0  0  0  0  0  0  0  0  0  0  0
    5.6156   -0.8974    0.0000 H   0  0  0  0  0  0  0  0  0  0  0  0
    4.4883    1.6342    0.0000 C   0  0  0  0  0  0  0  0  0  0  0  0
    5.9501    2.2850    0.0000 H   0  0  0  0  0  0  0  0  0  0  0  0
    3.1939    2.5747    0.0000 C   0  0  0  0  0  0  0  0  0  0  0  0
    3.3612    4.1659    0.0000 H   0  0  0  0  0  0  0  0  0  0  0  0
    0.0000    0.0000    0.0000 C   0  0  0  0  0  0  0  0  0  0  0  0
   -0.8000   -1.3856    0.0000 C   0  0  0  0  0  0  0  0  0  0  0  0
    0.0000   -2.7713    0.0000 H   0  0  0  0  0  0  0  0  0  0  0  0
   -2.4000   -1.3856    0.0000 C   0  0  0  0  0  0  0  0  0  0  0  0
   -3.2000   -2.7713    0.0000 H   0  0  0  0  0  0  0  0  0  0  0  0
   -3.2000    0.0000    0.0000 C   0  0  0  0  0  0  0  0  0  0  0  0
   -4.8000    0.0000    0.0000 H   0  0  0  0  0  0  0  0  0  0  0  0
   -2.4000    1.3856    0.0000 C   0  0  0  0  0  0  0  0  0  0  0  0
   -3.2000    2.7713    0.0000 H   0  0  0  0  0  0  0  0  0  0  0  0
  1  2  1  0  0  0  0
  2  3  1  0  0  0  0
  3  4  1  0  0  0  0
  4  5  2  0  0  0  0
  5  6  1  0  0  0  0
  5  7  1  0  0  0  0
  7  8  1  0  0  0  0
  7  9  2  0  0  0  0
  9 10  1  0  0  0  0
  9 11  1  0  0  0  0
 11  3  2  0  0  0  0
 11 12  1  0  0  0  0
  4 13  1  0  0  0  0
 13  1  1  0  0  0  0
 13 14  2  0  0  0  0
 14 15  1  0  0  0  0
 14 16  1  0  0  0  0
 16 17  1  0  0  0  0
 16 18  2  0  0  0  0
 18 19  1  0  0  0  0
 18 20  1  0  0  0  0
 20  1  2  0  0  0  0
 20 21  1  0  0  0  0
M  END
> <ChemID>
100671

> <source_casrn>
132-65-0

> <CAS>
132-65-0

> <SMILES>
c1cccc2[s]c3ccccc3c21

> <NAME>
Dibenzothiophene

> <preferred_name>
Dibenzothiophene

> <iupac>
dibenzo[b,d]thiophene

> <MPID>
100680

> <dsstox_substance_id>
DTXSID0047741

> <Canonical_QSARr>
c1cccc2[s]c3ccccc3c21

> <InChI_Code_QSARr>
InChI=1S/C12H8S/c1-3-7-11-9(5-1)10-6-2-4-8-12(10)13-11/h1-8H

> <InChI Key_QSARr>
IYYZUPMFVPLQIF-UHFFFAOYSA-N

> <Salt_Solvent>
?

> <Ready_Biodeg>
0.0

$$$$
100672
  -INDIGO-08031722522D

 24 25  0  0  0  0  0  0  0  0999 V2000
   -2.0162    2.0161    0.0000 O   0  0  0  0  0  0  0  0  0  0  0  0
   -1.5217    0.4944    0.0000 C   0  0  0  0  0  0  0  0  0  0  0  0
   -2.4621   -0.8000    0.0000 N   0  0  0  0  0  0  0  0  0  0  0  0
   -4.0622   -0.8000    0.0000 S   0  0  0  0  0  0  0  0  0  0  0  0
   -4.8622    0.5856    0.0000 C   0  0  0  0  0  0  0  0  0  0  0  0
   -6.4621    0.5856    0.0000 Cl  0  0  0  0  0  0  0  0  0  0  0  0
   -5.6622    1.9713    0.0000 Cl  0  0  0  0  0  0  0  0  0  0  0  0
   -5.6622   -0.8000    0.0000 Cl  0  0  0  0  0  0  0  0  0  0  0  0
   -1.5217   -2.0944    0.0000 C   0  0  0  0  0  0  0  0  0  0  0  0
   -2.0162   -3.6161    0.0000 O   0  0  0  0  0  0  0  0  0  0  0  0
    0.0000   -1.6000    0.0000 C   0  0  0  0  0  0  0  0  0  0  0  0
   -0.1672   -3.1913    0.0000 H   0  0  0  0  0  0  0  0  0  0  0  0
    0.0000    0.0000    0.0000 C   0  0  0  0  0  0  0  0  0  0  0  0
   -0.1672    1.5913    0.0000 H   0  0  0  0  0  0  0  0  0  0  0  0
    1.3856    0.8000    0.0000 C   0  0  0  0  0  0  0  0  0  0  0  0
    2.4141    2.0257    0.0000 H   0  0  0  0  0  0  0  0  0  0  0  0
    0.8384    2.3035    0.0000 H   0  0  0  0  0  0  0  0  0  0  0  0
    2.7713    0.0000    0.0000 C   0  0  0  0  0  0  0  0  0  0  0  0
    4.1569    0.8000    0.0000 H   0  0  0  0  0  0  0  0  0  0  0  0
    2.7713   -1.6000    0.0000 C   0  0  0  0  0  0  0  0  0  0  0  0
    4.1569   -2.4000    0.0000 H   0  0  0  0  0  0  0  0  0  0  0  0
    1.3856   -2.4000    0.0000 C   0  0  0  0  0  0  0  0  0  0  0  0
    0.8384   -3.9035    0.0000 H   0  0  0  0  0  0  0  0  0  0  0  0
    2.4141   -3.6257    0.0000 H   0  0  0  0  0  0  0  0  0  0  0  0
  1  2  2  0  0  0  0
  2  3  1  0  0  0  0
  3  4  1  0  0  0  0
  4  5  1  0  0  0  0
  5  6  1  0  0  0  0
  5  7  1  0  0  0  0
  5  8  1  0  0  0  0
  3  9  1  0  0  0  0
  9 10  2  0  0  0  0
  9 11  1  0  0  0  0
 11 12  1  0  0  0  0
 11 13  1  0  0  0  0
 13  2  1  0  0  0  0
 13 14  1  0  0  0  0
 13 15  1  0  0  0  0
 15 16  1  0  0  0  0
 15 17  1  0  0  0  0
 15 18  1  0  0  0  0
 18 19  1  0  0  0  0
 18 20  2  0  0  0  0
 20 21  1  0  0  0  0
 20 22  1  0  0  0  0
 22 11  1  0  0  0  0
 22 23  1  0  0  0  0
 22 24  1  0  0  0  0
M  END
> <ChemID>
100672

> <source_casrn>
133-06-2

> <CAS>
133-06-2

> <SMILES>
O=C1C2CC=CCC2C(=O)N1SC(Cl)(Cl)Cl

> <NAME>
Captan

> <preferred_name>
Captan

> <iupac>
2-[(trichloromethyl)sulfanyl]-3a,4,7,7a-tetrahydro-1H-isoindole-1,3(2H)-dione

> <MPID>
100681

> <dsstox_substance_id>
DTXSID9020243

> <Canonical_QSARr>
O=C1C2CC=CCC2C(=O)N1SC(Cl)(Cl)Cl

> <InChI_Code_QSARr>
InChI=1S/C9H8Cl3NO2S/c10-9(11,12)16-13-7(14)5-3-1-2-4-6(5)8(13)15/h1-2,5-6H,3-4H2

> <InChI Key_QSARr>
LDVVMCZRFWMZSG-UHFFFAOYSA-N

> <Salt_Solvent>
?

> <Ready_Biodeg>
0.0

$$$$
100673
  -INDIGO-08031722522D

 28 29  0  0  0  0  0  0  0  0999 V2000
    2.7714    0.0000    0.0000 O   0  0  0  0  0  0  0  0  0  0  0  0
    4.1568    0.8000    0.0000 O   0  0  0  0  0  0  0  0  0  0  0  0
    5.5425    0.0000    0.0000 C   0  0  0  0  0  0  0  0  0  0  0  0
    5.5425   -1.6000    0.0000 O   0  0  0  0  0  0  0  0  0  0  0  0
    6.9282    0.8000    0.0000 C   0  0  0  0  0  0  0  0  0  0  0  0
    6.9282    2.4000    0.0000 C   0  0  0  0  0  0  0  0  0  0  0  0
    5.5425    3.2001    0.0000 Cl  0  0  0  0  0  0  0  0  0  0  0  0
    8.3139    3.2001    0.0000 C   0  0  0  0  0  0  0  0  0  0  0  0
    8.3139    4.8000    0.0000 H   0  0  0  0  0  0  0  0  0  0  0  0
    9.6994    2.4000    0.0000 C   0  0  0  0  0  0  0  0  0  0  0  0
   11.0851    3.2001    0.0000 Cl  0  0  0  0  0  0  0  0  0  0  0  0
    9.6994    0.8000    0.0000 C   0  0  0  0  0  0  0  0  0  0  0  0
   11.0851    0.0000    0.0000 H   0  0  0  0  0  0  0  0  0  0  0  0
    8.3139    0.0000    0.0000 C   0  0  0  0  0  0  0  0  0  0  0  0
    8.3139   -1.6000    0.0000 H   0  0  0  0  0  0  0  0  0  0  0  0
    1.3857    0.8000    0.0000 C   0  0  0  0  0  0  0  0  0  0  0  0
    1.3857    2.4000    0.0000 O   0  0  0  0  0  0  0  0  0  0  0  0
   -0.0000    0.0000    0.0000 C   0  0  0  0  0  0  0  0  0  0  0  0
   -0.0000   -1.6000    0.0000 C   0  0  0  0  0  0  0  0  0  0  0  0
    1.3857   -2.4001    0.0000 Cl  0  0  0  0  0  0  0  0  0  0  0  0
   -1.3857   -2.4001    0.0000 C   0  0  0  0  0  0  0  0  0  0  0  0
   -1.3857   -4.0000    0.0000 H   0  0  0  0  0  0  0  0  0  0  0  0
   -2.7712   -1.6000    0.0000 C   0  0  0  0  0  0  0  0  0  0  0  0
   -4.1569   -2.4001    0.0000 Cl  0  0  0  0  0  0  0  0  0  0  0  0
   -2.7712    0.0000    0.0000 C   0  0  0  0  0  0  0  0  0  0  0  0
   -4.1569    0.8000    0.0000 H   0  0  0  0  0  0  0  0  0  0  0  0
   -1.3857    0.8000    0.0000 C   0  0  0  0  0  0  0  0  0  0  0  0
   -1.3857    2.4000    0.0000 H   0  0  0  0  0  0  0  0  0  0  0  0
  1  2  1  0  0  0  0
  2  3  1  0  0  0  0
  3  4  2  0  0  0  0
  3  5  1  0  0  0  0
  5  6  1  0  0  0  0
  6  7  1  0  0  0  0
  6  8  2  0  0  0  0
  8  9  1  0  0  0  0
  8 10  1  0  0  0  0
 10 11  1  0  0  0  0
 10 12  2  0  0  0  0
 12 13  1  0  0  0  0
 12 14  1  0  0  0  0
 14  5  2  0  0  0  0
 14 15  1  0  0  0  0
  1 16  1  0  0  0  0
 16 17  2  0  0  0  0
 16 18  1  0  0  0  0
 18 19  1  0  0  0  0
 19 20  1  0  0  0  0
 19 21  2  0  0  0  0
 21 22  1  0  0  0  0
 21 23  1  0  0  0  0
 23 24  1  0  0  0  0
 23 25  2  0  0  0  0
 25 26  1  0  0  0  0
 25 27  1  0  0  0  0
 27 18  2  0  0  0  0
 27 28  1  0  0  0  0
M  END
> <ChemID>
100673

> <source_casrn>
133-14-2

> <CAS>
133-14-2

> <SMILES>
O=C(OOC(=O)c1ccc(Cl)cc1Cl)c1ccc(Cl)cc1Cl

> <NAME>
Peroxide, bis(2,4-dichlorobenzoyl)

> <preferred_name>
Bis(2,4-dichlorophenyl)peroxyanhydride

> <iupac>
bis(2,4-dichlorophenyl)peroxyanhydride

> <MPID>
100682

> <dsstox_substance_id>
DTXSID4044539

> <Canonical_QSARr>
O=C(OOC(=O)c1ccc(Cl)cc1Cl)c1ccc(Cl)cc1Cl

> <InChI_Code_QSARr>
InChI=1S/C14H6Cl4O4/c15-7-1-3-9(11(17)5-7)13(19)21-22-14(20)10-4-2-8(16)6-12(10)18/h1-6H

> <InChI Key_QSARr>
WRXCBRHBHGNNQA-UHFFFAOYSA-N

> <Salt_Solvent>
?

> <Ready_Biodeg>
0.0

$$$$
100675
  -INDIGO-08031722522D

 20 21  0  0  0  0  0  0  0  0999 V2000
   -0.0001    1.6000    0.0000 C   0  0  0  0  0  0  0  0  0  0  0  0
    1.3856    2.4000    0.0000 C   0  0  0  0  0  0  0  0  0  0  0  0
    1.3856    4.0000    0.0000 H   0  0  0  0  0  0  0  0  0  0  0  0
    2.7712    1.6000    0.0000 C   0  0  0  0  0  0  0  0  0  0  0  0
    4.1569    2.4000    0.0000 H   0  0  0  0  0  0  0  0  0  0  0  0
    2.7713    0.0000    0.0000 C   0  0  0  0  0  0  0  0  0  0  0  0
    4.1569   -0.8000    0.0000 H   0  0  0  0  0  0  0  0  0  0  0  0
    1.3856   -0.8000    0.0000 C   0  0  0  0  0  0  0  0  0  0  0  0
    1.3856   -2.4000    0.0000 H   0  0  0  0  0  0  0  0  0  0  0  0
    0.0001    0.0000    0.0000 C   0  0  0  0  0  0  0  0  0  0  0  0
   -1.3856   -0.8000    0.0000 C   0  0  0  0  0  0  0  0  0  0  0  0
   -1.3856   -2.4000    0.0000 N   0  0  0  0  0  0  0  0  0  0  0  0
   -2.7712   -3.2000    0.0000 H   0  0  0  0  0  0  0  0  0  0  0  0
    0.0001   -3.2000    0.0000 H   0  0  0  0  0  0  0  0  0  0  0  0
   -2.7713    0.0000    0.0000 C   0  0  0  0  0  0  0  0  0  0  0  0
   -4.1569   -0.8000    0.0000 H   0  0  0  0  0  0  0  0  0  0  0  0
   -2.7712    1.6000    0.0000 C   0  0  0  0  0  0  0  0  0  0  0  0
   -4.1569    2.4000    0.0000 H   0  0  0  0  0  0  0  0  0  0  0  0
   -1.3856    2.4000    0.0000 C   0  0  0  0  0  0  0  0  0  0  0  0
   -1.3856    4.0000    0.0000 H   0  0  0  0  0  0  0  0  0  0  0  0
  1  2  1  0  0  0  0
  2  3  1  0  0  0  0
  2  4  2  0  0  0  0
  4  5  1  0  0  0  0
  4  6  1  0  0  0  0
  6  7  1  0  0  0  0
  6  8  2  0  0  0  0
  8  9  1  0  0  0  0
  8 10  1  0  0  0  0
 10  1  1  0  0  0  0
 10 11  2  0  0  0  0
 11 12  1  0  0  0  0
 12 13  1  0  0  0  0
 12 14  1  0  0  0  0
 11 15  1  0  0  0  0
 15 16  1  0  0  0  0
 15 17  2  0  0  0  0
 17 18  1  0  0  0  0
 17 19  1  0  0  0  0
 19  1  2  0  0  0  0
 19 20  1  0  0  0  0
M  END
> <ChemID>
100675

> <source_casrn>
134-32-7

> <CAS>
134-32-7

> <SMILES>
Nc1cccc2ccccc21

> <NAME>
1-Naphthalenamine

> <preferred_name>
1-Naphthylamine

> <iupac>
naphthalen-1-amine

> <MPID>
100684

> <dsstox_substance_id>
DTXSID7020920

> <Canonical_QSARr>
Nc1cccc2ccccc21

> <InChI_Code_QSARr>
InChI=1S/C10H9N/c11-10-7-3-5-8-4-1-2-6-9(8)10/h1-7H,11H2

> <InChI Key_QSARr>
RUFPHBVGCFYCNW-UHFFFAOYSA-N

> <Salt_Solvent>
?

> <Ready_Biodeg>
0.0

$$$$
100676
  -INDIGO-08031722522D

 31 31  0  0  0  0  0  0  0  0999 V2000
    2.6042    0.9479    0.0000 C   0  0  0  0  0  0  0  0  0  0  0  0
    3.6325    2.1735    0.0000 H   0  0  0  0  0  0  0  0  0  0  0  0
    4.1798    0.6700    0.0000 H   0  0  0  0  0  0  0  0  0  0  0  0
    2.0569    2.4514    0.0000 H   0  0  0  0  0  0  0  0  0  0  0  0
    1.0284    1.2256    0.0000 C   0  0  0  0  0  0  0  0  0  0  0  0
   -0.0525    2.4053    0.0000 H   0  0  0  0  0  0  0  0  0  0  0  0
    1.0982    2.8241    0.0000 H   0  0  0  0  0  0  0  0  0  0  0  0
    0.0001   -0.0000    0.0000 N   0  0  0  0  0  0  0  0  0  0  0  0
    0.5472   -1.5035    0.0000 C   0  0  0  0  0  0  0  0  0  0  0  0
    0.0660   -3.0295    0.0000 H   0  0  0  0  0  0  0  0  0  0  0  0
   -0.8719   -2.2423    0.0000 H   0  0  0  0  0  0  0  0  0  0  0  0
    2.1228   -1.7814    0.0000 C   0  0  0  0  0  0  0  0  0  0  0  0
    2.6701   -3.2849    0.0000 H   0  0  0  0  0  0  0  0  0  0  0  0
    3.6987   -2.0591    0.0000 H   0  0  0  0  0  0  0  0  0  0  0  0
    1.0945   -3.0070    0.0000 H   0  0  0  0  0  0  0  0  0  0  0  0
   -1.5757    0.2778    0.0000 C   0  0  0  0  0  0  0  0  0  0  0  0
   -2.1228    1.7814    0.0000 O   0  0  0  0  0  0  0  0  0  0  0  0
   -2.8014   -0.7506    0.0000 C   0  0  0  0  0  0  0  0  0  0  0  0
   -2.8014   -2.3506    0.0000 C   0  0  0  0  0  0  0  0  0  0  0  0
   -1.4158   -3.1506    0.0000 H   0  0  0  0  0  0  0  0  0  0  0  0
   -4.1869   -3.1506    0.0000 C   0  0  0  0  0  0  0  0  0  0  0  0
   -4.1869   -4.7506    0.0000 H   0  0  0  0  0  0  0  0  0  0  0  0
   -5.5726   -2.3506    0.0000 C   0  0  0  0  0  0  0  0  0  0  0  0
   -6.9583   -3.1506    0.0000 H   0  0  0  0  0  0  0  0  0  0  0  0
   -5.5726   -0.7506    0.0000 C   0  0  0  0  0  0  0  0  0  0  0  0
   -6.9583    0.0493    0.0000 C   0  0  0  0  0  0  0  0  0  0  0  0
   -8.3439    0.8494    0.0000 H   0  0  0  0  0  0  0  0  0  0  0  0
   -8.3439   -0.7506    0.0000 H   0  0  0  0  0  0  0  0  0  0  0  0
   -6.9583    1.6494    0.0000 H   0  0  0  0  0  0  0  0  0  0  0  0
   -4.1869    0.0493    0.0000 C   0  0  0  0  0  0  0  0  0  0  0  0
   -4.1869    1.6494    0.0000 H   0  0  0  0  0  0  0  0  0  0  0  0
  1  2  1  0  0  0  0
  1  3  1  0  0  0  0
  1  4  1  0  0  0  0
  1  5  1  0  0  0  0
  5  6  1  0  0  0  0
  5  7  1  0  0  0  0
  5  8  1  0  0  0  0
  8  9  1  0  0  0  0
  9 10  1  0  0  0  0
  9 11  1  0  0  0  0
  9 12  1  0  0  0  0
 12 13  1  0  0  0  0
 12 14  1  0  0  0  0
 12 15  1  0  0  0  0
  8 16  1  0  0  0  0
 16 17  2  0  0  0  0
 16 18  1  0  0  0  0
 18 19  1  0  0  0  0
 19 20  1  0  0  0  0
 19 21  2  0  0  0  0
 21 22  1  0  0  0  0
 21 23  1  0  0  0  0
 23 24  1  0  0  0  0
 23 25  2  0  0  0  0
 25 26  1  0  0  0  0
 26 27  1  0  0  0  0
 26 28  1  0  0  0  0
 26 29  1  0  0  0  0
 25 30  1  0  0  0  0
 30 18  2  0  0  0  0
 30 31  1  0  0  0  0
M  END
> <ChemID>
100676

> <source_casrn>
134-62-3

> <CAS>
134-62-3

> <SMILES>
Cc1cc(ccc1)C(=O)N(CC)CC

> <NAME>
Benzamide, N,N-diethyl-3-methyl-

> <preferred_name>
DEET

> <iupac>
N,N-diethyl-3-methylbenzamide

> <MPID>
100685

> <dsstox_substance_id>
DTXSID2021995

> <Canonical_QSARr>
Cc1cc(ccc1)C(=O)N(CC)CC

> <InChI_Code_QSARr>
InChI=1S/C12H17NO/c1-4-13(5-2)12(14)11-8-6-7-10(3)9-11/h6-9H,4-5H2,1-3H3

> <InChI Key_QSARr>
MMOXZBCLCQITDF-UHFFFAOYSA-N

> <Salt_Solvent>
?

> <Ready_Biodeg>
0.0

$$$$
100677
  -INDIGO-08031722522D

 25 26  0  0  0  0  0  0  0  0999 V2000
    4.7270   -0.8335    0.0000 C   0  0  0  0  0  0  0  0  0  0  0  0
    4.1799    0.6700    0.0000 C   0  0  0  0  0  0  0  0  0  0  0  0
    5.2083    1.8957    0.0000 H   0  0  0  0  0  0  0  0  0  0  0  0
    2.6041    0.9479    0.0000 C   0  0  0  0  0  0  0  0  0  0  0  0
    2.0570    2.4513    0.0000 H   0  0  0  0  0  0  0  0  0  0  0  0
    1.5757   -0.2778    0.0000 C   0  0  0  0  0  0  0  0  0  0  0  0
    0.0001    0.0000    0.0000 C   0  0  0  0  0  0  0  0  0  0  0  0
   -0.8597    1.3494    0.0000 H   0  0  0  0  0  0  0  0  0  0  0  0
    0.3462    1.5621    0.0000 Cl  0  0  0  0  0  0  0  0  0  0  0  0
   -1.3857   -0.8000    0.0000 C   0  0  0  0  0  0  0  0  0  0  0  0
   -1.3857   -2.4000    0.0000 C   0  0  0  0  0  0  0  0  0  0  0  0
    0.0001   -3.2000    0.0000 H   0  0  0  0  0  0  0  0  0  0  0  0
   -2.7713   -3.2000    0.0000 C   0  0  0  0  0  0  0  0  0  0  0  0
   -2.7713   -4.8000    0.0000 H   0  0  0  0  0  0  0  0  0  0  0  0
   -4.1569   -2.4000    0.0000 C   0  0  0  0  0  0  0  0  0  0  0  0
   -5.5426   -3.2000    0.0000 H   0  0  0  0  0  0  0  0  0  0  0  0
   -4.1569   -0.8000    0.0000 C   0  0  0  0  0  0  0  0  0  0  0  0
   -5.5426    0.0000    0.0000 H   0  0  0  0  0  0  0  0  0  0  0  0
   -2.7713    0.0000    0.0000 C   0  0  0  0  0  0  0  0  0  0  0  0
   -2.7713    1.6000    0.0000 H   0  0  0  0  0  0  0  0  0  0  0  0
    2.1230   -1.7813    0.0000 C   0  0  0  0  0  0  0  0  0  0  0  0
    1.0945   -3.0071    0.0000 H   0  0  0  0  0  0  0  0  0  0  0  0
    3.6986   -2.0591    0.0000 C   0  0  0  0  0  0  0  0  0  0  0  0
    4.2459   -3.5627    0.0000 H   0  0  0  0  0  0  0  0  0  0  0  0
    6.3028   -1.1113    0.0000 Cl  0  0  0  0  0  0  0  0  0  0  0  0
  1  2  1  0  0  0  0
  2  3  1  0  0  0  0
  2  4  2  0  0  0  0
  4  5  1  0  0  0  0
  4  6  1  0  0  0  0
  6  7  1  0  0  0  0
  7  8  1  0  0  0  0
  7  9  1  0  0  0  0
  7 10  1  0  0  0  0
 10 11  1  0  0  0  0
 11 12  1  0  0  0  0
 11 13  2  0  0  0  0
 13 14  1  0  0  0  0
 13 15  1  0  0  0  0
 15 16  1  0  0  0  0
 15 17  2  0  0  0  0
 17 18  1  0  0  0  0
 17 19  1  0  0  0  0
 19 10  2  0  0  0  0
 19 20  1  0  0  0  0
  6 21  2  0  0  0  0
 21 22  1  0  0  0  0
 21 23  1  0  0  0  0
 23  1  2  0  0  0  0
 23 24  1  0  0  0  0
  1 25  1  0  0  0  0
M  END
> <ChemID>
100677

> <source_casrn>
134-83-8

> <CAS>
134-83-8

> <SMILES>
c(cccc1)(c1)C(c(ccc(c2)Cl)c2)Cl

> <NAME>
Benzene, 1-chloro-4-(chlorophenylmethyl)-

> <preferred_name>


> <iupac>


> <MPID>
100686

> <dsstox_substance_id>
DTXSID80874382

> <Canonical_QSARr>
Clc1ccc(cc1)C(Cl)c1ccccc1

> <InChI_Code_QSARr>
InChI=1S/C13H10Cl2/c14-12-8-6-11(7-9-12)13(15)10-4-2-1-3-5-10/h1-9,13H

> <InChI Key_QSARr>
ALKWTKGPKKAZMN-UHFFFAOYSA-N

> <Salt_Solvent>
?

> <Ready_Biodeg>
0.0

$$$$
100679
  -INDIGO-08031722522D

 24 24  0  0  0  0  0  0  0  0999 V2000
   -0.0000   -0.0000    0.0000 C   0  0  0  0  0  0  0  0  0  0  0  0
    1.6000   -0.0000    0.0000 C   0  0  0  0  0  0  0  0  0  0  0  0
    2.4001    1.3856    0.0000 H   0  0  0  0  0  0  0  0  0  0  0  0
    2.4001   -1.3857    0.0000 C   0  0  0  0  0  0  0  0  0  0  0  0
    4.0000   -1.3857    0.0000 H   0  0  0  0  0  0  0  0  0  0  0  0
    1.6000   -2.7713    0.0000 C   0  0  0  0  0  0  0  0  0  0  0  0
    2.4001   -4.1569    0.0000 H   0  0  0  0  0  0  0  0  0  0  0  0
   -0.0000   -2.7713    0.0000 C   0  0  0  0  0  0  0  0  0  0  0  0
   -0.8000   -4.1569    0.0000 H   0  0  0  0  0  0  0  0  0  0  0  0
   -0.8000   -1.3857    0.0000 C   0  0  0  0  0  0  0  0  0  0  0  0
   -2.4000   -1.3857    0.0000 C   0  0  0  0  0  0  0  0  0  0  0  0
   -2.6088    0.2007    0.0000 H   0  0  0  0  0  0  0  0  0  0  0  0
   -3.6694   -0.4116    0.0000 H   0  0  0  0  0  0  0  0  0  0  0  0
   -3.2001   -2.7713    0.0000 C   0  0  0  0  0  0  0  0  0  0  0  0
   -4.8000   -2.7713    0.0000 H   0  0  0  0  0  0  0  0  0  0  0  0
   -4.0000   -4.1569    0.0000 H   0  0  0  0  0  0  0  0  0  0  0  0
   -4.0000   -1.3857    0.0000 H   0  0  0  0  0  0  0  0  0  0  0  0
   -0.8000    1.3856    0.0000 C   0  0  0  0  0  0  0  0  0  0  0  0
   -0.5911    2.9720    0.0000 H   0  0  0  0  0  0  0  0  0  0  0  0
    0.4694    2.3596    0.0000 H   0  0  0  0  0  0  0  0  0  0  0  0
   -2.4000    1.3856    0.0000 C   0  0  0  0  0  0  0  0  0  0  0  0
   -3.2001    2.7713    0.0000 H   0  0  0  0  0  0  0  0  0  0  0  0
   -4.0000    1.3856    0.0000 H   0  0  0  0  0  0  0  0  0  0  0  0
   -1.6000    2.7713    0.0000 H   0  0  0  0  0  0  0  0  0  0  0  0
  1  2  1  0  0  0  0
  2  3  1  0  0  0  0
  2  4  2  0  0  0  0
  4  5  1  0  0  0  0
  4  6  1  0  0  0  0
  6  7  1  0  0  0  0
  6  8  2  0  0  0  0
  8  9  1  0  0  0  0
  8 10  1  0  0  0  0
 10  1  2  0  0  0  0
 10 11  1  0  0  0  0
 11 12  1  0  0  0  0
 11 13  1  0  0  0  0
 11 14  1  0  0  0  0
 14 15  1  0  0  0  0
 14 16  1  0  0  0  0
 14 17  1  0  0  0  0
  1 18  1  0  0  0  0
 18 19  1  0  0  0  0
 18 20  1  0  0  0  0
 18 21  1  0  0  0  0
 21 22  1  0  0  0  0
 21 23  1  0  0  0  0
 21 24  1  0  0  0  0
M  END
> <ChemID>
100679

> <source_casrn>
135-01-3

> <CAS>
135-01-3

> <SMILES>
CCc1ccccc1CC

> <NAME>
Benzene, 1,2-diethyl-

> <preferred_name>
o-Diethylbenzene

> <iupac>
1,2-diethylbenzene

> <MPID>
100688

> <dsstox_substance_id>
DTXSID6052742

> <Canonical_QSARr>
CCc1ccccc1CC

> <InChI_Code_QSARr>
InChI=1S/C10H14/c1-3-9-7-5-6-8-10(9)4-2/h5-8H,3-4H2,1-2H3

> <InChI Key_QSARr>
KVNYFPKFSJIPBJ-UHFFFAOYSA-N

> <Salt_Solvent>
?

> <Ready_Biodeg>
0.0

$$$$
100680
  -INDIGO-08031722522D

 19 20  0  0  0  0  0  0  0  0999 V2000
    0.0001   -0.0000    0.0000 C   0  0  0  0  0  0  0  0  0  0  0  0
    1.3857    0.8000    0.0000 C   0  0  0  0  0  0  0  0  0  0  0  0
    1.3857    2.4000    0.0000 H   0  0  0  0  0  0  0  0  0  0  0  0
    2.7713   -0.0000    0.0000 C   0  0  0  0  0  0  0  0  0  0  0  0
    4.1569    0.8000    0.0000 H   0  0  0  0  0  0  0  0  0  0  0  0
    2.7713   -1.6000    0.0000 C   0  0  0  0  0  0  0  0  0  0  0  0
    4.1569   -2.4000    0.0000 H   0  0  0  0  0  0  0  0  0  0  0  0
    1.3857   -2.4000    0.0000 C   0  0  0  0  0  0  0  0  0  0  0  0
    1.3857   -4.0000    0.0000 H   0  0  0  0  0  0  0  0  0  0  0  0
    0.0001   -1.6000    0.0000 C   0  0  0  0  0  0  0  0  0  0  0  0
   -1.3857   -2.4000    0.0000 C   0  0  0  0  0  0  0  0  0  0  0  0
   -1.3857   -4.0000    0.0000 H   0  0  0  0  0  0  0  0  0  0  0  0
   -2.7713   -1.6000    0.0000 C   0  0  0  0  0  0  0  0  0  0  0  0
   -4.1569   -2.4000    0.0000 H   0  0  0  0  0  0  0  0  0  0  0  0
   -2.7713   -0.0000    0.0000 C   0  0  0  0  0  0  0  0  0  0  0  0
   -4.1569    0.8000    0.0000 O   0  0  0  0  0  0  0  0  0  0  0  0
   -5.5426   -0.0000    0.0000 H   0  0  0  0  0  0  0  0  0  0  0  0
   -1.3857    0.8000    0.0000 C   0  0  0  0  0  0  0  0  0  0  0  0
   -1.3857    2.4000    0.0000 H   0  0  0  0  0  0  0  0  0  0  0  0
  1  2  1  0  0  0  0
  2  3  1  0  0  0  0
  2  4  2  0  0  0  0
  4  5  1  0  0  0  0
  4  6  1  0  0  0  0
  6  7  1  0  0  0  0
  6  8  2  0  0  0  0
  8  9  1  0  0  0  0
  8 10  1  0  0  0  0
 10  1  1  0  0  0  0
 10 11  2  0  0  0  0
 11 12  1  0  0  0  0
 11 13  1  0  0  0  0
 13 14  1  0  0  0  0
 13 15  2  0  0  0  0
 15 16  1  0  0  0  0
 16 17  1  0  0  0  0
 15 18  1  0  0  0  0
 18  1  2  0  0  0  0
 18 19  1  0  0  0  0
M  END
> <ChemID>
100680

> <source_casrn>
135-19-3

> <CAS>
135-19-3

> <SMILES>
Oc1cc2ccccc2cc1

> <NAME>
2-Naphthalenol

> <preferred_name>
2-Naphthalenol

> <iupac>
naphthalen-2-ol

> <MPID>
100689

> <dsstox_substance_id>
DTXSID5027061

> <Canonical_QSARr>
Oc1cc2ccccc2cc1

> <InChI_Code_QSARr>
InChI=1S/C10H8O/c11-10-6-5-8-3-1-2-4-9(8)7-10/h1-7,11H

> <InChI Key_QSARr>
JWAZRIHNYRIHIV-UHFFFAOYSA-N

> <Salt_Solvent>
?

> <Ready_Biodeg>
1.0

$$$$
100681
  -INDIGO-08031722522D

 36 40  0  0  0  0  0  0  0  0999 V2000
   -0.0001   -0.0000    0.0000 C   0  0  0  0  0  0  0  0  0  0  0  0
    1.3858    0.8000    0.0000 C   0  0  0  0  0  0  0  0  0  0  0  0
    1.3858    2.4000    0.0000 H   0  0  0  0  0  0  0  0  0  0  0  0
    2.7713   -0.0000    0.0000 C   0  0  0  0  0  0  0  0  0  0  0  0
    4.1569    0.8000    0.0000 C   0  0  0  0  0  0  0  0  0  0  0  0
    4.1569    2.4000    0.0000 H   0  0  0  0  0  0  0  0  0  0  0  0
    5.5425   -0.0000    0.0000 C   0  0  0  0  0  0  0  0  0  0  0  0
    6.9283    0.8000    0.0000 C   0  0  0  0  0  0  0  0  0  0  0  0
    6.9283    2.4000    0.0000 H   0  0  0  0  0  0  0  0  0  0  0  0
    8.3139   -0.0000    0.0000 C   0  0  0  0  0  0  0  0  0  0  0  0
    9.6995    0.8000    0.0000 H   0  0  0  0  0  0  0  0  0  0  0  0
    8.3139   -1.6000    0.0000 C   0  0  0  0  0  0  0  0  0  0  0  0
    9.6995   -2.4000    0.0000 H   0  0  0  0  0  0  0  0  0  0  0  0
    6.9283   -2.4000    0.0000 C   0  0  0  0  0  0  0  0  0  0  0  0
    6.9283   -4.0000    0.0000 H   0  0  0  0  0  0  0  0  0  0  0  0
    5.5425   -1.6000    0.0000 C   0  0  0  0  0  0  0  0  0  0  0  0
    4.1569   -2.4000    0.0000 C   0  0  0  0  0  0  0  0  0  0  0  0
    4.1569   -4.0000    0.0000 H   0  0  0  0  0  0  0  0  0  0  0  0
    2.7713   -1.6000    0.0000 C   0  0  0  0  0  0  0  0  0  0  0  0
    1.3858   -2.4000    0.0000 C   0  0  0  0  0  0  0  0  0  0  0  0
    1.3858   -4.0000    0.0000 H   0  0  0  0  0  0  0  0  0  0  0  0
   -0.0001   -1.6000    0.0000 C   0  0  0  0  0  0  0  0  0  0  0  0
   -1.3856   -2.4000    0.0000 C   0  0  0  0  0  0  0  0  0  0  0  0
   -1.3856   -4.0000    0.0000 H   0  0  0  0  0  0  0  0  0  0  0  0
   -2.7712   -1.6000    0.0000 C   0  0  0  0  0  0  0  0  0  0  0  0
   -4.1570   -2.4000    0.0000 C   0  0  0  0  0  0  0  0  0  0  0  0
   -4.1570   -4.0000    0.0000 H   0  0  0  0  0  0  0  0  0  0  0  0
   -5.5426   -1.6000    0.0000 C   0  0  0  0  0  0  0  0  0  0  0  0
   -6.9282   -2.4000    0.0000 H   0  0  0  0  0  0  0  0  0  0  0  0
   -5.5426   -0.0000    0.0000 C   0  0  0  0  0  0  0  0  0  0  0  0
   -6.9282    0.8000    0.0000 H   0  0  0  0  0  0  0  0  0  0  0  0
   -4.1570    0.8000    0.0000 C   0  0  0  0  0  0  0  0  0  0  0  0
   -4.1570    2.4000    0.0000 H   0  0  0  0  0  0  0  0  0  0  0  0
   -2.7712   -0.0000    0.0000 C   0  0  0  0  0  0  0  0  0  0  0  0
   -1.3856    0.8000    0.0000 C   0  0  0  0  0  0  0  0  0  0  0  0
   -1.3856    2.4000    0.0000 H   0  0  0  0  0  0  0  0  0  0  0  0
  1  2  2  0  0  0  0
  2  3  1  0  0  0  0
  2  4  1  0  0  0  0
  4  5  1  0  0  0  0
  5  6  1  0  0  0  0
  5  7  2  0  0  0  0
  7  8  1  0  0  0  0
  8  9  1  0  0  0  0
  8 10  2  0  0  0  0
 10 11  1  0  0  0  0
 10 12  1  0  0  0  0
 12 13  1  0  0  0  0
 12 14  2  0  0  0  0
 14 15  1  0  0  0  0
 14 16  1  0  0  0  0
 16  7  1  0  0  0  0
 16 17  2  0  0  0  0
 17 18  1  0  0  0  0
 17 19  1  0  0  0  0
 19  4  2  0  0  0  0
 19 20  1  0  0  0  0
 20 21  1  0  0  0  0
 20 22  2  0  0  0  0
 22  1  1  0  0  0  0
 22 23  1  0  0  0  0
 23 24  1  0  0  0  0
 23 25  2  0  0  0  0
 25 26  1  0  0  0  0
 26 27  1  0  0  0  0
 26 28  2  0  0  0  0
 28 29  1  0  0  0  0
 28 30  1  0  0  0  0
 30 31  1  0  0  0  0
 30 32  2  0  0  0  0
 32 33  1  0  0  0  0
 32 34  1  0  0  0  0
 34 25  1  0  0  0  0
 34 35  2  0  0  0  0
 35  1  1  0  0  0  0
 35 36  1  0  0  0  0
M  END
> <ChemID>
100681

> <source_casrn>
135-48-8

> <CAS>
135-48-8

> <SMILES>
c1c2cc3cc4ccccc4cc3cc2cc2ccccc21

> <NAME>
Pentacene

> <preferred_name>
Pentacene

> <iupac>
PENTACENE

> <MPID>
100690

> <dsstox_substance_id>
DTXSID7059648

> <Canonical_QSARr>
c1c2cc3cc4ccccc4cc3cc2cc2ccccc21

> <InChI_Code_QSARr>
InChI=1S/C22H14/c1-2-6-16-10-20-14-22-12-18-8-4-3-7-17(18)11-21(22)13-19(20)9-15(16)5-1/h1-14H

> <InChI Key_QSARr>
SLIUAWYAILUBJU-UHFFFAOYSA-N

> <Salt_Solvent>
?

> <Ready_Biodeg>
0.0

$$$$
100683
  -INDIGO-08031722522D

 47 46  0  0  0  0  0  0  0  0999 V2000
   -6.9282    0.7999    0.0000 C   0  0  0  0  0  0  0  0  0  0  0  0
   -5.5426   -0.0000    0.0000 C   0  0  0  0  0  0  0  0  0  0  0  0
   -6.1547   -1.4782    0.0000 H   0  0  0  0  0  0  0  0  0  0  0  0
   -4.9304   -1.4782    0.0000 H   0  0  0  0  0  0  0  0  0  0  0  0
   -4.1569    0.7999    0.0000 C   0  0  0  0  0  0  0  0  0  0  0  0
   -3.5447    2.2782    0.0000 H   0  0  0  0  0  0  0  0  0  0  0  0
   -4.7691    2.2782    0.0000 H   0  0  0  0  0  0  0  0  0  0  0  0
   -2.7713   -0.0000    0.0000 C   0  0  0  0  0  0  0  0  0  0  0  0
   -3.3834   -1.4782    0.0000 H   0  0  0  0  0  0  0  0  0  0  0  0
   -2.1591   -1.4782    0.0000 H   0  0  0  0  0  0  0  0  0  0  0  0
   -1.3856    0.7999    0.0000 C   0  0  0  0  0  0  0  0  0  0  0  0
   -0.7735    2.2782    0.0000 H   0  0  0  0  0  0  0  0  0  0  0  0
   -1.9978    2.2782    0.0000 H   0  0  0  0  0  0  0  0  0  0  0  0
    0.0000   -0.0000    0.0000 C   0  0  0  0  0  0  0  0  0  0  0  0
   -0.6122   -1.4782    0.0000 H   0  0  0  0  0  0  0  0  0  0  0  0
    0.6122   -1.4782    0.0000 H   0  0  0  0  0  0  0  0  0  0  0  0
    1.3856    0.7999    0.0000 C   0  0  0  0  0  0  0  0  0  0  0  0
    1.9978    2.2782    0.0000 H   0  0  0  0  0  0  0  0  0  0  0  0
    0.7735    2.2782    0.0000 H   0  0  0  0  0  0  0  0  0  0  0  0
    2.7713   -0.0000    0.0000 C   0  0  0  0  0  0  0  0  0  0  0  0
    2.1591   -1.4782    0.0000 H   0  0  0  0  0  0  0  0  0  0  0  0
    3.3835   -1.4782    0.0000 H   0  0  0  0  0  0  0  0  0  0  0  0
    4.1569    0.7999    0.0000 C   0  0  0  0  0  0  0  0  0  0  0  0
    4.7691    2.2782    0.0000 H   0  0  0  0  0  0  0  0  0  0  0  0
    3.5448    2.2782    0.0000 H   0  0  0  0  0  0  0  0  0  0  0  0
    5.5426   -0.0000    0.0000 C   0  0  0  0  0  0  0  0  0  0  0  0
    6.9282   -0.8000    0.0000 H   0  0  0  0  0  0  0  0  0  0  0  0
    6.9282    0.7999    0.0000 H   0  0  0  0  0  0  0  0  0  0  0  0
    5.5426   -1.6000    0.0000 H   0  0  0  0  0  0  0  0  0  0  0  0
   -8.4318    0.2528    0.0000 N   0  0  0  0  0  0  0  0  0  0  0  0
   -9.6573    1.2813    0.0000 C   0  0  0  0  0  0  0  0  0  0  0  0
  -10.8371    0.2003    0.0000 H   0  0  0  0  0  0  0  0  0  0  0  0
  -11.2558    1.3510    0.0000 H   0  0  0  0  0  0  0  0  0  0  0  0
   -9.3796    2.8569    0.0000 C   0  0  0  0  0  0  0  0  0  0  0  0
   -8.1998    3.9378    0.0000 H   0  0  0  0  0  0  0  0  0  0  0  0
   -7.7811    2.7872    0.0000 H   0  0  0  0  0  0  0  0  0  0  0  0
  -10.6051    3.8854    0.0000 O   0  0  0  0  0  0  0  0  0  0  0  0
  -10.3274    5.4611    0.0000 H   0  0  0  0  0  0  0  0  0  0  0  0
   -8.7095   -1.3229    0.0000 C   0  0  0  0  0  0  0  0  0  0  0  0
   -7.9706   -2.7422    0.0000 H   0  0  0  0  0  0  0  0  0  0  0  0
   -7.1835   -1.8041    0.0000 H   0  0  0  0  0  0  0  0  0  0  0  0
  -10.2131   -1.8702    0.0000 C   0  0  0  0  0  0  0  0  0  0  0  0
   -9.8668   -3.4322    0.0000 H   0  0  0  0  0  0  0  0  0  0  0  0
  -11.0727   -3.2196    0.0000 H   0  0  0  0  0  0  0  0  0  0  0  0
  -11.4386   -0.8417    0.0000 O   0  0  0  0  0  0  0  0  0  0  0  0
  -12.9422   -1.3889    0.0000 H   0  0  0  0  0  0  0  0  0  0  0  0
   -6.6505    2.3757    0.0000 O   0  0  0  0  0  0  0  0  0  0  0  0
  1  2  1  0  0  0  0
  2  3  1  0  0  0  0
  2  4  1  0  0  0  0
  2  5  1  0  0  0  0
  5  6  1  0  0  0  0
  5  7  1  0  0  0  0
  5  8  1  0  0  0  0
  8  9  1  0  0  0  0
  8 10  1  0  0  0  0
  8 11  1  0  0  0  0
 11 12  1  0  0  0  0
 11 13  1  0  0  0  0
 11 14  1  0  0  0  0
 14 15  1  0  0  0  0
 14 16  1  0  0  0  0
 14 17  1  0  0  0  0
 17 18  1  0  0  0  0
 17 19  1  0  0  0  0
 17 20  1  0  0  0  0
 20 21  1  0  0  0  0
 20 22  1  0  0  0  0
 20 23  1  0  0  0  0
 23 24  1  0  0  0  0
 23 25  1  0  0  0  0
 23 26  1  0  0  0  0
 26 27  1  0  0  0  0
 26 28  1  0  0  0  0
 26 29  1  0  0  0  0
  1 30  1  0  0  0  0
 30 31  1  0  0  0  0
 31 32  1  0  0  0  0
 31 33  1  0  0  0  0
 31 34  1  0  0  0  0
 34 35  1  0  0  0  0
 34 36  1  0  0  0  0
 34 37  1  0  0  0  0
 37 38  1  0  0  0  0
 30 39  1  0  0  0  0
 39 40  1  0  0  0  0
 39 41  1  0  0  0  0
 39 42  1  0  0  0  0
 42 43  1  0  0  0  0
 42 44  1  0  0  0  0
 42 45  1  0  0  0  0
 45 46  1  0  0  0  0
  1 47  2  0  0  0  0
M  END
> <ChemID>
100683

> <source_casrn>
136-26-5

> <CAS>
136-26-5

> <SMILES>
CCCCCCCCCC(=O)N(CCO)CCO

> <NAME>
Decanamide, N,N-bis(2-hydroxyethyl)-

> <preferred_name>
N,N-Bis(2-hydroxyethyl)decanamide

> <iupac>
N,N-bis(2-hydroxyethyl)decanamide

> <MPID>
100692

> <dsstox_substance_id>
DTXSID3042184

> <Canonical_QSARr>
CCCCCCCCCC(=O)N(CCO)CCO

> <InChI_Code_QSARr>
InChI=1S/C14H29NO3/c1-2-3-4-5-6-7-8-9-14(18)15(10-12-16)11-13-17/h16-17H,2-13H2,1H3

> <InChI Key_QSARr>
BPXGKRUSMCVZAF-UHFFFAOYSA-N

> <Salt_Solvent>
?

> <Ready_Biodeg>
1.0

$$$$
100684
  -INDIGO-08031722522D

 35 35  0  0  0  0  0  0  0  0999 V2000
    2.3999   -4.1569    0.0000 O   0  0  0  0  0  0  0  0  0  0  0  0
    3.2000   -2.7713    0.0000 C   0  0  0  0  0  0  0  0  0  0  0  0
    4.7999   -2.7713    0.0000 C   0  0  0  0  0  0  0  0  0  0  0  0
    5.6000   -1.3857    0.0000 C   0  0  0  0  0  0  0  0  0  0  0  0
    4.7999   -0.0000    0.0000 H   0  0  0  0  0  0  0  0  0  0  0  0
    7.2000   -1.3857    0.0000 N   0  0  0  0  0  0  0  0  0  0  0  0
    8.0001   -2.7713    0.0000 C   0  0  0  0  0  0  0  0  0  0  0  0
    9.6000   -2.7713    0.0000 C   0  0  0  0  0  0  0  0  0  0  0  0
   10.4001   -4.1569    0.0000 O   0  0  0  0  0  0  0  0  0  0  0  0
   10.4001   -1.3857    0.0000 O   0  0  0  0  0  0  0  0  0  0  0  0
   12.0000   -1.3857    0.0000 C   0  0  0  0  0  0  0  0  0  0  0  0
   12.2089   -2.9720    0.0000 H   0  0  0  0  0  0  0  0  0  0  0  0
   13.2695   -2.3597    0.0000 H   0  0  0  0  0  0  0  0  0  0  0  0
   12.7999   -0.0000    0.0000 C   0  0  0  0  0  0  0  0  0  0  0  0
   12.5913    1.5863    0.0000 H   0  0  0  0  0  0  0  0  0  0  0  0
   11.5307    0.9740    0.0000 H   0  0  0  0  0  0  0  0  0  0  0  0
   14.4001   -0.0000    0.0000 C   0  0  0  0  0  0  0  0  0  0  0  0
   16.0000   -0.0000    0.0000 H   0  0  0  0  0  0  0  0  0  0  0  0
   15.1999    1.3856    0.0000 H   0  0  0  0  0  0  0  0  0  0  0  0
   15.1999   -1.3857    0.0000 H   0  0  0  0  0  0  0  0  0  0  0  0
    7.2000   -4.1569    0.0000 C   0  0  0  0  0  0  0  0  0  0  0  0
    8.0001   -5.5426    0.0000 H   0  0  0  0  0  0  0  0  0  0  0  0
    5.6000   -4.1569    0.0000 C   0  0  0  0  0  0  0  0  0  0  0  0
    4.7999   -5.5426    0.0000 H   0  0  0  0  0  0  0  0  0  0  0  0
    2.3999   -1.3857    0.0000 O   0  0  0  0  0  0  0  0  0  0  0  0
    0.8000   -1.3857    0.0000 C   0  0  0  0  0  0  0  0  0  0  0  0
   -0.4695   -2.3597    0.0000 H   0  0  0  0  0  0  0  0  0  0  0  0
    0.5911   -2.9720    0.0000 H   0  0  0  0  0  0  0  0  0  0  0  0
   -0.0001   -0.0000    0.0000 C   0  0  0  0  0  0  0  0  0  0  0  0
    1.2693    0.9740    0.0000 H   0  0  0  0  0  0  0  0  0  0  0  0
    0.2087    1.5863    0.0000 H   0  0  0  0  0  0  0  0  0  0  0  0
   -1.6001   -0.0000    0.0000 C   0  0  0  0  0  0  0  0  0  0  0  0
   -3.2000   -0.0000    0.0000 H   0  0  0  0  0  0  0  0  0  0  0  0
   -2.3999    1.3856    0.0000 H   0  0  0  0  0  0  0  0  0  0  0  0
   -2.3999   -1.3857    0.0000 H   0  0  0  0  0  0  0  0  0  0  0  0
  1  2  2  0  0  0  0
  2  3  1  0  0  0  0
  3  4  1  0  0  0  0
  4  5  1  0  0  0  0
  4  6  2  0  0  0  0
  6  7  1  0  0  0  0
  7  8  1  0  0  0  0
  8  9  2  0  0  0  0
  8 10  1  0  0  0  0
 10 11  1  0  0  0  0
 11 12  1  0  0  0  0
 11 13  1  0  0  0  0
 11 14  1  0  0  0  0
 14 15  1  0  0  0  0
 14 16  1  0  0  0  0
 14 17  1  0  0  0  0
 17 18  1  0  0  0  0
 17 19  1  0  0  0  0
 17 20  1  0  0  0  0
  7 21  2  0  0  0  0
 21 22  1  0  0  0  0
 21 23  1  0  0  0  0
 23  3  2  0  0  0  0
 23 24  1  0  0  0  0
  2 25  1  0  0  0  0
 25 26  1  0  0  0  0
 26 27  1  0  0  0  0
 26 28  1  0  0  0  0
 26 29  1  0  0  0  0
 29 30  1  0  0  0  0
 29 31  1  0  0  0  0
 29 32  1  0  0  0  0
 32 33  1  0  0  0  0
 32 34  1  0  0  0  0
 32 35  1  0  0  0  0
M  END
> <ChemID>
100684

> <source_casrn>
136-45-8

> <CAS>
136-45-8

> <SMILES>
CCCOC(=O)c1c[n]c(cc1)C(=O)OCCC

> <NAME>
Dipropyl pyridine-2,5-dicarboxylate

> <preferred_name>
Dipropyl 2,5-pyridinedicarboxylate

> <iupac>
C13H17NO4

> <MPID>
100693

> <dsstox_substance_id>
DTXSID8032544

> <Canonical_QSARr>
CCCOC(=O)c1c[n]c(cc1)C(=O)OCCC

> <InChI_Code_QSARr>
InChI=1S/C13H17NO4/c1-3-7-17-12(15)10-5-6-11(14-9-10)13(16)18-8-4-2/h5-6,9H,3-4,7-8H2,1-2H3

> <InChI Key_QSARr>
IITCWRFYJWUUPC-UHFFFAOYSA-N

> <Salt_Solvent>
?

> <Ready_Biodeg>
0.0

$$$$
100686
  -INDIGO-08031722522D

 24 23  0  0  0  0  0  0  0  0999 V2000
    5.5426    1.6000    0.0000 S   0  0  0  0  0  0  0  0  0  0  0  0
    5.5426   -0.0000    0.0000 C   0  0  0  0  0  0  0  0  0  0  0  0
    6.9283   -0.8000    0.0000 N   0  0  0  0  0  0  0  0  0  0  0  0
    8.3138   -0.0000    0.0000 C   0  0  0  0  0  0  0  0  0  0  0  0
    9.6995    0.8000    0.0000 H   0  0  0  0  0  0  0  0  0  0  0  0
    9.6995   -0.8000    0.0000 H   0  0  0  0  0  0  0  0  0  0  0  0
    8.3138    1.6000    0.0000 H   0  0  0  0  0  0  0  0  0  0  0  0
    6.9283   -2.4000    0.0000 C   0  0  0  0  0  0  0  0  0  0  0  0
    6.9283   -4.0000    0.0000 H   0  0  0  0  0  0  0  0  0  0  0  0
    8.3138   -3.2000    0.0000 H   0  0  0  0  0  0  0  0  0  0  0  0
    5.5426   -3.2000    0.0000 H   0  0  0  0  0  0  0  0  0  0  0  0
    4.1569   -0.8000    0.0000 S   0  0  0  0  0  0  0  0  0  0  0  0
    2.7713   -0.0000    0.0000 S   0  0  0  0  0  0  0  0  0  0  0  0
    1.3856   -0.8000    0.0000 C   0  0  0  0  0  0  0  0  0  0  0  0
    1.3856   -2.4000    0.0000 S   0  0  0  0  0  0  0  0  0  0  0  0
   -0.0001   -0.0000    0.0000 N   0  0  0  0  0  0  0  0  0  0  0  0
   -0.0001    1.6000    0.0000 C   0  0  0  0  0  0  0  0  0  0  0  0
   -0.0001    3.2000    0.0000 H   0  0  0  0  0  0  0  0  0  0  0  0
    1.3856    2.4000    0.0000 H   0  0  0  0  0  0  0  0  0  0  0  0
   -1.3856    2.4000    0.0000 H   0  0  0  0  0  0  0  0  0  0  0  0
   -1.3856   -0.8000    0.0000 C   0  0  0  0  0  0  0  0  0  0  0  0
   -2.7713   -1.6000    0.0000 H   0  0  0  0  0  0  0  0  0  0  0  0
   -1.3856   -2.4000    0.0000 H   0  0  0  0  0  0  0  0  0  0  0  0
   -2.7713   -0.0000    0.0000 H   0  0  0  0  0  0  0  0  0  0  0  0
  1  2  2  0  0  0  0
  2  3  1  0  0  0  0
  3  4  1  0  0  0  0
  4  5  1  0  0  0  0
  4  6  1  0  0  0  0
  4  7  1  0  0  0  0
  3  8  1  0  0  0  0
  8  9  1  0  0  0  0
  8 10  1  0  0  0  0
  8 11  1  0  0  0  0
  2 12  1  0  0  0  0
 12 13  1  0  0  0  0
 13 14  1  0  0  0  0
 14 15  2  0  0  0  0
 14 16  1  0  0  0  0
 16 17  1  0  0  0  0
 17 18  1  0  0  0  0
 17 19  1  0  0  0  0
 17 20  1  0  0  0  0
 16 21  1  0  0  0  0
 21 22  1  0  0  0  0
 21 23  1  0  0  0  0
 21 24  1  0  0  0  0
M  END
> <ChemID>
100686

> <source_casrn>
137-26-8

> <CAS>
137-26-8

> <SMILES>
CN(C)C(=S)SSC(=S)N(C)C

> <NAME>
Thiram

> <preferred_name>
Thiram

> <iupac>
[disulfanediylbis(carbonothioylnitrilo)]tetramethane

> <MPID>
100695

> <dsstox_substance_id>
DTXSID5021332

> <Canonical_QSARr>
CN(C)C(=S)SSC(=S)N(C)C

> <InChI_Code_QSARr>
InChI=1S/C6H12N2S4/c1-7(2)5(9)11-12-6(10)8(3)4/h1-4H3

> <InChI Key_QSARr>
KUAZQDVKQLNFPE-UHFFFAOYSA-N

> <Salt_Solvent>
?

> <Ready_Biodeg>
1.0

$$$$
100688
  -INDIGO-08031722522D

 26 26  0  0  0  0  0  0  0  0999 V2000
    3.2000    0.0000    0.0000 C   0  0  0  0  0  0  0  0  0  0  0  0
    2.4000    1.3857    0.0000 C   0  0  0  0  0  0  0  0  0  0  0  0
    3.2000    2.7712    0.0000 H   0  0  0  0  0  0  0  0  0  0  0  0
    0.7999    1.3857    0.0000 C   0  0  0  0  0  0  0  0  0  0  0  0
    1.0778    2.9613    0.0000 H   0  0  0  0  0  0  0  0  0  0  0  0
   -0.7035    1.9329    0.0000 H   0  0  0  0  0  0  0  0  0  0  0  0
   -0.0000    0.0000    0.0000 C   0  0  0  0  0  0  0  0  0  0  0  0
   -1.2256   -1.0284    0.0000 H   0  0  0  0  0  0  0  0  0  0  0  0
   -1.3857    0.8000    0.0000 C   0  0  0  0  0  0  0  0  0  0  0  0
   -1.6634    2.3757    0.0000 C   0  0  0  0  0  0  0  0  0  0  0  0
   -3.1670    2.9230    0.0000 H   0  0  0  0  0  0  0  0  0  0  0  0
   -0.4379    3.4042    0.0000 H   0  0  0  0  0  0  0  0  0  0  0  0
   -2.7712    0.0000    0.0000 C   0  0  0  0  0  0  0  0  0  0  0  0
   -4.1569   -0.8000    0.0000 H   0  0  0  0  0  0  0  0  0  0  0  0
   -4.1569    0.8000    0.0000 H   0  0  0  0  0  0  0  0  0  0  0  0
   -2.7712   -1.6000    0.0000 H   0  0  0  0  0  0  0  0  0  0  0  0
    0.7999   -1.3857    0.0000 C   0  0  0  0  0  0  0  0  0  0  0  0
   -0.7035   -1.9329    0.0000 H   0  0  0  0  0  0  0  0  0  0  0  0
    1.0778   -2.9613    0.0000 H   0  0  0  0  0  0  0  0  0  0  0  0
    2.4000   -1.3857    0.0000 C   0  0  0  0  0  0  0  0  0  0  0  0
    2.1221   -2.9613    0.0000 H   0  0  0  0  0  0  0  0  0  0  0  0
    3.9035   -1.9329    0.0000 H   0  0  0  0  0  0  0  0  0  0  0  0
    4.8001    0.0000    0.0000 C   0  0  0  0  0  0  0  0  0  0  0  0
    6.4000    0.0000    0.0000 H   0  0  0  0  0  0  0  0  0  0  0  0
    5.6000    1.3857    0.0000 H   0  0  0  0  0  0  0  0  0  0  0  0
    5.6000   -1.3857    0.0000 H   0  0  0  0  0  0  0  0  0  0  0  0
  1  2  2  0  0  0  0
  2  3  1  0  0  0  0
  2  4  1  0  0  0  0
  4  5  1  0  0  0  0
  4  6  1  0  0  0  0
  4  7  1  0  0  0  0
  7  8  1  0  0  0  0
  7  9  1  0  0  0  0
  9 10  2  0  0  0  0
 10 11  1  0  0  0  0
 10 12  1  0  0  0  0
  9 13  1  0  0  0  0
 13 14  1  0  0  0  0
 13 15  1  0  0  0  0
 13 16  1  0  0  0  0
  7 17  1  0  0  0  0
 17 18  1  0  0  0  0
 17 19  1  0  0  0  0
 17 20  1  0  0  0  0
 20  1  1  0  0  0  0
 20 21  1  0  0  0  0
 20 22  1  0  0  0  0
  1 23  1  0  0  0  0
 23 24  1  0  0  0  0
 23 25  1  0  0  0  0
 23 26  1  0  0  0  0
M  END
> <ChemID>
100688

> <source_casrn>
138-86-3

> <CAS>
138-86-3

> <SMILES>
CC1CCC(CC=1)C(C)=C

> <NAME>
Cyclohexene, 1-methyl-4-(1-methylethenyl)-

> <preferred_name>
Limonene

> <iupac>
1-methyl-4-(prop-1-en-2-yl)cyclohexene

> <MPID>
100697

> <dsstox_substance_id>
DTXSID2029612

> <Canonical_QSARr>
CC1CCC(CC=1)C(C)=C

> <InChI_Code_QSARr>
InChI=1S/C10H16/c1-8(2)10-6-4-9(3)5-7-10/h4,10H,1,5-7H2,2-3H3

> <InChI Key_QSARr>
XMGQYMWWDOXHJM-UHFFFAOYSA-N

> <Salt_Solvent>
?

> <Ready_Biodeg>
1.0

$$$$
100689
  -INDIGO-08031722522D

 60 60  0  0  0  0  0  0  0  0999 V2000
   -4.1570    0.8001    0.0000 C   0  0  0  0  0  0  0  0  0  0  0  0
   -4.1570    2.4000    0.0000 H   0  0  0  0  0  0  0  0  0  0  0  0
   -5.5424    0.0000    0.0000 C   0  0  0  0  0  0  0  0  0  0  0  0
   -6.9282    0.8001    0.0000 H   0  0  0  0  0  0  0  0  0  0  0  0
   -5.5424   -1.6000    0.0000 C   0  0  0  0  0  0  0  0  0  0  0  0
   -6.9282   -2.4000    0.0000 H   0  0  0  0  0  0  0  0  0  0  0  0
   -4.1570   -2.4000    0.0000 C   0  0  0  0  0  0  0  0  0  0  0  0
   -4.1570   -4.0000    0.0000 H   0  0  0  0  0  0  0  0  0  0  0  0
   -2.7712   -1.6000    0.0000 C   0  0  0  0  0  0  0  0  0  0  0  0
   -1.3858   -2.4000    0.0000 H   0  0  0  0  0  0  0  0  0  0  0  0
   -2.7712    0.0000    0.0000 C   0  0  0  0  0  0  0  0  0  0  0  0
   -1.3858    0.8001    0.0000 C   0  0  0  0  0  0  0  0  0  0  0  0
   -1.9979    2.2782    0.0000 H   0  0  0  0  0  0  0  0  0  0  0  0
   -0.7733    2.2782    0.0000 H   0  0  0  0  0  0  0  0  0  0  0  0
   -0.0000    0.0000    0.0000 N   0  0  0  0  0  0  0  0  0  0  0  0
    0.8002    1.3857    0.0000 C   0  0  0  0  0  0  0  0  0  0  0  0
    1.6000    2.7712    0.0000 H   0  0  0  0  0  0  0  0  0  0  0  0
    1.6481    1.6609    0.0000 H   0  0  0  0  0  0  0  0  0  0  0  0
   -0.0000    2.7712    0.0000 H   0  0  0  0  0  0  0  0  0  0  0  0
   -0.7998   -1.3856    0.0000 C   0  0  0  0  0  0  0  0  0  0  0  0
   -0.0000   -2.7713    0.0000 H   0  0  0  0  0  0  0  0  0  0  0  0
    0.8002   -1.3856    0.0000 H   0  0  0  0  0  0  0  0  0  0  0  0
   -1.6001    0.0000    0.0000 H   0  0  0  0  0  0  0  0  0  0  0  0
    1.5035   -0.5472    0.0000 C   0  0  0  0  0  0  0  0  0  0  0  0
    2.3631   -1.8966    0.0000 H   0  0  0  0  0  0  0  0  0  0  0  0
    1.1571   -2.1093    0.0000 H   0  0  0  0  0  0  0  0  0  0  0  0
    2.7292    0.4812    0.0000 C   0  0  0  0  0  0  0  0  0  0  0  0
    2.4241    1.3192    0.0000 H   0  0  0  0  0  0  0  0  0  0  0  0
    3.0755    2.0433    0.0000 H   0  0  0  0  0  0  0  0  0  0  0  0
    4.2327   -0.0661    0.0000 C   0  0  0  0  0  0  0  0  0  0  0  0
    5.0923   -1.4154    0.0000 H   0  0  0  0  0  0  0  0  0  0  0  0
    3.8863   -1.6281    0.0000 H   0  0  0  0  0  0  0  0  0  0  0  0
    5.4583    0.9625    0.0000 C   0  0  0  0  0  0  0  0  0  0  0  0
    4.5987    2.3119    0.0000 H   0  0  0  0  0  0  0  0  0  0  0  0
    5.8047    2.5246    0.0000 H   0  0  0  0  0  0  0  0  0  0  0  0
    6.9619    0.4152    0.0000 C   0  0  0  0  0  0  0  0  0  0  0  0
    7.8215   -0.9343    0.0000 H   0  0  0  0  0  0  0  0  0  0  0  0
    6.6155   -1.1468    0.0000 H   0  0  0  0  0  0  0  0  0  0  0  0
    8.1875    1.4437    0.0000 C   0  0  0  0  0  0  0  0  0  0  0  0
    7.3279    2.7930    0.0000 H   0  0  0  0  0  0  0  0  0  0  0  0
    8.5339    3.0057    0.0000 H   0  0  0  0  0  0  0  0  0  0  0  0
    9.6910    0.8964    0.0000 C   0  0  0  0  0  0  0  0  0  0  0  0
   10.5507   -0.4530    0.0000 H   0  0  0  0  0  0  0  0  0  0  0  0
    9.3447   -0.6657    0.0000 H   0  0  0  0  0  0  0  0  0  0  0  0
   10.9167    1.9249    0.0000 C   0  0  0  0  0  0  0  0  0  0  0  0
   10.0571    3.2743    0.0000 H   0  0  0  0  0  0  0  0  0  0  0  0
   11.2631    3.4870    0.0000 H   0  0  0  0  0  0  0  0  0  0  0  0
   12.4202    1.3777    0.0000 C   0  0  0  0  0  0  0  0  0  0  0  0
   13.2799    0.0282    0.0000 H   0  0  0  0  0  0  0  0  0  0  0  0
   12.0739   -0.1844    0.0000 H   0  0  0  0  0  0  0  0  0  0  0  0
   13.6459    2.4061    0.0000 C   0  0  0  0  0  0  0  0  0  0  0  0
   12.7863    3.7555    0.0000 H   0  0  0  0  0  0  0  0  0  0  0  0
   13.9922    3.9682    0.0000 H   0  0  0  0  0  0  0  0  0  0  0  0
   15.1494    1.8589    0.0000 C   0  0  0  0  0  0  0  0  0  0  0  0
   16.0090    0.5095    0.0000 H   0  0  0  0  0  0  0  0  0  0  0  0
   14.8030    0.2968    0.0000 H   0  0  0  0  0  0  0  0  0  0  0  0
   16.3751    2.8873    0.0000 C   0  0  0  0  0  0  0  0  0  0  0  0
   17.6007    3.9158    0.0000 H   0  0  0  0  0  0  0  0  0  0  0  0
   17.8786    2.3402    0.0000 H   0  0  0  0  0  0  0  0  0  0  0  0
   16.0972    4.4631    0.0000 H   0  0  0  0  0  0  0  0  0  0  0  0
  1  2  1  0  0  0  0
  1  3  1  0  0  0  0
  3  4  1  0  0  0  0
  3  5  2  0  0  0  0
  5  6  1  0  0  0  0
  5  7  1  0  0  0  0
  7  8  1  0  0  0  0
  7  9  2  0  0  0  0
  9 10  1  0  0  0  0
  9 11  1  0  0  0  0
 11  1  2  0  0  0  0
 11 12  1  0  0  0  0
 12 13  1  0  0  0  0
 12 14  1  0  0  0  0
 12 15  1  0  0  0  0
 15 16  1  0  0  0  0
 16 17  1  0  0  0  0
 16 18  1  0  0  0  0
 16 19  1  0  0  0  0
 15 20  1  0  0  0  0
 20 21  1  0  0  0  0
 20 22  1  0  0  0  0
 20 23  1  0  0  0  0
 15 24  1  0  0  0  0
 24 25  1  0  0  0  0
 24 26  1  0  0  0  0
 24 27  1  0  0  0  0
 27 28  1  0  0  0  0
 27 29  1  0  0  0  0
 27 30  1  0  0  0  0
 30 31  1  0  0  0  0
 30 32  1  0  0  0  0
 30 33  1  0  0  0  0
 33 34  1  0  0  0  0
 33 35  1  0  0  0  0
 33 36  1  0  0  0  0
 36 37  1  0  0  0  0
 36 38  1  0  0  0  0
 36 39  1  0  0  0  0
 39 40  1  0  0  0  0
 39 41  1  0  0  0  0
 39 42  1  0  0  0  0
 42 43  1  0  0  0  0
 42 44  1  0  0  0  0
 42 45  1  0  0  0  0
 45 46  1  0  0  0  0
 45 47  1  0  0  0  0
 45 48  1  0  0  0  0
 48 49  1  0  0  0  0
 48 50  1  0  0  0  0
 48 51  1  0  0  0  0
 51 52  1  0  0  0  0
 51 53  1  0  0  0  0
 51 54  1  0  0  0  0
 54 55  1  0  0  0  0
 54 56  1  0  0  0  0
 54 57  1  0  0  0  0
 57 58  1  0  0  0  0
 57 59  1  0  0  0  0
 57 60  1  0  0  0  0
M  CHG  1  15   1
M  END
> <ChemID>
100689

> <source_casrn>
139-07-1

> <CAS>
139-07-1

> <SMILES>
[Cl-].CCCCCCCCCCCC[N+](C)(C)Cc1ccccc1

> <NAME>
N-Dodecyl-N,N-dimethylbenzenemethanaminium, Chloride

> <preferred_name>
Benzyldimethyldodecylammonium chloride

> <iupac>
N-benzyl-N,N-dimethyldodecan-1-aminium chloride

> <MPID>
100698

> <dsstox_substance_id>
DTXSID2040787

> <Canonical_QSARr>
CCCCCCCCCCCC[N+](C)(C)Cc1ccccc1

> <InChI_Code_QSARr>
InChI=1S/C21H38N/c1-4-5-6-7-8-9-10-11-12-16-19-22(2,3)20-21-17-14-13-15-18-21/h13-15,17-18H,4-12,16,19-20H2,1-3H3/q+1

> <InChI Key_QSARr>
CYDRXTMLKJDRQH-UHFFFAOYSA-N

> <Salt_Solvent>
[Cl-]

> <Ready_Biodeg>
0.0

$$$$
100690
  -INDIGO-08031722522D

 66 66  0  0  0  0  0  0  0  0999 V2000
   19.1044    3.3686    0.0000 C   0  0  0  0  0  0  0  0  0  0  0  0
   20.3300    4.3970    0.0000 H   0  0  0  0  0  0  0  0  0  0  0  0
   20.6078    2.8213    0.0000 H   0  0  0  0  0  0  0  0  0  0  0  0
   18.8262    4.9443    0.0000 H   0  0  0  0  0  0  0  0  0  0  0  0
   17.8787    2.3401    0.0000 C   0  0  0  0  0  0  0  0  0  0  0  0
   18.7384    0.9907    0.0000 H   0  0  0  0  0  0  0  0  0  0  0  0
   17.5321    0.7781    0.0000 H   0  0  0  0  0  0  0  0  0  0  0  0
   16.3750    2.8874    0.0000 C   0  0  0  0  0  0  0  0  0  0  0  0
   15.5153    4.2368    0.0000 H   0  0  0  0  0  0  0  0  0  0  0  0
   16.7212    4.4494    0.0000 H   0  0  0  0  0  0  0  0  0  0  0  0
   15.1493    1.8589    0.0000 C   0  0  0  0  0  0  0  0  0  0  0  0
   16.0090    0.5095    0.0000 H   0  0  0  0  0  0  0  0  0  0  0  0
   14.8031    0.2968    0.0000 H   0  0  0  0  0  0  0  0  0  0  0  0
   13.6459    2.4062    0.0000 C   0  0  0  0  0  0  0  0  0  0  0  0
   12.7863    3.7555    0.0000 H   0  0  0  0  0  0  0  0  0  0  0  0
   13.9922    3.9682    0.0000 H   0  0  0  0  0  0  0  0  0  0  0  0
   12.4203    1.3776    0.0000 C   0  0  0  0  0  0  0  0  0  0  0  0
   13.2800    0.0282    0.0000 H   0  0  0  0  0  0  0  0  0  0  0  0
   12.0741   -0.1844    0.0000 H   0  0  0  0  0  0  0  0  0  0  0  0
   10.9169    1.9249    0.0000 C   0  0  0  0  0  0  0  0  0  0  0  0
   10.0572    3.2743    0.0000 H   0  0  0  0  0  0  0  0  0  0  0  0
   11.2631    3.4869    0.0000 H   0  0  0  0  0  0  0  0  0  0  0  0
    9.6909    0.8964    0.0000 C   0  0  0  0  0  0  0  0  0  0  0  0
   10.5505   -0.4530    0.0000 H   0  0  0  0  0  0  0  0  0  0  0  0
    9.3446   -0.6656    0.0000 H   0  0  0  0  0  0  0  0  0  0  0  0
    8.1875    1.4437    0.0000 C   0  0  0  0  0  0  0  0  0  0  0  0
    7.3278    2.7931    0.0000 H   0  0  0  0  0  0  0  0  0  0  0  0
    8.5337    3.0057    0.0000 H   0  0  0  0  0  0  0  0  0  0  0  0
    6.9618    0.4152    0.0000 C   0  0  0  0  0  0  0  0  0  0  0  0
    7.8215   -0.9342    0.0000 H   0  0  0  0  0  0  0  0  0  0  0  0
    6.6156   -1.1469    0.0000 H   0  0  0  0  0  0  0  0  0  0  0  0
    5.4585    0.9625    0.0000 C   0  0  0  0  0  0  0  0  0  0  0  0
    4.5988    2.3118    0.0000 H   0  0  0  0  0  0  0  0  0  0  0  0
    5.8047    2.5245    0.0000 H   0  0  0  0  0  0  0  0  0  0  0  0
    4.2328   -0.0661    0.0000 C   0  0  0  0  0  0  0  0  0  0  0  0
    5.0925   -1.4155    0.0000 H   0  0  0  0  0  0  0  0  0  0  0  0
    3.8862   -1.6281    0.0000 H   0  0  0  0  0  0  0  0  0  0  0  0
    2.7290    0.4812    0.0000 C   0  0  0  0  0  0  0  0  0  0  0  0
    2.4240    1.3192    0.0000 H   0  0  0  0  0  0  0  0  0  0  0  0
    3.0757    2.0432    0.0000 H   0  0  0  0  0  0  0  0  0  0  0  0
    1.5034   -0.5473    0.0000 C   0  0  0  0  0  0  0  0  0  0  0  0
    2.3631   -1.8967    0.0000 H   0  0  0  0  0  0  0  0  0  0  0  0
    1.1572   -2.1093    0.0000 H   0  0  0  0  0  0  0  0  0  0  0  0
    0.0000   -0.0000    0.0000 N   0  0  0  0  0  0  0  0  0  0  0  0
   -1.3857    0.8000    0.0000 C   0  0  0  0  0  0  0  0  0  0  0  0
   -1.9979    2.2783    0.0000 H   0  0  0  0  0  0  0  0  0  0  0  0
   -0.7735    2.2783    0.0000 H   0  0  0  0  0  0  0  0  0  0  0  0
   -2.7714   -0.0000    0.0000 C   0  0  0  0  0  0  0  0  0  0  0  0
   -4.1567    0.8000    0.0000 C   0  0  0  0  0  0  0  0  0  0  0  0
   -4.1567    2.4000    0.0000 H   0  0  0  0  0  0  0  0  0  0  0  0
   -5.5425   -0.0000    0.0000 C   0  0  0  0  0  0  0  0  0  0  0  0
   -6.9282    0.8000    0.0000 H   0  0  0  0  0  0  0  0  0  0  0  0
   -5.5425   -1.6000    0.0000 C   0  0  0  0  0  0  0  0  0  0  0  0
   -6.9282   -2.4000    0.0000 H   0  0  0  0  0  0  0  0  0  0  0  0
   -4.1567   -2.4000    0.0000 C   0  0  0  0  0  0  0  0  0  0  0  0
   -4.1567   -4.0000    0.0000 H   0  0  0  0  0  0  0  0  0  0  0  0
   -2.7714   -1.6000    0.0000 C   0  0  0  0  0  0  0  0  0  0  0  0
   -1.3857   -2.4000    0.0000 H   0  0  0  0  0  0  0  0  0  0  0  0
    0.8000    1.3857    0.0000 C   0  0  0  0  0  0  0  0  0  0  0  0
    1.6000    2.7712    0.0000 H   0  0  0  0  0  0  0  0  0  0  0  0
    1.6483    1.6608    0.0000 H   0  0  0  0  0  0  0  0  0  0  0  0
    0.0000    2.7712    0.0000 H   0  0  0  0  0  0  0  0  0  0  0  0
   -0.8000   -1.3857    0.0000 C   0  0  0  0  0  0  0  0  0  0  0  0
    0.0000   -2.7713    0.0000 H   0  0  0  0  0  0  0  0  0  0  0  0
    0.8000   -1.3857    0.0000 H   0  0  0  0  0  0  0  0  0  0  0  0
   -1.6000   -0.0000    0.0000 H   0  0  0  0  0  0  0  0  0  0  0  0
  1  2  1  0  0  0  0
  1  3  1  0  0  0  0
  1  4  1  0  0  0  0
  1  5  1  0  0  0  0
  5  6  1  0  0  0  0
  5  7  1  0  0  0  0
  5  8  1  0  0  0  0
  8  9  1  0  0  0  0
  8 10  1  0  0  0  0
  8 11  1  0  0  0  0
 11 12  1  0  0  0  0
 11 13  1  0  0  0  0
 11 14  1  0  0  0  0
 14 15  1  0  0  0  0
 14 16  1  0  0  0  0
 14 17  1  0  0  0  0
 17 18  1  0  0  0  0
 17 19  1  0  0  0  0
 17 20  1  0  0  0  0
 20 21  1  0  0  0  0
 20 22  1  0  0  0  0
 20 23  1  0  0  0  0
 23 24  1  0  0  0  0
 23 25  1  0  0  0  0
 23 26  1  0  0  0  0
 26 27  1  0  0  0  0
 26 28  1  0  0  0  0
 26 29  1  0  0  0  0
 29 30  1  0  0  0  0
 29 31  1  0  0  0  0
 29 32  1  0  0  0  0
 32 33  1  0  0  0  0
 32 34  1  0  0  0  0
 32 35  1  0  0  0  0
 35 36  1  0  0  0  0
 35 37  1  0  0  0  0
 35 38  1  0  0  0  0
 38 39  1  0  0  0  0
 38 40  1  0  0  0  0
 38 41  1  0  0  0  0
 41 42  1  0  0  0  0
 41 43  1  0  0  0  0
 41 44  1  0  0  0  0
 44 45  1  0  0  0  0
 45 46  1  0  0  0  0
 45 47  1  0  0  0  0
 45 48  1  0  0  0  0
 48 49  1  0  0  0  0
 49 50  1  0  0  0  0
 49 51  2  0  0  0  0
 51 52  1  0  0  0  0
 51 53  1  0  0  0  0
 53 54  1  0  0  0  0
 53 55  2  0  0  0  0
 55 56  1  0  0  0  0
 55 57  1  0  0  0  0
 57 48  2  0  0  0  0
 57 58  1  0  0  0  0
 44 59  1  0  0  0  0
 59 60  1  0  0  0  0
 59 61  1  0  0  0  0
 59 62  1  0  0  0  0
 44 63  1  0  0  0  0
 63 64  1  0  0  0  0
 63 65  1  0  0  0  0
 63 66  1  0  0  0  0
M  CHG  1  44   1
M  END
> <ChemID>
100690

> <source_casrn>
139-08-2

> <CAS>
139-08-2

> <SMILES>
[Cl-].CCCCCCCCCCCCCC[N+](C)(C)Cc1ccccc1

> <NAME>
Ammonium, benzyldimethyltetradecyl-, chloride

> <preferred_name>
Tetradecyldimethylbenzylammonium chloride

> <iupac>
N-benzyl-N,N-dimethyltetradecan-1-aminium chloride

> <MPID>
100699

> <dsstox_substance_id>
DTXSID6036384

> <Canonical_QSARr>
CCCCCCCCCCCCCC[N+](C)(C)Cc1ccccc1

> <InChI_Code_QSARr>
InChI=1S/C23H42N/c1-4-5-6-7-8-9-10-11-12-13-14-18-21-24(2,3)22-23-19-16-15-17-20-23/h15-17,19-20H,4-14,18,21-22H2,1-3H3/q+1

> <InChI Key_QSARr>
WNBGYVXHFTYOBY-UHFFFAOYSA-N

> <Salt_Solvent>
[Cl-]

> <Ready_Biodeg>
0.0

$$$$
100691
  -INDIGO-08031722522D

 22 21  0  0  0  0  0  0  0  0999 V2000
    4.0000    1.3856    0.0000 O   0  0  0  0  0  0  0  0  0  0  0  0
    4.8000    2.7712    0.0000 H   0  0  0  0  0  0  0  0  0  0  0  0
    2.4000    1.3856    0.0000 C   0  0  0  0  0  0  0  0  0  0  0  0
    1.6000    2.7712    0.0000 O   0  0  0  0  0  0  0  0  0  0  0  0
    1.6000   -0.0000    0.0000 C   0  0  0  0  0  0  0  0  0  0  0  0
    2.8693   -0.9741    0.0000 H   0  0  0  0  0  0  0  0  0  0  0  0
    1.8089   -1.5863    0.0000 H   0  0  0  0  0  0  0  0  0  0  0  0
    0.0001   -0.0000    0.0000 N   0  0  0  0  0  0  0  0  0  0  0  0
   -0.8000    1.3856    0.0000 C   0  0  0  0  0  0  0  0  0  0  0  0
   -0.5911    2.9720    0.0000 H   0  0  0  0  0  0  0  0  0  0  0  0
    0.4694    2.3596    0.0000 H   0  0  0  0  0  0  0  0  0  0  0  0
   -2.4000    1.3856    0.0000 C   0  0  0  0  0  0  0  0  0  0  0  0
   -3.1999   -0.0000    0.0000 O   0  0  0  0  0  0  0  0  0  0  0  0
   -3.1999    2.7712    0.0000 O   0  0  0  0  0  0  0  0  0  0  0  0
   -4.8000    2.7712    0.0000 H   0  0  0  0  0  0  0  0  0  0  0  0
   -0.8000   -1.3857    0.0000 C   0  0  0  0  0  0  0  0  0  0  0  0
   -2.2782   -1.9980    0.0000 H   0  0  0  0  0  0  0  0  0  0  0  0
   -2.2782   -0.7733    0.0000 H   0  0  0  0  0  0  0  0  0  0  0  0
    0.0001   -2.7713    0.0000 C   0  0  0  0  0  0  0  0  0  0  0  0
    1.6000   -2.7713    0.0000 O   0  0  0  0  0  0  0  0  0  0  0  0
   -0.8000   -4.1569    0.0000 O   0  0  0  0  0  0  0  0  0  0  0  0
    0.0001   -5.5426    0.0000 H   0  0  0  0  0  0  0  0  0  0  0  0
  1  2  1  0  0  0  0
  1  3  1  0  0  0  0
  3  4  2  0  0  0  0
  3  5  1  0  0  0  0
  5  6  1  0  0  0  0
  5  7  1  0  0  0  0
  5  8  1  0  0  0  0
  8  9  1  0  0  0  0
  9 10  1  0  0  0  0
  9 11  1  0  0  0  0
  9 12  1  0  0  0  0
 12 13  2  0  0  0  0
 12 14  1  0  0  0  0
 14 15  1  0  0  0  0
  8 16  1  0  0  0  0
 16 17  1  0  0  0  0
 16 18  1  0  0  0  0
 16 19  1  0  0  0  0
 19 20  2  0  0  0  0
 19 21  1  0  0  0  0
 21 22  1  0  0  0  0
M  END
> <ChemID>
100691

> <source_casrn>
139-13-9

> <CAS>
139-13-9

> <SMILES>
OC(=O)CN(CC(O)=O)CC(O)=O

> <NAME>
Nitrilotriacetic acid

> <preferred_name>
Nitrilotriacetic acid

> <iupac>
2,2',2''-nitrilotriacetic acid

> <MPID>
100700

> <dsstox_substance_id>
DTXSID6020939

> <Canonical_QSARr>
OC(=O)CN(CC(O)=O)CC(O)=O

> <InChI_Code_QSARr>
InChI=1S/C6H9NO6/c8-4(9)1-7(2-5(10)11)3-6(12)13/h1-3H2,(H,8,9)(H,10,11)(H,12,13)

> <InChI Key_QSARr>
MGFYIUFZLHCRTH-UHFFFAOYSA-N

> <Salt_Solvent>
?

> <Ready_Biodeg>
0.0

$$$$
100692
  -INDIGO-08031722522D

 31 31  0  0  0  0  0  0  0  0999 V2000
    4.1568    4.0000    0.0000 Cl  0  0  0  0  0  0  0  0  0  0  0  0
    4.1570    2.4000    0.0000 C   0  0  0  0  0  0  0  0  0  0  0  0
    5.5426    1.6000    0.0000 N   0  0  0  0  0  0  0  0  0  0  0  0
    5.5426   -0.0001    0.0000 C   0  0  0  0  0  0  0  0  0  0  0  0
    6.9283   -0.8000    0.0000 N   0  0  0  0  0  0  0  0  0  0  0  0
    6.9283   -2.4000    0.0000 H   0  0  0  0  0  0  0  0  0  0  0  0
    8.3138    0.0001    0.0000 C   0  0  0  0  0  0  0  0  0  0  0  0
    7.5138    1.3856    0.0000 H   0  0  0  0  0  0  0  0  0  0  0  0
    9.6996    0.8000    0.0000 C   0  0  0  0  0  0  0  0  0  0  0  0
   11.0851    1.6000    0.0000 H   0  0  0  0  0  0  0  0  0  0  0  0
   11.0851    0.0001    0.0000 H   0  0  0  0  0  0  0  0  0  0  0  0
    9.6996    2.4000    0.0000 H   0  0  0  0  0  0  0  0  0  0  0  0
    9.1139   -1.3856    0.0000 C   0  0  0  0  0  0  0  0  0  0  0  0
    9.9138   -2.7713    0.0000 H   0  0  0  0  0  0  0  0  0  0  0  0
   10.7138   -1.3856    0.0000 H   0  0  0  0  0  0  0  0  0  0  0  0
    8.3138   -2.7713    0.0000 H   0  0  0  0  0  0  0  0  0  0  0  0
    4.1570   -0.8000    0.0000 N   0  0  0  0  0  0  0  0  0  0  0  0
    2.7713    0.0001    0.0000 C   0  0  0  0  0  0  0  0  0  0  0  0
    1.3857   -0.8000    0.0000 N   0  0  0  0  0  0  0  0  0  0  0  0
    1.3857   -2.4000    0.0000 H   0  0  0  0  0  0  0  0  0  0  0  0
    0.0000    0.0001    0.0000 C   0  0  0  0  0  0  0  0  0  0  0  0
    0.8001    1.3856    0.0000 H   0  0  0  0  0  0  0  0  0  0  0  0
   -1.3855    0.8000    0.0000 C   0  0  0  0  0  0  0  0  0  0  0  0
   -2.7713    1.6000    0.0000 H   0  0  0  0  0  0  0  0  0  0  0  0
   -2.7713    0.0001    0.0000 H   0  0  0  0  0  0  0  0  0  0  0  0
   -1.3855    2.4000    0.0000 H   0  0  0  0  0  0  0  0  0  0  0  0
   -0.8001   -1.3856    0.0000 C   0  0  0  0  0  0  0  0  0  0  0  0
   -1.5999   -2.7713    0.0000 H   0  0  0  0  0  0  0  0  0  0  0  0
   -2.4000   -1.3856    0.0000 H   0  0  0  0  0  0  0  0  0  0  0  0
    0.0000   -2.7713    0.0000 H   0  0  0  0  0  0  0  0  0  0  0  0
    2.7713    1.6000    0.0000 N   0  0  0  0  0  0  0  0  0  0  0  0
  1  2  1  0  0  0  0
  2  3  1  0  0  0  0
  3  4  2  0  0  0  0
  4  5  1  0  0  0  0
  5  6  1  0  0  0  0
  5  7  1  0  0  0  0
  7  8  1  0  0  0  0
  7  9  1  0  0  0  0
  9 10  1  0  0  0  0
  9 11  1  0  0  0  0
  9 12  1  0  0  0  0
  7 13  1  0  0  0  0
 13 14  1  0  0  0  0
 13 15  1  0  0  0  0
 13 16  1  0  0  0  0
  4 17  1  0  0  0  0
 17 18  2  0  0  0  0
 18 19  1  0  0  0  0
 19 20  1  0  0  0  0
 19 21  1  0  0  0  0
 21 22  1  0  0  0  0
 21 23  1  0  0  0  0
 23 24  1  0  0  0  0
 23 25  1  0  0  0  0
 23 26  1  0  0  0  0
 21 27  1  0  0  0  0
 27 28  1  0  0  0  0
 27 29  1  0  0  0  0
 27 30  1  0  0  0  0
 18 31  1  0  0  0  0
 31  2  2  0  0  0  0
M  END
> <ChemID>
100692

> <source_casrn>
139-40-2

> <CAS>
139-40-2

> <SMILES>
CC(C)Nc1[n]c(Cl)[n]c(NC(C)C)[n]1

> <NAME>
PROPAZINE

> <preferred_name>
Propazine

> <iupac>
6-chloro-N,N'-di(propan-2-yl)-1,3,5-triazine-2,4-diamine

> <MPID>
100701

> <dsstox_substance_id>
DTXSID3021196

> <Canonical_QSARr>
CC(C)Nc1[n]c(Cl)[n]c(NC(C)C)[n]1

> <InChI_Code_QSARr>
InChI=1S/C9H16ClN5/c1-5(2)11-8-13-7(10)14-9(15-8)12-6(3)4/h5-6H,1-4H3,(H2,11,12,13,14,15)

> <InChI Key_QSARr>
WJNRPILHGGKWCK-UHFFFAOYSA-N

> <Salt_Solvent>
?

> <Ready_Biodeg>
0.0

$$$$
100694
  -INDIGO-08031722522D

 16 16  0  0  0  0  0  0  0  0999 V2000
   -3.2000   -2.7713    0.0000 N   0  0  0  0  0  0  0  0  0  0  0  0
   -2.3999   -1.3856    0.0000 C   0  0  0  0  0  0  0  0  0  0  0  0
   -1.6000   -0.0000    0.0000 C   0  0  0  0  0  0  0  0  0  0  0  0
   -1.8089    1.5863    0.0000 H   0  0  0  0  0  0  0  0  0  0  0  0
   -2.8693    0.9740    0.0000 H   0  0  0  0  0  0  0  0  0  0  0  0
    0.0000    0.0000    0.0000 C   0  0  0  0  0  0  0  0  0  0  0  0
    0.8001    1.3856    0.0000 C   0  0  0  0  0  0  0  0  0  0  0  0
    0.0000    2.7713    0.0000 H   0  0  0  0  0  0  0  0  0  0  0  0
    2.4001    1.3856    0.0000 C   0  0  0  0  0  0  0  0  0  0  0  0
    3.2000    2.7713    0.0000 H   0  0  0  0  0  0  0  0  0  0  0  0
    3.2000    0.0000    0.0000 C   0  0  0  0  0  0  0  0  0  0  0  0
    4.8000   -0.0000    0.0000 H   0  0  0  0  0  0  0  0  0  0  0  0
    2.4001   -1.3856    0.0000 C   0  0  0  0  0  0  0  0  0  0  0  0
    3.2000   -2.7713    0.0000 H   0  0  0  0  0  0  0  0  0  0  0  0
    0.8001   -1.3856    0.0000 C   0  0  0  0  0  0  0  0  0  0  0  0
    0.0000   -2.7713    0.0000 H   0  0  0  0  0  0  0  0  0  0  0  0
  1  2  3  0  0  0  0
  2  3  1  0  0  0  0
  3  4  1  0  0  0  0
  3  5  1  0  0  0  0
  3  6  1  0  0  0  0
  6  7  1  0  0  0  0
  7  8  1  0  0  0  0
  7  9  2  0  0  0  0
  9 10  1  0  0  0  0
  9 11  1  0  0  0  0
 11 12  1  0  0  0  0
 11 13  2  0  0  0  0
 13 14  1  0  0  0  0
 13 15  1  0  0  0  0
 15  6  2  0  0  0  0
 15 16  1  0  0  0  0
M  END
> <ChemID>
100694

> <source_casrn>
140-29-4

> <CAS>
140-29-4

> <SMILES>
N#CCc1ccccc1

> <NAME>
Benzeneacetonitrile

> <preferred_name>
Benzyl cyanide

> <iupac>
phenylacetonitrile

> <MPID>
100703

> <dsstox_substance_id>
DTXSID2021492

> <Canonical_QSARr>
N#CCc1ccccc1

> <InChI_Code_QSARr>
InChI=1S/C8H7N/c9-7-6-8-4-2-1-3-5-8/h1-5H,6H2

> <InChI Key_QSARr>
SUSQOBVLVYHIEX-UHFFFAOYSA-N

> <Salt_Solvent>
?

> <Ready_Biodeg>
1.0

$$$$
100695
  -INDIGO-08031722522D

 15 14  0  0  0  0  0  0  0  0999 V2000
   -2.7713   -1.6000    0.0000 O   0  0  0  0  0  0  0  0  0  0  0  0
   -2.7713    0.0000    0.0000 C   0  0  0  0  0  0  0  0  0  0  0  0
   -1.3856    0.8000    0.0000 O   0  0  0  0  0  0  0  0  0  0  0  0
    0.0000    0.0000    0.0000 C   0  0  0  0  0  0  0  0  0  0  0  0
    0.6123   -1.4782    0.0000 H   0  0  0  0  0  0  0  0  0  0  0  0
   -0.6123   -1.4782    0.0000 H   0  0  0  0  0  0  0  0  0  0  0  0
    1.3857    0.8000    0.0000 C   0  0  0  0  0  0  0  0  0  0  0  0
    2.7713    1.6000    0.0000 H   0  0  0  0  0  0  0  0  0  0  0  0
    2.7713    0.0000    0.0000 H   0  0  0  0  0  0  0  0  0  0  0  0
    1.3857    2.4000    0.0000 H   0  0  0  0  0  0  0  0  0  0  0  0
   -4.1570    0.8000    0.0000 C   0  0  0  0  0  0  0  0  0  0  0  0
   -4.1570    2.4000    0.0000 H   0  0  0  0  0  0  0  0  0  0  0  0
   -5.5426    0.0000    0.0000 C   0  0  0  0  0  0  0  0  0  0  0  0
   -6.9282    0.8000    0.0000 H   0  0  0  0  0  0  0  0  0  0  0  0
   -5.5426   -1.6000    0.0000 H   0  0  0  0  0  0  0  0  0  0  0  0
  1  2  2  0  0  0  0
  2  3  1  0  0  0  0
  3  4  1  0  0  0  0
  4  5  1  0  0  0  0
  4  6  1  0  0  0  0
  4  7  1  0  0  0  0
  7  8  1  0  0  0  0
  7  9  1  0  0  0  0
  7 10  1  0  0  0  0
  2 11  1  0  0  0  0
 11 12  1  0  0  0  0
 11 13  2  0  0  0  0
 13 14  1  0  0  0  0
 13 15  1  0  0  0  0
M  END
> <ChemID>
100695

> <source_casrn>
140-88-5

> <CAS>
140-88-5

> <SMILES>
CCOC(=O)C=C

> <NAME>
2-Propenoic acid, ethyl ester

> <preferred_name>
Ethyl acrylate

> <iupac>
ethyl prop-2-enoate

> <MPID>
100704

> <dsstox_substance_id>
DTXSID4020583

> <Canonical_QSARr>
CCOC(=O)C=C

> <InChI_Code_QSARr>
InChI=1S/C5H8O2/c1-3-5(6)7-4-2/h3H,1,4H2,2H3

> <InChI Key_QSARr>
JIGUQPWFLRLWPJ-UHFFFAOYSA-N

> <Salt_Solvent>
?

> <Ready_Biodeg>
1.0

$$$$
100696
  -INDIGO-08031722522D

 60 59  0  0  0  0  0  0  0  0999 V2000
    4.1568   -0.8000    0.0000 C   0  0  0  0  0  0  0  0  0  0  0  0
    5.5427    0.0001    0.0000 C   0  0  0  0  0  0  0  0  0  0  0  0
    5.5427    1.5999    0.0000 H   0  0  0  0  0  0  0  0  0  0  0  0
    6.9283   -0.8000    0.0000 C   0  0  0  0  0  0  0  0  0  0  0  0
    6.9283   -2.4000    0.0000 H   0  0  0  0  0  0  0  0  0  0  0  0
    8.3139    0.0001    0.0000 C   0  0  0  0  0  0  0  0  0  0  0  0
    8.3139    1.6001    0.0000 O   0  0  0  0  0  0  0  0  0  0  0  0
    9.6996   -0.8000    0.0000 O   0  0  0  0  0  0  0  0  0  0  0  0
   11.0852    0.0001    0.0000 C   0  0  0  0  0  0  0  0  0  0  0  0
   10.4728    1.4782    0.0000 H   0  0  0  0  0  0  0  0  0  0  0  0
   11.6975    1.4782    0.0000 H   0  0  0  0  0  0  0  0  0  0  0  0
   12.4708   -0.8000    0.0000 C   0  0  0  0  0  0  0  0  0  0  0  0
   11.4423   -2.0256    0.0000 H   0  0  0  0  0  0  0  0  0  0  0  0
   13.4992   -2.0256    0.0000 C   0  0  0  0  0  0  0  0  0  0  0  0
   13.0182   -3.5516    0.0000 H   0  0  0  0  0  0  0  0  0  0  0  0
   12.0801   -2.7644    0.0000 H   0  0  0  0  0  0  0  0  0  0  0  0
   15.0028   -2.5729    0.0000 C   0  0  0  0  0  0  0  0  0  0  0  0
   15.7416   -1.1537    0.0000 H   0  0  0  0  0  0  0  0  0  0  0  0
   16.5288   -2.0918    0.0000 H   0  0  0  0  0  0  0  0  0  0  0  0
   15.2807   -4.1486    0.0000 C   0  0  0  0  0  0  0  0  0  0  0  0
   14.5417   -5.5678    0.0000 H   0  0  0  0  0  0  0  0  0  0  0  0
   13.7548   -4.6297    0.0000 H   0  0  0  0  0  0  0  0  0  0  0  0
   16.7840   -4.6959    0.0000 C   0  0  0  0  0  0  0  0  0  0  0  0
   18.2876   -5.2430    0.0000 H   0  0  0  0  0  0  0  0  0  0  0  0
   17.0619   -6.2715    0.0000 H   0  0  0  0  0  0  0  0  0  0  0  0
   18.0097   -3.6674    0.0000 H   0  0  0  0  0  0  0  0  0  0  0  0
   13.4992    0.4257    0.0000 C   0  0  0  0  0  0  0  0  0  0  0  0
   15.0611    0.7721    0.0000 H   0  0  0  0  0  0  0  0  0  0  0  0
   14.8485   -0.4339    0.0000 H   0  0  0  0  0  0  0  0  0  0  0  0
   12.9518    1.9293    0.0000 C   0  0  0  0  0  0  0  0  0  0  0  0
   13.9803    3.1549    0.0000 H   0  0  0  0  0  0  0  0  0  0  0  0
   12.4048    3.4327    0.0000 H   0  0  0  0  0  0  0  0  0  0  0  0
   14.5277    1.6513    0.0000 H   0  0  0  0  0  0  0  0  0  0  0  0
    4.1568   -2.4000    0.0000 O   0  0  0  0  0  0  0  0  0  0  0  0
    2.7712    0.0001    0.0000 O   0  0  0  0  0  0  0  0  0  0  0  0
    1.3856   -0.8000    0.0000 C   0  0  0  0  0  0  0  0  0  0  0  0
    1.9979   -2.2782    0.0000 H   0  0  0  0  0  0  0  0  0  0  0  0
    0.7732   -2.2782    0.0000 H   0  0  0  0  0  0  0  0  0  0  0  0
   -0.0000    0.0001    0.0000 C   0  0  0  0  0  0  0  0  0  0  0  0
   -1.3856    0.8001    0.0000 H   0  0  0  0  0  0  0  0  0  0  0  0
   -1.0285   -1.2256    0.0000 C   0  0  0  0  0  0  0  0  0  0  0  0
   -2.0025    0.0436    0.0000 H   0  0  0  0  0  0  0  0  0  0  0  0
   -2.6149   -1.0168    0.0000 H   0  0  0  0  0  0  0  0  0  0  0  0
   -1.3064   -2.8014    0.0000 C   0  0  0  0  0  0  0  0  0  0  0  0
   -0.5673   -4.2206    0.0000 H   0  0  0  0  0  0  0  0  0  0  0  0
    0.2195   -3.2826    0.0000 H   0  0  0  0  0  0  0  0  0  0  0  0
   -2.8097   -3.3486    0.0000 C   0  0  0  0  0  0  0  0  0  0  0  0
   -3.5487   -1.9293    0.0000 H   0  0  0  0  0  0  0  0  0  0  0  0
   -4.3356   -2.8674    0.0000 H   0  0  0  0  0  0  0  0  0  0  0  0
   -3.0875   -4.9243    0.0000 C   0  0  0  0  0  0  0  0  0  0  0  0
   -3.3654   -6.5000    0.0000 H   0  0  0  0  0  0  0  0  0  0  0  0
   -4.5912   -5.4715    0.0000 H   0  0  0  0  0  0  0  0  0  0  0  0
   -1.8618   -5.9528    0.0000 H   0  0  0  0  0  0  0  0  0  0  0  0
    0.5474    1.5035    0.0000 C   0  0  0  0  0  0  0  0  0  0  0  0
    1.8967    2.3633    0.0000 H   0  0  0  0  0  0  0  0  0  0  0  0
    2.1093    1.1573    0.0000 H   0  0  0  0  0  0  0  0  0  0  0  0
   -0.4811    2.7291    0.0000 C   0  0  0  0  0  0  0  0  0  0  0  0
   -1.5096    3.9548    0.0000 H   0  0  0  0  0  0  0  0  0  0  0  0
    0.0659    4.2327    0.0000 H   0  0  0  0  0  0  0  0  0  0  0  0
   -2.0570    2.4514    0.0000 H   0  0  0  0  0  0  0  0  0  0  0  0
  1  2  1  0  0  0  0
  2  3  1  0  0  0  0
  2  4  2  0  0  0  0
  4  5  1  0  0  0  0
  4  6  1  0  0  0  0
  6  7  2  0  0  0  0
  6  8  1  0  0  0  0
  8  9  1  0  0  0  0
  9 10  1  0  0  0  0
  9 11  1  0  0  0  0
  9 12  1  0  0  0  0
 12 13  1  0  0  0  0
 12 14  1  0  0  0  0
 14 15  1  0  0  0  0
 14 16  1  0  0  0  0
 14 17  1  0  0  0  0
 17 18  1  0  0  0  0
 17 19  1  0  0  0  0
 17 20  1  0  0  0  0
 20 21  1  0  0  0  0
 20 22  1  0  0  0  0
 20 23  1  0  0  0  0
 23 24  1  0  0  0  0
 23 25  1  0  0  0  0
 23 26  1  0  0  0  0
 12 27  1  0  0  0  0
 27 28  1  0  0  0  0
 27 29  1  0  0  0  0
 27 30  1  0  0  0  0
 30 31  1  0  0  0  0
 30 32  1  0  0  0  0
 30 33  1  0  0  0  0
  1 34  2  0  0  0  0
  1 35  1  0  0  0  0
 35 36  1  0  0  0  0
 36 37  1  0  0  0  0
 36 38  1  0  0  0  0
 36 39  1  0  0  0  0
 39 40  1  0  0  0  0
 39 41  1  0  0  0  0
 41 42  1  0  0  0  0
 41 43  1  0  0  0  0
 41 44  1  0  0  0  0
 44 45  1  0  0  0  0
 44 46  1  0  0  0  0
 44 47  1  0  0  0  0
 47 48  1  0  0  0  0
 47 49  1  0  0  0  0
 47 50  1  0  0  0  0
 50 51  1  0  0  0  0
 50 52  1  0  0  0  0
 50 53  1  0  0  0  0
 39 54  1  0  0  0  0
 54 55  1  0  0  0  0
 54 56  1  0  0  0  0
 54 57  1  0  0  0  0
 57 58  1  0  0  0  0
 57 59  1  0  0  0  0
 57 60  1  0  0  0  0
M  END
> <ChemID>
100696

> <source_casrn>
141-02-6|142-16-5

> <CAS>
141-02-6|142-16-5

> <SMILES>
O=C(OCC(CCCC)CC)C=CC(=O)OCC(CCCC)CC

> <NAME>
2-Butenedioic acid (E)-, bis(2-ethylhexyl) ester, 2-Butenedioic acid (Z)-, bis(2-ethylhexyl) ester

> <preferred_name>
Di(2-ethylhexyl) fumarate

> <iupac>
bis(2-ethylhexyl) (2E)-but-2-enedioate

> <MPID>
100705|100715

> <dsstox_substance_id>
DTXSID2051710|DTXSID2027094

> <Canonical_QSARr>
CCCCC(COC(=O)C=CC(=O)OCC(CCCC)CC)CC

> <InChI_Code_QSARr>
InChI=1S/C20H36O4/c1-5-9-11-17(7-3)15-23-19(21)13-14-20(22)24-16-18(8-4)12-10-6-2/h13-14,17-18H,5-12,15-16H2,1-4H3/b14-13+

> <InChI Key_QSARr>
ROPXFXOUUANXRR-BUHFOSPRSA-N

> <Salt_Solvent>
?

> <Ready_Biodeg>
1.0

$$$$
100698
  -INDIGO-08031722522D

 21 20  0  0  0  0  0  0  0  0999 V2000
   -4.1569    2.4000    0.0000 O   0  0  0  0  0  0  0  0  0  0  0  0
   -4.1569    0.8000    0.0000 C   0  0  0  0  0  0  0  0  0  0  0  0
   -2.7712    0.0000    0.0000 O   0  0  0  0  0  0  0  0  0  0  0  0
   -1.3857    0.8000    0.0000 C   0  0  0  0  0  0  0  0  0  0  0  0
   -1.9979    2.2782    0.0000 H   0  0  0  0  0  0  0  0  0  0  0  0
   -0.7733    2.2782    0.0000 H   0  0  0  0  0  0  0  0  0  0  0  0
    0.0000    0.0000    0.0000 C   0  0  0  0  0  0  0  0  0  0  0  0
    0.6124   -1.4782    0.0000 H   0  0  0  0  0  0  0  0  0  0  0  0
   -0.6124   -1.4782    0.0000 H   0  0  0  0  0  0  0  0  0  0  0  0
    1.3857    0.8000    0.0000 C   0  0  0  0  0  0  0  0  0  0  0  0
    0.7733    2.2782    0.0000 H   0  0  0  0  0  0  0  0  0  0  0  0
    1.9979    2.2782    0.0000 H   0  0  0  0  0  0  0  0  0  0  0  0
    2.7712    0.0000    0.0000 C   0  0  0  0  0  0  0  0  0  0  0  0
    4.1569   -0.8000    0.0000 H   0  0  0  0  0  0  0  0  0  0  0  0
    4.1569    0.8000    0.0000 H   0  0  0  0  0  0  0  0  0  0  0  0
    2.7712   -1.6000    0.0000 H   0  0  0  0  0  0  0  0  0  0  0  0
   -5.5426    0.0000    0.0000 C   0  0  0  0  0  0  0  0  0  0  0  0
   -5.5426   -1.6000    0.0000 H   0  0  0  0  0  0  0  0  0  0  0  0
   -6.9281    0.8000    0.0000 C   0  0  0  0  0  0  0  0  0  0  0  0
   -8.3138    0.0000    0.0000 H   0  0  0  0  0  0  0  0  0  0  0  0
   -6.9281    2.4000    0.0000 H   0  0  0  0  0  0  0  0  0  0  0  0
  1  2  2  0  0  0  0
  2  3  1  0  0  0  0
  3  4  1  0  0  0  0
  4  5  1  0  0  0  0
  4  6  1  0  0  0  0
  4  7  1  0  0  0  0
  7  8  1  0  0  0  0
  7  9  1  0  0  0  0
  7 10  1  0  0  0  0
 10 11  1  0  0  0  0
 10 12  1  0  0  0  0
 10 13  1  0  0  0  0
 13 14  1  0  0  0  0
 13 15  1  0  0  0  0
 13 16  1  0  0  0  0
  2 17  1  0  0  0  0
 17 18  1  0  0  0  0
 17 19  2  0  0  0  0
 19 20  1  0  0  0  0
 19 21  1  0  0  0  0
M  END
> <ChemID>
100698

> <source_casrn>
141-32-2

> <CAS>
141-32-2

> <SMILES>
CCCCOC(=O)C=C

> <NAME>
2-Propenoic acid, butyl ester

> <preferred_name>
Butyl acrylate

> <iupac>
butyl prop-2-enoate

> <MPID>
100707

> <dsstox_substance_id>
DTXSID6024676

> <Canonical_QSARr>
CCCCOC(=O)C=C

> <InChI_Code_QSARr>
InChI=1S/C7H12O2/c1-3-5-6-9-7(8)4-2/h4H,2-3,5-6H2,1H3

> <InChI Key_QSARr>
CQEYYJKEWSMYFG-UHFFFAOYSA-N

> <Salt_Solvent>
?

> <Ready_Biodeg>
1.0

$$$$
100699
  -INDIGO-08031722522D

 11 10  0  0  0  0  0  0  0  0999 V2000
    2.7713    0.0000    0.0000 O   0  0  0  0  0  0  0  0  0  0  0  0
    4.1569    0.8000    0.0000 H   0  0  0  0  0  0  0  0  0  0  0  0
    1.3856    0.8000    0.0000 C   0  0  0  0  0  0  0  0  0  0  0  0
    0.7733    2.2782    0.0000 H   0  0  0  0  0  0  0  0  0  0  0  0
    1.9980    2.2782    0.0000 H   0  0  0  0  0  0  0  0  0  0  0  0
    0.0000    0.0000    0.0000 C   0  0  0  0  0  0  0  0  0  0  0  0
    0.6123   -1.4782    0.0000 H   0  0  0  0  0  0  0  0  0  0  0  0
   -0.6123   -1.4782    0.0000 H   0  0  0  0  0  0  0  0  0  0  0  0
   -1.3856    0.8000    0.0000 N   0  0  0  0  0  0  0  0  0  0  0  0
   -2.7713    0.0000    0.0000 H   0  0  0  0  0  0  0  0  0  0  0  0
   -1.3856    2.4000    0.0000 H   0  0  0  0  0  0  0  0  0  0  0  0
  1  2  1  0  0  0  0
  1  3  1  0  0  0  0
  3  4  1  0  0  0  0
  3  5  1  0  0  0  0
  3  6  1  0  0  0  0
  6  7  1  0  0  0  0
  6  8  1  0  0  0  0
  6  9  1  0  0  0  0
  9 10  1  0  0  0  0
  9 11  1  0  0  0  0
M  END
> <ChemID>
100699

> <source_casrn>
141-43-5

> <CAS>
141-43-5

> <SMILES>
NCCO

> <NAME>
Ethanol, 2-amino-

> <preferred_name>
Ethanolamine

> <iupac>
2-aminoethanol

> <MPID>
100708

> <dsstox_substance_id>
DTXSID6022000

> <Canonical_QSARr>
NCCO

> <InChI_Code_QSARr>
InChI=1S/C2H7NO/c3-1-2-4/h4H,1-3H2

> <InChI Key_QSARr>
HZAXFHJVJLSVMW-UHFFFAOYSA-N

> <Salt_Solvent>
?

> <Ready_Biodeg>
1.0

$$$$
100700
  -INDIGO-08031722522D

 14 13  0  0  0  0  0  0  0  0999 V2000
    4.1569    0.8000    0.0000 C   0  0  0  0  0  0  0  0  0  0  0  0
    5.5426    1.6000    0.0000 H   0  0  0  0  0  0  0  0  0  0  0  0
    5.5426    0.0000    0.0000 H   0  0  0  0  0  0  0  0  0  0  0  0
    4.1569    2.4000    0.0000 H   0  0  0  0  0  0  0  0  0  0  0  0
    2.7713    0.0000    0.0000 C   0  0  0  0  0  0  0  0  0  0  0  0
    2.7713   -1.6000    0.0000 O   0  0  0  0  0  0  0  0  0  0  0  0
    1.3857    0.8000    0.0000 O   0  0  0  0  0  0  0  0  0  0  0  0
    0.0000    0.0000    0.0000 C   0  0  0  0  0  0  0  0  0  0  0  0
   -0.6122   -1.4782    0.0000 H   0  0  0  0  0  0  0  0  0  0  0  0
    0.6122   -1.4782    0.0000 H   0  0  0  0  0  0  0  0  0  0  0  0
   -1.3856    0.8000    0.0000 C   0  0  0  0  0  0  0  0  0  0  0  0
   -2.7713    1.6000    0.0000 H   0  0  0  0  0  0  0  0  0  0  0  0
   -2.7713    0.0000    0.0000 H   0  0  0  0  0  0  0  0  0  0  0  0
   -1.3856    2.4000    0.0000 H   0  0  0  0  0  0  0  0  0  0  0  0
  1  2  1  0  0  0  0
  1  3  1  0  0  0  0
  1  4  1  0  0  0  0
  1  5  1  0  0  0  0
  5  6  2  0  0  0  0
  5  7  1  0  0  0  0
  7  8  1  0  0  0  0
  8  9  1  0  0  0  0
  8 10  1  0  0  0  0
  8 11  1  0  0  0  0
 11 12  1  0  0  0  0
 11 13  1  0  0  0  0
 11 14  1  0  0  0  0
M  END
> <ChemID>
100700

> <source_casrn>
141-78-6

> <CAS>
141-78-6

> <SMILES>
CCOC(C)=O

> <NAME>
Ethyl acetate

> <preferred_name>
Ethyl acetate

> <iupac>
ethyl acetate

> <MPID>
100709

> <dsstox_substance_id>
DTXSID1022001

> <Canonical_QSARr>
CCOC(C)=O

> <InChI_Code_QSARr>
InChI=1S/C4H8O2/c1-3-6-4(2)5/h3H2,1-2H3

> <InChI Key_QSARr>
XEKOWRVHYACXOJ-UHFFFAOYSA-N

> <Salt_Solvent>
?

> <Ready_Biodeg>
1.0

$$$$
100702
  -INDIGO-08031722522D

 15 15  0  0  0  0  0  0  0  0999 V2000
    1.3857    0.8000    0.0000 N   0  0  0  0  0  0  0  0  0  0  0  0
    2.7713   -0.0000    0.0000 C   0  0  0  0  0  0  0  0  0  0  0  0
    4.1570    0.8000    0.0000 N   0  0  0  0  0  0  0  0  0  0  0  0
    4.1570    2.4000    0.0000 H   0  0  0  0  0  0  0  0  0  0  0  0
    5.5426   -0.0000    0.0000 H   0  0  0  0  0  0  0  0  0  0  0  0
    2.7713   -1.6000    0.0000 C   0  0  0  0  0  0  0  0  0  0  0  0
    4.1570   -2.4000    0.0000 H   0  0  0  0  0  0  0  0  0  0  0  0
    1.3857   -2.4000    0.0000 C   0  0  0  0  0  0  0  0  0  0  0  0
    1.3856   -4.0000    0.0000 H   0  0  0  0  0  0  0  0  0  0  0  0
    0.0000   -1.6000    0.0000 C   0  0  0  0  0  0  0  0  0  0  0  0
   -1.3856   -2.4000    0.0000 H   0  0  0  0  0  0  0  0  0  0  0  0
    0.0000   -0.0000    0.0000 C   0  0  0  0  0  0  0  0  0  0  0  0
   -1.3856    0.8000    0.0000 N   0  0  0  0  0  0  0  0  0  0  0  0
   -1.3856    2.4000    0.0000 H   0  0  0  0  0  0  0  0  0  0  0  0
   -2.7713   -0.0000    0.0000 H   0  0  0  0  0  0  0  0  0  0  0  0
  1  2  1  0  0  0  0
  2  3  1  0  0  0  0
  3  4  1  0  0  0  0
  3  5  1  0  0  0  0
  2  6  2  0  0  0  0
  6  7  1  0  0  0  0
  6  8  1  0  0  0  0
  8  9  1  0  0  0  0
  8 10  2  0  0  0  0
 10 11  1  0  0  0  0
 10 12  1  0  0  0  0
 12  1  2  0  0  0  0
 12 13  1  0  0  0  0
 13 14  1  0  0  0  0
 13 15  1  0  0  0  0
M  END
> <ChemID>
100702

> <source_casrn>
141-86-6

> <CAS>
141-86-6

> <SMILES>
Nc1cccc(N)[n]1

> <NAME>
2,6-PYRIDINEDIAMINE

> <preferred_name>
2,6-Diaminopyridine

> <iupac>
pyridine-2,6-diamine

> <MPID>
100711

> <dsstox_substance_id>
DTXSID0040127

> <Canonical_QSARr>
Nc1cccc(N)[n]1

> <InChI_Code_QSARr>
InChI=1S/C5H7N3/c6-4-2-1-3-5(7)8-4/h1-3H,(H4,6,7,8)

> <InChI Key_QSARr>
VHNQIURBCCNWDN-UHFFFAOYSA-N

> <Salt_Solvent>
?

> <Ready_Biodeg>
0.0

$$$$
100703
  -INDIGO-08031722522D

 24 24  0  0  0  0  0  0  0  0999 V2000
    2.7713   -0.0000    0.0000 C   0  0  0  0  0  0  0  0  0  0  0  0
    4.1569    0.8000    0.0000 H   0  0  0  0  0  0  0  0  0  0  0  0
    4.1569   -0.8000    0.0000 H   0  0  0  0  0  0  0  0  0  0  0  0
    2.7713    1.6000    0.0000 H   0  0  0  0  0  0  0  0  0  0  0  0
    1.3856    0.8000    0.0000 C   0  0  0  0  0  0  0  0  0  0  0  0
    0.7733    2.2782    0.0000 H   0  0  0  0  0  0  0  0  0  0  0  0
    1.9979    2.2782    0.0000 H   0  0  0  0  0  0  0  0  0  0  0  0
   -0.0001   -0.0000    0.0000 C   0  0  0  0  0  0  0  0  0  0  0  0
   -1.3857    0.8000    0.0000 C   0  0  0  0  0  0  0  0  0  0  0  0
   -1.3857    2.4000    0.0000 H   0  0  0  0  0  0  0  0  0  0  0  0
   -2.7712   -0.0000    0.0000 C   0  0  0  0  0  0  0  0  0  0  0  0
   -4.1569    0.8000    0.0000 C   0  0  0  0  0  0  0  0  0  0  0  0
   -4.7692    2.2782    0.0000 H   0  0  0  0  0  0  0  0  0  0  0  0
   -3.5446    2.2782    0.0000 H   0  0  0  0  0  0  0  0  0  0  0  0
   -5.5425   -0.0000    0.0000 C   0  0  0  0  0  0  0  0  0  0  0  0
   -6.9282    0.8000    0.0000 H   0  0  0  0  0  0  0  0  0  0  0  0
   -6.9282   -0.8000    0.0000 H   0  0  0  0  0  0  0  0  0  0  0  0
   -5.5425    1.6000    0.0000 H   0  0  0  0  0  0  0  0  0  0  0  0
   -2.7712   -1.6000    0.0000 C   0  0  0  0  0  0  0  0  0  0  0  0
   -4.1569   -2.4000    0.0000 H   0  0  0  0  0  0  0  0  0  0  0  0
   -1.3856   -2.4000    0.0000 C   0  0  0  0  0  0  0  0  0  0  0  0
   -1.3857   -4.0000    0.0000 H   0  0  0  0  0  0  0  0  0  0  0  0
   -0.0001   -1.6000    0.0000 C   0  0  0  0  0  0  0  0  0  0  0  0
    1.3856   -2.4000    0.0000 H   0  0  0  0  0  0  0  0  0  0  0  0
  1  2  1  0  0  0  0
  1  3  1  0  0  0  0
  1  4  1  0  0  0  0
  1  5  1  0  0  0  0
  5  6  1  0  0  0  0
  5  7  1  0  0  0  0
  5  8  1  0  0  0  0
  8  9  1  0  0  0  0
  9 10  1  0  0  0  0
  9 11  2  0  0  0  0
 11 12  1  0  0  0  0
 12 13  1  0  0  0  0
 12 14  1  0  0  0  0
 12 15  1  0  0  0  0
 15 16  1  0  0  0  0
 15 17  1  0  0  0  0
 15 18  1  0  0  0  0
 11 19  1  0  0  0  0
 19 20  1  0  0  0  0
 19 21  2  0  0  0  0
 21 22  1  0  0  0  0
 21 23  1  0  0  0  0
 23  8  2  0  0  0  0
 23 24  1  0  0  0  0
M  END
> <ChemID>
100703

> <source_casrn>
141-93-5

> <CAS>
141-93-5

> <SMILES>
CCc1cc(CC)ccc1

> <NAME>
Benzene, 1,3-diethyl-

> <preferred_name>
1,3-Diethylbenzene

> <iupac>
1,3-diethylbenzene

> <MPID>
100712

> <dsstox_substance_id>
DTXSID1022003

> <Canonical_QSARr>
CCc1cc(CC)ccc1

> <InChI_Code_QSARr>
InChI=1S/C10H14/c1-3-9-6-5-7-10(4-2)8-9/h5-8H,3-4H2,1-2H3

> <InChI Key_QSARr>
AFZZYIJIWUTJFO-UHFFFAOYSA-N

> <Salt_Solvent>
?

> <Ready_Biodeg>
0.0

$$$$
100704
  -INDIGO-08031722522D

 12 12  0  0  0  0  0  0  0  0999 V2000
   -0.0000   -0.0000    0.0000 N   0  0  0  0  0  0  0  0  0  0  0  0
    0.8000    1.3856    0.0000 H   0  0  0  0  0  0  0  0  0  0  0  0
    0.8000   -1.3857    0.0000 C   0  0  0  0  0  0  0  0  0  0  0  0
    2.4000   -1.3857    0.0000 H   0  0  0  0  0  0  0  0  0  0  0  0
   -0.0000   -2.7713    0.0000 C   0  0  0  0  0  0  0  0  0  0  0  0
    0.8000   -4.1569    0.0000 H   0  0  0  0  0  0  0  0  0  0  0  0
   -1.6000   -2.7713    0.0000 C   0  0  0  0  0  0  0  0  0  0  0  0
   -2.4000   -4.1569    0.0000 H   0  0  0  0  0  0  0  0  0  0  0  0
   -2.4000   -1.3856    0.0000 C   0  0  0  0  0  0  0  0  0  0  0  0
   -4.0000   -1.3856    0.0000 H   0  0  0  0  0  0  0  0  0  0  0  0
   -1.6000   -0.0000    0.0000 C   0  0  0  0  0  0  0  0  0  0  0  0
   -2.4000    1.3856    0.0000 O   0  0  0  0  0  0  0  0  0  0  0  0
  1  2  1  0  0  0  0
  1  3  1  0  0  0  0
  3  4  1  0  0  0  0
  3  5  2  0  0  0  0
  5  6  1  0  0  0  0
  5  7  1  0  0  0  0
  7  8  1  0  0  0  0
  7  9  2  0  0  0  0
  9 10  1  0  0  0  0
  9 11  1  0  0  0  0
 11  1  1  0  0  0  0
 11 12  2  0  0  0  0
M  END
> <ChemID>
100704

> <source_casrn>
142-08-5

> <CAS>
142-08-5

> <SMILES>
O=C1C=CC=CN1

> <NAME>
2(1H)-Pyridinone

> <preferred_name>
2-Pyridone

> <iupac>
pyridin-2(1H)-one

> <MPID>
100713

> <dsstox_substance_id>
DTXSID2051716

> <Canonical_QSARr>
O=C1C=CC=CN1

> <InChI_Code_QSARr>
InChI=1S/C5H5NO/c7-5-3-1-2-4-6-5/h1-4H,(H,6,7)

> <InChI Key_QSARr>
UBQKCCHYAOITMY-UHFFFAOYSA-N

> <Salt_Solvent>
?

> <Ready_Biodeg>
1.0

$$$$
100705
  -INDIGO-08031722522D

 64 63  0  0  0  0  0  0  0  0999 V2000
   24.9413    1.6000    0.0000 O   0  0  0  0  0  0  0  0  0  0  0  0
   26.3272    0.8000    0.0000 H   0  0  0  0  0  0  0  0  0  0  0  0
   23.5560    0.8000    0.0000 S   0  0  0  0  0  0  0  0  0  0  0  0
   22.1702    0.0000    0.0000 C   0  0  0  0  0  0  0  0  0  0  0  0
   21.5582   -1.4782    0.0000 H   0  0  0  0  0  0  0  0  0  0  0  0
   22.7827   -1.4782    0.0000 H   0  0  0  0  0  0  0  0  0  0  0  0
   20.7849    0.8000    0.0000 C   0  0  0  0  0  0  0  0  0  0  0  0
   21.3968    2.2782    0.0000 H   0  0  0  0  0  0  0  0  0  0  0  0
   20.1724    2.2782    0.0000 H   0  0  0  0  0  0  0  0  0  0  0  0
   19.3990    0.0000    0.0000 O   0  0  0  0  0  0  0  0  0  0  0  0
   18.0132    0.8000    0.0000 C   0  0  0  0  0  0  0  0  0  0  0  0
   18.0132    2.4000    0.0000 O   0  0  0  0  0  0  0  0  0  0  0  0
   16.6279    0.0000    0.0000 C   0  0  0  0  0  0  0  0  0  0  0  0
   16.0154   -1.4782    0.0000 H   0  0  0  0  0  0  0  0  0  0  0  0
   17.2399   -1.4782    0.0000 H   0  0  0  0  0  0  0  0  0  0  0  0
   15.2420    0.8000    0.0000 C   0  0  0  0  0  0  0  0  0  0  0  0
   15.8545    2.2782    0.0000 H   0  0  0  0  0  0  0  0  0  0  0  0
   14.6296    2.2782    0.0000 H   0  0  0  0  0  0  0  0  0  0  0  0
   13.8562    0.0000    0.0000 C   0  0  0  0  0  0  0  0  0  0  0  0
   13.2442   -1.4782    0.0000 H   0  0  0  0  0  0  0  0  0  0  0  0
   14.4687   -1.4782    0.0000 H   0  0  0  0  0  0  0  0  0  0  0  0
   12.4709    0.8000    0.0000 C   0  0  0  0  0  0  0  0  0  0  0  0
   13.0829    2.2782    0.0000 H   0  0  0  0  0  0  0  0  0  0  0  0
   11.8584    2.2782    0.0000 H   0  0  0  0  0  0  0  0  0  0  0  0
   11.0851    0.0000    0.0000 C   0  0  0  0  0  0  0  0  0  0  0  0
   10.4731   -1.4782    0.0000 H   0  0  0  0  0  0  0  0  0  0  0  0
   11.6975   -1.4782    0.0000 H   0  0  0  0  0  0  0  0  0  0  0  0
    9.6997    0.8000    0.0000 C   0  0  0  0  0  0  0  0  0  0  0  0
   10.3117    2.2782    0.0000 H   0  0  0  0  0  0  0  0  0  0  0  0
    9.0873    2.2782    0.0000 H   0  0  0  0  0  0  0  0  0  0  0  0
    8.3139    0.0000    0.0000 C   0  0  0  0  0  0  0  0  0  0  0  0
    7.7014   -1.4782    0.0000 H   0  0  0  0  0  0  0  0  0  0  0  0
    8.9259   -1.4782    0.0000 H   0  0  0  0  0  0  0  0  0  0  0  0
    6.9281    0.8000    0.0000 C   0  0  0  0  0  0  0  0  0  0  0  0
    6.9281    2.4000    0.0000 H   0  0  0  0  0  0  0  0  0  0  0  0
    5.5428    0.0000    0.0000 C   0  0  0  0  0  0  0  0  0  0  0  0
    5.5428   -1.6000    0.0000 H   0  0  0  0  0  0  0  0  0  0  0  0
    4.1569    0.8000    0.0000 C   0  0  0  0  0  0  0  0  0  0  0  0
    4.7694    2.2782    0.0000 H   0  0  0  0  0  0  0  0  0  0  0  0
    3.5444    2.2782    0.0000 H   0  0  0  0  0  0  0  0  0  0  0  0
    2.7711    0.0000    0.0000 C   0  0  0  0  0  0  0  0  0  0  0  0
    2.1591   -1.4782    0.0000 H   0  0  0  0  0  0  0  0  0  0  0  0
    3.3836   -1.4782    0.0000 H   0  0  0  0  0  0  0  0  0  0  0  0
    1.3858    0.8000    0.0000 C   0  0  0  0  0  0  0  0  0  0  0  0
    1.9977    2.2782    0.0000 H   0  0  0  0  0  0  0  0  0  0  0  0
    0.7733    2.2782    0.0000 H   0  0  0  0  0  0  0  0  0  0  0  0
   -0.0001    0.0000    0.0000 C   0  0  0  0  0  0  0  0  0  0  0  0
   -0.6120   -1.4782    0.0000 H   0  0  0  0  0  0  0  0  0  0  0  0
    0.6124   -1.4782    0.0000 H   0  0  0  0  0  0  0  0  0  0  0  0
   -1.3854    0.8000    0.0000 C   0  0  0  0  0  0  0  0  0  0  0  0
   -0.7734    2.2782    0.0000 H   0  0  0  0  0  0  0  0  0  0  0  0
   -1.9979    2.2782    0.0000 H   0  0  0  0  0  0  0  0  0  0  0  0
   -2.7712    0.0000    0.0000 C   0  0  0  0  0  0  0  0  0  0  0  0
   -3.3837   -1.4782    0.0000 H   0  0  0  0  0  0  0  0  0  0  0  0
   -2.1592   -1.4782    0.0000 H   0  0  0  0  0  0  0  0  0  0  0  0
   -4.1570    0.8000    0.0000 C   0  0  0  0  0  0  0  0  0  0  0  0
   -3.5446    2.2782    0.0000 H   0  0  0  0  0  0  0  0  0  0  0  0
   -4.7690    2.2782    0.0000 H   0  0  0  0  0  0  0  0  0  0  0  0
   -5.5424    0.0000    0.0000 C   0  0  0  0  0  0  0  0  0  0  0  0
   -6.9282   -0.8000    0.0000 H   0  0  0  0  0  0  0  0  0  0  0  0
   -6.9282    0.8000    0.0000 H   0  0  0  0  0  0  0  0  0  0  0  0
   -5.5424   -1.6000    0.0000 H   0  0  0  0  0  0  0  0  0  0  0  0
   24.3557   -0.5856    0.0000 O   0  0  0  0  0  0  0  0  0  0  0  0
   22.7558    2.1856    0.0000 O   0  0  0  0  0  0  0  0  0  0  0  0
  1  2  1  0  0  0  0
  1  3  1  0  0  0  0
  3  4  1  0  0  0  0
  4  5  1  0  0  0  0
  4  6  1  0  0  0  0
  4  7  1  0  0  0  0
  7  8  1  0  0  0  0
  7  9  1  0  0  0  0
  7 10  1  0  0  0  0
 10 11  1  0  0  0  0
 11 12  2  0  0  0  0
 11 13  1  0  0  0  0
 13 14  1  0  0  0  0
 13 15  1  0  0  0  0
 13 16  1  0  0  0  0
 16 17  1  0  0  0  0
 16 18  1  0  0  0  0
 16 19  1  0  0  0  0
 19 20  1  0  0  0  0
 19 21  1  0  0  0  0
 19 22  1  0  0  0  0
 22 23  1  0  0  0  0
 22 24  1  0  0  0  0
 22 25  1  0  0  0  0
 25 26  1  0  0  0  0
 25 27  1  0  0  0  0
 25 28  1  0  0  0  0
 28 29  1  0  0  0  0
 28 30  1  0  0  0  0
 28 31  1  0  0  0  0
 31 32  1  0  0  0  0
 31 33  1  0  0  0  0
 31 34  1  0  0  0  0
 34 35  1  0  0  0  0
 34 36  2  0  0  0  0
 36 37  1  0  0  0  0
 36 38  1  0  0  0  0
 38 39  1  0  0  0  0
 38 40  1  0  0  0  0
 38 41  1  0  0  0  0
 41 42  1  0  0  0  0
 41 43  1  0  0  0  0
 41 44  1  0  0  0  0
 44 45  1  0  0  0  0
 44 46  1  0  0  0  0
 44 47  1  0  0  0  0
 47 48  1  0  0  0  0
 47 49  1  0  0  0  0
 47 50  1  0  0  0  0
 50 51  1  0  0  0  0
 50 52  1  0  0  0  0
 50 53  1  0  0  0  0
 53 54  1  0  0  0  0
 53 55  1  0  0  0  0
 53 56  1  0  0  0  0
 56 57  1  0  0  0  0
 56 58  1  0  0  0  0
 56 59  1  0  0  0  0
 59 60  1  0  0  0  0
 59 61  1  0  0  0  0
 59 62  1  0  0  0  0
  3 63  2  0  0  0  0
  3 64  2  0  0  0  0
M  END
> <ChemID>
100705

> <source_casrn>
142-15-4

> <CAS>
142-15-4

> <SMILES>
CCCCCCCCC=CCCCCCCCC(=O)OCCS(=O)(=O)O[Na]

> <NAME>
2-SULFOETHYL OLEATE SODIUM SALT

> <preferred_name>
2-Sulfoethyl oleate sodium salt

> <iupac>
sodium 2-[(9Z)-octadec-9-enoyloxy]ethanesulfonate

> <MPID>
100714

> <dsstox_substance_id>
DTXSID8041454

> <Canonical_QSARr>
CCCCCCCCC=CCCCCCCCC(=O)OCCS(O)(=O)=O

> <InChI_Code_QSARr>
InChI=1S/C20H38O5S/c1-2-3-4-5-6-7-8-9-10-11-12-13-14-15-16-17-20(21)25-18-19-26(22,23)24/h9-10H,2-8,11-19H2,1H3,(H,22,23,24)/b10-9+

> <InChI Key_QSARr>
DHNWFKDQGWAXQE-MDZDMXLPSA-N

> <Salt_Solvent>
[Na+]

> <Ready_Biodeg>
1.0

$$$$
100708
  -INDIGO-08031722522D

 20 19  0  0  0  0  0  0  0  0999 V2000
    2.7713    0.0000    0.0000 C   0  0  0  0  0  0  0  0  0  0  0  0
    4.1569   -0.8000    0.0000 H   0  0  0  0  0  0  0  0  0  0  0  0
    4.1569    0.8000    0.0000 H   0  0  0  0  0  0  0  0  0  0  0  0
    2.7713   -1.6000    0.0000 H   0  0  0  0  0  0  0  0  0  0  0  0
    1.3856    0.8000    0.0000 C   0  0  0  0  0  0  0  0  0  0  0  0
    1.9979    2.2782    0.0000 H   0  0  0  0  0  0  0  0  0  0  0  0
    0.7733    2.2782    0.0000 H   0  0  0  0  0  0  0  0  0  0  0  0
   -0.0001    0.0000    0.0000 C   0  0  0  0  0  0  0  0  0  0  0  0
   -0.6122   -1.4782    0.0000 H   0  0  0  0  0  0  0  0  0  0  0  0
    0.6123   -1.4782    0.0000 H   0  0  0  0  0  0  0  0  0  0  0  0
   -1.3856    0.8000    0.0000 C   0  0  0  0  0  0  0  0  0  0  0  0
   -0.7734    2.2782    0.0000 H   0  0  0  0  0  0  0  0  0  0  0  0
   -1.9979    2.2782    0.0000 H   0  0  0  0  0  0  0  0  0  0  0  0
   -2.7712    0.0000    0.0000 C   0  0  0  0  0  0  0  0  0  0  0  0
   -3.3835   -1.4782    0.0000 H   0  0  0  0  0  0  0  0  0  0  0  0
   -2.1591   -1.4782    0.0000 H   0  0  0  0  0  0  0  0  0  0  0  0
   -4.1569    0.8000    0.0000 C   0  0  0  0  0  0  0  0  0  0  0  0
   -5.5425    0.0000    0.0000 O   0  0  0  0  0  0  0  0  0  0  0  0
   -6.9282    0.8000    0.0000 H   0  0  0  0  0  0  0  0  0  0  0  0
   -4.1569    2.4000    0.0000 O   0  0  0  0  0  0  0  0  0  0  0  0
  1  2  1  0  0  0  0
  1  3  1  0  0  0  0
  1  4  1  0  0  0  0
  1  5  1  0  0  0  0
  5  6  1  0  0  0  0
  5  7  1  0  0  0  0
  5  8  1  0  0  0  0
  8  9  1  0  0  0  0
  8 10  1  0  0  0  0
  8 11  1  0  0  0  0
 11 12  1  0  0  0  0
 11 13  1  0  0  0  0
 11 14  1  0  0  0  0
 14 15  1  0  0  0  0
 14 16  1  0  0  0  0
 14 17  1  0  0  0  0
 17 18  1  0  0  0  0
 18 19  1  0  0  0  0
 17 20  2  0  0  0  0
M  END
> <ChemID>
100708

> <source_casrn>
142-62-1

> <CAS>
142-62-1

> <SMILES>
CCCCCC(O)=O

> <NAME>
Hexanoic acid

> <preferred_name>
Hexanoic acid

> <iupac>
hexanoic acid

> <MPID>
100717

> <dsstox_substance_id>
DTXSID7021607

> <Canonical_QSARr>
CCCCCC(O)=O

> <InChI_Code_QSARr>
InChI=1S/C6H12O2/c1-2-3-4-5-6(7)8/h2-5H2,1H3,(H,7,8)

> <InChI Key_QSARr>
FUZZWVXGSFPDMH-UHFFFAOYSA-N

> <Salt_Solvent>
?

> <Ready_Biodeg>
1.0

$$$$
100709
  -INDIGO-08031722522D

 66 65  0  0  0  0  0  0  0  0999 V2000
  -18.0132    0.8000    0.0000 C   0  0  0  0  0  0  0  0  0  0  0  0
  -16.6279    0.0000    0.0000 C   0  0  0  0  0  0  0  0  0  0  0  0
  -16.0154   -1.4782    0.0000 H   0  0  0  0  0  0  0  0  0  0  0  0
  -17.2399   -1.4782    0.0000 H   0  0  0  0  0  0  0  0  0  0  0  0
  -15.2420    0.8000    0.0000 C   0  0  0  0  0  0  0  0  0  0  0  0
  -15.8545    2.2782    0.0000 H   0  0  0  0  0  0  0  0  0  0  0  0
  -14.6296    2.2782    0.0000 H   0  0  0  0  0  0  0  0  0  0  0  0
  -13.8562    0.0000    0.0000 C   0  0  0  0  0  0  0  0  0  0  0  0
  -13.2442   -1.4782    0.0000 H   0  0  0  0  0  0  0  0  0  0  0  0
  -14.4687   -1.4782    0.0000 H   0  0  0  0  0  0  0  0  0  0  0  0
  -12.4709    0.8000    0.0000 C   0  0  0  0  0  0  0  0  0  0  0  0
  -13.0829    2.2782    0.0000 H   0  0  0  0  0  0  0  0  0  0  0  0
  -11.8584    2.2782    0.0000 H   0  0  0  0  0  0  0  0  0  0  0  0
  -11.0851    0.0000    0.0000 C   0  0  0  0  0  0  0  0  0  0  0  0
  -10.4726   -1.4782    0.0000 H   0  0  0  0  0  0  0  0  0  0  0  0
  -11.6975   -1.4782    0.0000 H   0  0  0  0  0  0  0  0  0  0  0  0
   -9.6992    0.8000    0.0000 C   0  0  0  0  0  0  0  0  0  0  0  0
  -10.3117    2.2782    0.0000 H   0  0  0  0  0  0  0  0  0  0  0  0
   -9.0873    2.2782    0.0000 H   0  0  0  0  0  0  0  0  0  0  0  0
   -8.3139    0.0000    0.0000 C   0  0  0  0  0  0  0  0  0  0  0  0
   -7.7014   -1.4782    0.0000 H   0  0  0  0  0  0  0  0  0  0  0  0
   -8.9259   -1.4782    0.0000 H   0  0  0  0  0  0  0  0  0  0  0  0
   -6.9281    0.8000    0.0000 C   0  0  0  0  0  0  0  0  0  0  0  0
   -6.9281    2.4000    0.0000 H   0  0  0  0  0  0  0  0  0  0  0  0
   -5.5428    0.0000    0.0000 C   0  0  0  0  0  0  0  0  0  0  0  0
   -5.5428   -1.6000    0.0000 H   0  0  0  0  0  0  0  0  0  0  0  0
   -4.1569    0.8000    0.0000 C   0  0  0  0  0  0  0  0  0  0  0  0
   -4.7694    2.2782    0.0000 H   0  0  0  0  0  0  0  0  0  0  0  0
   -3.5444    2.2782    0.0000 H   0  0  0  0  0  0  0  0  0  0  0  0
   -2.7711    0.0000    0.0000 C   0  0  0  0  0  0  0  0  0  0  0  0
   -2.1591   -1.4782    0.0000 H   0  0  0  0  0  0  0  0  0  0  0  0
   -3.3836   -1.4782    0.0000 H   0  0  0  0  0  0  0  0  0  0  0  0
   -1.3858    0.8000    0.0000 C   0  0  0  0  0  0  0  0  0  0  0  0
   -1.9977    2.2782    0.0000 H   0  0  0  0  0  0  0  0  0  0  0  0
   -0.7733    2.2782    0.0000 H   0  0  0  0  0  0  0  0  0  0  0  0
    0.0001    0.0000    0.0000 C   0  0  0  0  0  0  0  0  0  0  0  0
    0.6125   -1.4782    0.0000 H   0  0  0  0  0  0  0  0  0  0  0  0
   -0.6124   -1.4782    0.0000 H   0  0  0  0  0  0  0  0  0  0  0  0
    1.3859    0.8000    0.0000 C   0  0  0  0  0  0  0  0  0  0  0  0
    0.7734    2.2782    0.0000 H   0  0  0  0  0  0  0  0  0  0  0  0
    1.9979    2.2782    0.0000 H   0  0  0  0  0  0  0  0  0  0  0  0
    2.7712    0.0000    0.0000 C   0  0  0  0  0  0  0  0  0  0  0  0
    3.3837   -1.4782    0.0000 H   0  0  0  0  0  0  0  0  0  0  0  0
    2.1592   -1.4782    0.0000 H   0  0  0  0  0  0  0  0  0  0  0  0
    4.1570    0.8000    0.0000 C   0  0  0  0  0  0  0  0  0  0  0  0
    3.5446    2.2782    0.0000 H   0  0  0  0  0  0  0  0  0  0  0  0
    4.7690    2.2782    0.0000 H   0  0  0  0  0  0  0  0  0  0  0  0
    5.5424    0.0000    0.0000 C   0  0  0  0  0  0  0  0  0  0  0  0
    6.9282   -0.8000    0.0000 H   0  0  0  0  0  0  0  0  0  0  0  0
    6.9282    0.8000    0.0000 H   0  0  0  0  0  0  0  0  0  0  0  0
    5.5424   -1.6000    0.0000 H   0  0  0  0  0  0  0  0  0  0  0  0
  -19.3990    0.0000    0.0000 O   0  0  0  0  0  0  0  0  0  0  0  0
  -20.7844    0.8000    0.0000 C   0  0  0  0  0  0  0  0  0  0  0  0
  -21.3968    2.2782    0.0000 H   0  0  0  0  0  0  0  0  0  0  0  0
  -20.1724    2.2782    0.0000 H   0  0  0  0  0  0  0  0  0  0  0  0
  -22.1702    0.0000    0.0000 C   0  0  0  0  0  0  0  0  0  0  0  0
  -21.5582   -1.4782    0.0000 H   0  0  0  0  0  0  0  0  0  0  0  0
  -22.7827   -1.4782    0.0000 H   0  0  0  0  0  0  0  0  0  0  0  0
  -23.5560    0.8000    0.0000 C   0  0  0  0  0  0  0  0  0  0  0  0
  -24.1680    2.2782    0.0000 H   0  0  0  0  0  0  0  0  0  0  0  0
  -22.9435    2.2782    0.0000 H   0  0  0  0  0  0  0  0  0  0  0  0
  -24.9413    0.0000    0.0000 C   0  0  0  0  0  0  0  0  0  0  0  0
  -26.3272   -0.8000    0.0000 H   0  0  0  0  0  0  0  0  0  0  0  0
  -26.3272    0.8000    0.0000 H   0  0  0  0  0  0  0  0  0  0  0  0
  -24.9413   -1.6000    0.0000 H   0  0  0  0  0  0  0  0  0  0  0  0
  -18.0132    2.4000    0.0000 O   0  0  0  0  0  0  0  0  0  0  0  0
  1  2  1  0  0  0  0
  2  3  1  0  0  0  0
  2  4  1  0  0  0  0
  2  5  1  0  0  0  0
  5  6  1  0  0  0  0
  5  7  1  0  0  0  0
  5  8  1  0  0  0  0
  8  9  1  0  0  0  0
  8 10  1  0  0  0  0
  8 11  1  0  0  0  0
 11 12  1  0  0  0  0
 11 13  1  0  0  0  0
 11 14  1  0  0  0  0
 14 15  1  0  0  0  0
 14 16  1  0  0  0  0
 14 17  1  0  0  0  0
 17 18  1  0  0  0  0
 17 19  1  0  0  0  0
 17 20  1  0  0  0  0
 20 21  1  0  0  0  0
 20 22  1  0  0  0  0
 20 23  1  0  0  0  0
 23 24  1  0  0  0  0
 23 25  2  0  0  0  0
 25 26  1  0  0  0  0
 25 27  1  0  0  0  0
 27 28  1  0  0  0  0
 27 29  1  0  0  0  0
 27 30  1  0  0  0  0
 30 31  1  0  0  0  0
 30 32  1  0  0  0  0
 30 33  1  0  0  0  0
 33 34  1  0  0  0  0
 33 35  1  0  0  0  0
 33 36  1  0  0  0  0
 36 37  1  0  0  0  0
 36 38  1  0  0  0  0
 36 39  1  0  0  0  0
 39 40  1  0  0  0  0
 39 41  1  0  0  0  0
 39 42  1  0  0  0  0
 42 43  1  0  0  0  0
 42 44  1  0  0  0  0
 42 45  1  0  0  0  0
 45 46  1  0  0  0  0
 45 47  1  0  0  0  0
 45 48  1  0  0  0  0
 48 49  1  0  0  0  0
 48 50  1  0  0  0  0
 48 51  1  0  0  0  0
  1 52  1  0  0  0  0
 52 53  1  0  0  0  0
 53 54  1  0  0  0  0
 53 55  1  0  0  0  0
 53 56  1  0  0  0  0
 56 57  1  0  0  0  0
 56 58  1  0  0  0  0
 56 59  1  0  0  0  0
 59 60  1  0  0  0  0
 59 61  1  0  0  0  0
 59 62  1  0  0  0  0
 62 63  1  0  0  0  0
 62 64  1  0  0  0  0
 62 65  1  0  0  0  0
  1 66  2  0  0  0  0
M  END
> <ChemID>
100709

> <source_casrn>
142-77-8

> <CAS>
142-77-8

> <SMILES>
O=C(OCCCC)CCCCCCCC=CCCCCCCCC

> <NAME>
9-Octadecenoic acid (Z)-, butyl ester

> <preferred_name>
9-Octadecenoic acid (9Z)-, butyl ester

> <iupac>
butyl (9Z)-octadec-9-enoate

> <MPID>
100718

> <dsstox_substance_id>
DTXSID7027099

> <Canonical_QSARr>
CCCCOC(=O)CCCCCCCC=CCCCCCCCC

> <InChI_Code_QSARr>
InChI=1S/C22H42O2/c1-3-5-7-8-9-10-11-12-13-14-15-16-17-18-19-20-22(23)24-21-6-4-2/h12-13H,3-11,14-21H2,1-2H3/b13-12+

> <InChI Key_QSARr>
WIBFFTLQMKKBLZ-OUKQBFOZSA-N

> <Salt_Solvent>
?

> <Ready_Biodeg>
1.0

$$$$
100710
  -INDIGO-08031722522D

 23 22  0  0  0  0  0  0  0  0999 V2000
    2.7712    0.0000    0.0000 C   0  0  0  0  0  0  0  0  0  0  0  0
    3.3836   -1.4782    0.0000 H   0  0  0  0  0  0  0  0  0  0  0  0
    2.1589   -1.4782    0.0000 H   0  0  0  0  0  0  0  0  0  0  0  0
    1.3856    0.8000    0.0000 C   0  0  0  0  0  0  0  0  0  0  0  0
    0.7734    2.2782    0.0000 H   0  0  0  0  0  0  0  0  0  0  0  0
    1.9979    2.2782    0.0000 H   0  0  0  0  0  0  0  0  0  0  0  0
    0.0001    0.0000    0.0000 C   0  0  0  0  0  0  0  0  0  0  0  0
    0.6122   -1.4782    0.0000 H   0  0  0  0  0  0  0  0  0  0  0  0
   -0.6122   -1.4782    0.0000 H   0  0  0  0  0  0  0  0  0  0  0  0
   -1.3856    0.8000    0.0000 C   0  0  0  0  0  0  0  0  0  0  0  0
   -1.9979    2.2782    0.0000 H   0  0  0  0  0  0  0  0  0  0  0  0
   -0.7734    2.2782    0.0000 H   0  0  0  0  0  0  0  0  0  0  0  0
   -2.7712    0.0000    0.0000 C   0  0  0  0  0  0  0  0  0  0  0  0
   -2.1589   -1.4782    0.0000 H   0  0  0  0  0  0  0  0  0  0  0  0
   -3.3836   -1.4782    0.0000 H   0  0  0  0  0  0  0  0  0  0  0  0
   -4.1569    0.8000    0.0000 C   0  0  0  0  0  0  0  0  0  0  0  0
   -5.5426    1.6000    0.0000 H   0  0  0  0  0  0  0  0  0  0  0  0
   -5.5426    0.0000    0.0000 H   0  0  0  0  0  0  0  0  0  0  0  0
   -4.1569    2.4000    0.0000 H   0  0  0  0  0  0  0  0  0  0  0  0
    4.1569    0.8000    0.0000 C   0  0  0  0  0  0  0  0  0  0  0  0
    5.5426    1.6000    0.0000 H   0  0  0  0  0  0  0  0  0  0  0  0
    5.5426    0.0000    0.0000 H   0  0  0  0  0  0  0  0  0  0  0  0
    4.1569    2.4000    0.0000 H   0  0  0  0  0  0  0  0  0  0  0  0
  1  2  1  0  0  0  0
  1  3  1  0  0  0  0
  1  4  1  0  0  0  0
  4  5  1  0  0  0  0
  4  6  1  0  0  0  0
  4  7  1  0  0  0  0
  7  8  1  0  0  0  0
  7  9  1  0  0  0  0
  7 10  1  0  0  0  0
 10 11  1  0  0  0  0
 10 12  1  0  0  0  0
 10 13  1  0  0  0  0
 13 14  1  0  0  0  0
 13 15  1  0  0  0  0
 13 16  1  0  0  0  0
 16 17  1  0  0  0  0
 16 18  1  0  0  0  0
 16 19  1  0  0  0  0
  1 20  1  0  0  0  0
 20 21  1  0  0  0  0
 20 22  1  0  0  0  0
 20 23  1  0  0  0  0
M  END
> <ChemID>
100710

> <source_casrn>
142-82-5

> <CAS>
142-82-5

> <SMILES>
CCCCCCC

> <NAME>
Heptane

> <preferred_name>
Heptane

> <iupac>
heptane

> <MPID>
100719

> <dsstox_substance_id>
DTXSID6024127

> <Canonical_QSARr>
CCCCCCC

> <InChI_Code_QSARr>
InChI=1S/C7H16/c1-3-5-7-6-4-2/h3-7H2,1-2H3

> <InChI Key_QSARr>
IMNFDUFMRHMDMM-UHFFFAOYSA-N

> <Salt_Solvent>
?

> <Ready_Biodeg>
1.0

$$$$
100712
  -INDIGO-08031722522D

 27 26  0  0  0  0  0  0  0  0999 V2000
    2.7714   -0.0000    0.0000 C   0  0  0  0  0  0  0  0  0  0  0  0
    4.1569   -0.8000    0.0000 H   0  0  0  0  0  0  0  0  0  0  0  0
    4.1569    0.8000    0.0000 H   0  0  0  0  0  0  0  0  0  0  0  0
    2.7714   -1.6000    0.0000 H   0  0  0  0  0  0  0  0  0  0  0  0
    1.3856    0.8000    0.0000 C   0  0  0  0  0  0  0  0  0  0  0  0
    0.7733    2.2782    0.0000 H   0  0  0  0  0  0  0  0  0  0  0  0
    1.9980    2.2782    0.0000 H   0  0  0  0  0  0  0  0  0  0  0  0
    0.0001   -0.0000    0.0000 C   0  0  0  0  0  0  0  0  0  0  0  0
    0.6122   -1.4782    0.0000 H   0  0  0  0  0  0  0  0  0  0  0  0
   -0.6122   -1.4782    0.0000 H   0  0  0  0  0  0  0  0  0  0  0  0
   -1.3856    0.8000    0.0000 C   0  0  0  0  0  0  0  0  0  0  0  0
   -1.9980    2.2782    0.0000 H   0  0  0  0  0  0  0  0  0  0  0  0
   -0.7733    2.2782    0.0000 H   0  0  0  0  0  0  0  0  0  0  0  0
   -2.7712   -0.0000    0.0000 O   0  0  0  0  0  0  0  0  0  0  0  0
   -4.1569    0.8000    0.0000 C   0  0  0  0  0  0  0  0  0  0  0  0
   -4.7692    2.2782    0.0000 H   0  0  0  0  0  0  0  0  0  0  0  0
   -3.5446    2.2782    0.0000 H   0  0  0  0  0  0  0  0  0  0  0  0
   -5.5425   -0.0000    0.0000 C   0  0  0  0  0  0  0  0  0  0  0  0
   -4.9304   -1.4782    0.0000 H   0  0  0  0  0  0  0  0  0  0  0  0
   -6.1548   -1.4782    0.0000 H   0  0  0  0  0  0  0  0  0  0  0  0
   -6.9282    0.8000    0.0000 C   0  0  0  0  0  0  0  0  0  0  0  0
   -7.5405    2.2782    0.0000 H   0  0  0  0  0  0  0  0  0  0  0  0
   -6.3159    2.2782    0.0000 H   0  0  0  0  0  0  0  0  0  0  0  0
   -8.3137   -0.0000    0.0000 C   0  0  0  0  0  0  0  0  0  0  0  0
   -9.6995   -0.8000    0.0000 H   0  0  0  0  0  0  0  0  0  0  0  0
   -9.6995    0.8000    0.0000 H   0  0  0  0  0  0  0  0  0  0  0  0
   -8.3137   -1.6000    0.0000 H   0  0  0  0  0  0  0  0  0  0  0  0
  1  2  1  0  0  0  0
  1  3  1  0  0  0  0
  1  4  1  0  0  0  0
  1  5  1  0  0  0  0
  5  6  1  0  0  0  0
  5  7  1  0  0  0  0
  5  8  1  0  0  0  0
  8  9  1  0  0  0  0
  8 10  1  0  0  0  0
  8 11  1  0  0  0  0
 11 12  1  0  0  0  0
 11 13  1  0  0  0  0
 11 14  1  0  0  0  0
 14 15  1  0  0  0  0
 15 16  1  0  0  0  0
 15 17  1  0  0  0  0
 15 18  1  0  0  0  0
 18 19  1  0  0  0  0
 18 20  1  0  0  0  0
 18 21  1  0  0  0  0
 21 22  1  0  0  0  0
 21 23  1  0  0  0  0
 21 24  1  0  0  0  0
 24 25  1  0  0  0  0
 24 26  1  0  0  0  0
 24 27  1  0  0  0  0
M  END
> <ChemID>
100712

> <source_casrn>
142-96-1

> <CAS>
142-96-1

> <SMILES>
CCCCOCCCC

> <NAME>
Butane, 1,1'-oxybis-

> <preferred_name>
Butyl ether

> <iupac>
1-butoxybutane

> <MPID>
100721

> <dsstox_substance_id>
DTXSID1022007

> <Canonical_QSARr>
CCCCOCCCC

> <InChI_Code_QSARr>
InChI=1S/C8H18O/c1-3-5-7-9-8-6-4-2/h3-8H2,1-2H3

> <InChI Key_QSARr>
DURPTKYDGMDSBL-UHFFFAOYSA-N

> <Salt_Solvent>
?

> <Ready_Biodeg>
0.0

$$$$
100713
  -INDIGO-08031722522D

 30 29  0  0  0  0  0  0  0  0999 V2000
    5.5425   -0.0000    0.0000 C   0  0  0  0  0  0  0  0  0  0  0  0
    6.9282   -0.8000    0.0000 H   0  0  0  0  0  0  0  0  0  0  0  0
    6.9282    0.8000    0.0000 H   0  0  0  0  0  0  0  0  0  0  0  0
    5.5425   -1.6000    0.0000 H   0  0  0  0  0  0  0  0  0  0  0  0
    4.1570    0.8000    0.0000 C   0  0  0  0  0  0  0  0  0  0  0  0
    4.7692    2.2782    0.0000 H   0  0  0  0  0  0  0  0  0  0  0  0
    3.5446    2.2782    0.0000 H   0  0  0  0  0  0  0  0  0  0  0  0
    2.7713   -0.0000    0.0000 C   0  0  0  0  0  0  0  0  0  0  0  0
    2.1589   -1.4782    0.0000 H   0  0  0  0  0  0  0  0  0  0  0  0
    3.3835   -1.4782    0.0000 H   0  0  0  0  0  0  0  0  0  0  0  0
    1.3856    0.8000    0.0000 C   0  0  0  0  0  0  0  0  0  0  0  0
    1.9980    2.2782    0.0000 H   0  0  0  0  0  0  0  0  0  0  0  0
    0.7732    2.2782    0.0000 H   0  0  0  0  0  0  0  0  0  0  0  0
   -0.0001   -0.0000    0.0000 C   0  0  0  0  0  0  0  0  0  0  0  0
   -0.6122   -1.4782    0.0000 H   0  0  0  0  0  0  0  0  0  0  0  0
    0.6123   -1.4782    0.0000 H   0  0  0  0  0  0  0  0  0  0  0  0
   -1.3856    0.8000    0.0000 C   0  0  0  0  0  0  0  0  0  0  0  0
   -0.7734    2.2782    0.0000 H   0  0  0  0  0  0  0  0  0  0  0  0
   -1.9979    2.2782    0.0000 H   0  0  0  0  0  0  0  0  0  0  0  0
   -2.7713   -0.0000    0.0000 C   0  0  0  0  0  0  0  0  0  0  0  0
   -3.3836   -1.4782    0.0000 H   0  0  0  0  0  0  0  0  0  0  0  0
   -2.1589   -1.4782    0.0000 H   0  0  0  0  0  0  0  0  0  0  0  0
   -4.1570    0.8000    0.0000 C   0  0  0  0  0  0  0  0  0  0  0  0
   -3.5446    2.2782    0.0000 H   0  0  0  0  0  0  0  0  0  0  0  0
   -4.7691    2.2782    0.0000 H   0  0  0  0  0  0  0  0  0  0  0  0
   -5.5427   -0.0000    0.0000 C   0  0  0  0  0  0  0  0  0  0  0  0
   -6.1548   -1.4782    0.0000 H   0  0  0  0  0  0  0  0  0  0  0  0
   -4.9303   -1.4782    0.0000 H   0  0  0  0  0  0  0  0  0  0  0  0
   -6.9281    0.8000    0.0000 O   0  0  0  0  0  0  0  0  0  0  0  0
   -8.3138   -0.0000    0.0000 H   0  0  0  0  0  0  0  0  0  0  0  0
  1  2  1  0  0  0  0
  1  3  1  0  0  0  0
  1  4  1  0  0  0  0
  1  5  1  0  0  0  0
  5  6  1  0  0  0  0
  5  7  1  0  0  0  0
  5  8  1  0  0  0  0
  8  9  1  0  0  0  0
  8 10  1  0  0  0  0
  8 11  1  0  0  0  0
 11 12  1  0  0  0  0
 11 13  1  0  0  0  0
 11 14  1  0  0  0  0
 14 15  1  0  0  0  0
 14 16  1  0  0  0  0
 14 17  1  0  0  0  0
 17 18  1  0  0  0  0
 17 19  1  0  0  0  0
 17 20  1  0  0  0  0
 20 21  1  0  0  0  0
 20 22  1  0  0  0  0
 20 23  1  0  0  0  0
 23 24  1  0  0  0  0
 23 25  1  0  0  0  0
 23 26  1  0  0  0  0
 26 27  1  0  0  0  0
 26 28  1  0  0  0  0
 26 29  1  0  0  0  0
 29 30  1  0  0  0  0
M  END
> <ChemID>
100713

> <source_casrn>
143-08-8

> <CAS>
143-08-8

> <SMILES>
CCCCCCCCCO

> <NAME>
1-Nonanol

> <preferred_name>
1-Nonanol

> <iupac>
nonan-1-ol

> <MPID>
100722

> <dsstox_substance_id>
DTXSID6022008

> <Canonical_QSARr>
CCCCCCCCCO

> <InChI_Code_QSARr>
InChI=1S/C9H20O/c1-2-3-4-5-6-7-8-9-10/h10H,2-9H2,1H3

> <InChI Key_QSARr>
ZWRUINPWMLAQRD-UHFFFAOYSA-N

> <Salt_Solvent>
?

> <Ready_Biodeg>
1.0

$$$$
100714
  -INDIGO-08031722522D

 55 54  0  0  0  0  0  0  0  0999 V2000
    5.5428    0.0000    0.0000 C   0  0  0  0  0  0  0  0  0  0  0  0
    6.1547   -1.4782    0.0000 H   0  0  0  0  0  0  0  0  0  0  0  0
    4.9305   -1.4782    0.0000 H   0  0  0  0  0  0  0  0  0  0  0  0
    4.1570    0.8000    0.0000 C   0  0  0  0  0  0  0  0  0  0  0  0
    3.5447    2.2782    0.0000 H   0  0  0  0  0  0  0  0  0  0  0  0
    4.7693    2.2782    0.0000 H   0  0  0  0  0  0  0  0  0  0  0  0
    2.7713    0.0000    0.0000 C   0  0  0  0  0  0  0  0  0  0  0  0
    3.3836   -1.4782    0.0000 H   0  0  0  0  0  0  0  0  0  0  0  0
    2.1590   -1.4782    0.0000 H   0  0  0  0  0  0  0  0  0  0  0  0
    1.3855    0.8000    0.0000 C   0  0  0  0  0  0  0  0  0  0  0  0
    0.7732    2.2782    0.0000 H   0  0  0  0  0  0  0  0  0  0  0  0
    1.9979    2.2782    0.0000 H   0  0  0  0  0  0  0  0  0  0  0  0
    0.0002    0.0000    0.0000 C   0  0  0  0  0  0  0  0  0  0  0  0
    0.6121   -1.4782    0.0000 H   0  0  0  0  0  0  0  0  0  0  0  0
   -0.6121   -1.4782    0.0000 H   0  0  0  0  0  0  0  0  0  0  0  0
   -1.3855    0.8000    0.0000 C   0  0  0  0  0  0  0  0  0  0  0  0
   -1.9979    2.2782    0.0000 H   0  0  0  0  0  0  0  0  0  0  0  0
   -0.7732    2.2782    0.0000 H   0  0  0  0  0  0  0  0  0  0  0  0
   -2.7713    0.0000    0.0000 C   0  0  0  0  0  0  0  0  0  0  0  0
   -2.1590   -1.4782    0.0000 H   0  0  0  0  0  0  0  0  0  0  0  0
   -3.3836   -1.4782    0.0000 H   0  0  0  0  0  0  0  0  0  0  0  0
   -4.1570    0.8000    0.0000 C   0  0  0  0  0  0  0  0  0  0  0  0
   -4.7693    2.2782    0.0000 H   0  0  0  0  0  0  0  0  0  0  0  0
   -3.5447    2.2782    0.0000 H   0  0  0  0  0  0  0  0  0  0  0  0
   -5.5424    0.0000    0.0000 C   0  0  0  0  0  0  0  0  0  0  0  0
   -5.5424   -1.6000    0.0000 H   0  0  0  0  0  0  0  0  0  0  0  0
   -6.9281    0.8000    0.0000 C   0  0  0  0  0  0  0  0  0  0  0  0
   -6.9281    2.4000    0.0000 H   0  0  0  0  0  0  0  0  0  0  0  0
   -8.3138    0.0000    0.0000 C   0  0  0  0  0  0  0  0  0  0  0  0
   -7.7015   -1.4782    0.0000 H   0  0  0  0  0  0  0  0  0  0  0  0
   -8.9262   -1.4782    0.0000 H   0  0  0  0  0  0  0  0  0  0  0  0
   -9.6996    0.8000    0.0000 C   0  0  0  0  0  0  0  0  0  0  0  0
  -10.3119    2.2782    0.0000 H   0  0  0  0  0  0  0  0  0  0  0  0
   -9.0873    2.2782    0.0000 H   0  0  0  0  0  0  0  0  0  0  0  0
  -11.0849    0.0000    0.0000 C   0  0  0  0  0  0  0  0  0  0  0  0
  -10.4730   -1.4782    0.0000 H   0  0  0  0  0  0  0  0  0  0  0  0
  -11.6972   -1.4782    0.0000 H   0  0  0  0  0  0  0  0  0  0  0  0
  -12.4707    0.8000    0.0000 C   0  0  0  0  0  0  0  0  0  0  0  0
  -13.0830    2.2782    0.0000 H   0  0  0  0  0  0  0  0  0  0  0  0
  -11.8583    2.2782    0.0000 H   0  0  0  0  0  0  0  0  0  0  0  0
  -13.8564    0.0000    0.0000 C   0  0  0  0  0  0  0  0  0  0  0  0
  -13.2441   -1.4782    0.0000 H   0  0  0  0  0  0  0  0  0  0  0  0
  -14.4687   -1.4782    0.0000 H   0  0  0  0  0  0  0  0  0  0  0  0
  -15.2422    0.8000    0.0000 C   0  0  0  0  0  0  0  0  0  0  0  0
  -15.8545    2.2782    0.0000 H   0  0  0  0  0  0  0  0  0  0  0  0
  -14.6298    2.2782    0.0000 H   0  0  0  0  0  0  0  0  0  0  0  0
  -16.6275    0.0000    0.0000 C   0  0  0  0  0  0  0  0  0  0  0  0
  -16.0156   -1.4782    0.0000 H   0  0  0  0  0  0  0  0  0  0  0  0
  -17.2398   -1.4782    0.0000 H   0  0  0  0  0  0  0  0  0  0  0  0
  -18.0132    0.8000    0.0000 C   0  0  0  0  0  0  0  0  0  0  0  0
  -19.3990    1.6000    0.0000 H   0  0  0  0  0  0  0  0  0  0  0  0
  -19.3990    0.0000    0.0000 H   0  0  0  0  0  0  0  0  0  0  0  0
  -18.0132    2.4000    0.0000 H   0  0  0  0  0  0  0  0  0  0  0  0
    6.9281    0.8000    0.0000 O   0  0  0  0  0  0  0  0  0  0  0  0
    8.3138    0.0000    0.0000 H   0  0  0  0  0  0  0  0  0  0  0  0
  1  2  1  0  0  0  0
  1  3  1  0  0  0  0
  1  4  1  0  0  0  0
  4  5  1  0  0  0  0
  4  6  1  0  0  0  0
  4  7  1  0  0  0  0
  7  8  1  0  0  0  0
  7  9  1  0  0  0  0
  7 10  1  0  0  0  0
 10 11  1  0  0  0  0
 10 12  1  0  0  0  0
 10 13  1  0  0  0  0
 13 14  1  0  0  0  0
 13 15  1  0  0  0  0
 13 16  1  0  0  0  0
 16 17  1  0  0  0  0
 16 18  1  0  0  0  0
 16 19  1  0  0  0  0
 19 20  1  0  0  0  0
 19 21  1  0  0  0  0
 19 22  1  0  0  0  0
 22 23  1  0  0  0  0
 22 24  1  0  0  0  0
 22 25  1  0  0  0  0
 25 26  1  0  0  0  0
 25 27  2  0  0  0  0
 27 28  1  0  0  0  0
 27 29  1  0  0  0  0
 29 30  1  0  0  0  0
 29 31  1  0  0  0  0
 29 32  1  0  0  0  0
 32 33  1  0  0  0  0
 32 34  1  0  0  0  0
 32 35  1  0  0  0  0
 35 36  1  0  0  0  0
 35 37  1  0  0  0  0
 35 38  1  0  0  0  0
 38 39  1  0  0  0  0
 38 40  1  0  0  0  0
 38 41  1  0  0  0  0
 41 42  1  0  0  0  0
 41 43  1  0  0  0  0
 41 44  1  0  0  0  0
 44 45  1  0  0  0  0
 44 46  1  0  0  0  0
 44 47  1  0  0  0  0
 47 48  1  0  0  0  0
 47 49  1  0  0  0  0
 47 50  1  0  0  0  0
 50 51  1  0  0  0  0
 50 52  1  0  0  0  0
 50 53  1  0  0  0  0
  1 54  1  0  0  0  0
 54 55  1  0  0  0  0
M  END
> <ChemID>
100714

> <source_casrn>
143-28-2

> <CAS>
143-28-2

> <SMILES>
OCCCCCCCCC=CCCCCCCCC

> <NAME>
Oleyl alcohol

> <preferred_name>
(9Z)-Octadec-9-en-1-ol

> <iupac>
(9Z)-octadec-9-en-1-ol

> <MPID>
100723

> <dsstox_substance_id>
DTXSID0022010

> <Canonical_QSARr>
CCCCCCCCC=CCCCCCCCCO

> <InChI_Code_QSARr>
InChI=1S/C18H36O/c1-2-3-4-5-6-7-8-9-10-11-12-13-14-15-16-17-18-19/h9-10,19H,2-8,11-18H2,1H3/b10-9+

> <InChI Key_QSARr>
ALSTYHKOOCGGFT-MDZDMXLPSA-N

> <Salt_Solvent>
?

> <Ready_Biodeg>
1.0

$$$$
100716
  -INDIGO-08031722522D

  8  7  0  0  0  0  0  0  0  0999 V2000
   -0.0000    0.0000    0.0000 C   0  0  0  0  0  0  0  0  0  0  0  0
    0.8000    1.3856    0.0000 O   0  0  0  0  0  0  0  0  0  0  0  0
    0.8000   -1.3856    0.0000 O   0  0  0  0  0  0  0  0  0  0  0  0
    2.4000   -1.3856    0.0000 H   0  0  0  0  0  0  0  0  0  0  0  0
   -1.6000    0.0000    0.0000 C   0  0  0  0  0  0  0  0  0  0  0  0
   -2.4000   -1.3856    0.0000 O   0  0  0  0  0  0  0  0  0  0  0  0
   -2.4000    1.3856    0.0000 O   0  0  0  0  0  0  0  0  0  0  0  0
   -4.0000    1.3856    0.0000 H   0  0  0  0  0  0  0  0  0  0  0  0
  1  2  2  0  0  0  0
  1  3  1  0  0  0  0
  3  4  1  0  0  0  0
  1  5  1  0  0  0  0
  5  6  2  0  0  0  0
  5  7  1  0  0  0  0
  7  8  1  0  0  0  0
M  END
> <ChemID>
100716

> <source_casrn>
144-62-7

> <CAS>
144-62-7

> <SMILES>
OC(=O)C(O)=O

> <NAME>
OXALIC ACID

> <preferred_name>
Oxalic acid

> <iupac>
ethanedioic acid

> <MPID>
100725

> <dsstox_substance_id>
DTXSID0025816

> <Canonical_QSARr>
OC(=O)C(O)=O

> <InChI_Code_QSARr>
InChI=1S/C2H2O4/c3-1(4)2(5)6/h(H,3,4)(H,5,6)

> <InChI Key_QSARr>
MUBZPKHOEPUJKR-UHFFFAOYSA-N

> <Salt_Solvent>
?

> <Ready_Biodeg>
1.0

$$$$
100717
  -INDIGO-08031722522D

 15 16  0  0  0  0  0  0  0  0999 V2000
    4.0621   -0.8000    0.0000 S   0  0  0  0  0  0  0  0  0  0  0  0
    4.8621    0.5856    0.0000 H   0  0  0  0  0  0  0  0  0  0  0  0
    2.4622   -0.8000    0.0000 C   0  0  0  0  0  0  0  0  0  0  0  0
    1.5216   -2.0944    0.0000 N   0  0  0  0  0  0  0  0  0  0  0  0
   -0.0000   -1.6000    0.0000 C   0  0  0  0  0  0  0  0  0  0  0  0
   -0.0000   -0.0000    0.0000 C   0  0  0  0  0  0  0  0  0  0  0  0
   -1.3856    0.8000    0.0000 C   0  0  0  0  0  0  0  0  0  0  0  0
   -1.3856    2.4000    0.0000 H   0  0  0  0  0  0  0  0  0  0  0  0
   -2.7713   -0.0000    0.0000 C   0  0  0  0  0  0  0  0  0  0  0  0
   -4.1569    0.8000    0.0000 H   0  0  0  0  0  0  0  0  0  0  0  0
   -2.7713   -1.6000    0.0000 C   0  0  0  0  0  0  0  0  0  0  0  0
   -4.1569   -2.4000    0.0000 H   0  0  0  0  0  0  0  0  0  0  0  0
   -1.3856   -2.4000    0.0000 C   0  0  0  0  0  0  0  0  0  0  0  0
   -1.3856   -4.0000    0.0000 H   0  0  0  0  0  0  0  0  0  0  0  0
    1.5216    0.4944    0.0000 S   0  0  0  0  0  0  0  0  0  0  0  0
  1  2  1  0  0  0  0
  1  3  1  0  0  0  0
  3  4  2  0  0  0  0
  4  5  1  0  0  0  0
  5  6  1  0  0  0  0
  6  7  2  0  0  0  0
  7  8  1  0  0  0  0
  7  9  1  0  0  0  0
  9 10  1  0  0  0  0
  9 11  2  0  0  0  0
 11 12  1  0  0  0  0
 11 13  1  0  0  0  0
 13  5  2  0  0  0  0
 13 14  1  0  0  0  0
  6 15  1  0  0  0  0
 15  3  1  0  0  0  0
M  END
> <ChemID>
100717

> <source_casrn>
149-30-4

> <CAS>
149-30-4

> <SMILES>
Sc1[n]c2ccccc2[s]1

> <NAME>
2(3H)-Benzothiazolethione

> <preferred_name>
2-Mercaptobenzothiazole

> <iupac>
1,3-benzothiazole-2-thiol

> <MPID>
100726

> <dsstox_substance_id>
DTXSID1020807

> <Canonical_QSARr>
Sc1[n]c2ccccc2[s]1

> <InChI_Code_QSARr>
InChI=1S/C7H5NS2/c9-7-8-5-3-1-2-4-6(5)10-7/h1-4H,(H,8,9)

> <InChI Key_QSARr>
YXIWHUQXZSMYRE-UHFFFAOYSA-N

> <Salt_Solvent>
?

> <Ready_Biodeg>
1.0

$$$$
100718
  -INDIGO-08031722522D

 17 17  0  0  0  0  0  0  0  0999 V2000
    2.3999   -1.3856    0.0000 O   0  0  0  0  0  0  0  0  0  0  0  0
    1.6000   -0.0000    0.0000 C   0  0  0  0  0  0  0  0  0  0  0  0
    2.4001    1.3856    0.0000 O   0  0  0  0  0  0  0  0  0  0  0  0
    4.0000    1.3856    0.0000 H   0  0  0  0  0  0  0  0  0  0  0  0
    0.0000   -0.0000    0.0000 C   0  0  0  0  0  0  0  0  0  0  0  0
   -0.7999    1.3856    0.0000 C   0  0  0  0  0  0  0  0  0  0  0  0
    0.0000    2.7713    0.0000 H   0  0  0  0  0  0  0  0  0  0  0  0
   -2.4000    1.3856    0.0000 C   0  0  0  0  0  0  0  0  0  0  0  0
   -3.2000    2.7713    0.0000 H   0  0  0  0  0  0  0  0  0  0  0  0
   -3.2000   -0.0000    0.0000 C   0  0  0  0  0  0  0  0  0  0  0  0
   -4.8000   -0.0000    0.0000 N   0  0  0  0  0  0  0  0  0  0  0  0
   -5.6000   -1.3856    0.0000 H   0  0  0  0  0  0  0  0  0  0  0  0
   -5.6000    1.3856    0.0000 H   0  0  0  0  0  0  0  0  0  0  0  0
   -2.4000   -1.3856    0.0000 C   0  0  0  0  0  0  0  0  0  0  0  0
   -3.2000   -2.7713    0.0000 H   0  0  0  0  0  0  0  0  0  0  0  0
   -0.8001   -1.3856    0.0000 C   0  0  0  0  0  0  0  0  0  0  0  0
    0.0000   -2.7713    0.0000 H   0  0  0  0  0  0  0  0  0  0  0  0
  1  2  2  0  0  0  0
  2  3  1  0  0  0  0
  3  4  1  0  0  0  0
  2  5  1  0  0  0  0
  5  6  1  0  0  0  0
  6  7  1  0  0  0  0
  6  8  2  0  0  0  0
  8  9  1  0  0  0  0
  8 10  1  0  0  0  0
 10 11  1  0  0  0  0
 11 12  1  0  0  0  0
 11 13  1  0  0  0  0
 10 14  2  0  0  0  0
 14 15  1  0  0  0  0
 14 16  1  0  0  0  0
 16  5  2  0  0  0  0
 16 17  1  0  0  0  0
M  END
> <ChemID>
100718

> <source_casrn>
150-13-0

> <CAS>
150-13-0

> <SMILES>
Nc1ccc(cc1)C(O)=O

> <NAME>
4-Aminobenzoic acid

> <preferred_name>
4-Aminobenzoic acid

> <iupac>
4-aminobenzoic acid

> <MPID>
100727

> <dsstox_substance_id>
DTXSID6024466

> <Canonical_QSARr>
Nc1ccc(cc1)C(O)=O

> <InChI_Code_QSARr>
InChI=1S/C7H7NO2/c8-6-3-1-5(2-4-6)7(9)10/h1-4H,8H2,(H,9,10)

> <InChI Key_QSARr>
ALYNCZNDIQEVRV-UHFFFAOYSA-N

> <Salt_Solvent>
?

> <Ready_Biodeg>
1.0

$$$$
100720
  -INDIGO-08031722522D

 17 17  0  0  0  0  0  0  0  0999 V2000
    2.7713   -0.0000    0.0000 C   0  0  0  0  0  0  0  0  0  0  0  0
    4.1569    0.8000    0.0000 H   0  0  0  0  0  0  0  0  0  0  0  0
    4.1569   -0.8000    0.0000 H   0  0  0  0  0  0  0  0  0  0  0  0
    2.7713    1.6000    0.0000 H   0  0  0  0  0  0  0  0  0  0  0  0
    1.3857    0.8000    0.0000 O   0  0  0  0  0  0  0  0  0  0  0  0
    0.0001   -0.0000    0.0000 C   0  0  0  0  0  0  0  0  0  0  0  0
    0.0001   -1.6000    0.0000 C   0  0  0  0  0  0  0  0  0  0  0  0
    1.3857   -2.4000    0.0000 H   0  0  0  0  0  0  0  0  0  0  0  0
   -1.3857   -2.4000    0.0000 C   0  0  0  0  0  0  0  0  0  0  0  0
   -1.3857   -4.0000    0.0000 H   0  0  0  0  0  0  0  0  0  0  0  0
   -2.7713   -1.6000    0.0000 C   0  0  0  0  0  0  0  0  0  0  0  0
   -4.1569   -2.4000    0.0000 O   0  0  0  0  0  0  0  0  0  0  0  0
   -5.5426   -1.6000    0.0000 H   0  0  0  0  0  0  0  0  0  0  0  0
   -2.7713   -0.0000    0.0000 C   0  0  0  0  0  0  0  0  0  0  0  0
   -4.1569    0.8000    0.0000 H   0  0  0  0  0  0  0  0  0  0  0  0
   -1.3857    0.8000    0.0000 C   0  0  0  0  0  0  0  0  0  0  0  0
   -1.3857    2.4000    0.0000 H   0  0  0  0  0  0  0  0  0  0  0  0
  1  2  1  0  0  0  0
  1  3  1  0  0  0  0
  1  4  1  0  0  0  0
  1  5  1  0  0  0  0
  5  6  1  0  0  0  0
  6  7  1  0  0  0  0
  7  8  1  0  0  0  0
  7  9  2  0  0  0  0
  9 10  1  0  0  0  0
  9 11  1  0  0  0  0
 11 12  1  0  0  0  0
 12 13  1  0  0  0  0
 11 14  2  0  0  0  0
 14 15  1  0  0  0  0
 14 16  1  0  0  0  0
 16  6  2  0  0  0  0
 16 17  1  0  0  0  0
M  END
> <ChemID>
100720

> <source_casrn>
150-76-5

> <CAS>
150-76-5

> <SMILES>
COc1ccc(O)cc1

> <NAME>
4-Methoxyphenol

> <preferred_name>
4-Methoxyphenol

> <iupac>
4-methoxyphenol

> <MPID>
100729

> <dsstox_substance_id>
DTXSID4020828

> <Canonical_QSARr>
COc1ccc(O)cc1

> <InChI_Code_QSARr>
InChI=1S/C7H8O2/c1-9-7-4-2-6(8)3-5-7/h2-5,8H,1H3

> <InChI Key_QSARr>
NWVVVBRKAWDGAB-UHFFFAOYSA-N

> <Salt_Solvent>
?

> <Ready_Biodeg>
1.0

$$$$
100721
  -INDIGO-08031722522D

 20 20  0  0  0  0  0  0  0  0999 V2000
    2.4000   -1.3856    0.0000 C   0  0  0  0  0  0  0  0  0  0  0  0
    4.0000   -1.3856    0.0000 H   0  0  0  0  0  0  0  0  0  0  0  0
    3.2000   -2.7713    0.0000 H   0  0  0  0  0  0  0  0  0  0  0  0
    3.2000   -0.0000    0.0000 H   0  0  0  0  0  0  0  0  0  0  0  0
    1.6000   -0.0000    0.0000 O   0  0  0  0  0  0  0  0  0  0  0  0
    0.0001    0.0000    0.0000 C   0  0  0  0  0  0  0  0  0  0  0  0
   -0.7999    1.3856    0.0000 C   0  0  0  0  0  0  0  0  0  0  0  0
    0.0001    2.7713    0.0000 H   0  0  0  0  0  0  0  0  0  0  0  0
   -2.4001    1.3856    0.0000 C   0  0  0  0  0  0  0  0  0  0  0  0
   -3.2001    2.7713    0.0000 H   0  0  0  0  0  0  0  0  0  0  0  0
   -3.2001    0.0000    0.0000 C   0  0  0  0  0  0  0  0  0  0  0  0
   -4.8000   -0.0000    0.0000 O   0  0  0  0  0  0  0  0  0  0  0  0
   -5.6000    1.3856    0.0000 C   0  0  0  0  0  0  0  0  0  0  0  0
   -7.2000    1.3856    0.0000 H   0  0  0  0  0  0  0  0  0  0  0  0
   -6.4000    2.7713    0.0000 H   0  0  0  0  0  0  0  0  0  0  0  0
   -6.4000   -0.0000    0.0000 H   0  0  0  0  0  0  0  0  0  0  0  0
   -2.4001   -1.3856    0.0000 C   0  0  0  0  0  0  0  0  0  0  0  0
   -3.2001   -2.7713    0.0000 H   0  0  0  0  0  0  0  0  0  0  0  0
   -0.7999   -1.3856    0.0000 C   0  0  0  0  0  0  0  0  0  0  0  0
    0.0001   -2.7713    0.0000 H   0  0  0  0  0  0  0  0  0  0  0  0
  1  2  1  0  0  0  0
  1  3  1  0  0  0  0
  1  4  1  0  0  0  0
  1  5  1  0  0  0  0
  5  6  1  0  0  0  0
  6  7  1  0  0  0  0
  7  8  1  0  0  0  0
  7  9  2  0  0  0  0
  9 10  1  0  0  0  0
  9 11  1  0  0  0  0
 11 12  1  0  0  0  0
 12 13  1  0  0  0  0
 13 14  1  0  0  0  0
 13 15  1  0  0  0  0
 13 16  1  0  0  0  0
 11 17  2  0  0  0  0
 17 18  1  0  0  0  0
 17 19  1  0  0  0  0
 19  6  2  0  0  0  0
 19 20  1  0  0  0  0
M  END
> <ChemID>
100721

> <source_casrn>
150-78-7

> <CAS>
150-78-7

> <SMILES>
COc1ccc(cc1)OC

> <NAME>
Benzene, 1,4-dimethoxy-

> <preferred_name>
Hydroquinone dimethyl ether

> <iupac>
1,4-dimethoxybenzene

> <MPID>
100730

> <dsstox_substance_id>
DTXSID0022014

> <Canonical_QSARr>
COc1ccc(cc1)OC

> <InChI_Code_QSARr>
InChI=1S/C8H10O2/c1-9-7-3-5-8(10-2)6-4-7/h3-6H,1-2H3

> <InChI Key_QSARr>
OHBQPCCCRFSCAX-UHFFFAOYSA-N

> <Salt_Solvent>
?

> <Ready_Biodeg>
1.0

$$$$
100722
  -INDIGO-08031722522D

 20 20  0  0  0  0  0  0  0  0999 V2000
   -1.3856    0.8000    0.0000 C   0  0  0  0  0  0  0  0  0  0  0  0
   -1.3856    2.4000    0.0000 H   0  0  0  0  0  0  0  0  0  0  0  0
   -2.7712   -0.0000    0.0000 C   0  0  0  0  0  0  0  0  0  0  0  0
   -4.1569    0.8000    0.0000 O   0  0  0  0  0  0  0  0  0  0  0  0
   -5.5425   -0.0000    0.0000 C   0  0  0  0  0  0  0  0  0  0  0  0
   -6.9282    0.8000    0.0000 H   0  0  0  0  0  0  0  0  0  0  0  0
   -6.9282   -0.8000    0.0000 H   0  0  0  0  0  0  0  0  0  0  0  0
   -5.5425    1.6000    0.0000 H   0  0  0  0  0  0  0  0  0  0  0  0
   -2.7712   -1.6000    0.0000 C   0  0  0  0  0  0  0  0  0  0  0  0
   -4.1569   -2.4000    0.0000 H   0  0  0  0  0  0  0  0  0  0  0  0
   -1.3856   -2.4000    0.0000 C   0  0  0  0  0  0  0  0  0  0  0  0
   -1.3856   -4.0000    0.0000 H   0  0  0  0  0  0  0  0  0  0  0  0
   -0.0001   -1.6000    0.0000 C   0  0  0  0  0  0  0  0  0  0  0  0
    1.3856   -2.4000    0.0000 H   0  0  0  0  0  0  0  0  0  0  0  0
   -0.0001   -0.0000    0.0000 C   0  0  0  0  0  0  0  0  0  0  0  0
    1.3856    0.8000    0.0000 O   0  0  0  0  0  0  0  0  0  0  0  0
    2.7713   -0.0000    0.0000 C   0  0  0  0  0  0  0  0  0  0  0  0
    4.1569    0.8000    0.0000 H   0  0  0  0  0  0  0  0  0  0  0  0
    4.1569   -0.8000    0.0000 H   0  0  0  0  0  0  0  0  0  0  0  0
    2.7713    1.6000    0.0000 H   0  0  0  0  0  0  0  0  0  0  0  0
  1  2  1  0  0  0  0
  1  3  1  0  0  0  0
  3  4  1  0  0  0  0
  4  5  1  0  0  0  0
  5  6  1  0  0  0  0
  5  7  1  0  0  0  0
  5  8  1  0  0  0  0
  3  9  2  0  0  0  0
  9 10  1  0  0  0  0
  9 11  1  0  0  0  0
 11 12  1  0  0  0  0
 11 13  2  0  0  0  0
 13 14  1  0  0  0  0
 13 15  1  0  0  0  0
 15  1  2  0  0  0  0
 15 16  1  0  0  0  0
 16 17  1  0  0  0  0
 17 18  1  0  0  0  0
 17 19  1  0  0  0  0
 17 20  1  0  0  0  0
M  END
> <ChemID>
100722

> <source_casrn>
151-10-0

> <CAS>
151-10-0

> <SMILES>
COc1cc(ccc1)OC

> <NAME>
Benzene, 1,3-dimethoxy-

> <preferred_name>
1,3-Dimethoxybenzene

> <iupac>
1,3-dimethoxybenzene

> <MPID>
100731

> <dsstox_substance_id>
DTXSID2047060

> <Canonical_QSARr>
COc1cc(ccc1)OC

> <InChI_Code_QSARr>
InChI=1S/C8H10O2/c1-9-7-4-3-5-8(6-7)10-2/h3-6H,1-2H3

> <InChI Key_QSARr>
DPZNOMCNRMUKPS-UHFFFAOYSA-N

> <Salt_Solvent>
?

> <Ready_Biodeg>
1.0

$$$$
100724
  -INDIGO-08031722522D

 25 26  0  0  0  0  0  0  0  0999 V2000
   -1.3856    0.8000    0.0000 N   0  0  0  0  0  0  0  0  0  0  0  0
   -1.1078    2.3757    0.0000 H   0  0  0  0  0  0  0  0  0  0  0  0
    0.0000    0.0000    0.0000 C   0  0  0  0  0  0  0  0  0  0  0  0
    1.3856    0.8000    0.0000 C   0  0  0  0  0  0  0  0  0  0  0  0
    1.3856    2.4000    0.0000 H   0  0  0  0  0  0  0  0  0  0  0  0
    2.7712    0.0000    0.0000 C   0  0  0  0  0  0  0  0  0  0  0  0
    4.1570    0.8000    0.0000 H   0  0  0  0  0  0  0  0  0  0  0  0
    2.7712   -1.6000    0.0000 C   0  0  0  0  0  0  0  0  0  0  0  0
    4.1570   -2.4000    0.0000 N   0  0  0  0  0  0  0  0  0  0  0  0
    5.5426   -1.6000    0.0000 O   0  0  0  0  0  0  0  0  0  0  0  0
    1.3856   -2.4000    0.0000 C   0  0  0  0  0  0  0  0  0  0  0  0
    1.3856   -4.0000    0.0000 H   0  0  0  0  0  0  0  0  0  0  0  0
    0.0000   -1.6000    0.0000 C   0  0  0  0  0  0  0  0  0  0  0  0
   -1.3856   -2.4000    0.0000 H   0  0  0  0  0  0  0  0  0  0  0  0
   -2.9613    0.5222    0.0000 C   0  0  0  0  0  0  0  0  0  0  0  0
   -3.5086   -0.9814    0.0000 C   0  0  0  0  0  0  0  0  0  0  0  0
   -2.4800   -2.2071    0.0000 H   0  0  0  0  0  0  0  0  0  0  0  0
   -5.0842   -1.2591    0.0000 C   0  0  0  0  0  0  0  0  0  0  0  0
   -5.6315   -2.7627    0.0000 H   0  0  0  0  0  0  0  0  0  0  0  0
   -6.1126   -0.0335    0.0000 C   0  0  0  0  0  0  0  0  0  0  0  0
   -7.6884   -0.3113    0.0000 H   0  0  0  0  0  0  0  0  0  0  0  0
   -5.5655    1.4700    0.0000 C   0  0  0  0  0  0  0  0  0  0  0  0
   -6.5940    2.6957    0.0000 H   0  0  0  0  0  0  0  0  0  0  0  0
   -3.9898    1.7479    0.0000 C   0  0  0  0  0  0  0  0  0  0  0  0
   -3.4426    3.2513    0.0000 H   0  0  0  0  0  0  0  0  0  0  0  0
  1  2  1  0  0  0  0
  1  3  1  0  0  0  0
  3  4  1  0  0  0  0
  4  5  1  0  0  0  0
  4  6  2  0  0  0  0
  6  7  1  0  0  0  0
  6  8  1  0  0  0  0
  8  9  1  0  0  0  0
  9 10  2  0  0  0  0
  8 11  2  0  0  0  0
 11 12  1  0  0  0  0
 11 13  1  0  0  0  0
 13  3  2  0  0  0  0
 13 14  1  0  0  0  0
  1 15  1  0  0  0  0
 15 16  1  0  0  0  0
 16 17  1  0  0  0  0
 16 18  2  0  0  0  0
 18 19  1  0  0  0  0
 18 20  1  0  0  0  0
 20 21  1  0  0  0  0
 20 22  2  0  0  0  0
 22 23  1  0  0  0  0
 22 24  1  0  0  0  0
 24 15  2  0  0  0  0
 24 25  1  0  0  0  0
M  END
> <ChemID>
100724

> <source_casrn>
156-10-5

> <CAS>
156-10-5

> <SMILES>
O=Nc1ccc(cc1)Nc1ccccc1

> <NAME>
Benzenamine, 4-nitroso-N-phenyl-

> <preferred_name>
4-Nitrosodiphenylamine

> <iupac>
4-nitroso-N-phenylaniline

> <MPID>
100733

> <dsstox_substance_id>
DTXSID1021031

> <Canonical_QSARr>
O=Nc1ccc(cc1)Nc1ccccc1

> <InChI_Code_QSARr>
InChI=1S/C12H10N2O/c15-14-12-8-6-11(7-9-12)13-10-4-2-1-3-5-10/h1-9,13H

> <InChI Key_QSARr>
OIJHFHYPXWSVPF-UHFFFAOYSA-N

> <Salt_Solvent>
?

> <Ready_Biodeg>
0.0

$$$$
100725
  -INDIGO-08031722522D

 21 21  0  0  0  0  0  0  0  0999 V2000
   -1.6001    0.0000    0.0000 O   0  0  0  0  0  0  0  0  0  0  0  0
    0.0001    0.0000    0.0000 C   0  0  0  0  0  0  0  0  0  0  0  0
    0.8001    1.3857    0.0000 C   0  0  0  0  0  0  0  0  0  0  0  0
    0.0001    2.7713    0.0000 H   0  0  0  0  0  0  0  0  0  0  0  0
    2.4000    1.3857    0.0000 C   0  0  0  0  0  0  0  0  0  0  0  0
    3.2000    2.7713    0.0000 H   0  0  0  0  0  0  0  0  0  0  0  0
    3.2000    0.0000    0.0000 C   0  0  0  0  0  0  0  0  0  0  0  0
    4.8000    0.0000    0.0000 N   0  0  0  0  0  0  0  0  0  0  0  0
    5.6000   -1.3857    0.0000 H   0  0  0  0  0  0  0  0  0  0  0  0
    5.6000    1.3857    0.0000 H   0  0  0  0  0  0  0  0  0  0  0  0
    2.4000   -1.3857    0.0000 C   0  0  0  0  0  0  0  0  0  0  0  0
    3.2000   -2.7713    0.0000 H   0  0  0  0  0  0  0  0  0  0  0  0
    0.8001   -1.3857    0.0000 C   0  0  0  0  0  0  0  0  0  0  0  0
    0.0001   -2.7713    0.0000 H   0  0  0  0  0  0  0  0  0  0  0  0
   -2.4000    1.3857    0.0000 C   0  0  0  0  0  0  0  0  0  0  0  0
   -1.1306    2.3596    0.0000 H   0  0  0  0  0  0  0  0  0  0  0  0
   -2.1912    2.9720    0.0000 H   0  0  0  0  0  0  0  0  0  0  0  0
   -4.0000    1.3857    0.0000 C   0  0  0  0  0  0  0  0  0  0  0  0
   -5.6000    1.3857    0.0000 H   0  0  0  0  0  0  0  0  0  0  0  0
   -4.8000    2.7713    0.0000 H   0  0  0  0  0  0  0  0  0  0  0  0
   -4.8000    0.0000    0.0000 H   0  0  0  0  0  0  0  0  0  0  0  0
  1  2  1  0  0  0  0
  2  3  1  0  0  0  0
  3  4  1  0  0  0  0
  3  5  2  0  0  0  0
  5  6  1  0  0  0  0
  5  7  1  0  0  0  0
  7  8  1  0  0  0  0
  8  9  1  0  0  0  0
  8 10  1  0  0  0  0
  7 11  2  0  0  0  0
 11 12  1  0  0  0  0
 11 13  1  0  0  0  0
 13  2  2  0  0  0  0
 13 14  1  0  0  0  0
  1 15  1  0  0  0  0
 15 16  1  0  0  0  0
 15 17  1  0  0  0  0
 15 18  1  0  0  0  0
 18 19  1  0  0  0  0
 18 20  1  0  0  0  0
 18 21  1  0  0  0  0
M  END
> <ChemID>
100725

> <source_casrn>
156-43-4

> <CAS>
156-43-4

> <SMILES>
CCOc1ccc(N)cc1

> <NAME>
Benzenamine, 4-ethoxy-

> <preferred_name>
4-Ethoxyaniline

> <iupac>
4-ethoxyaniline

> <MPID>
100734

> <dsstox_substance_id>
DTXSID0025864

> <Canonical_QSARr>
CCOc1ccc(N)cc1

> <InChI_Code_QSARr>
InChI=1S/C8H11NO/c1-2-10-8-5-3-7(9)4-6-8/h3-6H,2,9H2,1H3

> <InChI Key_QSARr>
IMPPGHMHELILKG-UHFFFAOYSA-N

> <Salt_Solvent>
?

> <Ready_Biodeg>
0.0

$$$$
100726
  -INDIGO-08031722522D

  6  5  0  0  0  0  0  0  0  0999 V2000
   -0.8000   -1.3856    0.0000 Cl  0  0  0  0  0  0  0  0  0  0  0  0
    0.0000    0.0000    0.0000 C   0  0  0  0  0  0  0  0  0  0  0  0
   -0.8000    1.3856    0.0000 H   0  0  0  0  0  0  0  0  0  0  0  0
    1.6000    0.0000    0.0000 C   0  0  0  0  0  0  0  0  0  0  0  0
    2.4000    1.3856    0.0000 H   0  0  0  0  0  0  0  0  0  0  0  0
    2.4000   -1.3856    0.0000 Cl  0  0  0  0  0  0  0  0  0  0  0  0
  1  2  1  0  0  0  0
  2  3  1  0  0  0  0
  2  4  2  0  0  0  0
  4  5  1  0  0  0  0
  4  6  1  0  0  0  0
M  END
> <ChemID>
100726

> <source_casrn>
156-60-5

> <CAS>
156-60-5

> <SMILES>
C(=CCl)Cl

> <NAME>
TRANS 1,2-DICHLOROETHENE

> <preferred_name>
(E)-1,2-Dichloroethylene

> <iupac>
C2H2Cl2

> <MPID>
100735

> <dsstox_substance_id>
DTXSID7024031

> <Canonical_QSARr>
ClC=CCl

> <InChI_Code_QSARr>
InChI=1S/C2H2Cl2/c3-1-2-4/h1-2H/b2-1-

> <InChI Key_QSARr>
KFUSEUYYWQURPO-UPHRSURJSA-N

> <Salt_Solvent>
?

> <Ready_Biodeg>
0.0

$$$$
100728
  -INDIGO-08031722522D

 26 29  0  0  0  0  0  0  0  0999 V2000
    0.0000    0.0001    0.0000 C   0  0  0  0  0  0  0  0  0  0  0  0
    0.8000    1.3856    0.0000 C   0  0  0  0  0  0  0  0  0  0  0  0
    2.2889    0.8000    0.0000 C   0  0  0  0  0  0  0  0  0  0  0  0
    3.6747    1.6000    0.0000 C   0  0  0  0  0  0  0  0  0  0  0  0
    3.6747    3.2000    0.0000 H   0  0  0  0  0  0  0  0  0  0  0  0
    5.0603    0.8000    0.0000 C   0  0  0  0  0  0  0  0  0  0  0  0
    6.4459    1.6000    0.0000 H   0  0  0  0  0  0  0  0  0  0  0  0
    5.0603   -0.8000    0.0000 C   0  0  0  0  0  0  0  0  0  0  0  0
    6.4459   -1.6000    0.0000 H   0  0  0  0  0  0  0  0  0  0  0  0
    3.6747   -1.6000    0.0000 C   0  0  0  0  0  0  0  0  0  0  0  0
    3.6747   -3.2000    0.0000 H   0  0  0  0  0  0  0  0  0  0  0  0
    2.2889   -0.8000    0.0000 C   0  0  0  0  0  0  0  0  0  0  0  0
    0.8000   -1.3856    0.0000 C   0  0  0  0  0  0  0  0  0  0  0  0
    0.0000   -2.7712    0.0000 C   0  0  0  0  0  0  0  0  0  0  0  0
    0.8000   -4.1569    0.0000 H   0  0  0  0  0  0  0  0  0  0  0  0
   -1.6000   -2.7712    0.0000 C   0  0  0  0  0  0  0  0  0  0  0  0
   -2.4000   -4.1569    0.0000 H   0  0  0  0  0  0  0  0  0  0  0  0
   -2.4000   -1.3856    0.0000 C   0  0  0  0  0  0  0  0  0  0  0  0
   -1.6000    0.0001    0.0000 C   0  0  0  0  0  0  0  0  0  0  0  0
   -2.4000    1.3856    0.0000 C   0  0  0  0  0  0  0  0  0  0  0  0
   -4.0000    1.3856    0.0000 H   0  0  0  0  0  0  0  0  0  0  0  0
   -1.6000    2.7713    0.0000 C   0  0  0  0  0  0  0  0  0  0  0  0
   -2.4000    4.1569    0.0000 H   0  0  0  0  0  0  0  0  0  0  0  0
    0.0000    2.7713    0.0000 C   0  0  0  0  0  0  0  0  0  0  0  0
    0.8000    4.1569    0.0000 H   0  0  0  0  0  0  0  0  0  0  0  0
   -4.0000   -1.3856    0.0000 H   0  0  0  0  0  0  0  0  0  0  0  0
  1  2  2  0  0  0  0
  2  3  1  0  0  0  0
  3  4  1  0  0  0  0
  4  5  1  0  0  0  0
  4  6  2  0  0  0  0
  6  7  1  0  0  0  0
  6  8  1  0  0  0  0
  8  9  1  0  0  0  0
  8 10  2  0  0  0  0
 10 11  1  0  0  0  0
 10 12  1  0  0  0  0
 12  3  2  0  0  0  0
 12 13  1  0  0  0  0
 13  1  1  0  0  0  0
 13 14  2  0  0  0  0
 14 15  1  0  0  0  0
 14 16  1  0  0  0  0
 16 17  1  0  0  0  0
 16 18  2  0  0  0  0
 18 19  1  0  0  0  0
 19  1  1  0  0  0  0
 19 20  2  0  0  0  0
 20 21  1  0  0  0  0
 20 22  1  0  0  0  0
 22 23  1  0  0  0  0
 22 24  2  0  0  0  0
 24  2  1  0  0  0  0
 24 25  1  0  0  0  0
 18 26  1  0  0  0  0
M  END
> <ChemID>
100728

> <source_casrn>
206-44-0

> <CAS>
206-44-0

> <SMILES>
c1ccc2c3c(cccc31)-c1ccccc1-2

> <NAME>
FLUORANTHENE

> <preferred_name>
Fluoranthene

> <iupac>
fluoranthene

> <MPID>
100737

> <dsstox_substance_id>
DTXSID3024104

> <Canonical_QSARr>
c1ccc2c3c(cccc31)-c1ccccc1-2

> <InChI_Code_QSARr>
InChI=1S/C16H10/c1-2-8-13-12(7-1)14-9-3-5-11-6-4-10-15(13)16(11)14/h1-10H

> <InChI Key_QSARr>
GVEPBJHOBDJJJI-UHFFFAOYSA-N

> <Salt_Solvent>
?

> <Ready_Biodeg>
0.0

$$$$
100729
  -INDIGO-08031722522D

 32 36  0  0  0  0  0  0  0  0999 V2000
   -0.0000   -0.0000    0.0000 C   0  0  0  0  0  0  0  0  0  0  0  0
   -1.5913   -0.1673    0.0000 C   0  0  0  0  0  0  0  0  0  0  0  0
   -2.3340    1.2498    0.0000 C   0  0  0  0  0  0  0  0  0  0  0  0
   -3.9334    1.2934    0.0000 H   0  0  0  0  0  0  0  0  0  0  0  0
   -1.5153    2.6245    0.0000 C   0  0  0  0  0  0  0  0  0  0  0  0
   -2.3153    4.0102    0.0000 H   0  0  0  0  0  0  0  0  0  0  0  0
    0.0845    2.6462    0.0000 C   0  0  0  0  0  0  0  0  0  0  0  0
    0.8465    4.0532    0.0000 H   0  0  0  0  0  0  0  0  0  0  0  0
    0.9405    1.2944    0.0000 C   0  0  0  0  0  0  0  0  0  0  0  0
    2.4622    0.8000    0.0000 C   0  0  0  0  0  0  0  0  0  0  0  0
    2.4622   -0.8000    0.0000 C   0  0  0  0  0  0  0  0  0  0  0  0
    0.9405   -1.2944    0.0000 C   0  0  0  0  0  0  0  0  0  0  0  0
    0.2897   -2.7561    0.0000 C   0  0  0  0  0  0  0  0  0  0  0  0
    1.2302   -4.0505    0.0000 H   0  0  0  0  0  0  0  0  0  0  0  0
   -1.3016   -2.9234    0.0000 C   0  0  0  0  0  0  0  0  0  0  0  0
   -1.9524   -4.3850    0.0000 H   0  0  0  0  0  0  0  0  0  0  0  0
   -2.2419   -1.6289    0.0000 C   0  0  0  0  0  0  0  0  0  0  0  0
   -3.8332   -1.7962    0.0000 H   0  0  0  0  0  0  0  0  0  0  0  0
    3.8478   -1.6000    0.0000 C   0  0  0  0  0  0  0  0  0  0  0  0
    3.8478   -3.2001    0.0000 H   0  0  0  0  0  0  0  0  0  0  0  0
    5.2335   -0.8000    0.0000 C   0  0  0  0  0  0  0  0  0  0  0  0
    5.2335    0.8000    0.0000 C   0  0  0  0  0  0  0  0  0  0  0  0
    6.6191    1.6001    0.0000 C   0  0  0  0  0  0  0  0  0  0  0  0
    6.6191    3.2000    0.0000 H   0  0  0  0  0  0  0  0  0  0  0  0
    8.0048    0.8000    0.0000 C   0  0  0  0  0  0  0  0  0  0  0  0
    9.3904    1.6001    0.0000 H   0  0  0  0  0  0  0  0  0  0  0  0
    8.0048   -0.8000    0.0000 C   0  0  0  0  0  0  0  0  0  0  0  0
    9.3904   -1.6000    0.0000 H   0  0  0  0  0  0  0  0  0  0  0  0
    6.6191   -1.6000    0.0000 C   0  0  0  0  0  0  0  0  0  0  0  0
    6.6191   -3.2001    0.0000 H   0  0  0  0  0  0  0  0  0  0  0  0
    3.8478    1.6001    0.0000 C   0  0  0  0  0  0  0  0  0  0  0  0
    3.8478    3.2000    0.0000 H   0  0  0  0  0  0  0  0  0  0  0  0
  1  2  2  0  0  0  0
  2  3  1  0  0  0  0
  3  4  1  0  0  0  0
  3  5  2  0  0  0  0
  5  6  1  0  0  0  0
  5  7  1  0  0  0  0
  7  8  1  0  0  0  0
  7  9  2  0  0  0  0
  9  1  1  0  0  0  0
  9 10  1  0  0  0  0
 10 11  1  0  0  0  0
 11 12  1  0  0  0  0
 12  1  1  0  0  0  0
 12 13  2  0  0  0  0
 13 14  1  0  0  0  0
 13 15  1  0  0  0  0
 15 16  1  0  0  0  0
 15 17  2  0  0  0  0
 17  2  1  0  0  0  0
 17 18  1  0  0  0  0
 11 19  2  0  0  0  0
 19 20  1  0  0  0  0
 19 21  1  0  0  0  0
 21 22  1  0  0  0  0
 22 23  2  0  0  0  0
 23 24  1  0  0  0  0
 23 25  1  0  0  0  0
 25 26  1  0  0  0  0
 25 27  2  0  0  0  0
 27 28  1  0  0  0  0
 27 29  1  0  0  0  0
 29 21  2  0  0  0  0
 29 30  1  0  0  0  0
 22 31  1  0  0  0  0
 31 10  2  0  0  0  0
 31 32  1  0  0  0  0
M  END
> <ChemID>
100729

> <source_casrn>
207-08-9

> <CAS>
207-08-9

> <SMILES>
c1c2-c3cccc4cccc(c43)-c2cc2ccccc21

> <NAME>
BENZO(K)FLUORANTHENE

> <preferred_name>
Benzo(k)fluoranthene

> <iupac>
benzo[k]fluoranthene

> <MPID>
100738

> <dsstox_substance_id>
DTXSID0023909

> <Canonical_QSARr>
c1c2-c3cccc4cccc(c43)-c2cc2ccccc21

> <InChI_Code_QSARr>
InChI=1S/C20H12/c1-2-6-15-12-19-17-10-4-8-13-7-3-9-16(20(13)17)18(19)11-14(15)5-1/h1-12H

> <InChI Key_QSARr>
HAXBIWFMXWRORI-UHFFFAOYSA-N

> <Salt_Solvent>
?

> <Ready_Biodeg>
0.0

$$$$
100730
  -INDIGO-08031722522D

 20 22  0  0  0  0  0  0  0  0999 V2000
    0.8000    2.2890    0.0000 C   0  0  0  0  0  0  0  0  0  0  0  0
    1.7008    3.6113    0.0000 H   0  0  0  0  0  0  0  0  0  0  0  0
   -0.8000    2.2890    0.0000 C   0  0  0  0  0  0  0  0  0  0  0  0
   -1.7009    3.6113    0.0000 H   0  0  0  0  0  0  0  0  0  0  0  0
   -1.3856    0.8000    0.0000 C   0  0  0  0  0  0  0  0  0  0  0  0
    0.0001    0.0000    0.0000 C   0  0  0  0  0  0  0  0  0  0  0  0
    0.0001   -1.6000    0.0000 C   0  0  0  0  0  0  0  0  0  0  0  0
   -1.3856   -2.4000    0.0000 C   0  0  0  0  0  0  0  0  0  0  0  0
   -1.3856   -4.0000    0.0000 H   0  0  0  0  0  0  0  0  0  0  0  0
   -2.7713   -1.6000    0.0000 C   0  0  0  0  0  0  0  0  0  0  0  0
   -4.1569   -2.4000    0.0000 H   0  0  0  0  0  0  0  0  0  0  0  0
   -2.7712    0.0000    0.0000 C   0  0  0  0  0  0  0  0  0  0  0  0
   -4.1569    0.8000    0.0000 H   0  0  0  0  0  0  0  0  0  0  0  0
    1.3856   -2.4000    0.0000 C   0  0  0  0  0  0  0  0  0  0  0  0
    1.3856   -4.0000    0.0000 H   0  0  0  0  0  0  0  0  0  0  0  0
    2.7713   -1.6000    0.0000 C   0  0  0  0  0  0  0  0  0  0  0  0
    4.1569   -2.4000    0.0000 H   0  0  0  0  0  0  0  0  0  0  0  0
    2.7713    0.0000    0.0000 C   0  0  0  0  0  0  0  0  0  0  0  0
    4.1569    0.8000    0.0000 H   0  0  0  0  0  0  0  0  0  0  0  0
    1.3856    0.8000    0.0000 C   0  0  0  0  0  0  0  0  0  0  0  0
  1  2  1  0  0  0  0
  1  3  2  0  0  0  0
  3  4  1  0  0  0  0
  3  5  1  0  0  0  0
  5  6  1  0  0  0  0
  6  7  1  0  0  0  0
  7  8  1  0  0  0  0
  8  9  1  0  0  0  0
  8 10  2  0  0  0  0
 10 11  1  0  0  0  0
 10 12  1  0  0  0  0
 12  5  2  0  0  0  0
 12 13  1  0  0  0  0
  7 14  2  0  0  0  0
 14 15  1  0  0  0  0
 14 16  1  0  0  0  0
 16 17  1  0  0  0  0
 16 18  2  0  0  0  0
 18 19  1  0  0  0  0
 18 20  1  0  0  0  0
 20  1  1  0  0  0  0
 20  6  2  0  0  0  0
M  END
> <ChemID>
100730

> <source_casrn>
208-96-8

> <CAS>
208-96-8

> <SMILES>
c1ccc2C=Cc3cccc1c32

> <NAME>
Acenaphthylene

> <preferred_name>
Acenaphthylene

> <iupac>
acenaphthylene

> <MPID>
100739

> <dsstox_substance_id>
DTXSID3023845

> <Canonical_QSARr>
c1ccc2C=Cc3cccc1c32

> <InChI_Code_QSARr>
InChI=1S/C12H8/c1-3-9-4-2-6-11-8-7-10(5-1)12(9)11/h1-8H

> <InChI Key_QSARr>
HXGDTGSAIMULJN-UHFFFAOYSA-N

> <Salt_Solvent>
?

> <Ready_Biodeg>
1.0

$$$$
100732
  -INDIGO-08031722522D

 10 10  0  0  0  0  0  0  0  0999 V2000
    1.3856    2.4000    0.0000 N   0  0  0  0  0  0  0  0  0  0  0  0
    2.7713    1.6000    0.0000 C   0  0  0  0  0  0  0  0  0  0  0  0
    4.1569    2.4000    0.0000 H   0  0  0  0  0  0  0  0  0  0  0  0
    2.7713   -0.0000    0.0000 N   0  0  0  0  0  0  0  0  0  0  0  0
    1.3856   -0.8000    0.0000 C   0  0  0  0  0  0  0  0  0  0  0  0
    1.3856   -2.4000    0.0000 H   0  0  0  0  0  0  0  0  0  0  0  0
    0.0000    0.0000    0.0000 C   0  0  0  0  0  0  0  0  0  0  0  0
   -1.3856   -0.8000    0.0000 H   0  0  0  0  0  0  0  0  0  0  0  0
    0.0000    1.6000    0.0000 C   0  0  0  0  0  0  0  0  0  0  0  0
   -1.3856    2.4000    0.0000 H   0  0  0  0  0  0  0  0  0  0  0  0
  1  2  1  0  0  0  0
  2  3  1  0  0  0  0
  2  4  2  0  0  0  0
  4  5  1  0  0  0  0
  5  6  1  0  0  0  0
  5  7  2  0  0  0  0
  7  8  1  0  0  0  0
  7  9  1  0  0  0  0
  9  1  2  0  0  0  0
  9 10  1  0  0  0  0
M  END
> <ChemID>
100732

> <source_casrn>
289-95-2

> <CAS>
289-95-2

> <SMILES>
c1[n]ccc[n]1

> <NAME>
Pyrimidine

> <preferred_name>
Pyrimidine

> <iupac>
pyrimidine

> <MPID>
100741

> <dsstox_substance_id>
DTXSID1051228

> <Canonical_QSARr>
c1[n]ccc[n]1

> <InChI_Code_QSARr>
InChI=1S/C4H4N2/c1-2-5-4-6-3-1/h1-4H

> <InChI Key_QSARr>
CZPWVGJYEJSRLH-UHFFFAOYSA-N

> <Salt_Solvent>
?

> <Ready_Biodeg>
0.0

$$$$
100733
  -INDIGO-08031722522D

 10 10  0  0  0  0  0  0  0  0999 V2000
    1.3856    0.8000    0.0000 N   0  0  0  0  0  0  0  0  0  0  0  0
    2.7713   -0.0000    0.0000 C   0  0  0  0  0  0  0  0  0  0  0  0
    4.1569    0.8000    0.0000 H   0  0  0  0  0  0  0  0  0  0  0  0
    2.7713   -1.6000    0.0000 C   0  0  0  0  0  0  0  0  0  0  0  0
    4.1569   -2.4000    0.0000 H   0  0  0  0  0  0  0  0  0  0  0  0
    1.3856   -2.4000    0.0000 N   0  0  0  0  0  0  0  0  0  0  0  0
    0.0000   -1.6000    0.0000 C   0  0  0  0  0  0  0  0  0  0  0  0
   -1.3856   -2.4000    0.0000 H   0  0  0  0  0  0  0  0  0  0  0  0
    0.0000   -0.0000    0.0000 C   0  0  0  0  0  0  0  0  0  0  0  0
   -1.3856    0.8000    0.0000 H   0  0  0  0  0  0  0  0  0  0  0  0
  1  2  1  0  0  0  0
  2  3  1  0  0  0  0
  2  4  2  0  0  0  0
  4  5  1  0  0  0  0
  4  6  1  0  0  0  0
  6  7  2  0  0  0  0
  7  8  1  0  0  0  0
  7  9  1  0  0  0  0
  9  1  2  0  0  0  0
  9 10  1  0  0  0  0
M  END
> <ChemID>
100733

> <source_casrn>
290-37-9

> <CAS>
290-37-9

> <SMILES>
c1c[n]cc[n]1

> <NAME>
Pyrazine

> <preferred_name>
Pyrazine

> <iupac>
pyrazine

> <MPID>
100742

> <dsstox_substance_id>
DTXSID8049410

> <Canonical_QSARr>
c1c[n]cc[n]1

> <InChI_Code_QSARr>
InChI=1S/C4H4N2/c1-2-6-4-3-5-1/h1-4H

> <InChI Key_QSARr>
KYQCOXFCLRTKLS-UHFFFAOYSA-N

> <Salt_Solvent>
?

> <Ready_Biodeg>
1.0

$$$$
100734
  -INDIGO-08031722522D

 36 36  0  0  0  0  0  0  0  0999 V2000
    0.0001    0.0001    0.0000 C   0  0  0  0  0  0  0  0  0  0  0  0
    1.0285    1.2257    0.0000 H   0  0  0  0  0  0  0  0  0  0  0  0
   -0.2778    1.5757    0.0000 H   0  0  0  0  0  0  0  0  0  0  0  0
    1.3857   -0.7999    0.0000 C   0  0  0  0  0  0  0  0  0  0  0  0
    1.9329    0.7034    0.0000 H   0  0  0  0  0  0  0  0  0  0  0  0
    2.8891   -0.2527    0.0000 H   0  0  0  0  0  0  0  0  0  0  0  0
    2.1857   -2.1857    0.0000 C   0  0  0  0  0  0  0  0  0  0  0  0
    3.4114   -1.1571    0.0000 H   0  0  0  0  0  0  0  0  0  0  0  0
    3.7613   -2.4634    0.0000 H   0  0  0  0  0  0  0  0  0  0  0  0
    2.1857   -3.7857    0.0000 C   0  0  0  0  0  0  0  0  0  0  0  0
    3.7613   -3.5079    0.0000 H   0  0  0  0  0  0  0  0  0  0  0  0
    3.4114   -4.8141    0.0000 H   0  0  0  0  0  0  0  0  0  0  0  0
    1.3857   -5.1713    0.0000 C   0  0  0  0  0  0  0  0  0  0  0  0
    2.8891   -5.7185    0.0000 H   0  0  0  0  0  0  0  0  0  0  0  0
    1.9329   -6.6747    0.0000 H   0  0  0  0  0  0  0  0  0  0  0  0
   -0.0001   -5.9713    0.0000 C   0  0  0  0  0  0  0  0  0  0  0  0
    1.0285   -7.1970    0.0000 H   0  0  0  0  0  0  0  0  0  0  0  0
   -0.2778   -7.5470    0.0000 H   0  0  0  0  0  0  0  0  0  0  0  0
   -1.6001   -5.9713    0.0000 C   0  0  0  0  0  0  0  0  0  0  0  0
   -1.3222   -7.5470    0.0000 H   0  0  0  0  0  0  0  0  0  0  0  0
   -2.6285   -7.1970    0.0000 H   0  0  0  0  0  0  0  0  0  0  0  0
   -2.9857   -5.1713    0.0000 C   0  0  0  0  0  0  0  0  0  0  0  0
   -3.5329   -6.6747    0.0000 H   0  0  0  0  0  0  0  0  0  0  0  0
   -4.4891   -5.7185    0.0000 H   0  0  0  0  0  0  0  0  0  0  0  0
   -3.7857   -3.7856    0.0000 C   0  0  0  0  0  0  0  0  0  0  0  0
   -5.0114   -4.8141    0.0000 H   0  0  0  0  0  0  0  0  0  0  0  0
   -5.3613   -3.5079    0.0000 H   0  0  0  0  0  0  0  0  0  0  0  0
   -3.7857   -2.1856    0.0000 C   0  0  0  0  0  0  0  0  0  0  0  0
   -5.3613   -2.4634    0.0000 H   0  0  0  0  0  0  0  0  0  0  0  0
   -5.0114   -1.1571    0.0000 H   0  0  0  0  0  0  0  0  0  0  0  0
   -2.9857   -0.7999    0.0000 C   0  0  0  0  0  0  0  0  0  0  0  0
   -4.4891   -0.2527    0.0000 H   0  0  0  0  0  0  0  0  0  0  0  0
   -3.5329    0.7034    0.0000 H   0  0  0  0  0  0  0  0  0  0  0  0
   -1.6001    0.0001    0.0000 C   0  0  0  0  0  0  0  0  0  0  0  0
   -2.6285    1.2257    0.0000 H   0  0  0  0  0  0  0  0  0  0  0  0
   -1.3222    1.5757    0.0000 H   0  0  0  0  0  0  0  0  0  0  0  0
  1  2  1  0  0  0  0
  1  3  1  0  0  0  0
  1  4  1  0  0  0  0
  4  5  1  0  0  0  0
  4  6  1  0  0  0  0
  4  7  1  0  0  0  0
  7  8  1  0  0  0  0
  7  9  1  0  0  0  0
  7 10  1  0  0  0  0
 10 11  1  0  0  0  0
 10 12  1  0  0  0  0
 10 13  1  0  0  0  0
 13 14  1  0  0  0  0
 13 15  1  0  0  0  0
 13 16  1  0  0  0  0
 16 17  1  0  0  0  0
 16 18  1  0  0  0  0
 16 19  1  0  0  0  0
 19 20  1  0  0  0  0
 19 21  1  0  0  0  0
 19 22  1  0  0  0  0
 22 23  1  0  0  0  0
 22 24  1  0  0  0  0
 22 25  1  0  0  0  0
 25 26  1  0  0  0  0
 25 27  1  0  0  0  0
 25 28  1  0  0  0  0
 28 29  1  0  0  0  0
 28 30  1  0  0  0  0
 28 31  1  0  0  0  0
 31 32  1  0  0  0  0
 31 33  1  0  0  0  0
 31 34  1  0  0  0  0
 34  1  1  0  0  0  0
 34 35  1  0  0  0  0
 34 36  1  0  0  0  0
M  END
> <ChemID>
100734

> <source_casrn>
294-62-2

> <CAS>
294-62-2

> <SMILES>
C1CCCCCCCCCCC1

> <NAME>
Cyclododecane

> <preferred_name>
Cyclododecane

> <iupac>
cyclododecane

> <MPID>
100743

> <dsstox_substance_id>
DTXSID9021552

> <Canonical_QSARr>
C1CCCCCCCCCCC1

> <InChI_Code_QSARr>
InChI=1S/C12H24/c1-2-4-6-8-10-12-11-9-7-5-3-1/h1-12H2

> <InChI Key_QSARr>
DDTBPAQBQHZRDW-UHFFFAOYSA-N

> <Salt_Solvent>
?

> <Ready_Biodeg>
0.0

$$$$
100736
  -INDIGO-08031722522D

 56 55  0  0  0  0  0  0  0  0999 V2000
    4.1570   -0.8000    0.0000 P   0  0  0  0  0  0  0  0  0  0  0  0
    4.1570   -2.4000    0.0000 O   0  0  0  0  0  0  0  0  0  0  0  0
    5.5425   -1.6000    0.0000 O   0  0  0  0  0  0  0  0  0  0  0  0
    6.9283   -0.8000    0.0000 C   0  0  0  0  0  0  0  0  0  0  0  0
    6.3158    0.6782    0.0000 H   0  0  0  0  0  0  0  0  0  0  0  0
    7.5405    0.6782    0.0000 H   0  0  0  0  0  0  0  0  0  0  0  0
    8.3139   -1.6000    0.0000 C   0  0  0  0  0  0  0  0  0  0  0  0
    7.5138   -2.9856    0.0000 H   0  0  0  0  0  0  0  0  0  0  0  0
    9.6994   -2.4000    0.0000 C   0  0  0  0  0  0  0  0  0  0  0  0
    9.7692   -3.9984    0.0000 H   0  0  0  0  0  0  0  0  0  0  0  0
    8.6186   -3.5796    0.0000 H   0  0  0  0  0  0  0  0  0  0  0  0
   11.2995   -2.4000    0.0000 C   0  0  0  0  0  0  0  0  0  0  0  0
   11.5083   -0.8137    0.0000 H   0  0  0  0  0  0  0  0  0  0  0  0
   12.5688   -1.4261    0.0000 H   0  0  0  0  0  0  0  0  0  0  0  0
   12.0996   -3.7857    0.0000 C   0  0  0  0  0  0  0  0  0  0  0  0
   11.8907   -5.3719    0.0000 H   0  0  0  0  0  0  0  0  0  0  0  0
   10.8300   -4.7596    0.0000 H   0  0  0  0  0  0  0  0  0  0  0  0
   13.6994   -3.7857    0.0000 C   0  0  0  0  0  0  0  0  0  0  0  0
   15.2995   -3.7857    0.0000 H   0  0  0  0  0  0  0  0  0  0  0  0
   14.4994   -5.1713    0.0000 H   0  0  0  0  0  0  0  0  0  0  0  0
   14.4994   -2.4000    0.0000 H   0  0  0  0  0  0  0  0  0  0  0  0
    9.1139   -0.2143    0.0000 C   0  0  0  0  0  0  0  0  0  0  0  0
   10.6758    0.1319    0.0000 H   0  0  0  0  0  0  0  0  0  0  0  0
   10.4633   -1.0741    0.0000 H   0  0  0  0  0  0  0  0  0  0  0  0
    8.5667    1.2891    0.0000 C   0  0  0  0  0  0  0  0  0  0  0  0
    9.5950    2.5149    0.0000 H   0  0  0  0  0  0  0  0  0  0  0  0
    8.0195    2.7927    0.0000 H   0  0  0  0  0  0  0  0  0  0  0  0
   10.1422    1.0113    0.0000 H   0  0  0  0  0  0  0  0  0  0  0  0
    2.7711    0.0001    0.0000 O   0  0  0  0  0  0  0  0  0  0  0  0
    1.3856   -0.8000    0.0000 C   0  0  0  0  0  0  0  0  0  0  0  0
    1.9981   -2.2782    0.0000 H   0  0  0  0  0  0  0  0  0  0  0  0
    0.7734   -2.2782    0.0000 H   0  0  0  0  0  0  0  0  0  0  0  0
    0.0001    0.0001    0.0000 C   0  0  0  0  0  0  0  0  0  0  0  0
   -1.3858    0.8001    0.0000 H   0  0  0  0  0  0  0  0  0  0  0  0
   -1.0285   -1.2256    0.0000 C   0  0  0  0  0  0  0  0  0  0  0  0
   -2.0025    0.0436    0.0000 H   0  0  0  0  0  0  0  0  0  0  0  0
   -2.6147   -1.0168    0.0000 H   0  0  0  0  0  0  0  0  0  0  0  0
   -1.3062   -2.8014    0.0000 C   0  0  0  0  0  0  0  0  0  0  0  0
   -0.5675   -4.2206    0.0000 H   0  0  0  0  0  0  0  0  0  0  0  0
    0.2195   -3.2826    0.0000 H   0  0  0  0  0  0  0  0  0  0  0  0
   -2.8098   -3.3486    0.0000 C   0  0  0  0  0  0  0  0  0  0  0  0
   -3.5486   -1.9293    0.0000 H   0  0  0  0  0  0  0  0  0  0  0  0
   -4.3359   -2.8674    0.0000 H   0  0  0  0  0  0  0  0  0  0  0  0
   -3.0876   -4.9243    0.0000 C   0  0  0  0  0  0  0  0  0  0  0  0
   -3.3656   -6.5000    0.0000 H   0  0  0  0  0  0  0  0  0  0  0  0
   -4.5912   -5.4715    0.0000 H   0  0  0  0  0  0  0  0  0  0  0  0
   -1.8620   -5.9528    0.0000 H   0  0  0  0  0  0  0  0  0  0  0  0
    0.5473    1.5035    0.0000 C   0  0  0  0  0  0  0  0  0  0  0  0
    1.8967    2.3633    0.0000 H   0  0  0  0  0  0  0  0  0  0  0  0
    2.1092    1.1573    0.0000 H   0  0  0  0  0  0  0  0  0  0  0  0
   -0.4813    2.7291    0.0000 C   0  0  0  0  0  0  0  0  0  0  0  0
   -1.5096    3.9548    0.0000 H   0  0  0  0  0  0  0  0  0  0  0  0
    0.0659    4.2327    0.0000 H   0  0  0  0  0  0  0  0  0  0  0  0
   -2.0568    2.4514    0.0000 H   0  0  0  0  0  0  0  0  0  0  0  0
    5.5425    0.0001    0.0000 O   0  0  0  0  0  0  0  0  0  0  0  0
    5.5425    1.5999    0.0000 H   0  0  0  0  0  0  0  0  0  0  0  0
  1  2  2  0  0  0  0
  1  3  1  0  0  0  0
  3  4  1  0  0  0  0
  4  5  1  0  0  0  0
  4  6  1  0  0  0  0
  4  7  1  0  0  0  0
  7  8  1  0  0  0  0
  7  9  1  0  0  0  0
  9 10  1  0  0  0  0
  9 11  1  0  0  0  0
  9 12  1  0  0  0  0
 12 13  1  0  0  0  0
 12 14  1  0  0  0  0
 12 15  1  0  0  0  0
 15 16  1  0  0  0  0
 15 17  1  0  0  0  0
 15 18  1  0  0  0  0
 18 19  1  0  0  0  0
 18 20  1  0  0  0  0
 18 21  1  0  0  0  0
  7 22  1  0  0  0  0
 22 23  1  0  0  0  0
 22 24  1  0  0  0  0
 22 25  1  0  0  0  0
 25 26  1  0  0  0  0
 25 27  1  0  0  0  0
 25 28  1  0  0  0  0
  1 29  1  0  0  0  0
 29 30  1  0  0  0  0
 30 31  1  0  0  0  0
 30 32  1  0  0  0  0
 30 33  1  0  0  0  0
 33 34  1  0  0  0  0
 33 35  1  0  0  0  0
 35 36  1  0  0  0  0
 35 37  1  0  0  0  0
 35 38  1  0  0  0  0
 38 39  1  0  0  0  0
 38 40  1  0  0  0  0
 38 41  1  0  0  0  0
 41 42  1  0  0  0  0
 41 43  1  0  0  0  0
 41 44  1  0  0  0  0
 44 45  1  0  0  0  0
 44 46  1  0  0  0  0
 44 47  1  0  0  0  0
 33 48  1  0  0  0  0
 48 49  1  0  0  0  0
 48 50  1  0  0  0  0
 48 51  1  0  0  0  0
 51 52  1  0  0  0  0
 51 53  1  0  0  0  0
 51 54  1  0  0  0  0
  1 55  1  0  0  0  0
 55 56  1  0  0  0  0
M  END
> <ChemID>
100736

> <source_casrn>
298-07-7

> <CAS>
298-07-7

> <SMILES>
CCCCC(COP(O)(=O)OCC(CCCC)CC)CC

> <NAME>
Phosphoric acid, bis(2-ethylhexyl) ester

> <preferred_name>
Bis(2-ethylhexyl) phosphate

> <iupac>
bis(2-ethylhexyl) hydrogen phosphate

> <MPID>
100745

> <dsstox_substance_id>
DTXSID1027134

> <Canonical_QSARr>
CCCCC(COP(O)(=O)OCC(CCCC)CC)CC

> <InChI_Code_QSARr>
InChI=1S/C16H35O4P/c1-5-9-11-15(7-3)13-19-21(17,18)20-14-16(8-4)12-10-6-2/h15-16H,5-14H2,1-4H3,(H,17,18)

> <InChI Key_QSARr>
SEGLCEQVOFDUPX-UHFFFAOYSA-N

> <Salt_Solvent>
?

> <Ready_Biodeg>
0.0

$$$$
100738
  -INDIGO-08031722522D

 40 39  0  0  0  0  0  0  0  0999 V2000
    1.6000    0.0000    0.0000 C   0  0  0  0  0  0  0  0  0  0  0  0
    2.6285    1.2257    0.0000 C   0  0  0  0  0  0  0  0  0  0  0  0
    4.2041    0.9478    0.0000 C   0  0  0  0  0  0  0  0  0  0  0  0
    5.2326    2.1735    0.0000 C   0  0  0  0  0  0  0  0  0  0  0  0
    6.2610    3.3992    0.0000 F   0  0  0  0  0  0  0  0  0  0  0  0
    6.8083    1.8957    0.0000 F   0  0  0  0  0  0  0  0  0  0  0  0
    4.6853    3.6769    0.0000 F   0  0  0  0  0  0  0  0  0  0  0  0
    5.2850   -0.2319    0.0000 F   0  0  0  0  0  0  0  0  0  0  0  0
    4.1343   -0.6507    0.0000 F   0  0  0  0  0  0  0  0  0  0  0  0
    1.5475    2.4054    0.0000 F   0  0  0  0  0  0  0  0  0  0  0  0
    2.6983    2.8242    0.0000 F   0  0  0  0  0  0  0  0  0  0  0  0
    0.0001    0.0000    0.0000 N   0  0  0  0  0  0  0  0  0  0  0  0
   -0.8000    1.3856    0.0000 C   0  0  0  0  0  0  0  0  0  0  0  0
   -2.3757    1.6635    0.0000 C   0  0  0  0  0  0  0  0  0  0  0  0
   -2.9230    3.1670    0.0000 C   0  0  0  0  0  0  0  0  0  0  0  0
   -4.4986    3.4449    0.0000 C   0  0  0  0  0  0  0  0  0  0  0  0
   -6.0743    3.7226    0.0000 F   0  0  0  0  0  0  0  0  0  0  0  0
   -5.0458    4.9483    0.0000 F   0  0  0  0  0  0  0  0  0  0  0  0
   -5.5270    2.2192    0.0000 F   0  0  0  0  0  0  0  0  0  0  0  0
   -2.4418    4.6929    0.0000 F   0  0  0  0  0  0  0  0  0  0  0  0
   -1.5037    3.9057    0.0000 F   0  0  0  0  0  0  0  0  0  0  0  0
   -2.8568    0.1376    0.0000 F   0  0  0  0  0  0  0  0  0  0  0  0
   -3.7948    0.9248    0.0000 F   0  0  0  0  0  0  0  0  0  0  0  0
   -0.5912    2.9719    0.0000 F   0  0  0  0  0  0  0  0  0  0  0  0
    0.4693    2.3597    0.0000 F   0  0  0  0  0  0  0  0  0  0  0  0
   -0.8000   -1.3856    0.0000 C   0  0  0  0  0  0  0  0  0  0  0  0
   -0.2527   -2.8892    0.0000 C   0  0  0  0  0  0  0  0  0  0  0  0
   -1.2812   -4.1147    0.0000 C   0  0  0  0  0  0  0  0  0  0  0  0
   -0.7339   -5.6184    0.0000 C   0  0  0  0  0  0  0  0  0  0  0  0
   -0.1869   -7.1218    0.0000 F   0  0  0  0  0  0  0  0  0  0  0  0
   -1.7624   -6.8439    0.0000 F   0  0  0  0  0  0  0  0  0  0  0  0
    0.8416   -5.8961    0.0000 F   0  0  0  0  0  0  0  0  0  0  0  0
   -2.8434   -4.4612    0.0000 F   0  0  0  0  0  0  0  0  0  0  0  0
   -2.6307   -3.2552    0.0000 F   0  0  0  0  0  0  0  0  0  0  0  0
    1.3093   -2.5428    0.0000 F   0  0  0  0  0  0  0  0  0  0  0  0
    1.0966   -3.7488    0.0000 F   0  0  0  0  0  0  0  0  0  0  0  0
   -2.2782   -1.9980    0.0000 F   0  0  0  0  0  0  0  0  0  0  0  0
   -2.2782   -0.7734    0.0000 F   0  0  0  0  0  0  0  0  0  0  0  0
    2.8693   -0.9739    0.0000 F   0  0  0  0  0  0  0  0  0  0  0  0
    1.8088   -1.5863    0.0000 F   0  0  0  0  0  0  0  0  0  0  0  0
  1  2  1  0  0  0  0
  2  3  1  0  0  0  0
  3  4  1  0  0  0  0
  4  5  1  0  0  0  0
  4  6  1  0  0  0  0
  4  7  1  0  0  0  0
  3  8  1  0  0  0  0
  3  9  1  0  0  0  0
  2 10  1  0  0  0  0
  2 11  1  0  0  0  0
  1 12  1  0  0  0  0
 12 13  1  0  0  0  0
 13 14  1  0  0  0  0
 14 15  1  0  0  0  0
 15 16  1  0  0  0  0
 16 17  1  0  0  0  0
 16 18  1  0  0  0  0
 16 19  1  0  0  0  0
 15 20  1  0  0  0  0
 15 21  1  0  0  0  0
 14 22  1  0  0  0  0
 14 23  1  0  0  0  0
 13 24  1  0  0  0  0
 13 25  1  0  0  0  0
 12 26  1  0  0  0  0
 26 27  1  0  0  0  0
 27 28  1  0  0  0  0
 28 29  1  0  0  0  0
 29 30  1  0  0  0  0
 29 31  1  0  0  0  0
 29 32  1  0  0  0  0
 28 33  1  0  0  0  0
 28 34  1  0  0  0  0
 27 35  1  0  0  0  0
 27 36  1  0  0  0  0
 26 37  1  0  0  0  0
 26 38  1  0  0  0  0
  1 39  1  0  0  0  0
  1 40  1  0  0  0  0
M  END
> <ChemID>
100738

> <source_casrn>
311-89-7

> <CAS>
311-89-7

> <SMILES>
FC(F)(F)C(F)(F)C(F)(F)C(F)(F)N(C(F)(F)C(F)(F)C(F)(F)C(F)(F)F)C(F)(F)C(F)(F)C(F)(F)C(F)(F)F

> <NAME>
1-Butanamine, 1,1,2,2,3,3,4,4,4-nonafluoro-N,N-bis(nonafluorobutyl)-

> <preferred_name>
Perfluorotributylamine

> <iupac>
1,1,2,2,3,3,4,4,4-nonafluoro-N,N-bis(nonafluorobutyl)butan-1-amine

> <MPID>
100746

> <dsstox_substance_id>
DTXSID0027141

> <Canonical_QSARr>
FC(F)(F)C(F)(F)C(F)(F)C(F)(F)N(C(F)(F)C(F)(F)C(F)(F)C(F)(F)F)C(F)(F)C(F)(F)C(F)(F)C(F)(F)F

> <InChI_Code_QSARr>
InChI=1S/C12F27N/c13-1(14,7(25,26)27)4(19,20)10(34,35)40(11(36,37)5(21,22)2(15,16)8(28,29)30)12(38,39)6(23,24)3(17,18)9(31,32)33

> <InChI Key_QSARr>
RVZRBWKZFJCCIB-UHFFFAOYSA-N

> <Salt_Solvent>
?

> <Ready_Biodeg>
0.0

$$$$
100739
  -INDIGO-08031722522D

 18 18  0  0  0  0  0  0  0  0999 V2000
    0.0000    0.0000    0.0000 C   0  0  0  0  0  0  0  0  0  0  0  0
    1.5757   -0.2778    0.0000 H   0  0  0  0  0  0  0  0  0  0  0  0
   -1.3856    0.8000    0.0000 C   0  0  0  0  0  0  0  0  0  0  0  0
   -0.3571    2.0257    0.0000 H   0  0  0  0  0  0  0  0  0  0  0  0
   -2.4141    2.0257    0.0000 Cl  0  0  0  0  0  0  0  0  0  0  0  0
   -2.7713    0.0000    0.0000 C   0  0  0  0  0  0  0  0  0  0  0  0
   -3.3185    1.5035    0.0000 H   0  0  0  0  0  0  0  0  0  0  0  0
   -4.3470   -0.2778    0.0000 Cl  0  0  0  0  0  0  0  0  0  0  0  0
   -2.7713   -1.6000    0.0000 C   0  0  0  0  0  0  0  0  0  0  0  0
   -4.3470   -1.3222    0.0000 H   0  0  0  0  0  0  0  0  0  0  0  0
   -3.3185   -3.1035    0.0000 Cl  0  0  0  0  0  0  0  0  0  0  0  0
   -1.3856   -2.4000    0.0000 C   0  0  0  0  0  0  0  0  0  0  0  0
   -2.4141   -3.6257    0.0000 H   0  0  0  0  0  0  0  0  0  0  0  0
   -0.3571   -3.6257    0.0000 Cl  0  0  0  0  0  0  0  0  0  0  0  0
    0.0000   -1.6000    0.0000 C   0  0  0  0  0  0  0  0  0  0  0  0
    0.5472   -3.1035    0.0000 H   0  0  0  0  0  0  0  0  0  0  0  0
    1.5757   -1.3222    0.0000 Cl  0  0  0  0  0  0  0  0  0  0  0  0
    0.5472    1.5035    0.0000 Cl  0  0  0  0  0  0  0  0  0  0  0  0
  1  2  1  0  0  0  0
  1  3  1  0  0  0  0
  3  4  1  0  0  0  0
  3  5  1  0  0  0  0
  3  6  1  0  0  0  0
  6  7  1  0  0  0  0
  6  8  1  0  0  0  0
  6  9  1  0  0  0  0
  9 10  1  0  0  0  0
  9 11  1  0  0  0  0
  9 12  1  0  0  0  0
 12 13  1  0  0  0  0
 12 14  1  0  0  0  0
 12 15  1  0  0  0  0
 15  1  1  0  0  0  0
 15 16  1  0  0  0  0
 15 17  1  0  0  0  0
  1 18  1  0  0  0  0
M  END
> <ChemID>
100739

> <source_casrn>
319-86-8

> <CAS>
319-86-8

> <SMILES>
Cl[C@@H]1[C@H](Cl)[C@@H](Cl)[C@H](Cl)[C@@H](Cl)[C@@H]1Cl |&1:1,2,4,6,8,10|

> <NAME>
delta-Hexachlorocyclohexane

> <preferred_name>
delta-Hexachlorocyclohexane

> <iupac>


> <MPID>
100747

> <dsstox_substance_id>
DTXSID5024134

> <Canonical_QSARr>
ClC1C(Cl)C(Cl)C(Cl)C(Cl)C1Cl

> <InChI_Code_QSARr>
InChI=1S/C6H6Cl6/c7-1-2(8)4(10)6(12)5(11)3(1)9/h1-6H

> <InChI Key_QSARr>
JLYXXMFPNIAWKQ-UHFFFAOYSA-N

> <Salt_Solvent>
?

> <Ready_Biodeg>
0.0

$$$$
100741
  -INDIGO-08031722522D

 25 25  0  0  0  0  0  0  0  0999 V2000
    2.3999   -1.3856    0.0000 C   0  0  0  0  0  0  0  0  0  0  0  0
    1.6001    0.0000    0.0000 N   0  0  0  0  0  0  0  0  0  0  0  0
    2.3999    1.3856    0.0000 H   0  0  0  0  0  0  0  0  0  0  0  0
    0.0001    0.0000    0.0000 C   0  0  0  0  0  0  0  0  0  0  0  0
   -0.7999    1.3856    0.0000 C   0  0  0  0  0  0  0  0  0  0  0  0
    0.0001    2.7713    0.0000 H   0  0  0  0  0  0  0  0  0  0  0  0
   -2.4000    1.3856    0.0000 C   0  0  0  0  0  0  0  0  0  0  0  0
   -3.2000    2.7713    0.0000 Cl  0  0  0  0  0  0  0  0  0  0  0  0
   -3.2000    0.0000    0.0000 C   0  0  0  0  0  0  0  0  0  0  0  0
   -4.8000    0.0000    0.0000 Cl  0  0  0  0  0  0  0  0  0  0  0  0
   -2.4000   -1.3856    0.0000 C   0  0  0  0  0  0  0  0  0  0  0  0
   -3.2000   -2.7713    0.0000 H   0  0  0  0  0  0  0  0  0  0  0  0
   -0.7999   -1.3856    0.0000 C   0  0  0  0  0  0  0  0  0  0  0  0
    0.0001   -2.7713    0.0000 H   0  0  0  0  0  0  0  0  0  0  0  0
    3.9999   -1.3856    0.0000 N   0  0  0  0  0  0  0  0  0  0  0  0
    4.8000    0.0000    0.0000 O   0  0  0  0  0  0  0  0  0  0  0  0
    6.4000    0.0000    0.0000 C   0  0  0  0  0  0  0  0  0  0  0  0
    8.0000    0.0000    0.0000 H   0  0  0  0  0  0  0  0  0  0  0  0
    7.2000    1.3856    0.0000 H   0  0  0  0  0  0  0  0  0  0  0  0
    5.6000    1.3856    0.0000 H   0  0  0  0  0  0  0  0  0  0  0  0
    4.8000   -2.7713    0.0000 C   0  0  0  0  0  0  0  0  0  0  0  0
    5.6000   -4.1569    0.0000 H   0  0  0  0  0  0  0  0  0  0  0  0
    6.4000   -2.7713    0.0000 H   0  0  0  0  0  0  0  0  0  0  0  0
    3.9999   -4.1569    0.0000 H   0  0  0  0  0  0  0  0  0  0  0  0
    1.6001   -2.7713    0.0000 O   0  0  0  0  0  0  0  0  0  0  0  0
  1  2  1  0  0  0  0
  2  3  1  0  0  0  0
  2  4  1  0  0  0  0
  4  5  1  0  0  0  0
  5  6  1  0  0  0  0
  5  7  2  0  0  0  0
  7  8  1  0  0  0  0
  7  9  1  0  0  0  0
  9 10  1  0  0  0  0
  9 11  2  0  0  0  0
 11 12  1  0  0  0  0
 11 13  1  0  0  0  0
 13  4  2  0  0  0  0
 13 14  1  0  0  0  0
  1 15  1  0  0  0  0
 15 16  1  0  0  0  0
 16 17  1  0  0  0  0
 17 18  1  0  0  0  0
 17 19  1  0  0  0  0
 17 20  1  0  0  0  0
 15 21  1  0  0  0  0
 21 22  1  0  0  0  0
 21 23  1  0  0  0  0
 21 24  1  0  0  0  0
  1 25  2  0  0  0  0
M  END
> <ChemID>
100741

> <source_casrn>
330-55-2

> <CAS>
330-55-2

> <SMILES>
CON(C)C(=O)Nc1cc(Cl)c(Cl)cc1

> <NAME>
Linuron

> <preferred_name>
Linuron

> <iupac>
3-(3,4-dichlorophenyl)-1-methoxy-1-methylurea

> <MPID>
100749

> <dsstox_substance_id>
DTXSID2024163

> <Canonical_QSARr>
CON(C)C(=O)Nc1cc(Cl)c(Cl)cc1

> <InChI_Code_QSARr>
InChI=1S/C9H10Cl2N2O2/c1-13(15-2)9(14)12-6-3-4-7(10)8(11)5-6/h3-5H,1-2H3,(H,12,14)

> <InChI Key_QSARr>
XKJMBINCVNINCA-UHFFFAOYSA-N

> <Salt_Solvent>
?

> <Ready_Biodeg>
0.0

$$$$
100742
  -INDIGO-08031722522D

 40 40  0  0  0  0  0  0  0  0999 V2000
   -4.8000    0.0000    0.0000 S   0  0  0  0  0  0  0  0  0  0  0  0
   -5.6000   -1.3856    0.0000 P   0  0  0  0  0  0  0  0  0  0  0  0
   -4.8000   -2.7713    0.0000 O   0  0  0  0  0  0  0  0  0  0  0  0
   -3.2000   -2.7713    0.0000 C   0  0  0  0  0  0  0  0  0  0  0  0
   -2.4000   -1.3856    0.0000 N   0  0  0  0  0  0  0  0  0  0  0  0
   -0.8000   -1.3856    0.0000 C   0  0  0  0  0  0  0  0  0  0  0  0
    0.0000    0.0000    0.0000 C   0  0  0  0  0  0  0  0  0  0  0  0
    1.3856   -0.8001    0.0000 H   0  0  0  0  0  0  0  0  0  0  0  0
    0.8000    1.3857    0.0000 C   0  0  0  0  0  0  0  0  0  0  0  0
    1.6000    2.7713    0.0000 H   0  0  0  0  0  0  0  0  0  0  0  0
    2.4000    1.3857    0.0000 H   0  0  0  0  0  0  0  0  0  0  0  0
    0.0000    2.7713    0.0000 H   0  0  0  0  0  0  0  0  0  0  0  0
   -1.3856    0.8000    0.0000 C   0  0  0  0  0  0  0  0  0  0  0  0
   -2.7713    1.6000    0.0000 H   0  0  0  0  0  0  0  0  0  0  0  0
   -1.3856    2.3999    0.0000 H   0  0  0  0  0  0  0  0  0  0  0  0
   -2.7713    0.0000    0.0000 H   0  0  0  0  0  0  0  0  0  0  0  0
    0.0000   -2.7713    0.0000 N   0  0  0  0  0  0  0  0  0  0  0  0
   -0.8000   -4.1570    0.0000 C   0  0  0  0  0  0  0  0  0  0  0  0
    0.0000   -5.5426    0.0000 C   0  0  0  0  0  0  0  0  0  0  0  0
    0.8000   -6.9282    0.0000 H   0  0  0  0  0  0  0  0  0  0  0  0
    1.6000   -5.5426    0.0000 H   0  0  0  0  0  0  0  0  0  0  0  0
   -0.8000   -6.9282    0.0000 H   0  0  0  0  0  0  0  0  0  0  0  0
   -2.4000   -4.1570    0.0000 C   0  0  0  0  0  0  0  0  0  0  0  0
   -3.2000   -5.5426    0.0000 H   0  0  0  0  0  0  0  0  0  0  0  0
   -7.2000   -1.3856    0.0000 O   0  0  0  0  0  0  0  0  0  0  0  0
   -8.0000   -2.7713    0.0000 C   0  0  0  0  0  0  0  0  0  0  0  0
   -7.7912   -4.3577    0.0000 H   0  0  0  0  0  0  0  0  0  0  0  0
   -6.7306   -3.7454    0.0000 H   0  0  0  0  0  0  0  0  0  0  0  0
   -9.6000   -2.7713    0.0000 C   0  0  0  0  0  0  0  0  0  0  0  0
  -11.2000   -2.7713    0.0000 H   0  0  0  0  0  0  0  0  0  0  0  0
  -10.4000   -4.1570    0.0000 H   0  0  0  0  0  0  0  0  0  0  0  0
  -10.4000   -1.3856    0.0000 H   0  0  0  0  0  0  0  0  0  0  0  0
   -6.4000    0.0000    0.0000 O   0  0  0  0  0  0  0  0  0  0  0  0
   -8.0000    0.0000    0.0000 C   0  0  0  0  0  0  0  0  0  0  0  0
   -9.2694   -0.9740    0.0000 H   0  0  0  0  0  0  0  0  0  0  0  0
   -8.2088   -1.5863    0.0000 H   0  0  0  0  0  0  0  0  0  0  0  0
   -8.8000    1.3857    0.0000 C   0  0  0  0  0  0  0  0  0  0  0  0
   -9.6000    2.7713    0.0000 H   0  0  0  0  0  0  0  0  0  0  0  0
  -10.4000    1.3857    0.0000 H   0  0  0  0  0  0  0  0  0  0  0  0
   -8.0000    2.7713    0.0000 H   0  0  0  0  0  0  0  0  0  0  0  0
  1  2  2  0  0  0  0
  2  3  1  0  0  0  0
  3  4  1  0  0  0  0
  4  5  1  0  0  0  0
  5  6  2  0  0  0  0
  6  7  1  0  0  0  0
  7  8  1  0  0  0  0
  7  9  1  0  0  0  0
  9 10  1  0  0  0  0
  9 11  1  0  0  0  0
  9 12  1  0  0  0  0
  7 13  1  0  0  0  0
 13 14  1  0  0  0  0
 13 15  1  0  0  0  0
 13 16  1  0  0  0  0
  6 17  1  0  0  0  0
 17 18  2  0  0  0  0
 18 19  1  0  0  0  0
 19 20  1  0  0  0  0
 19 21  1  0  0  0  0
 19 22  1  0  0  0  0
 18 23  1  0  0  0  0
 23  4  2  0  0  0  0
 23 24  1  0  0  0  0
  2 25  1  0  0  0  0
 25 26  1  0  0  0  0
 26 27  1  0  0  0  0
 26 28  1  0  0  0  0
 26 29  1  0  0  0  0
 29 30  1  0  0  0  0
 29 31  1  0  0  0  0
 29 32  1  0  0  0  0
  2 33  1  0  0  0  0
 33 34  1  0  0  0  0
 34 35  1  0  0  0  0
 34 36  1  0  0  0  0
 34 37  1  0  0  0  0
 37 38  1  0  0  0  0
 37 39  1  0  0  0  0
 37 40  1  0  0  0  0
M  END
> <ChemID>
100742

> <source_casrn>
333-41-5

> <CAS>
333-41-5

> <SMILES>
Cc1cc([n]c([n]1)C(C)C)OP(=S)(OCC)OCC

> <NAME>
Diazinon

> <preferred_name>
Diazinon

> <iupac>
O,O-diethyl O-[6-methyl-2-(propan-2-yl)pyrimidin-4-yl] phosphorothioate

> <MPID>
100750

> <dsstox_substance_id>
DTXSID9020407

> <Canonical_QSARr>
Cc1cc([n]c([n]1)C(C)C)OP(=S)(OCC)OCC

> <InChI_Code_QSARr>
InChI=1S/C12H21N2O3PS/c1-6-15-18(19,16-7-2)17-11-8-10(5)13-12(14-11)9(3)4/h8-9H,6-7H2,1-5H3

> <InChI Key_QSARr>
FHIVAFMUCKRCQO-UHFFFAOYSA-N

> <Salt_Solvent>
?

> <Ready_Biodeg>
0.0

$$$$
100743
  -INDIGO-08031722522D

 32 31  0  0  0  0  0  0  0  0999 V2000
    5.5426    0.0000    0.0000 C   0  0  0  0  0  0  0  0  0  0  0  0
    6.9282   -0.8000    0.0000 H   0  0  0  0  0  0  0  0  0  0  0  0
    6.9282    0.8000    0.0000 H   0  0  0  0  0  0  0  0  0  0  0  0
    5.5426   -1.6000    0.0000 H   0  0  0  0  0  0  0  0  0  0  0  0
    4.1570    0.8000    0.0000 C   0  0  0  0  0  0  0  0  0  0  0  0
    4.7693    2.2782    0.0000 H   0  0  0  0  0  0  0  0  0  0  0  0
    3.5446    2.2782    0.0000 H   0  0  0  0  0  0  0  0  0  0  0  0
    2.7712    0.0000    0.0000 C   0  0  0  0  0  0  0  0  0  0  0  0
    2.1590   -1.4782    0.0000 H   0  0  0  0  0  0  0  0  0  0  0  0
    3.3834   -1.4782    0.0000 H   0  0  0  0  0  0  0  0  0  0  0  0
    1.3856    0.8000    0.0000 C   0  0  0  0  0  0  0  0  0  0  0  0
    1.9979    2.2782    0.0000 H   0  0  0  0  0  0  0  0  0  0  0  0
    0.7734    2.2782    0.0000 H   0  0  0  0  0  0  0  0  0  0  0  0
    0.0001    0.0000    0.0000 C   0  0  0  0  0  0  0  0  0  0  0  0
   -0.6122   -1.4782    0.0000 H   0  0  0  0  0  0  0  0  0  0  0  0
    0.6123   -1.4782    0.0000 H   0  0  0  0  0  0  0  0  0  0  0  0
   -1.3855    0.8000    0.0000 C   0  0  0  0  0  0  0  0  0  0  0  0
   -0.7733    2.2782    0.0000 H   0  0  0  0  0  0  0  0  0  0  0  0
   -1.9980    2.2782    0.0000 H   0  0  0  0  0  0  0  0  0  0  0  0
   -2.7713    0.0000    0.0000 C   0  0  0  0  0  0  0  0  0  0  0  0
   -3.3836   -1.4782    0.0000 H   0  0  0  0  0  0  0  0  0  0  0  0
   -2.1591   -1.4782    0.0000 H   0  0  0  0  0  0  0  0  0  0  0  0
   -4.1569    0.8000    0.0000 C   0  0  0  0  0  0  0  0  0  0  0  0
   -3.5447    2.2782    0.0000 H   0  0  0  0  0  0  0  0  0  0  0  0
   -4.7692    2.2782    0.0000 H   0  0  0  0  0  0  0  0  0  0  0  0
   -5.5425    0.0000    0.0000 C   0  0  0  0  0  0  0  0  0  0  0  0
   -6.1547   -1.4782    0.0000 H   0  0  0  0  0  0  0  0  0  0  0  0
   -4.9303   -1.4782    0.0000 H   0  0  0  0  0  0  0  0  0  0  0  0
   -6.9281    0.8000    0.0000 C   0  0  0  0  0  0  0  0  0  0  0  0
   -8.3139    0.0000    0.0000 O   0  0  0  0  0  0  0  0  0  0  0  0
   -9.6995    0.8000    0.0000 H   0  0  0  0  0  0  0  0  0  0  0  0
   -6.9281    2.4000    0.0000 O   0  0  0  0  0  0  0  0  0  0  0  0
  1  2  1  0  0  0  0
  1  3  1  0  0  0  0
  1  4  1  0  0  0  0
  1  5  1  0  0  0  0
  5  6  1  0  0  0  0
  5  7  1  0  0  0  0
  5  8  1  0  0  0  0
  8  9  1  0  0  0  0
  8 10  1  0  0  0  0
  8 11  1  0  0  0  0
 11 12  1  0  0  0  0
 11 13  1  0  0  0  0
 11 14  1  0  0  0  0
 14 15  1  0  0  0  0
 14 16  1  0  0  0  0
 14 17  1  0  0  0  0
 17 18  1  0  0  0  0
 17 19  1  0  0  0  0
 17 20  1  0  0  0  0
 20 21  1  0  0  0  0
 20 22  1  0  0  0  0
 20 23  1  0  0  0  0
 23 24  1  0  0  0  0
 23 25  1  0  0  0  0
 23 26  1  0  0  0  0
 26 27  1  0  0  0  0
 26 28  1  0  0  0  0
 26 29  1  0  0  0  0
 29 30  1  0  0  0  0
 30 31  1  0  0  0  0
 29 32  2  0  0  0  0
M  END
> <ChemID>
100743

> <source_casrn>
334-48-5

> <CAS>
334-48-5

> <SMILES>
CCCCCCCCCC(O)=O

> <NAME>
Decanoic acid

> <preferred_name>
Decanoic acid

> <iupac>
decanoic acid

> <MPID>
100751

> <dsstox_substance_id>
DTXSID9021554

> <Canonical_QSARr>
CCCCCCCCCC(O)=O

> <InChI_Code_QSARr>
InChI=1S/C10H20O2/c1-2-3-4-5-6-7-8-9-10(11)12/h2-9H2,1H3,(H,11,12)

> <InChI Key_QSARr>
GHVNFZFCNZKVNT-UHFFFAOYSA-N

> <Salt_Solvent>
?

> <Ready_Biodeg>
1.0

$$$$
100745
  -INDIGO-08031722522D

 13 13  0  0  0  0  0  0  0  0999 V2000
   -0.0000   -0.0000    0.0000 C   0  0  0  0  0  0  0  0  0  0  0  0
    0.8000    1.3856    0.0000 O   0  0  0  0  0  0  0  0  0  0  0  0
    2.4000    1.3856    0.0000 H   0  0  0  0  0  0  0  0  0  0  0  0
    0.8000   -1.3857    0.0000 C   0  0  0  0  0  0  0  0  0  0  0  0
    2.4000   -1.3857    0.0000 F   0  0  0  0  0  0  0  0  0  0  0  0
   -0.0000   -2.7713    0.0000 C   0  0  0  0  0  0  0  0  0  0  0  0
    0.8000   -4.1569    0.0000 H   0  0  0  0  0  0  0  0  0  0  0  0
   -1.6000   -2.7713    0.0000 C   0  0  0  0  0  0  0  0  0  0  0  0
   -2.4000   -4.1569    0.0000 H   0  0  0  0  0  0  0  0  0  0  0  0
   -2.4000   -1.3856    0.0000 C   0  0  0  0  0  0  0  0  0  0  0  0
   -4.0000   -1.3856    0.0000 H   0  0  0  0  0  0  0  0  0  0  0  0
   -1.6000   -0.0000    0.0000 C   0  0  0  0  0  0  0  0  0  0  0  0
   -2.4000    1.3856    0.0000 H   0  0  0  0  0  0  0  0  0  0  0  0
  1  2  1  0  0  0  0
  2  3  1  0  0  0  0
  1  4  1  0  0  0  0
  4  5  1  0  0  0  0
  4  6  2  0  0  0  0
  6  7  1  0  0  0  0
  6  8  1  0  0  0  0
  8  9  1  0  0  0  0
  8 10  2  0  0  0  0
 10 11  1  0  0  0  0
 10 12  1  0  0  0  0
 12  1  2  0  0  0  0
 12 13  1  0  0  0  0
M  END
> <ChemID>
100745

> <source_casrn>
367-12-4

> <CAS>
367-12-4

> <SMILES>
Oc1ccccc1F

> <NAME>
2-FLUOROPHENOL

> <preferred_name>
2-Fluorophenol

> <iupac>
2-fluorophenol

> <MPID>
100753

> <dsstox_substance_id>
DTXSID0047745

> <Canonical_QSARr>
Oc1ccccc1F

> <InChI_Code_QSARr>
InChI=1S/C6H5FO/c7-5-3-1-2-4-6(5)8/h1-4,8H

> <InChI Key_QSARr>
HFHFGHLXUCOHLN-UHFFFAOYSA-N

> <Salt_Solvent>
?

> <Ready_Biodeg>
0.0

$$$$
100746
  -INDIGO-08031722522D

 30 29  0  0  0  0  0  0  0  0999 V2000
    5.5425    0.0000    0.0000 N   0  0  0  0  0  0  0  0  0  0  0  0
    6.9282   -0.8000    0.0000 H   0  0  0  0  0  0  0  0  0  0  0  0
    5.5425    1.6000    0.0000 H   0  0  0  0  0  0  0  0  0  0  0  0
    4.1570   -0.8000    0.0000 C   0  0  0  0  0  0  0  0  0  0  0  0
    3.5446   -2.2782    0.0000 H   0  0  0  0  0  0  0  0  0  0  0  0
    4.7692   -2.2782    0.0000 H   0  0  0  0  0  0  0  0  0  0  0  0
    2.7713    0.0000    0.0000 C   0  0  0  0  0  0  0  0  0  0  0  0
    3.3835    1.4782    0.0000 H   0  0  0  0  0  0  0  0  0  0  0  0
    2.1589    1.4782    0.0000 H   0  0  0  0  0  0  0  0  0  0  0  0
    1.3856   -0.8000    0.0000 C   0  0  0  0  0  0  0  0  0  0  0  0
    0.7732   -2.2782    0.0000 H   0  0  0  0  0  0  0  0  0  0  0  0
    1.9980   -2.2782    0.0000 H   0  0  0  0  0  0  0  0  0  0  0  0
   -0.0001    0.0000    0.0000 C   0  0  0  0  0  0  0  0  0  0  0  0
    0.6123    1.4782    0.0000 H   0  0  0  0  0  0  0  0  0  0  0  0
   -0.6122    1.4782    0.0000 H   0  0  0  0  0  0  0  0  0  0  0  0
   -1.3856   -0.8000    0.0000 C   0  0  0  0  0  0  0  0  0  0  0  0
   -1.9979   -2.2782    0.0000 H   0  0  0  0  0  0  0  0  0  0  0  0
   -0.7734   -2.2782    0.0000 H   0  0  0  0  0  0  0  0  0  0  0  0
   -2.7713    0.0000    0.0000 C   0  0  0  0  0  0  0  0  0  0  0  0
   -2.1589    1.4782    0.0000 H   0  0  0  0  0  0  0  0  0  0  0  0
   -3.3836    1.4782    0.0000 H   0  0  0  0  0  0  0  0  0  0  0  0
   -4.1570   -0.8000    0.0000 C   0  0  0  0  0  0  0  0  0  0  0  0
   -4.7691   -2.2782    0.0000 H   0  0  0  0  0  0  0  0  0  0  0  0
   -3.5446   -2.2782    0.0000 H   0  0  0  0  0  0  0  0  0  0  0  0
   -5.5427    0.0000    0.0000 C   0  0  0  0  0  0  0  0  0  0  0  0
   -4.9303    1.4782    0.0000 H   0  0  0  0  0  0  0  0  0  0  0  0
   -6.1548    1.4782    0.0000 H   0  0  0  0  0  0  0  0  0  0  0  0
   -6.9281   -0.8000    0.0000 N   0  0  0  0  0  0  0  0  0  0  0  0
   -8.3138    0.0000    0.0000 H   0  0  0  0  0  0  0  0  0  0  0  0
   -6.9281   -2.4000    0.0000 H   0  0  0  0  0  0  0  0  0  0  0  0
  1  2  1  0  0  0  0
  1  3  1  0  0  0  0
  1  4  1  0  0  0  0
  4  5  1  0  0  0  0
  4  6  1  0  0  0  0
  4  7  1  0  0  0  0
  7  8  1  0  0  0  0
  7  9  1  0  0  0  0
  7 10  1  0  0  0  0
 10 11  1  0  0  0  0
 10 12  1  0  0  0  0
 10 13  1  0  0  0  0
 13 14  1  0  0  0  0
 13 15  1  0  0  0  0
 13 16  1  0  0  0  0
 16 17  1  0  0  0  0
 16 18  1  0  0  0  0
 16 19  1  0  0  0  0
 19 20  1  0  0  0  0
 19 21  1  0  0  0  0
 19 22  1  0  0  0  0
 22 23  1  0  0  0  0
 22 24  1  0  0  0  0
 22 25  1  0  0  0  0
 25 26  1  0  0  0  0
 25 27  1  0  0  0  0
 25 28  1  0  0  0  0
 28 29  1  0  0  0  0
 28 30  1  0  0  0  0
M  END
> <ChemID>
100746

> <source_casrn>
373-44-4

> <CAS>
373-44-4

> <SMILES>
NCCCCCCCCN

> <NAME>
1,8-OCTANEDIAMINE

> <preferred_name>
1,8-Octanediamine

> <iupac>
octane-1,8-diamine

> <MPID>
100754

> <dsstox_substance_id>
DTXSID9073173

> <Canonical_QSARr>
NCCCCCCCCN

> <InChI_Code_QSARr>
InChI=1S/C8H20N2/c9-7-5-3-1-2-4-6-8-10/h1-10H2

> <InChI Key_QSARr>
PWGJDPKCLMLPJW-UHFFFAOYSA-N

> <Salt_Solvent>
?

> <Ready_Biodeg>
1.0

$$$$
100750
  -INDIGO-08031722522D

 17 17  0  0  0  0  0  0  0  0999 V2000
    3.2000    2.7713    0.0000 O   0  0  0  0  0  0  0  0  0  0  0  0
    4.8000    2.7713    0.0000 H   0  0  0  0  0  0  0  0  0  0  0  0
    2.4000    1.3856    0.0000 C   0  0  0  0  0  0  0  0  0  0  0  0
    3.2000   -0.0000    0.0000 C   0  0  0  0  0  0  0  0  0  0  0  0
    4.8000   -0.0000    0.0000 O   0  0  0  0  0  0  0  0  0  0  0  0
    5.6000   -1.3856    0.0000 H   0  0  0  0  0  0  0  0  0  0  0  0
    2.4000   -1.3856    0.0000 C   0  0  0  0  0  0  0  0  0  0  0  0
    3.2000   -2.7713    0.0000 H   0  0  0  0  0  0  0  0  0  0  0  0
    0.8000   -1.3856    0.0000 C   0  0  0  0  0  0  0  0  0  0  0  0
    0.0000   -2.7713    0.0000 H   0  0  0  0  0  0  0  0  0  0  0  0
    0.0000   -0.0000    0.0000 C   0  0  0  0  0  0  0  0  0  0  0  0
   -1.6001   -0.0000    0.0000 C   0  0  0  0  0  0  0  0  0  0  0  0
   -3.2000    0.0000    0.0000 H   0  0  0  0  0  0  0  0  0  0  0  0
   -2.4000   -1.3856    0.0000 H   0  0  0  0  0  0  0  0  0  0  0  0
   -2.4000    1.3856    0.0000 H   0  0  0  0  0  0  0  0  0  0  0  0
    0.8000    1.3856    0.0000 C   0  0  0  0  0  0  0  0  0  0  0  0
    0.0000    2.7713    0.0000 H   0  0  0  0  0  0  0  0  0  0  0  0
  1  2  1  0  0  0  0
  1  3  1  0  0  0  0
  3  4  1  0  0  0  0
  4  5  1  0  0  0  0
  5  6  1  0  0  0  0
  4  7  2  0  0  0  0
  7  8  1  0  0  0  0
  7  9  1  0  0  0  0
  9 10  1  0  0  0  0
  9 11  2  0  0  0  0
 11 12  1  0  0  0  0
 12 13  1  0  0  0  0
 12 14  1  0  0  0  0
 12 15  1  0  0  0  0
 11 16  1  0  0  0  0
 16  3  2  0  0  0  0
 16 17  1  0  0  0  0
M  END
> <ChemID>
100750

> <source_casrn>
452-86-8

> <CAS>
452-86-8

> <SMILES>
Cc1cc(O)c(O)cc1

> <NAME>
4-Methylcatechol

> <preferred_name>
4-Methylcatechol

> <iupac>
4-methylbenzene-1,2-diol

> <MPID>
100756

> <dsstox_substance_id>
DTXSID5020861

> <Canonical_QSARr>
Cc1cc(O)c(O)cc1

> <InChI_Code_QSARr>
InChI=1S/C7H8O2/c1-5-2-3-6(8)7(9)4-5/h2-4,8-9H,1H3

> <InChI Key_QSARr>
ZBCATMYQYDCTIZ-UHFFFAOYSA-N

> <Salt_Solvent>
?

> <Ready_Biodeg>
0.0

$$$$
100752
  -INDIGO-08031722522D

 13 13  0  0  0  0  0  0  0  0999 V2000
    1.3856    2.4000    0.0000 N   0  0  0  0  0  0  0  0  0  0  0  0
    2.7713    1.6000    0.0000 C   0  0  0  0  0  0  0  0  0  0  0  0
    4.1569    2.4000    0.0000 H   0  0  0  0  0  0  0  0  0  0  0  0
    2.7713   -0.0000    0.0000 C   0  0  0  0  0  0  0  0  0  0  0  0
    4.1569   -0.8000    0.0000 H   0  0  0  0  0  0  0  0  0  0  0  0
    1.3856   -0.8000    0.0000 C   0  0  0  0  0  0  0  0  0  0  0  0
    1.3856   -2.4000    0.0000 H   0  0  0  0  0  0  0  0  0  0  0  0
    0.0000    0.0000    0.0000 C   0  0  0  0  0  0  0  0  0  0  0  0
   -1.3856   -0.8000    0.0000 N   0  0  0  0  0  0  0  0  0  0  0  0
   -2.7713    0.0000    0.0000 H   0  0  0  0  0  0  0  0  0  0  0  0
   -1.3856   -2.4000    0.0000 H   0  0  0  0  0  0  0  0  0  0  0  0
    0.0000    1.6000    0.0000 C   0  0  0  0  0  0  0  0  0  0  0  0
   -1.3856    2.4000    0.0000 H   0  0  0  0  0  0  0  0  0  0  0  0
  1  2  1  0  0  0  0
  2  3  1  0  0  0  0
  2  4  2  0  0  0  0
  4  5  1  0  0  0  0
  4  6  1  0  0  0  0
  6  7  1  0  0  0  0
  6  8  2  0  0  0  0
  8  9  1  0  0  0  0
  9 10  1  0  0  0  0
  9 11  1  0  0  0  0
  8 12  1  0  0  0  0
 12  1  2  0  0  0  0
 12 13  1  0  0  0  0
M  END
> <ChemID>
100752

> <source_casrn>
462-08-8

> <CAS>
462-08-8

> <SMILES>
Nc1c[n]ccc1

> <NAME>
3-Pyridinamine

> <preferred_name>
3-Pyridinamine

> <iupac>
pyridin-3-amine

> <MPID>
100758

> <dsstox_substance_id>
DTXSID9047461

> <Canonical_QSARr>
Nc1c[n]ccc1

> <InChI_Code_QSARr>
InChI=1S/C5H6N2/c6-5-2-1-3-7-4-5/h1-4H,6H2

> <InChI Key_QSARr>
CUYKNJBYIJFRCU-UHFFFAOYSA-N

> <Salt_Solvent>
?

> <Ready_Biodeg>
0.0

$$$$
100753
  -INDIGO-08031722522D

 50 49  0  0  0  0  0  0  0  0999 V2000
   -5.5428    0.0000    0.0000 C   0  0  0  0  0  0  0  0  0  0  0  0
   -4.1570    0.8000    0.0000 C   0  0  0  0  0  0  0  0  0  0  0  0
   -4.7693    2.2782    0.0000 H   0  0  0  0  0  0  0  0  0  0  0  0
   -3.5447    2.2782    0.0000 H   0  0  0  0  0  0  0  0  0  0  0  0
   -2.7713    0.0000    0.0000 C   0  0  0  0  0  0  0  0  0  0  0  0
   -2.1590   -1.4782    0.0000 H   0  0  0  0  0  0  0  0  0  0  0  0
   -3.3836   -1.4782    0.0000 H   0  0  0  0  0  0  0  0  0  0  0  0
   -1.3855    0.8000    0.0000 C   0  0  0  0  0  0  0  0  0  0  0  0
   -1.9979    2.2782    0.0000 H   0  0  0  0  0  0  0  0  0  0  0  0
   -0.7732    2.2782    0.0000 H   0  0  0  0  0  0  0  0  0  0  0  0
   -0.0002    0.0000    0.0000 C   0  0  0  0  0  0  0  0  0  0  0  0
    0.6121   -1.4782    0.0000 H   0  0  0  0  0  0  0  0  0  0  0  0
   -0.6121   -1.4782    0.0000 H   0  0  0  0  0  0  0  0  0  0  0  0
    1.3855    0.8000    0.0000 C   0  0  0  0  0  0  0  0  0  0  0  0
    0.7732    2.2782    0.0000 H   0  0  0  0  0  0  0  0  0  0  0  0
    1.9979    2.2782    0.0000 H   0  0  0  0  0  0  0  0  0  0  0  0
    2.7713    0.0000    0.0000 C   0  0  0  0  0  0  0  0  0  0  0  0
    3.3836   -1.4782    0.0000 H   0  0  0  0  0  0  0  0  0  0  0  0
    2.1590   -1.4782    0.0000 H   0  0  0  0  0  0  0  0  0  0  0  0
    4.1570    0.8000    0.0000 C   0  0  0  0  0  0  0  0  0  0  0  0
    3.5447    2.2782    0.0000 H   0  0  0  0  0  0  0  0  0  0  0  0
    4.7693    2.2782    0.0000 H   0  0  0  0  0  0  0  0  0  0  0  0
    5.5424    0.0000    0.0000 C   0  0  0  0  0  0  0  0  0  0  0  0
    5.5424   -1.6000    0.0000 H   0  0  0  0  0  0  0  0  0  0  0  0
    6.9281    0.8000    0.0000 C   0  0  0  0  0  0  0  0  0  0  0  0
    6.9281    2.4000    0.0000 H   0  0  0  0  0  0  0  0  0  0  0  0
    8.3138    0.0000    0.0000 C   0  0  0  0  0  0  0  0  0  0  0  0
    8.9262   -1.4782    0.0000 H   0  0  0  0  0  0  0  0  0  0  0  0
    7.7015   -1.4782    0.0000 H   0  0  0  0  0  0  0  0  0  0  0  0
    9.6996    0.8000    0.0000 C   0  0  0  0  0  0  0  0  0  0  0  0
    9.6996    2.4000    0.0000 H   0  0  0  0  0  0  0  0  0  0  0  0
   11.0853    0.0000    0.0000 C   0  0  0  0  0  0  0  0  0  0  0  0
   11.0853   -1.6000    0.0000 H   0  0  0  0  0  0  0  0  0  0  0  0
   12.4707    0.8000    0.0000 C   0  0  0  0  0  0  0  0  0  0  0  0
   11.8583    2.2782    0.0000 H   0  0  0  0  0  0  0  0  0  0  0  0
   13.0830    2.2782    0.0000 H   0  0  0  0  0  0  0  0  0  0  0  0
   13.8564    0.0000    0.0000 C   0  0  0  0  0  0  0  0  0  0  0  0
   13.8564   -1.6000    0.0000 H   0  0  0  0  0  0  0  0  0  0  0  0
   15.2422    0.8000    0.0000 C   0  0  0  0  0  0  0  0  0  0  0  0
   15.2422    2.4000    0.0000 H   0  0  0  0  0  0  0  0  0  0  0  0
   16.6279    0.0000    0.0000 C   0  0  0  0  0  0  0  0  0  0  0  0
   17.2398   -1.4782    0.0000 H   0  0  0  0  0  0  0  0  0  0  0  0
   16.0156   -1.4782    0.0000 H   0  0  0  0  0  0  0  0  0  0  0  0
   18.0132    0.8000    0.0000 C   0  0  0  0  0  0  0  0  0  0  0  0
   19.3990    1.6000    0.0000 H   0  0  0  0  0  0  0  0  0  0  0  0
   19.3990    0.0000    0.0000 H   0  0  0  0  0  0  0  0  0  0  0  0
   18.0132    2.4000    0.0000 H   0  0  0  0  0  0  0  0  0  0  0  0
   -6.9281    0.8000    0.0000 O   0  0  0  0  0  0  0  0  0  0  0  0
   -8.3138    0.0000    0.0000 H   0  0  0  0  0  0  0  0  0  0  0  0
   -5.5428   -1.6000    0.0000 O   0  0  0  0  0  0  0  0  0  0  0  0
  1  2  1  0  0  0  0
  2  3  1  0  0  0  0
  2  4  1  0  0  0  0
  2  5  1  0  0  0  0
  5  6  1  0  0  0  0
  5  7  1  0  0  0  0
  5  8  1  0  0  0  0
  8  9  1  0  0  0  0
  8 10  1  0  0  0  0
  8 11  1  0  0  0  0
 11 12  1  0  0  0  0
 11 13  1  0  0  0  0
 11 14  1  0  0  0  0
 14 15  1  0  0  0  0
 14 16  1  0  0  0  0
 14 17  1  0  0  0  0
 17 18  1  0  0  0  0
 17 19  1  0  0  0  0
 17 20  1  0  0  0  0
 20 21  1  0  0  0  0
 20 22  1  0  0  0  0
 20 23  1  0  0  0  0
 23 24  1  0  0  0  0
 23 25  2  0  0  0  0
 25 26  1  0  0  0  0
 25 27  1  0  0  0  0
 27 28  1  0  0  0  0
 27 29  1  0  0  0  0
 27 30  1  0  0  0  0
 30 31  1  0  0  0  0
 30 32  2  0  0  0  0
 32 33  1  0  0  0  0
 32 34  1  0  0  0  0
 34 35  1  0  0  0  0
 34 36  1  0  0  0  0
 34 37  1  0  0  0  0
 37 38  1  0  0  0  0
 37 39  2  0  0  0  0
 39 40  1  0  0  0  0
 39 41  1  0  0  0  0
 41 42  1  0  0  0  0
 41 43  1  0  0  0  0
 41 44  1  0  0  0  0
 44 45  1  0  0  0  0
 44 46  1  0  0  0  0
 44 47  1  0  0  0  0
  1 48  1  0  0  0  0
 48 49  1  0  0  0  0
  1 50  2  0  0  0  0
M  END
> <ChemID>
100753

> <source_casrn>
463-40-1

> <CAS>
463-40-1

> <SMILES>
CC/C=C\C/C=C\C/C=C\CCCCCCCC(O)=O

> <NAME>
Linolenic acid

> <preferred_name>
Linolenic acid

> <iupac>
(9Z,12Z,15Z)-octadeca-9,12,15-trienoic acid

> <MPID>
100759

> <dsstox_substance_id>
DTXSID7025506

> <Canonical_QSARr>
CCC=CCC=CCC=CCCCCCCCC(O)=O

> <InChI_Code_QSARr>
InChI=1S/C18H30O2/c1-2-3-4-5-6-7-8-9-10-11-12-13-14-15-16-17-18(19)20/h3-4,6-7,9-10H,2,5,8,11-17H2,1H3,(H,19,20)/b4-3+,7-6+,10-9+

> <InChI Key_QSARr>
DTOSIQBPPRVQHS-IUQGRGSQSA-N

> <Salt_Solvent>
?

> <Ready_Biodeg>
1.0

$$$$
100754
  -INDIGO-08031722522D

 29 30  0  0  0  0  0  0  0  0999 V2000
    0.0000   -0.0000    0.0000 C   0  0  0  0  0  0  0  0  0  0  0  0
    0.5526    1.5015    0.0000 C   0  0  0  0  0  0  0  0  0  0  0  0
    1.4405    1.9834    0.0000 H   0  0  0  0  0  0  0  0  0  0  0  0
    0.2842    3.0788    0.0000 O   0  0  0  0  0  0  0  0  0  0  0  0
    1.5159    4.1000    0.0000 H   0  0  0  0  0  0  0  0  0  0  0  0
   -0.8198    0.8734    0.0000 C   0  0  0  0  0  0  0  0  0  0  0  0
   -2.3937    1.1611    0.0000 H   0  0  0  0  0  0  0  0  0  0  0  0
   -1.0180    2.4611    0.0000 H   0  0  0  0  0  0  0  0  0  0  0  0
   -1.6175   -0.6372    0.0000 C   0  0  0  0  0  0  0  0  0  0  0  0
   -2.5698   -1.9230    0.0000 H   0  0  0  0  0  0  0  0  0  0  0  0
   -3.0923   -0.2630    0.0000 C   0  0  0  0  0  0  0  0  0  0  0  0
   -4.0746   -1.5260    0.0000 C   0  0  0  0  0  0  0  0  0  0  0  0
   -5.6595   -1.3069    0.0000 H   0  0  0  0  0  0  0  0  0  0  0  0
   -5.0568   -2.7890    0.0000 H   0  0  0  0  0  0  0  0  0  0  0  0
   -4.6772   -0.0439    0.0000 H   0  0  0  0  0  0  0  0  0  0  0  0
   -3.8557    1.1432    0.0000 C   0  0  0  0  0  0  0  0  0  0  0  0
   -4.6189    2.5493    0.0000 H   0  0  0  0  0  0  0  0  0  0  0  0
   -5.4552    1.1853    0.0000 H   0  0  0  0  0  0  0  0  0  0  0  0
   -3.0196    2.5073    0.0000 H   0  0  0  0  0  0  0  0  0  0  0  0
   -0.7841   -2.0140    0.0000 C   0  0  0  0  0  0  0  0  0  0  0  0
   -0.0303   -3.4254    0.0000 H   0  0  0  0  0  0  0  0  0  0  0  0
   -2.1746   -2.8055    0.0000 H   0  0  0  0  0  0  0  0  0  0  0  0
    0.6865   -1.2788    0.0000 C   0  0  0  0  0  0  0  0  0  0  0  0
    2.2722   -1.0652    0.0000 H   0  0  0  0  0  0  0  0  0  0  0  0
    1.4159   -2.7029    0.0000 H   0  0  0  0  0  0  0  0  0  0  0  0
    1.5524    0.3874    0.0000 C   0  0  0  0  0  0  0  0  0  0  0  0
    3.1048    0.7747    0.0000 H   0  0  0  0  0  0  0  0  0  0  0  0
    2.9906   -0.3137    0.0000 H   0  0  0  0  0  0  0  0  0  0  0  0
    2.0808    1.2484    0.0000 H   0  0  0  0  0  0  0  0  0  0  0  0
  1  2  1  0  0  0  0
  2  3  1  0  0  0  0
  2  4  1  0  0  0  0
  4  5  1  0  0  0  0
  2  6  1  0  0  0  0
  6  7  1  0  0  0  0
  6  8  1  0  0  0  0
  6  9  1  0  0  0  0
  9 10  1  0  0  0  0
  9 11  1  0  0  0  0
 11  1  1  0  0  0  0
 11 12  1  0  0  0  0
 12 13  1  0  0  0  0
 12 14  1  0  0  0  0
 12 15  1  0  0  0  0
 11 16  1  0  0  0  0
 16 17  1  0  0  0  0
 16 18  1  0  0  0  0
 16 19  1  0  0  0  0
  9 20  1  0  0  0  0
 20 21  1  0  0  0  0
 20 22  1  0  0  0  0
 20 23  1  0  0  0  0
 23  1  1  0  0  0  0
 23 24  1  0  0  0  0
 23 25  1  0  0  0  0
  1 26  1  0  0  0  0
 26 27  1  0  0  0  0
 26 28  1  0  0  0  0
 26 29  1  0  0  0  0
M  END
> <ChemID>
100754

> <source_casrn>
464-45-9|507-70-0

> <CAS>
464-45-9|507-70-0

> <SMILES>
OC(C(C(C1C2)(C)C)(C2)C)C1

> <NAME>
Bicyclo 2.2.1 heptan-2-ol, 1,7,7-trimethyl-, (1S-endo)-, Borneol

> <preferred_name>
[(1S)-endo]-(-)-Borneol

> <iupac>
(1S,2R,4S)-1,7,7-trimethylbicyclo[2.2.1]heptan-2-ol

> <MPID>
100760|100782

> <dsstox_substance_id>
DTXSID3022035|DTXSID3052143

> <Canonical_QSARr>
CC1(C)C2CC(O)C1(C)CC2

> <InChI_Code_QSARr>
InChI=1S/C10H18O/c1-9(2)7-4-5-10(9,3)8(11)6-7/h7-8,11H,4-6H2,1-3H3

> <InChI Key_QSARr>
DTGKSKDOIYIVQL-UHFFFAOYSA-N

> <Salt_Solvent>
?

> <Ready_Biodeg>
1.0

$$$$
100756
  -INDIGO-08031722522D

 22 23  0  0  0  0  0  0  0  0999 V2000
    0.0001    0.0001    0.0000 C   0  0  0  0  0  0  0  0  0  0  0  0
    1.3856    0.8000    0.0000 C   0  0  0  0  0  0  0  0  0  0  0  0
    1.3856    2.3999    0.0000 N   0  0  0  0  0  0  0  0  0  0  0  0
    2.7713    3.2000    0.0000 H   0  0  0  0  0  0  0  0  0  0  0  0
    0.0001    3.2000    0.0000 H   0  0  0  0  0  0  0  0  0  0  0  0
    2.7713    0.0001    0.0000 C   0  0  0  0  0  0  0  0  0  0  0  0
    4.1569    0.8000    0.0000 H   0  0  0  0  0  0  0  0  0  0  0  0
    2.7713   -1.6000    0.0000 C   0  0  0  0  0  0  0  0  0  0  0  0
    4.1569   -2.4000    0.0000 H   0  0  0  0  0  0  0  0  0  0  0  0
    1.3856   -2.4000    0.0000 C   0  0  0  0  0  0  0  0  0  0  0  0
    1.3856   -4.0000    0.0000 H   0  0  0  0  0  0  0  0  0  0  0  0
    0.0001   -1.6000    0.0000 C   0  0  0  0  0  0  0  0  0  0  0  0
   -1.3856   -2.4000    0.0000 C   0  0  0  0  0  0  0  0  0  0  0  0
   -1.3856   -4.0000    0.0000 H   0  0  0  0  0  0  0  0  0  0  0  0
   -2.7712   -1.6000    0.0000 C   0  0  0  0  0  0  0  0  0  0  0  0
   -4.1569   -2.4000    0.0000 H   0  0  0  0  0  0  0  0  0  0  0  0
   -2.7712    0.0001    0.0000 C   0  0  0  0  0  0  0  0  0  0  0  0
   -4.1569    0.8000    0.0000 H   0  0  0  0  0  0  0  0  0  0  0  0
   -1.3856    0.8000    0.0000 C   0  0  0  0  0  0  0  0  0  0  0  0
   -1.9329    2.3036    0.0000 N   0  0  0  0  0  0  0  0  0  0  0  0
   -3.5085    2.5814    0.0000 H   0  0  0  0  0  0  0  0  0  0  0  0
   -0.9045    3.5292    0.0000 H   0  0  0  0  0  0  0  0  0  0  0  0
  1  2  1  0  0  0  0
  2  3  1  0  0  0  0
  3  4  1  0  0  0  0
  3  5  1  0  0  0  0
  2  6  2  0  0  0  0
  6  7  1  0  0  0  0
  6  8  1  0  0  0  0
  8  9  1  0  0  0  0
  8 10  2  0  0  0  0
 10 11  1  0  0  0  0
 10 12  1  0  0  0  0
 12  1  1  0  0  0  0
 12 13  2  0  0  0  0
 13 14  1  0  0  0  0
 13 15  1  0  0  0  0
 15 16  1  0  0  0  0
 15 17  2  0  0  0  0
 17 18  1  0  0  0  0
 17 19  1  0  0  0  0
 19  1  2  0  0  0  0
 19 20  1  0  0  0  0
 20 21  1  0  0  0  0
 20 22  1  0  0  0  0
M  END
> <ChemID>
100756

> <source_casrn>
479-27-6

> <CAS>
479-27-6

> <SMILES>
Nc1cccc2cccc(N)c12

> <NAME>
1,8-Naphthalenediamine

> <preferred_name>
1,8-Naphthalenediamine

> <iupac>
naphthalene-1,8-diamine

> <MPID>
100762

> <dsstox_substance_id>
DTXSID6044432

> <Canonical_QSARr>
Nc1cccc2cccc(N)c12

> <InChI_Code_QSARr>
InChI=1S/C10H10N2/c11-8-5-1-3-7-4-2-6-9(12)10(7)8/h1-6H,11-12H2

> <InChI Key_QSARr>
YFOOEYJGMMJJLS-UHFFFAOYSA-N

> <Salt_Solvent>
?

> <Ready_Biodeg>
0.0

$$$$
100757
  -INDIGO-08031722522D

 28 29  0  0  0  0  0  0  0  0999 V2000
    2.7292    0.4812    0.0000 C   0  0  0  0  0  0  0  0  0  0  0  0
    4.2327   -0.0661    0.0000 H   0  0  0  0  0  0  0  0  0  0  0  0
    2.4514    2.0570    0.0000 C   0  0  0  0  0  0  0  0  0  0  0  0
    3.6770    3.0853    0.0000 H   0  0  0  0  0  0  0  0  0  0  0  0
    0.9478    2.6042    0.0000 C   0  0  0  0  0  0  0  0  0  0  0  0
    0.6701    4.1798    0.0000 H   0  0  0  0  0  0  0  0  0  0  0  0
   -0.2778    1.5757    0.0000 C   0  0  0  0  0  0  0  0  0  0  0  0
   -1.7814    2.1230    0.0000 C   0  0  0  0  0  0  0  0  0  0  0  0
   -3.0070    1.0945    0.0000 O   0  0  0  0  0  0  0  0  0  0  0  0
   -2.0591    3.6986    0.0000 O   0  0  0  0  0  0  0  0  0  0  0  0
   -3.5627    4.2458    0.0000 H   0  0  0  0  0  0  0  0  0  0  0  0
    0.0001   -0.0001    0.0000 C   0  0  0  0  0  0  0  0  0  0  0  0
   -0.8000   -1.3857    0.0000 C   0  0  0  0  0  0  0  0  0  0  0  0
   -2.4000   -1.3857    0.0000 C   0  0  0  0  0  0  0  0  0  0  0  0
   -3.1999   -0.0001    0.0000 H   0  0  0  0  0  0  0  0  0  0  0  0
   -3.1999   -2.7713    0.0000 C   0  0  0  0  0  0  0  0  0  0  0  0
   -4.8000   -2.7713    0.0000 H   0  0  0  0  0  0  0  0  0  0  0  0
   -2.4000   -4.1569    0.0000 C   0  0  0  0  0  0  0  0  0  0  0  0
   -3.1999   -5.5426    0.0000 H   0  0  0  0  0  0  0  0  0  0  0  0
   -0.8000   -4.1569    0.0000 C   0  0  0  0  0  0  0  0  0  0  0  0
    0.0001   -5.5426    0.0000 H   0  0  0  0  0  0  0  0  0  0  0  0
    0.0001   -2.7713    0.0000 C   0  0  0  0  0  0  0  0  0  0  0  0
    1.5035   -3.3186    0.0000 C   0  0  0  0  0  0  0  0  0  0  0  0
    2.7292   -2.2901    0.0000 O   0  0  0  0  0  0  0  0  0  0  0  0
    1.7814   -4.8942    0.0000 O   0  0  0  0  0  0  0  0  0  0  0  0
    3.2848   -5.4414    0.0000 H   0  0  0  0  0  0  0  0  0  0  0  0
    1.5035   -0.5472    0.0000 C   0  0  0  0  0  0  0  0  0  0  0  0
    1.7814   -2.1229    0.0000 H   0  0  0  0  0  0  0  0  0  0  0  0
  1  2  1  0  0  0  0
  1  3  1  0  0  0  0
  3  4  1  0  0  0  0
  3  5  2  0  0  0  0
  5  6  1  0  0  0  0
  5  7  1  0  0  0  0
  7  8  1  0  0  0  0
  8  9  2  0  0  0  0
  8 10  1  0  0  0  0
 10 11  1  0  0  0  0
  7 12  2  0  0  0  0
 12 13  1  0  0  0  0
 13 14  1  0  0  0  0
 14 15  1  0  0  0  0
 14 16  2  0  0  0  0
 16 17  1  0  0  0  0
 16 18  1  0  0  0  0
 18 19  1  0  0  0  0
 18 20  2  0  0  0  0
 20 21  1  0  0  0  0
 20 22  1  0  0  0  0
 22 13  2  0  0  0  0
 22 23  1  0  0  0  0
 23 24  2  0  0  0  0
 23 25  1  0  0  0  0
 25 26  1  0  0  0  0
 12 27  1  0  0  0  0
 27  1  2  0  0  0  0
 27 28  1  0  0  0  0
M  END
> <ChemID>
100757

> <source_casrn>
482-05-3

> <CAS>
482-05-3

> <SMILES>
OC(=O)c1ccccc1-c1ccccc1C(O)=O

> <NAME>
1,1'-Biphenyl -2,2'-dicarboxylic acid

> <preferred_name>
[1,1'-Biphenyl]-2,2'-dicarboxylic acid

> <iupac>
2-(2-carboxyphenyl)benzoic acid

> <MPID>
100763

> <dsstox_substance_id>
DTXSID0060064

> <Canonical_QSARr>
OC(=O)c1ccccc1-c1ccccc1C(O)=O

> <InChI_Code_QSARr>
InChI=1S/C14H10O4/c15-13(16)11-7-3-1-5-9(11)10-6-2-4-8-12(10)14(17)18/h1-8H,(H,15,16)(H,17,18)

> <InChI Key_QSARr>
GWZCCUDJHOGOSO-UHFFFAOYSA-N

> <Salt_Solvent>
?

> <Ready_Biodeg>
1.0

$$$$
100758
  -INDIGO-08031722522D

 30 33  0  0  0  0  0  0  0  0999 V2000
    0.4461   -2.8161    0.0000 O   0  0  0  0  0  0  0  0  0  0  0  0
    0.9406   -1.2944    0.0000 C   0  0  0  0  0  0  0  0  0  0  0  0
    0.0000    0.0000    0.0000 C   0  0  0  0  0  0  0  0  0  0  0  0
   -1.6000    0.0000    0.0000 C   0  0  0  0  0  0  0  0  0  0  0  0
   -2.5406   -1.2944    0.0000 N   0  0  0  0  0  0  0  0  0  0  0  0
   -2.0461   -2.8161    0.0000 H   0  0  0  0  0  0  0  0  0  0  0  0
   -4.0621   -0.8000    0.0000 C   0  0  0  0  0  0  0  0  0  0  0  0
   -4.0621    0.8000    0.0000 C   0  0  0  0  0  0  0  0  0  0  0  0
   -5.4477    1.6000    0.0000 C   0  0  0  0  0  0  0  0  0  0  0  0
   -5.4477    3.2000    0.0000 H   0  0  0  0  0  0  0  0  0  0  0  0
   -6.8334    0.8000    0.0000 C   0  0  0  0  0  0  0  0  0  0  0  0
   -8.2191    1.6000    0.0000 H   0  0  0  0  0  0  0  0  0  0  0  0
   -6.8334   -0.8000    0.0000 C   0  0  0  0  0  0  0  0  0  0  0  0
   -8.2191   -1.6000    0.0000 H   0  0  0  0  0  0  0  0  0  0  0  0
   -5.4477   -1.6000    0.0000 C   0  0  0  0  0  0  0  0  0  0  0  0
   -5.4477   -3.2000    0.0000 H   0  0  0  0  0  0  0  0  0  0  0  0
   -2.5406    1.2944    0.0000 C   0  0  0  0  0  0  0  0  0  0  0  0
   -2.0461    2.8161    0.0000 O   0  0  0  0  0  0  0  0  0  0  0  0
    0.9406    1.2944    0.0000 N   0  0  0  0  0  0  0  0  0  0  0  0
    0.4461    2.8161    0.0000 H   0  0  0  0  0  0  0  0  0  0  0  0
    2.4621    0.8000    0.0000 C   0  0  0  0  0  0  0  0  0  0  0  0
    2.4621   -0.8000    0.0000 C   0  0  0  0  0  0  0  0  0  0  0  0
    3.8477   -1.6000    0.0000 C   0  0  0  0  0  0  0  0  0  0  0  0
    3.8477   -3.2000    0.0000 H   0  0  0  0  0  0  0  0  0  0  0  0
    5.2334   -0.8000    0.0000 C   0  0  0  0  0  0  0  0  0  0  0  0
    6.6191   -1.6000    0.0000 H   0  0  0  0  0  0  0  0  0  0  0  0
    5.2334    0.8000    0.0000 C   0  0  0  0  0  0  0  0  0  0  0  0
    6.6191    1.6000    0.0000 H   0  0  0  0  0  0  0  0  0  0  0  0
    3.8477    1.6000    0.0000 C   0  0  0  0  0  0  0  0  0  0  0  0
    3.8477    3.2000    0.0000 H   0  0  0  0  0  0  0  0  0  0  0  0
  1  2  2  0  0  0  0
  2  3  1  0  0  0  0
  3  4  2  0  0  0  0
  4  5  1  0  0  0  0
  5  6  1  0  0  0  0
  5  7  1  0  0  0  0
  7  8  1  0  0  0  0
  8  9  2  0  0  0  0
  9 10  1  0  0  0  0
  9 11  1  0  0  0  0
 11 12  1  0  0  0  0
 11 13  2  0  0  0  0
 13 14  1  0  0  0  0
 13 15  1  0  0  0  0
 15  7  2  0  0  0  0
 15 16  1  0  0  0  0
  8 17  1  0  0  0  0
 17  4  1  0  0  0  0
 17 18  2  0  0  0  0
  3 19  1  0  0  0  0
 19 20  1  0  0  0  0
 19 21  1  0  0  0  0
 21 22  1  0  0  0  0
 22  2  1  0  0  0  0
 22 23  2  0  0  0  0
 23 24  1  0  0  0  0
 23 25  1  0  0  0  0
 25 26  1  0  0  0  0
 25 27  2  0  0  0  0
 27 28  1  0  0  0  0
 27 29  1  0  0  0  0
 29 21  2  0  0  0  0
 29 30  1  0  0  0  0
M  END
> <ChemID>
100758

> <source_casrn>
482-89-3

> <CAS>
482-89-3

> <SMILES>
O=C1/C(/Nc2ccccc12)=C1\Nc2ccccc2C\1=O

> <NAME>
Indigo

> <preferred_name>
Indigo

> <iupac>
(2E)-2-(3-oxo-1,3-dihydro-2H-indol-2-ylidene)-1,2-dihydro-3H-indol-3-one

> <MPID>
100764

> <dsstox_substance_id>
DTXSID3026279

> <Canonical_QSARr>
O=C1C(Nc2ccccc12)=C1Nc2ccccc2C1=O

> <InChI_Code_QSARr>
InChI=1S/C16H10N2O2/c19-15-9-5-1-3-7-11(9)17-13(15)14-16(20)10-6-2-4-8-12(10)18-14/h1-8,17-18H/b14-13+

> <InChI Key_QSARr>
COHYTHOBJLSHDF-BUHFOSPRSA-N

> <Salt_Solvent>
?

> <Ready_Biodeg>
0.0

$$$$
100760
  -INDIGO-08031722522D

 19 19  0  0  0  0  0  0  0  0999 V2000
   -0.8000    1.3856    0.0000 C   0  0  0  0  0  0  0  0  0  0  0  0
    0.0001    2.7713    0.0000 H   0  0  0  0  0  0  0  0  0  0  0  0
   -2.4000    1.3856    0.0000 C   0  0  0  0  0  0  0  0  0  0  0  0
   -3.2001    2.7713    0.0000 H   0  0  0  0  0  0  0  0  0  0  0  0
   -3.1999    0.0000    0.0000 C   0  0  0  0  0  0  0  0  0  0  0  0
   -4.8000    0.0000    0.0000 H   0  0  0  0  0  0  0  0  0  0  0  0
   -2.4000   -1.3856    0.0000 C   0  0  0  0  0  0  0  0  0  0  0  0
   -3.1999   -2.7713    0.0000 H   0  0  0  0  0  0  0  0  0  0  0  0
   -0.8000   -1.3856    0.0000 C   0  0  0  0  0  0  0  0  0  0  0  0
    0.0001   -2.7713    0.0000 H   0  0  0  0  0  0  0  0  0  0  0  0
    0.0001   -0.0000    0.0000 C   0  0  0  0  0  0  0  0  0  0  0  0
    1.6000    0.0000    0.0000 C   0  0  0  0  0  0  0  0  0  0  0  0
    2.4000    1.3856    0.0000 C   0  0  0  0  0  0  0  0  0  0  0  0
    4.0000    1.3856    0.0000 H   0  0  0  0  0  0  0  0  0  0  0  0
    1.6000    2.7713    0.0000 H   0  0  0  0  0  0  0  0  0  0  0  0
    2.4000   -1.3856    0.0000 C   0  0  0  0  0  0  0  0  0  0  0  0
    1.6000   -2.7713    0.0000 O   0  0  0  0  0  0  0  0  0  0  0  0
    4.0000   -1.3856    0.0000 O   0  0  0  0  0  0  0  0  0  0  0  0
    4.8000   -2.7713    0.0000 H   0  0  0  0  0  0  0  0  0  0  0  0
  1  2  1  0  0  0  0
  1  3  1  0  0  0  0
  3  4  1  0  0  0  0
  3  5  2  0  0  0  0
  5  6  1  0  0  0  0
  5  7  1  0  0  0  0
  7  8  1  0  0  0  0
  7  9  2  0  0  0  0
  9 10  1  0  0  0  0
  9 11  1  0  0  0  0
 11  1  2  0  0  0  0
 11 12  1  0  0  0  0
 12 13  2  0  0  0  0
 13 14  1  0  0  0  0
 13 15  1  0  0  0  0
 12 16  1  0  0  0  0
 16 17  2  0  0  0  0
 16 18  1  0  0  0  0
 18 19  1  0  0  0  0
M  END
> <ChemID>
100760

> <source_casrn>
492-38-6

> <CAS>
492-38-6

> <SMILES>
C=C(C(O)=O)c1ccccc1

> <NAME>
Atropic acid

> <preferred_name>
Benzeneacetic acid, .alpha.-methylene-

> <iupac>
2-phenylprop-2-enoic acid

> <MPID>
100767

> <dsstox_substance_id>
DTXSID3075418

> <Canonical_QSARr>
C=C(C(O)=O)c1ccccc1

> <InChI_Code_QSARr>
InChI=1S/C9H8O2/c1-7(9(10)11)8-5-3-2-4-6-8/h2-6H,1H2,(H,10,11)

> <InChI Key_QSARr>
ONPJWQSDZCGSQM-UHFFFAOYSA-N

> <Salt_Solvent>
?

> <Ready_Biodeg>
1.0

$$$$
100761
  -INDIGO-08031722522D

 23 24  0  0  0  0  0  0  0  0999 V2000
   -2.4323   -1.5796    0.0000 C   0  0  0  0  0  0  0  0  0  0  0  0
   -1.6811   -2.9922    0.0000 H   0  0  0  0  0  0  0  0  0  0  0  0
   -4.0313   -1.5237    0.0000 N   0  0  0  0  0  0  0  0  0  0  0  0
   -4.7825   -0.1110    0.0000 C   0  0  0  0  0  0  0  0  0  0  0  0
   -6.3815   -0.0551    0.0000 H   0  0  0  0  0  0  0  0  0  0  0  0
   -3.9346    1.2458    0.0000 C   0  0  0  0  0  0  0  0  0  0  0  0
   -4.6857    2.6586    0.0000 H   0  0  0  0  0  0  0  0  0  0  0  0
   -2.3355    1.1900    0.0000 C   0  0  0  0  0  0  0  0  0  0  0  0
   -1.4878    2.5469    0.0000 H   0  0  0  0  0  0  0  0  0  0  0  0
   -1.5844   -0.2227    0.0000 C   0  0  0  0  0  0  0  0  0  0  0  0
    0.0000    0.0000    0.0000 C   0  0  0  0  0  0  0  0  0  0  0  0
   -0.6508    1.4617    0.0000 H   0  0  0  0  0  0  0  0  0  0  0  0
    0.3327   -1.5650    0.0000 N   0  0  0  0  0  0  0  0  0  0  0  0
   -0.7379   -2.7540    0.0000 H   0  0  0  0  0  0  0  0  0  0  0  0
    1.9238   -1.7322    0.0000 C   0  0  0  0  0  0  0  0  0  0  0  0
    1.5912   -3.2973    0.0000 H   0  0  0  0  0  0  0  0  0  0  0  0
    3.4455   -2.2267    0.0000 H   0  0  0  0  0  0  0  0  0  0  0  0
    2.5746   -0.2706    0.0000 C   0  0  0  0  0  0  0  0  0  0  0  0
    3.9603   -1.0706    0.0000 H   0  0  0  0  0  0  0  0  0  0  0  0
    3.5151    1.0238    0.0000 H   0  0  0  0  0  0  0  0  0  0  0  0
    1.3857    0.8000    0.0000 C   0  0  0  0  0  0  0  0  0  0  0  0
    2.5746    1.8707    0.0000 H   0  0  0  0  0  0  0  0  0  0  0  0
    0.4452    2.0944    0.0000 H   0  0  0  0  0  0  0  0  0  0  0  0
  1  2  1  0  0  0  0
  1  3  1  0  0  0  0
  3  4  2  0  0  0  0
  4  5  1  0  0  0  0
  4  6  1  0  0  0  0
  6  7  1  0  0  0  0
  6  8  2  0  0  0  0
  8  9  1  0  0  0  0
  8 10  1  0  0  0  0
 10  1  2  0  0  0  0
 10 11  1  0  0  0  0
 11 12  1  0  0  0  0
 11 13  1  0  0  0  0
 13 14  1  0  0  0  0
 13 15  1  0  0  0  0
 15 16  1  0  0  0  0
 15 17  1  0  0  0  0
 15 18  1  0  0  0  0
 18 19  1  0  0  0  0
 18 20  1  0  0  0  0
 18 21  1  0  0  0  0
 21 11  1  0  0  0  0
 21 22  1  0  0  0  0
 21 23  1  0  0  0  0
M  END
> <ChemID>
100761

> <source_casrn>
494-97-3

> <CAS>
494-97-3

> <SMILES>
C1CC[C@H](N1)c1c[n]ccc1

> <NAME>
Nornicotine

> <preferred_name>
Pyridine, 3-(2S)-2-pyrrolidinyl-

> <iupac>
3-[(2S)-pyrrolidin-2-yl]pyridine

> <MPID>
100768

> <dsstox_substance_id>
DTXSID7075420

> <Canonical_QSARr>
C1CCC(N1)c1c[n]ccc1

> <InChI_Code_QSARr>
InChI=1S/C9H12N2/c1-3-8(7-10-5-1)9-4-2-6-11-9/h1,3,5,7,9,11H,2,4,6H2

> <InChI Key_QSARr>
MYKUKUCHPMASKF-UHFFFAOYSA-N

> <Salt_Solvent>
?

> <Ready_Biodeg>
0.0

$$$$
100762
  -INDIGO-08031722522D

 22 22  0  0  0  0  0  0  0  0999 V2000
    6.9281    0.8000    0.0000 O   0  0  0  0  0  0  0  0  0  0  0  0
    8.3138   -0.0000    0.0000 H   0  0  0  0  0  0  0  0  0  0  0  0
    5.5426   -0.0000    0.0000 C   0  0  0  0  0  0  0  0  0  0  0  0
    5.5426   -1.6000    0.0000 O   0  0  0  0  0  0  0  0  0  0  0  0
    4.1569    0.8000    0.0000 C   0  0  0  0  0  0  0  0  0  0  0  0
    3.5446    2.2782    0.0000 H   0  0  0  0  0  0  0  0  0  0  0  0
    4.7693    2.2782    0.0000 H   0  0  0  0  0  0  0  0  0  0  0  0
    2.7712   -0.0000    0.0000 N   0  0  0  0  0  0  0  0  0  0  0  0
    2.7712   -1.6000    0.0000 H   0  0  0  0  0  0  0  0  0  0  0  0
    1.3857    0.8000    0.0000 C   0  0  0  0  0  0  0  0  0  0  0  0
    1.3857    2.4000    0.0000 O   0  0  0  0  0  0  0  0  0  0  0  0
    0.0000   -0.0000    0.0000 C   0  0  0  0  0  0  0  0  0  0  0  0
   -1.3857    0.8000    0.0000 C   0  0  0  0  0  0  0  0  0  0  0  0
   -1.3857    2.4000    0.0000 H   0  0  0  0  0  0  0  0  0  0  0  0
   -2.7712   -0.0000    0.0000 C   0  0  0  0  0  0  0  0  0  0  0  0
   -4.1569    0.8000    0.0000 H   0  0  0  0  0  0  0  0  0  0  0  0
   -2.7712   -1.6000    0.0000 C   0  0  0  0  0  0  0  0  0  0  0  0
   -4.1569   -2.4000    0.0000 H   0  0  0  0  0  0  0  0  0  0  0  0
   -1.3857   -2.4000    0.0000 C   0  0  0  0  0  0  0  0  0  0  0  0
   -1.3857   -4.0000    0.0000 H   0  0  0  0  0  0  0  0  0  0  0  0
    0.0000   -1.6000    0.0000 C   0  0  0  0  0  0  0  0  0  0  0  0
    1.3857   -2.4000    0.0000 H   0  0  0  0  0  0  0  0  0  0  0  0
  1  2  1  0  0  0  0
  1  3  1  0  0  0  0
  3  4  2  0  0  0  0
  3  5  1  0  0  0  0
  5  6  1  0  0  0  0
  5  7  1  0  0  0  0
  5  8  1  0  0  0  0
  8  9  1  0  0  0  0
  8 10  1  0  0  0  0
 10 11  2  0  0  0  0
 10 12  1  0  0  0  0
 12 13  1  0  0  0  0
 13 14  1  0  0  0  0
 13 15  2  0  0  0  0
 15 16  1  0  0  0  0
 15 17  1  0  0  0  0
 17 18  1  0  0  0  0
 17 19  2  0  0  0  0
 19 20  1  0  0  0  0
 19 21  1  0  0  0  0
 21 12  2  0  0  0  0
 21 22  1  0  0  0  0
M  END
> <ChemID>
100762

> <source_casrn>
495-69-2

> <CAS>
495-69-2

> <SMILES>
OC(=O)CNC(=O)c1ccccc1

> <NAME>
Glycine, N-benzoyl-

> <preferred_name>
Hippuric acid

> <iupac>
N-benzoylglycine

> <MPID>
100769

> <dsstox_substance_id>
DTXSID9046073

> <Canonical_QSARr>
OC(=O)CNC(=O)c1ccccc1

> <InChI_Code_QSARr>
InChI=1S/C9H9NO3/c11-8(12)6-10-9(13)7-4-2-1-3-5-7/h1-5H,6H2,(H,10,13)(H,11,12)

> <InChI Key_QSARr>
QIAFMBKCNZACKA-UHFFFAOYSA-N

> <Salt_Solvent>
?

> <Ready_Biodeg>
1.0

$$$$
100764
  -INDIGO-08031722522D

 17 17  0  0  0  0  0  0  0  0999 V2000
    1.3856    0.8000    0.0000 N   0  0  0  0  0  0  0  0  0  0  0  0
    2.7713   -0.0000    0.0000 C   0  0  0  0  0  0  0  0  0  0  0  0
    4.1570    0.8000    0.0000 C   0  0  0  0  0  0  0  0  0  0  0  0
    5.5426   -0.0000    0.0000 O   0  0  0  0  0  0  0  0  0  0  0  0
    4.1570    2.4000    0.0000 O   0  0  0  0  0  0  0  0  0  0  0  0
    5.5426    3.2000    0.0000 H   0  0  0  0  0  0  0  0  0  0  0  0
    2.7713   -1.6000    0.0000 C   0  0  0  0  0  0  0  0  0  0  0  0
    4.1569   -2.4000    0.0000 H   0  0  0  0  0  0  0  0  0  0  0  0
    1.3856   -2.4000    0.0000 C   0  0  0  0  0  0  0  0  0  0  0  0
    1.3856   -4.0000    0.0000 H   0  0  0  0  0  0  0  0  0  0  0  0
    0.0000   -1.6000    0.0000 C   0  0  0  0  0  0  0  0  0  0  0  0
   -1.3856   -2.4000    0.0000 H   0  0  0  0  0  0  0  0  0  0  0  0
    0.0000   -0.0000    0.0000 C   0  0  0  0  0  0  0  0  0  0  0  0
   -1.3856    0.8000    0.0000 C   0  0  0  0  0  0  0  0  0  0  0  0
   -2.7713   -0.0000    0.0000 O   0  0  0  0  0  0  0  0  0  0  0  0
   -1.3856    2.4000    0.0000 O   0  0  0  0  0  0  0  0  0  0  0  0
   -2.7713    3.2000    0.0000 H   0  0  0  0  0  0  0  0  0  0  0  0
  1  2  1  0  0  0  0
  2  3  1  0  0  0  0
  3  4  2  0  0  0  0
  3  5  1  0  0  0  0
  5  6  1  0  0  0  0
  2  7  2  0  0  0  0
  7  8  1  0  0  0  0
  7  9  1  0  0  0  0
  9 10  1  0  0  0  0
  9 11  2  0  0  0  0
 11 12  1  0  0  0  0
 11 13  1  0  0  0  0
 13  1  2  0  0  0  0
 13 14  1  0  0  0  0
 14 15  2  0  0  0  0
 14 16  1  0  0  0  0
 16 17  1  0  0  0  0
M  END
> <ChemID>
100764

> <source_casrn>
499-83-2

> <CAS>
499-83-2

> <SMILES>
OC(=O)c1cccc([n]1)C(O)=O

> <NAME>
2,6-Pyridinedicarboxylic acid

> <preferred_name>
2,6-Pyridinedicarboxylic acid

> <iupac>
pyridine-2,6-dicarboxylic acid

> <MPID>
100771

> <dsstox_substance_id>
DTXSID7022043

> <Canonical_QSARr>
OC(=O)c1cccc([n]1)C(O)=O

> <InChI_Code_QSARr>
InChI=1S/C7H5NO4/c9-6(10)4-2-1-3-5(8-4)7(11)12/h1-3H,(H,9,10)(H,11,12)

> <InChI Key_QSARr>
WJJMNDUMQPNECX-UHFFFAOYSA-N

> <Salt_Solvent>
?

> <Ready_Biodeg>
1.0

$$$$
100765
  -INDIGO-08031722522D

 18 18  0  0  0  0  0  0  0  0999 V2000
    0.5358    3.5550    0.0000 O   0  0  0  0  0  0  0  0  0  0  0  0
    2.0252    2.9705    0.0000 C   0  0  0  0  0  0  0  0  0  0  0  0
    3.1981    4.0588    0.0000 O   0  0  0  0  0  0  0  0  0  0  0  0
    2.4968    1.4416    0.0000 C   0  0  0  0  0  0  0  0  0  0  0  0
    3.8825    2.2416    0.0000 H   0  0  0  0  0  0  0  0  0  0  0  0
    3.7723    0.4755    0.0000 H   0  0  0  0  0  0  0  0  0  0  0  0
    1.5955    0.1195    0.0000 C   0  0  0  0  0  0  0  0  0  0  0  0
    3.0849   -0.4650    0.0000 H   0  0  0  0  0  0  0  0  0  0  0  0
    1.3571   -1.4626    0.0000 H   0  0  0  0  0  0  0  0  0  0  0  0
   -0.0000    0.0000    0.0000 C   0  0  0  0  0  0  0  0  0  0  0  0
    0.1989   -1.5876    0.0000 H   0  0  0  0  0  0  0  0  0  0  0  0
   -1.3856   -0.8000    0.0000 H   0  0  0  0  0  0  0  0  0  0  0  0
   -1.0883    1.1729    0.0000 C   0  0  0  0  0  0  0  0  0  0  0  0
   -2.2055    0.0275    0.0000 H   0  0  0  0  0  0  0  0  0  0  0  0
   -2.5777    1.7574    0.0000 H   0  0  0  0  0  0  0  0  0  0  0  0
   -0.8498    2.7550    0.0000 C   0  0  0  0  0  0  0  0  0  0  0  0
   -2.4418    2.9143    0.0000 H   0  0  0  0  0  0  0  0  0  0  0  0
   -1.3214    4.2839    0.0000 H   0  0  0  0  0  0  0  0  0  0  0  0
  1  2  1  0  0  0  0
  2  3  2  0  0  0  0
  2  4  1  0  0  0  0
  4  5  1  0  0  0  0
  4  6  1  0  0  0  0
  4  7  1  0  0  0  0
  7  8  1  0  0  0  0
  7  9  1  0  0  0  0
  7 10  1  0  0  0  0
 10 11  1  0  0  0  0
 10 12  1  0  0  0  0
 10 13  1  0  0  0  0
 13 14  1  0  0  0  0
 13 15  1  0  0  0  0
 13 16  1  0  0  0  0
 16  1  1  0  0  0  0
 16 17  1  0  0  0  0
 16 18  1  0  0  0  0
M  END
> <ChemID>
100765

> <source_casrn>
502-44-3

> <CAS>
502-44-3

> <SMILES>
O=C(OCCCC1)C1

> <NAME>
E-Caprolactone

> <preferred_name>
2-Oxepanone

> <iupac>
oxepan-2-one

> <MPID>
100772

> <dsstox_substance_id>
DTXSID4027159

> <Canonical_QSARr>
O=C1CCCCCO1

> <InChI_Code_QSARr>
InChI=1S/C6H10O2/c7-6-4-2-1-3-5-8-6/h1-5H2

> <InChI Key_QSARr>
PAPBSGBWRJIAAV-UHFFFAOYSA-N

> <Salt_Solvent>
?

> <Ready_Biodeg>
1.0

$$$$
100766
  -INDIGO-08031722522D

 10  9  0  0  0  0  0  0  0  0999 V2000
    1.6000   -0.0000    0.0000 C   0  0  0  0  0  0  0  0  0  0  0  0
    3.2000    0.0000    0.0000 C   0  0  0  0  0  0  0  0  0  0  0  0
    4.8000    0.0000    0.0000 C   0  0  0  0  0  0  0  0  0  0  0  0
    6.4000    0.0000    0.0000 H   0  0  0  0  0  0  0  0  0  0  0  0
    5.6001    1.3856    0.0000 H   0  0  0  0  0  0  0  0  0  0  0  0
    5.6001   -1.3856    0.0000 H   0  0  0  0  0  0  0  0  0  0  0  0
    0.0000   -0.0000    0.0000 C   0  0  0  0  0  0  0  0  0  0  0  0
   -1.6000   -0.0000    0.0000 H   0  0  0  0  0  0  0  0  0  0  0  0
   -0.8001    1.3856    0.0000 H   0  0  0  0  0  0  0  0  0  0  0  0
   -0.8001   -1.3856    0.0000 H   0  0  0  0  0  0  0  0  0  0  0  0
  1  2  3  0  0  0  0
  2  3  1  0  0  0  0
  3  4  1  0  0  0  0
  3  5  1  0  0  0  0
  3  6  1  0  0  0  0
  1  7  1  0  0  0  0
  7  8  1  0  0  0  0
  7  9  1  0  0  0  0
  7 10  1  0  0  0  0
M  END
> <ChemID>
100766

> <source_casrn>
503-17-3

> <CAS>
503-17-3

> <SMILES>
CC#CC

> <NAME>
2-Butyne

> <preferred_name>
2-Butyne

> <iupac>
but-2-yne

> <MPID>
100773

> <dsstox_substance_id>
DTXSID3060116

> <Canonical_QSARr>
CC#CC

> <InChI_Code_QSARr>
InChI=1S/C4H6/c1-3-4-2/h1-2H3

> <InChI Key_QSARr>
XNMQEEKYCVKGBD-UHFFFAOYSA-N

> <Salt_Solvent>
?

> <Ready_Biodeg>
0.0

$$$$
100768
  -INDIGO-08031722522D

 23 23  0  0  0  0  0  0  0  0999 V2000
    1.5757    0.2778    0.0000 C   0  0  0  0  0  0  0  0  0  0  0  0
    3.1514    0.5556    0.0000 H   0  0  0  0  0  0  0  0  0  0  0  0
    2.1230    1.7814    0.0000 H   0  0  0  0  0  0  0  0  0  0  0  0
    2.6042   -0.9478    0.0000 H   0  0  0  0  0  0  0  0  0  0  0  0
    0.0001    0.0000    0.0000 C   0  0  0  0  0  0  0  0  0  0  0  0
    0.5472    1.5035    0.0000 H   0  0  0  0  0  0  0  0  0  0  0  0
    0.0001   -1.6000    0.0000 C   0  0  0  0  0  0  0  0  0  0  0  0
    1.5757   -1.3222    0.0000 H   0  0  0  0  0  0  0  0  0  0  0  0
    0.5472   -3.1035    0.0000 H   0  0  0  0  0  0  0  0  0  0  0  0
   -1.3856   -2.4000    0.0000 C   0  0  0  0  0  0  0  0  0  0  0  0
   -0.3572   -3.6257    0.0000 H   0  0  0  0  0  0  0  0  0  0  0  0
   -2.4140   -3.6257    0.0000 H   0  0  0  0  0  0  0  0  0  0  0  0
   -2.7713   -1.6000    0.0000 C   0  0  0  0  0  0  0  0  0  0  0  0
   -3.3185   -3.1035    0.0000 H   0  0  0  0  0  0  0  0  0  0  0  0
   -4.3470   -1.3222    0.0000 H   0  0  0  0  0  0  0  0  0  0  0  0
   -2.7713    0.0000    0.0000 C   0  0  0  0  0  0  0  0  0  0  0  0
   -4.3470   -0.2778    0.0000 H   0  0  0  0  0  0  0  0  0  0  0  0
   -3.3185    1.5035    0.0000 C   0  0  0  0  0  0  0  0  0  0  0  0
   -3.8658    3.0070    0.0000 H   0  0  0  0  0  0  0  0  0  0  0  0
   -4.8942    1.7814    0.0000 H   0  0  0  0  0  0  0  0  0  0  0  0
   -2.2901    2.7292    0.0000 H   0  0  0  0  0  0  0  0  0  0  0  0
   -1.3856    0.8000    0.0000 N   0  0  0  0  0  0  0  0  0  0  0  0
   -1.3856    2.4000    0.0000 H   0  0  0  0  0  0  0  0  0  0  0  0
  1  2  1  0  0  0  0
  1  3  1  0  0  0  0
  1  4  1  0  0  0  0
  1  5  1  0  0  0  0
  5  6  1  0  0  0  0
  5  7  1  0  0  0  0
  7  8  1  0  0  0  0
  7  9  1  0  0  0  0
  7 10  1  0  0  0  0
 10 11  1  0  0  0  0
 10 12  1  0  0  0  0
 10 13  1  0  0  0  0
 13 14  1  0  0  0  0
 13 15  1  0  0  0  0
 13 16  1  0  0  0  0
 16 17  1  0  0  0  0
 16 18  1  0  0  0  0
 18 19  1  0  0  0  0
 18 20  1  0  0  0  0
 18 21  1  0  0  0  0
 16 22  1  0  0  0  0
 22  5  1  0  0  0  0
 22 23  1  0  0  0  0
M  END
> <ChemID>
100768

> <source_casrn>
504-03-0

> <CAS>
504-03-0

> <SMILES>
C[C@@H]1CCC[C@H](C)N1

> <NAME>
Piperidine, 2,6-dimethyl-

> <preferred_name>
cis-Nanophine

> <iupac>
(2R,6S)-2,6-dimethylpiperidine

> <MPID>
100775

> <dsstox_substance_id>
DTXSID8048527

> <Canonical_QSARr>
CC1CCCC(C)N1

> <InChI_Code_QSARr>
InChI=1S/C7H15N/c1-6-4-3-5-7(2)8-6/h6-8H,3-5H2,1-2H3

> <InChI Key_QSARr>
SDGKUVSVPIIUCF-UHFFFAOYSA-N

> <Salt_Solvent>
?

> <Ready_Biodeg>
0.0

$$$$
100769
  -INDIGO-08031722522D

 17 17  0  0  0  0  0  0  0  0999 V2000
    0.0000   -0.0000    0.0000 C   0  0  0  0  0  0  0  0  0  0  0  0
   -0.7999    1.3856    0.0000 C   0  0  0  0  0  0  0  0  0  0  0  0
    0.0000    2.7713    0.0000 H   0  0  0  0  0  0  0  0  0  0  0  0
   -2.3999    1.3856    0.0000 C   0  0  0  0  0  0  0  0  0  0  0  0
   -3.2000    2.7713    0.0000 O   0  0  0  0  0  0  0  0  0  0  0  0
   -4.8000    2.7713    0.0000 H   0  0  0  0  0  0  0  0  0  0  0  0
   -3.2000   -0.0000    0.0000 C   0  0  0  0  0  0  0  0  0  0  0  0
   -4.8000   -0.0000    0.0000 H   0  0  0  0  0  0  0  0  0  0  0  0
   -2.3999   -1.3856    0.0000 C   0  0  0  0  0  0  0  0  0  0  0  0
   -3.2000   -2.7713    0.0000 O   0  0  0  0  0  0  0  0  0  0  0  0
   -4.8000   -2.7713    0.0000 H   0  0  0  0  0  0  0  0  0  0  0  0
   -0.7999   -1.3856    0.0000 C   0  0  0  0  0  0  0  0  0  0  0  0
    0.0000   -2.7713    0.0000 H   0  0  0  0  0  0  0  0  0  0  0  0
    1.6000   -0.0000    0.0000 C   0  0  0  0  0  0  0  0  0  0  0  0
    3.2000   -0.0000    0.0000 H   0  0  0  0  0  0  0  0  0  0  0  0
    2.4001   -1.3856    0.0000 H   0  0  0  0  0  0  0  0  0  0  0  0
    2.4001    1.3856    0.0000 H   0  0  0  0  0  0  0  0  0  0  0  0
  1  2  1  0  0  0  0
  2  3  1  0  0  0  0
  2  4  2  0  0  0  0
  4  5  1  0  0  0  0
  5  6  1  0  0  0  0
  4  7  1  0  0  0  0
  7  8  1  0  0  0  0
  7  9  2  0  0  0  0
  9 10  1  0  0  0  0
 10 11  1  0  0  0  0
  9 12  1  0  0  0  0
 12  1  2  0  0  0  0
 12 13  1  0  0  0  0
  1 14  1  0  0  0  0
 14 15  1  0  0  0  0
 14 16  1  0  0  0  0
 14 17  1  0  0  0  0
M  END
> <ChemID>
100769

> <source_casrn>
504-15-4

> <CAS>
504-15-4

> <SMILES>
Cc1cc(O)cc(O)c1

> <NAME>
Orcinol

> <preferred_name>
1,3-Benzenediol, 5-methyl-

> <iupac>
5-methylbenzene-1,3-diol

> <MPID>
100776

> <dsstox_substance_id>
DTXSID2060123

> <Canonical_QSARr>
Cc1cc(O)cc(O)c1

> <InChI_Code_QSARr>
InChI=1S/C7H8O2/c1-5-2-6(8)4-7(9)3-5/h2-4,8-9H,1H3

> <InChI Key_QSARr>
OIPPWFOQEKKFEE-UHFFFAOYSA-N

> <Salt_Solvent>
?

> <Ready_Biodeg>
0.0

$$$$
100770
  -INDIGO-08031722522D

 13 13  0  0  0  0  0  0  0  0999 V2000
    0.0000   -0.0000    0.0000 C   0  0  0  0  0  0  0  0  0  0  0  0
   -0.8000    1.3856    0.0000 C   0  0  0  0  0  0  0  0  0  0  0  0
    0.0000    2.7713    0.0000 H   0  0  0  0  0  0  0  0  0  0  0  0
   -2.4000    1.3856    0.0000 C   0  0  0  0  0  0  0  0  0  0  0  0
   -3.2000    2.7713    0.0000 H   0  0  0  0  0  0  0  0  0  0  0  0
   -3.2000   -0.0000    0.0000 N   0  0  0  0  0  0  0  0  0  0  0  0
   -2.4000   -1.3856    0.0000 C   0  0  0  0  0  0  0  0  0  0  0  0
   -3.2000   -2.7713    0.0000 H   0  0  0  0  0  0  0  0  0  0  0  0
   -0.8000   -1.3856    0.0000 C   0  0  0  0  0  0  0  0  0  0  0  0
    0.0000   -2.7713    0.0000 H   0  0  0  0  0  0  0  0  0  0  0  0
    1.6000   -0.0000    0.0000 N   0  0  0  0  0  0  0  0  0  0  0  0
    2.4000    1.3856    0.0000 H   0  0  0  0  0  0  0  0  0  0  0  0
    2.4000   -1.3856    0.0000 H   0  0  0  0  0  0  0  0  0  0  0  0
  1  2  1  0  0  0  0
  2  3  1  0  0  0  0
  2  4  2  0  0  0  0
  4  5  1  0  0  0  0
  4  6  1  0  0  0  0
  6  7  2  0  0  0  0
  7  8  1  0  0  0  0
  7  9  1  0  0  0  0
  9  1  2  0  0  0  0
  9 10  1  0  0  0  0
  1 11  1  0  0  0  0
 11 12  1  0  0  0  0
 11 13  1  0  0  0  0
M  END
> <ChemID>
100770

> <source_casrn>
504-24-5

> <CAS>
504-24-5

> <SMILES>
Nc1cc[n]cc1

> <NAME>
4-Pyridinamine

> <preferred_name>
4-Aminopyridine

> <iupac>
pyridin-4-amine

> <MPID>
100777

> <dsstox_substance_id>
DTXSID0023870

> <Canonical_QSARr>
Nc1cc[n]cc1

> <InChI_Code_QSARr>
InChI=1S/C5H6N2/c6-5-1-3-7-4-2-5/h1-4H,(H2,6,7)

> <InChI Key_QSARr>
NUKYPUAOHBNCPY-UHFFFAOYSA-N

> <Salt_Solvent>
?

> <Ready_Biodeg>
0.0

$$$$
100772
  -INDIGO-08031722522D

 50 49  0  0  0  0  0  0  0  0999 V2000
   -9.6997   -0.8000    0.0000 C   0  0  0  0  0  0  0  0  0  0  0  0
   -8.3137    0.0000    0.0000 C   0  0  0  0  0  0  0  0  0  0  0  0
   -8.9263    1.4782    0.0000 H   0  0  0  0  0  0  0  0  0  0  0  0
   -7.7015    1.4782    0.0000 H   0  0  0  0  0  0  0  0  0  0  0  0
   -6.9281   -0.8000    0.0000 C   0  0  0  0  0  0  0  0  0  0  0  0
   -6.3159   -2.2782    0.0000 H   0  0  0  0  0  0  0  0  0  0  0  0
   -7.5404   -2.2782    0.0000 H   0  0  0  0  0  0  0  0  0  0  0  0
   -5.5426    0.0000    0.0000 C   0  0  0  0  0  0  0  0  0  0  0  0
   -6.1548    1.4782    0.0000 H   0  0  0  0  0  0  0  0  0  0  0  0
   -4.9304    1.4782    0.0000 H   0  0  0  0  0  0  0  0  0  0  0  0
   -4.1570   -0.8000    0.0000 C   0  0  0  0  0  0  0  0  0  0  0  0
   -3.5448   -2.2782    0.0000 H   0  0  0  0  0  0  0  0  0  0  0  0
   -4.7693   -2.2782    0.0000 H   0  0  0  0  0  0  0  0  0  0  0  0
   -2.7715    0.0000    0.0000 C   0  0  0  0  0  0  0  0  0  0  0  0
   -3.3837    1.4782    0.0000 H   0  0  0  0  0  0  0  0  0  0  0  0
   -2.1588    1.4782    0.0000 H   0  0  0  0  0  0  0  0  0  0  0  0
   -1.3855   -0.8000    0.0000 C   0  0  0  0  0  0  0  0  0  0  0  0
   -0.7733   -2.2782    0.0000 H   0  0  0  0  0  0  0  0  0  0  0  0
   -1.9977   -2.2782    0.0000 H   0  0  0  0  0  0  0  0  0  0  0  0
    0.0000    0.0000    0.0000 C   0  0  0  0  0  0  0  0  0  0  0  0
   -0.6122    1.4782    0.0000 H   0  0  0  0  0  0  0  0  0  0  0  0
    0.6123    1.4782    0.0000 H   0  0  0  0  0  0  0  0  0  0  0  0
    1.3856   -0.8000    0.0000 C   0  0  0  0  0  0  0  0  0  0  0  0
    1.9978   -2.2782    0.0000 H   0  0  0  0  0  0  0  0  0  0  0  0
    0.7734   -2.2782    0.0000 H   0  0  0  0  0  0  0  0  0  0  0  0
    2.7712    0.0000    0.0000 C   0  0  0  0  0  0  0  0  0  0  0  0
    2.1589    1.4782    0.0000 H   0  0  0  0  0  0  0  0  0  0  0  0
    3.3834    1.4782    0.0000 H   0  0  0  0  0  0  0  0  0  0  0  0
    4.1571   -0.8000    0.0000 C   0  0  0  0  0  0  0  0  0  0  0  0
    4.7693   -2.2782    0.0000 H   0  0  0  0  0  0  0  0  0  0  0  0
    3.5445   -2.2782    0.0000 H   0  0  0  0  0  0  0  0  0  0  0  0
    5.5427    0.0000    0.0000 C   0  0  0  0  0  0  0  0  0  0  0  0
    4.9304    1.4782    0.0000 H   0  0  0  0  0  0  0  0  0  0  0  0
    6.1549    1.4782    0.0000 H   0  0  0  0  0  0  0  0  0  0  0  0
    6.9282   -0.8000    0.0000 C   0  0  0  0  0  0  0  0  0  0  0  0
    7.5405   -2.2782    0.0000 H   0  0  0  0  0  0  0  0  0  0  0  0
    6.3160   -2.2782    0.0000 H   0  0  0  0  0  0  0  0  0  0  0  0
    8.3138    0.0000    0.0000 C   0  0  0  0  0  0  0  0  0  0  0  0
    7.7015    1.4782    0.0000 H   0  0  0  0  0  0  0  0  0  0  0  0
    8.9260    1.4782    0.0000 H   0  0  0  0  0  0  0  0  0  0  0  0
    9.6993   -0.8000    0.0000 C   0  0  0  0  0  0  0  0  0  0  0  0
   10.3120   -2.2782    0.0000 H   0  0  0  0  0  0  0  0  0  0  0  0
    9.0871   -2.2782    0.0000 H   0  0  0  0  0  0  0  0  0  0  0  0
   11.0853    0.0000    0.0000 C   0  0  0  0  0  0  0  0  0  0  0  0
   12.4709   -0.8000    0.0000 O   0  0  0  0  0  0  0  0  0  0  0  0
   13.8564    0.0000    0.0000 H   0  0  0  0  0  0  0  0  0  0  0  0
   11.0853    1.6000    0.0000 O   0  0  0  0  0  0  0  0  0  0  0  0
  -11.0852    0.0000    0.0000 O   0  0  0  0  0  0  0  0  0  0  0  0
  -12.4708   -0.8000    0.0000 H   0  0  0  0  0  0  0  0  0  0  0  0
   -9.6997   -2.4000    0.0000 O   0  0  0  0  0  0  0  0  0  0  0  0
  1  2  1  0  0  0  0
  2  3  1  0  0  0  0
  2  4  1  0  0  0  0
  2  5  1  0  0  0  0
  5  6  1  0  0  0  0
  5  7  1  0  0  0  0
  5  8  1  0  0  0  0
  8  9  1  0  0  0  0
  8 10  1  0  0  0  0
  8 11  1  0  0  0  0
 11 12  1  0  0  0  0
 11 13  1  0  0  0  0
 11 14  1  0  0  0  0
 14 15  1  0  0  0  0
 14 16  1  0  0  0  0
 14 17  1  0  0  0  0
 17 18  1  0  0  0  0
 17 19  1  0  0  0  0
 17 20  1  0  0  0  0
 20 21  1  0  0  0  0
 20 22  1  0  0  0  0
 20 23  1  0  0  0  0
 23 24  1  0  0  0  0
 23 25  1  0  0  0  0
 23 26  1  0  0  0  0
 26 27  1  0  0  0  0
 26 28  1  0  0  0  0
 26 29  1  0  0  0  0
 29 30  1  0  0  0  0
 29 31  1  0  0  0  0
 29 32  1  0  0  0  0
 32 33  1  0  0  0  0
 32 34  1  0  0  0  0
 32 35  1  0  0  0  0
 35 36  1  0  0  0  0
 35 37  1  0  0  0  0
 35 38  1  0  0  0  0
 38 39  1  0  0  0  0
 38 40  1  0  0  0  0
 38 41  1  0  0  0  0
 41 42  1  0  0  0  0
 41 43  1  0  0  0  0
 41 44  1  0  0  0  0
 44 45  1  0  0  0  0
 45 46  1  0  0  0  0
 44 47  2  0  0  0  0
  1 48  1  0  0  0  0
 48 49  1  0  0  0  0
  1 50  2  0  0  0  0
M  END
> <ChemID>
100772

> <source_casrn>
505-54-4

> <CAS>
505-54-4

> <SMILES>
OC(=O)CCCCCCCCCCCCCCC(O)=O

> <NAME>
Hexadecanedioic acid

> <preferred_name>
Hexadecanedioic acid

> <iupac>
Hexadecanedioic acid

> <MPID>
100779

> <dsstox_substance_id>
DTXSID2060129

> <Canonical_QSARr>
OC(=O)CCCCCCCCCCCCCCC(O)=O

> <InChI_Code_QSARr>
InChI=1S/C16H30O4/c17-15(18)13-11-9-7-5-3-1-2-4-6-8-10-12-14-16(19)20/h1-14H2,(H,17,18)(H,19,20)

> <InChI Key_QSARr>
QQHJDPROMQRDLA-UHFFFAOYSA-N

> <Salt_Solvent>
?

> <Ready_Biodeg>
1.0

$$$$
100773
  -INDIGO-08031722522D

 81 80  0  0  0  0  0  0  0  0999 V2000
   -9.6995   -0.8000    0.0000 C   0  0  0  0  0  0  0  0  0  0  0  0
   -9.0874   -2.2782    0.0000 H   0  0  0  0  0  0  0  0  0  0  0  0
  -10.3117   -2.2782    0.0000 H   0  0  0  0  0  0  0  0  0  0  0  0
   -8.3136    0.0000    0.0000 C   0  0  0  0  0  0  0  0  0  0  0  0
   -8.9264    1.4782    0.0000 H   0  0  0  0  0  0  0  0  0  0  0  0
   -7.7015    1.4782    0.0000 H   0  0  0  0  0  0  0  0  0  0  0  0
   -6.9283   -0.8000    0.0000 C   0  0  0  0  0  0  0  0  0  0  0  0
   -6.3161   -2.2782    0.0000 H   0  0  0  0  0  0  0  0  0  0  0  0
   -7.5404   -2.2782    0.0000 H   0  0  0  0  0  0  0  0  0  0  0  0
   -5.5424    0.0000    0.0000 C   0  0  0  0  0  0  0  0  0  0  0  0
   -6.1551    1.4782    0.0000 H   0  0  0  0  0  0  0  0  0  0  0  0
   -4.9302    1.4782    0.0000 H   0  0  0  0  0  0  0  0  0  0  0  0
   -4.1571   -0.8000    0.0000 C   0  0  0  0  0  0  0  0  0  0  0  0
   -3.5449   -2.2782    0.0000 H   0  0  0  0  0  0  0  0  0  0  0  0
   -4.7692   -2.2782    0.0000 H   0  0  0  0  0  0  0  0  0  0  0  0
   -2.7711    0.0000    0.0000 C   0  0  0  0  0  0  0  0  0  0  0  0
   -3.3833    1.4782    0.0000 H   0  0  0  0  0  0  0  0  0  0  0  0
   -2.1590    1.4782    0.0000 H   0  0  0  0  0  0  0  0  0  0  0  0
   -1.3858   -0.8000    0.0000 C   0  0  0  0  0  0  0  0  0  0  0  0
   -0.7731   -2.2782    0.0000 H   0  0  0  0  0  0  0  0  0  0  0  0
   -1.9980   -2.2782    0.0000 H   0  0  0  0  0  0  0  0  0  0  0  0
    0.0001    0.0000    0.0000 C   0  0  0  0  0  0  0  0  0  0  0  0
   -0.6120    1.4782    0.0000 H   0  0  0  0  0  0  0  0  0  0  0  0
    0.6123    1.4782    0.0000 H   0  0  0  0  0  0  0  0  0  0  0  0
    1.3854   -0.8000    0.0000 C   0  0  0  0  0  0  0  0  0  0  0  0
    1.9982   -2.2782    0.0000 H   0  0  0  0  0  0  0  0  0  0  0  0
    0.7733   -2.2782    0.0000 H   0  0  0  0  0  0  0  0  0  0  0  0
    2.7713    0.0000    0.0000 C   0  0  0  0  0  0  0  0  0  0  0  0
    2.1592    1.4782    0.0000 H   0  0  0  0  0  0  0  0  0  0  0  0
    3.3835    1.4782    0.0000 H   0  0  0  0  0  0  0  0  0  0  0  0
    4.1567   -0.8000    0.0000 C   0  0  0  0  0  0  0  0  0  0  0  0
    4.7694   -2.2782    0.0000 H   0  0  0  0  0  0  0  0  0  0  0  0
    3.5445   -2.2782    0.0000 H   0  0  0  0  0  0  0  0  0  0  0  0
    5.5426    0.0000    0.0000 C   0  0  0  0  0  0  0  0  0  0  0  0
    4.9304    1.4782    0.0000 H   0  0  0  0  0  0  0  0  0  0  0  0
    6.1547    1.4782    0.0000 H   0  0  0  0  0  0  0  0  0  0  0  0
    6.9285   -0.8000    0.0000 C   0  0  0  0  0  0  0  0  0  0  0  0
    7.5406   -2.2782    0.0000 H   0  0  0  0  0  0  0  0  0  0  0  0
    6.3158   -2.2782    0.0000 H   0  0  0  0  0  0  0  0  0  0  0  0
    8.3138    0.0000    0.0000 C   0  0  0  0  0  0  0  0  0  0  0  0
    7.7017    1.4782    0.0000 H   0  0  0  0  0  0  0  0  0  0  0  0
    8.9260    1.4782    0.0000 H   0  0  0  0  0  0  0  0  0  0  0  0
    9.6997   -0.8000    0.0000 C   0  0  0  0  0  0  0  0  0  0  0  0
   10.3119   -2.2782    0.0000 H   0  0  0  0  0  0  0  0  0  0  0  0
    9.0870   -2.2782    0.0000 H   0  0  0  0  0  0  0  0  0  0  0  0
   11.0851    0.0000    0.0000 C   0  0  0  0  0  0  0  0  0  0  0  0
   10.4729    1.4782    0.0000 H   0  0  0  0  0  0  0  0  0  0  0  0
   11.6972    1.4782    0.0000 H   0  0  0  0  0  0  0  0  0  0  0  0
   12.4710   -0.8000    0.0000 C   0  0  0  0  0  0  0  0  0  0  0  0
   13.0831   -2.2782    0.0000 H   0  0  0  0  0  0  0  0  0  0  0  0
   11.8582   -2.2782    0.0000 H   0  0  0  0  0  0  0  0  0  0  0  0
   13.8563    0.0000    0.0000 C   0  0  0  0  0  0  0  0  0  0  0  0
   13.2442    1.4782    0.0000 H   0  0  0  0  0  0  0  0  0  0  0  0
   14.4684    1.4782    0.0000 H   0  0  0  0  0  0  0  0  0  0  0  0
   15.2422   -0.8000    0.0000 C   0  0  0  0  0  0  0  0  0  0  0  0
   15.8544   -2.2782    0.0000 H   0  0  0  0  0  0  0  0  0  0  0  0
   14.6295   -2.2782    0.0000 H   0  0  0  0  0  0  0  0  0  0  0  0
   16.6275    0.0000    0.0000 C   0  0  0  0  0  0  0  0  0  0  0  0
   16.0154    1.4782    0.0000 H   0  0  0  0  0  0  0  0  0  0  0  0
   17.2403    1.4782    0.0000 H   0  0  0  0  0  0  0  0  0  0  0  0
   18.0135   -0.8000    0.0000 C   0  0  0  0  0  0  0  0  0  0  0  0
   18.6256   -2.2782    0.0000 H   0  0  0  0  0  0  0  0  0  0  0  0
   17.4013   -2.2782    0.0000 H   0  0  0  0  0  0  0  0  0  0  0  0
   19.3988    0.0000    0.0000 C   0  0  0  0  0  0  0  0  0  0  0  0
   18.7866    1.4782    0.0000 H   0  0  0  0  0  0  0  0  0  0  0  0
   20.0115    1.4782    0.0000 H   0  0  0  0  0  0  0  0  0  0  0  0
   20.7847   -0.8000    0.0000 C   0  0  0  0  0  0  0  0  0  0  0  0
   21.3968   -2.2782    0.0000 H   0  0  0  0  0  0  0  0  0  0  0  0
   20.1725   -2.2782    0.0000 H   0  0  0  0  0  0  0  0  0  0  0  0
   22.1700    0.0000    0.0000 C   0  0  0  0  0  0  0  0  0  0  0  0
   21.5579    1.4782    0.0000 H   0  0  0  0  0  0  0  0  0  0  0  0
   22.7828    1.4782    0.0000 H   0  0  0  0  0  0  0  0  0  0  0  0
   23.5559   -0.8000    0.0000 C   0  0  0  0  0  0  0  0  0  0  0  0
   24.1681   -2.2782    0.0000 H   0  0  0  0  0  0  0  0  0  0  0  0
   22.9438   -2.2782    0.0000 H   0  0  0  0  0  0  0  0  0  0  0  0
   24.9413    0.0000    0.0000 C   0  0  0  0  0  0  0  0  0  0  0  0
   26.3272    0.8000    0.0000 H   0  0  0  0  0  0  0  0  0  0  0  0
   26.3272   -0.8000    0.0000 H   0  0  0  0  0  0  0  0  0  0  0  0
   24.9413    1.6000    0.0000 H   0  0  0  0  0  0  0  0  0  0  0  0
  -11.0849    0.0000    0.0000 O   0  0  0  0  0  0  0  0  0  0  0  0
  -12.4708   -0.8000    0.0000 H   0  0  0  0  0  0  0  0  0  0  0  0
  1  2  1  0  0  0  0
  1  3  1  0  0  0  0
  1  4  1  0  0  0  0
  4  5  1  0  0  0  0
  4  6  1  0  0  0  0
  4  7  1  0  0  0  0
  7  8  1  0  0  0  0
  7  9  1  0  0  0  0
  7 10  1  0  0  0  0
 10 11  1  0  0  0  0
 10 12  1  0  0  0  0
 10 13  1  0  0  0  0
 13 14  1  0  0  0  0
 13 15  1  0  0  0  0
 13 16  1  0  0  0  0
 16 17  1  0  0  0  0
 16 18  1  0  0  0  0
 16 19  1  0  0  0  0
 19 20  1  0  0  0  0
 19 21  1  0  0  0  0
 19 22  1  0  0  0  0
 22 23  1  0  0  0  0
 22 24  1  0  0  0  0
 22 25  1  0  0  0  0
 25 26  1  0  0  0  0
 25 27  1  0  0  0  0
 25 28  1  0  0  0  0
 28 29  1  0  0  0  0
 28 30  1  0  0  0  0
 28 31  1  0  0  0  0
 31 32  1  0  0  0  0
 31 33  1  0  0  0  0
 31 34  1  0  0  0  0
 34 35  1  0  0  0  0
 34 36  1  0  0  0  0
 34 37  1  0  0  0  0
 37 38  1  0  0  0  0
 37 39  1  0  0  0  0
 37 40  1  0  0  0  0
 40 41  1  0  0  0  0
 40 42  1  0  0  0  0
 40 43  1  0  0  0  0
 43 44  1  0  0  0  0
 43 45  1  0  0  0  0
 43 46  1  0  0  0  0
 46 47  1  0  0  0  0
 46 48  1  0  0  0  0
 46 49  1  0  0  0  0
 49 50  1  0  0  0  0
 49 51  1  0  0  0  0
 49 52  1  0  0  0  0
 52 53  1  0  0  0  0
 52 54  1  0  0  0  0
 52 55  1  0  0  0  0
 55 56  1  0  0  0  0
 55 57  1  0  0  0  0
 55 58  1  0  0  0  0
 58 59  1  0  0  0  0
 58 60  1  0  0  0  0
 58 61  1  0  0  0  0
 61 62  1  0  0  0  0
 61 63  1  0  0  0  0
 61 64  1  0  0  0  0
 64 65  1  0  0  0  0
 64 66  1  0  0  0  0
 64 67  1  0  0  0  0
 67 68  1  0  0  0  0
 67 69  1  0  0  0  0
 67 70  1  0  0  0  0
 70 71  1  0  0  0  0
 70 72  1  0  0  0  0
 70 73  1  0  0  0  0
 73 74  1  0  0  0  0
 73 75  1  0  0  0  0
 73 76  1  0  0  0  0
 76 77  1  0  0  0  0
 76 78  1  0  0  0  0
 76 79  1  0  0  0  0
  1 80  1  0  0  0  0
 80 81  1  0  0  0  0
M  END
> <ChemID>
100773

> <source_casrn>
506-52-5

> <CAS>
506-52-5

> <SMILES>
CCCCCCCCCCCCCCCCCCCCCCCCCCO

> <NAME>
1-Hexacosanol

> <preferred_name>
1-Hexacosanol

> <iupac>
hexacosan-1-ol

> <MPID>
100780

> <dsstox_substance_id>
DTXSID3027162

> <Canonical_QSARr>
CCCCCCCCCCCCCCCCCCCCCCCCCCO

> <InChI_Code_QSARr>
InChI=1S/C26H54O/c1-2-3-4-5-6-7-8-9-10-11-12-13-14-15-16-17-18-19-20-21-22-23-24-25-26-27/h27H,2-26H2,1H3

> <InChI Key_QSARr>
IRHTZOCLLONTOC-UHFFFAOYSA-N

> <Salt_Solvent>
?

> <Ready_Biodeg>
1.0

$$$$
100774
  -INDIGO-08031722522D

 14 13  0  0  0  0  0  0  0  0999 V2000
    1.6000    0.0000    0.0000 C   0  0  0  0  0  0  0  0  0  0  0  0
    3.2000    0.0000    0.0000 H   0  0  0  0  0  0  0  0  0  0  0  0
    2.4000   -1.3856    0.0000 H   0  0  0  0  0  0  0  0  0  0  0  0
    2.4000    1.3856    0.0000 H   0  0  0  0  0  0  0  0  0  0  0  0
    0.0000    0.0000    0.0000 C   0  0  0  0  0  0  0  0  0  0  0  0
   -1.6000    0.0000    0.0000 C   0  0  0  0  0  0  0  0  0  0  0  0
   -3.2000    0.0000    0.0000 H   0  0  0  0  0  0  0  0  0  0  0  0
   -2.4000   -1.3856    0.0000 H   0  0  0  0  0  0  0  0  0  0  0  0
   -2.4000    1.3856    0.0000 H   0  0  0  0  0  0  0  0  0  0  0  0
    0.0000    1.6000    0.0000 C   0  0  0  0  0  0  0  0  0  0  0  0
   -0.0000    3.2000    0.0000 H   0  0  0  0  0  0  0  0  0  0  0  0
    1.3856    2.4000    0.0000 H   0  0  0  0  0  0  0  0  0  0  0  0
   -1.3856    2.4000    0.0000 H   0  0  0  0  0  0  0  0  0  0  0  0
    0.0000   -1.6000    0.0000 Cl  0  0  0  0  0  0  0  0  0  0  0  0
  1  2  1  0  0  0  0
  1  3  1  0  0  0  0
  1  4  1  0  0  0  0
  1  5  1  0  0  0  0
  5  6  1  0  0  0  0
  6  7  1  0  0  0  0
  6  8  1  0  0  0  0
  6  9  1  0  0  0  0
  5 10  1  0  0  0  0
 10 11  1  0  0  0  0
 10 12  1  0  0  0  0
 10 13  1  0  0  0  0
  5 14  1  0  0  0  0
M  END
> <ChemID>
100774

> <source_casrn>
507-20-0

> <CAS>
507-20-0

> <SMILES>
CC(C)(C)Cl

> <NAME>
Trimethylchloromethane

> <preferred_name>
t-Butylchloride

> <iupac>
2-chloro-2-methylpropane

> <MPID>
100781

> <dsstox_substance_id>
DTXSID2023937

> <Canonical_QSARr>
CC(C)(C)Cl

> <InChI_Code_QSARr>
InChI=1S/C4H9Cl/c1-4(2,3)5/h1-3H3

> <InChI Key_QSARr>
NBRKLOOSMBRFMH-UHFFFAOYSA-N

> <Salt_Solvent>
?

> <Ready_Biodeg>
0.0

$$$$
100777
  -INDIGO-08031722522D

 17 16  0  0  0  0  0  0  0  0999 V2000
    0.8000   -1.3856    0.0000 O   0  0  0  0  0  0  0  0  0  0  0  0
    0.0001    0.0000    0.0000 P   0  0  0  0  0  0  0  0  0  0  0  0
    1.6001    0.0000    0.0000 O   0  0  0  0  0  0  0  0  0  0  0  0
    2.4000   -1.3856    0.0000 C   0  0  0  0  0  0  0  0  0  0  0  0
    4.0000   -1.3856    0.0000 H   0  0  0  0  0  0  0  0  0  0  0  0
    3.2001   -2.7713    0.0000 H   0  0  0  0  0  0  0  0  0  0  0  0
    1.6001   -2.7713    0.0000 H   0  0  0  0  0  0  0  0  0  0  0  0
    0.8000    1.3856    0.0000 O   0  0  0  0  0  0  0  0  0  0  0  0
    0.0001    2.7713    0.0000 C   0  0  0  0  0  0  0  0  0  0  0  0
   -0.8000    4.1569    0.0000 H   0  0  0  0  0  0  0  0  0  0  0  0
    0.8000    4.1569    0.0000 H   0  0  0  0  0  0  0  0  0  0  0  0
   -1.5999    2.7713    0.0000 H   0  0  0  0  0  0  0  0  0  0  0  0
   -1.5999    0.0000    0.0000 O   0  0  0  0  0  0  0  0  0  0  0  0
   -2.4000   -1.3856    0.0000 C   0  0  0  0  0  0  0  0  0  0  0  0
   -3.2001   -2.7713    0.0000 H   0  0  0  0  0  0  0  0  0  0  0  0
   -4.0000   -1.3856    0.0000 H   0  0  0  0  0  0  0  0  0  0  0  0
   -1.5999   -2.7713    0.0000 H   0  0  0  0  0  0  0  0  0  0  0  0
  1  2  2  0  0  0  0
  2  3  1  0  0  0  0
  3  4  1  0  0  0  0
  4  5  1  0  0  0  0
  4  6  1  0  0  0  0
  4  7  1  0  0  0  0
  2  8  1  0  0  0  0
  8  9  1  0  0  0  0
  9 10  1  0  0  0  0
  9 11  1  0  0  0  0
  9 12  1  0  0  0  0
  2 13  1  0  0  0  0
 13 14  1  0  0  0  0
 14 15  1  0  0  0  0
 14 16  1  0  0  0  0
 14 17  1  0  0  0  0
M  END
> <ChemID>
100777

> <source_casrn>
512-56-1

> <CAS>
512-56-1

> <SMILES>
COP(=O)(OC)OC

> <NAME>
Phosphoric acid, trimethyl ester

> <preferred_name>
Trimethyl phosphate

> <iupac>
trimethyl phosphate

> <MPID>
100784

> <dsstox_substance_id>
DTXSID1021403

> <Canonical_QSARr>
COP(=O)(OC)OC

> <InChI_Code_QSARr>
InChI=1S/C3H9O4P/c1-5-8(4,6-2)7-3/h1-3H3

> <InChI Key_QSARr>
WVLBCYQITXONBZ-UHFFFAOYSA-N

> <Salt_Solvent>
?

> <Ready_Biodeg>
0.0

$$$$
100778
  -INDIGO-08031722522D

 16 15  0  0  0  0  0  0  0  0999 V2000
    1.6000   -0.0000    0.0000 C   0  0  0  0  0  0  0  0  0  0  0  0
    3.2000   -0.0000    0.0000 H   0  0  0  0  0  0  0  0  0  0  0  0
    2.4001   -1.3857    0.0000 H   0  0  0  0  0  0  0  0  0  0  0  0
    2.4001    1.3857    0.0000 H   0  0  0  0  0  0  0  0  0  0  0  0
    0.0000    0.0000    0.0000 C   0  0  0  0  0  0  0  0  0  0  0  0
    0.0000   -1.6000    0.0000 H   0  0  0  0  0  0  0  0  0  0  0  0
   -1.6000    0.0000    0.0000 C   0  0  0  0  0  0  0  0  0  0  0  0
   -1.6000    1.6000    0.0000 H   0  0  0  0  0  0  0  0  0  0  0  0
   -3.2000    0.0000    0.0000 C   0  0  0  0  0  0  0  0  0  0  0  0
   -4.8000    0.0000    0.0000 H   0  0  0  0  0  0  0  0  0  0  0  0
   -3.9999    1.3857    0.0000 H   0  0  0  0  0  0  0  0  0  0  0  0
   -4.0001   -1.3857    0.0000 H   0  0  0  0  0  0  0  0  0  0  0  0
   -1.6000   -1.6000    0.0000 O   0  0  0  0  0  0  0  0  0  0  0  0
   -2.9856   -2.4000    0.0000 H   0  0  0  0  0  0  0  0  0  0  0  0
    0.0000    1.6000    0.0000 O   0  0  0  0  0  0  0  0  0  0  0  0
    1.3856    2.4000    0.0000 H   0  0  0  0  0  0  0  0  0  0  0  0
  1  2  1  0  0  0  0
  1  3  1  0  0  0  0
  1  4  1  0  0  0  0
  1  5  1  0  0  0  0
  5  6  1  0  0  0  0
  5  7  1  0  0  0  0
  7  8  1  0  0  0  0
  7  9  1  0  0  0  0
  9 10  1  0  0  0  0
  9 11  1  0  0  0  0
  9 12  1  0  0  0  0
  7 13  1  0  0  0  0
 13 14  1  0  0  0  0
  5 15  1  0  0  0  0
 15 16  1  0  0  0  0
M  END
> <ChemID>
100778

> <source_casrn>
513-85-9

> <CAS>
513-85-9

> <SMILES>
CC(O)C(C)O

> <NAME>
2,3-Butanediol

> <preferred_name>
2,3-Butanediol

> <iupac>
butane-2,3-diol

> <MPID>
100785

> <dsstox_substance_id>
DTXSID8041321

> <Canonical_QSARr>
CC(O)C(C)O

> <InChI_Code_QSARr>
InChI=1S/C4H10O2/c1-3(5)4(2)6/h3-6H,1-2H3

> <InChI Key_QSARr>
OWBTYPJTUOEWEK-UHFFFAOYSA-N

> <Salt_Solvent>
?

> <Ready_Biodeg>
1.0

$$$$
100779
  -INDIGO-08031722522D

 52 54  0  0  0  0  0  0  0  0999 V2000
   -0.0000    0.0000    0.0000 C   0  0  0  0  0  0  0  0  0  0  0  0
    1.5999    0.0000    0.0000 C   0  0  0  0  0  0  0  0  0  0  0  0
    1.5092   -0.9718    0.0000 H   0  0  0  0  0  0  0  0  0  0  0  0
    2.4000    1.3857    0.0000 C   0  0  0  0  0  0  0  0  0  0  0  0
    4.0000    1.3857    0.0000 C   0  0  0  0  0  0  0  0  0  0  0  0
    4.8001    2.7712    0.0000 H   0  0  0  0  0  0  0  0  0  0  0  0
    4.8001    0.0000    0.0000 C   0  0  0  0  0  0  0  0  0  0  0  0
    4.0000   -1.3857    0.0000 C   0  0  0  0  0  0  0  0  0  0  0  0
    3.7222   -2.9613    0.0000 H   0  0  0  0  0  0  0  0  0  0  0  0
    5.5036   -1.9328    0.0000 H   0  0  0  0  0  0  0  0  0  0  0  0
    2.4000   -1.3857    0.0000 C   0  0  0  0  0  0  0  0  0  0  0  0
    0.8965   -1.9329    0.0000 H   0  0  0  0  0  0  0  0  0  0  0  0
    2.6778   -2.9613    0.0000 H   0  0  0  0  0  0  0  0  0  0  0  0
    6.4001    0.0000    0.0000 C   0  0  0  0  0  0  0  0  0  0  0  0
    6.4001   -1.6000    0.0000 H   0  0  0  0  0  0  0  0  0  0  0  0
    8.0000    0.0000    0.0000 C   0  0  0  0  0  0  0  0  0  0  0  0
    9.6000    0.0000    0.0000 H   0  0  0  0  0  0  0  0  0  0  0  0
    8.7999    1.3857    0.0000 H   0  0  0  0  0  0  0  0  0  0  0  0
    8.7999   -1.3857    0.0000 H   0  0  0  0  0  0  0  0  0  0  0  0
    6.4001    1.6000    0.0000 C   0  0  0  0  0  0  0  0  0  0  0  0
    6.4001    3.1999    0.0000 H   0  0  0  0  0  0  0  0  0  0  0  0
    7.7857    2.4000    0.0000 H   0  0  0  0  0  0  0  0  0  0  0  0
    7.7857    0.8000    0.0000 H   0  0  0  0  0  0  0  0  0  0  0  0
    1.5999    2.7712    0.0000 C   0  0  0  0  0  0  0  0  0  0  0  0
    2.4000    4.1569    0.0000 H   0  0  0  0  0  0  0  0  0  0  0  0
   -0.0000    2.7712    0.0000 C   0  0  0  0  0  0  0  0  0  0  0  0
    0.2779    4.3470    0.0000 H   0  0  0  0  0  0  0  0  0  0  0  0
   -0.4592    3.3185    0.0000 H   0  0  0  0  0  0  0  0  0  0  0  0
   -0.7999    1.3857    0.0000 C   0  0  0  0  0  0  0  0  0  0  0  0
   -1.6000    2.7712    0.0000 H   0  0  0  0  0  0  0  0  0  0  0  0
   -2.3999    1.3857    0.0000 C   0  0  0  0  0  0  0  0  0  0  0  0
   -2.1221    2.9613    0.0000 C   0  0  0  0  0  0  0  0  0  0  0  0
   -1.5036    3.3185    0.0000 O   0  0  0  0  0  0  0  0  0  0  0  0
   -3.3479    3.9898    0.0000 O   0  0  0  0  0  0  0  0  0  0  0  0
   -3.0699    5.5655    0.0000 H   0  0  0  0  0  0  0  0  0  0  0  0
   -3.9035    1.9329    0.0000 C   0  0  0  0  0  0  0  0  0  0  0  0
   -5.4070    2.4802    0.0000 H   0  0  0  0  0  0  0  0  0  0  0  0
   -4.1814    3.5086    0.0000 H   0  0  0  0  0  0  0  0  0  0  0  0
   -5.1292    0.9044    0.0000 H   0  0  0  0  0  0  0  0  0  0  0  0
   -3.2000    0.0000    0.0000 C   0  0  0  0  0  0  0  0  0  0  0  0
   -4.4258    1.0285    0.0000 H   0  0  0  0  0  0  0  0  0  0  0  0
   -4.4256   -1.0284    0.0000 H   0  0  0  0  0  0  0  0  0  0  0  0
   -2.3999   -1.3857    0.0000 C   0  0  0  0  0  0  0  0  0  0  0  0
   -3.9035   -1.9329    0.0000 H   0  0  0  0  0  0  0  0  0  0  0  0
   -2.1221   -2.9613    0.0000 H   0  0  0  0  0  0  0  0  0  0  0  0
   -0.7999   -1.3857    0.0000 C   0  0  0  0  0  0  0  0  0  0  0  0
   -1.0779   -2.9613    0.0000 H   0  0  0  0  0  0  0  0  0  0  0  0
   -0.1358   -1.9938    0.0000 H   0  0  0  0  0  0  0  0  0  0  0  0
    0.4115   -0.4903    0.0000 C   0  0  0  0  0  0  0  0  0  0  0  0
    0.8001   -1.3857    0.0000 H   0  0  0  0  0  0  0  0  0  0  0  0
    0.5901   -1.3728    0.0000 H   0  0  0  0  0  0  0  0  0  0  0  0
   -1.1642   -0.7681    0.0000 H   0  0  0  0  0  0  0  0  0  0  0  0
  1  2  1  0  0  0  0
  2  3  1  0  0  0  0
  2  4  1  0  0  0  0
  4  5  1  0  0  0  0
  5  6  1  0  0  0  0
  5  7  2  0  0  0  0
  7  8  1  0  0  0  0
  8  9  1  0  0  0  0
  8 10  1  0  0  0  0
  8 11  1  0  0  0  0
 11  2  1  0  0  0  0
 11 12  1  0  0  0  0
 11 13  1  0  0  0  0
  7 14  1  0  0  0  0
 14 15  1  0  0  0  0
 14 16  1  0  0  0  0
 16 17  1  0  0  0  0
 16 18  1  0  0  0  0
 16 19  1  0  0  0  0
 14 20  1  0  0  0  0
 20 21  1  0  0  0  0
 20 22  1  0  0  0  0
 20 23  1  0  0  0  0
  4 24  2  0  0  0  0
 24 25  1  0  0  0  0
 24 26  1  0  0  0  0
 26 27  1  0  0  0  0
 26 28  1  0  0  0  0
 26 29  1  0  0  0  0
 29  1  1  0  0  0  0
 29 30  1  0  0  0  0
 29 31  1  0  0  0  0
 31 32  1  0  0  0  0
 32 33  2  0  0  0  0
 32 34  1  0  0  0  0
 34 35  1  0  0  0  0
 31 36  1  0  0  0  0
 36 37  1  0  0  0  0
 36 38  1  0  0  0  0
 36 39  1  0  0  0  0
 31 40  1  0  0  0  0
 40 41  1  0  0  0  0
 40 42  1  0  0  0  0
 40 43  1  0  0  0  0
 43 44  1  0  0  0  0
 43 45  1  0  0  0  0
 43 46  1  0  0  0  0
 46  1  1  0  0  0  0
 46 47  1  0  0  0  0
 46 48  1  0  0  0  0
  1 49  1  0  0  0  0
 49 50  1  0  0  0  0
 49 51  1  0  0  0  0
 49 52  1  0  0  0  0
M  END
> <ChemID>
100779

> <source_casrn>
514-10-3

> <CAS>
514-10-3

> <SMILES>
CC(C)C1CC[C@H]2C(C=1)=CC[C@H]1[C@@](C)(CCC[C@]21C)C(O)=O

> <NAME>
Abietic acid

> <preferred_name>
Abietic acid

> <iupac>
C20H30O2

> <MPID>
100786

> <dsstox_substance_id>
DTXSID7022047

> <Canonical_QSARr>
CC(C)C1CCC2C(C=1)=CCC1C(C)(CCCC21C)C(O)=O

> <InChI_Code_QSARr>
InChI=1S/C20H30O2/c1-13(2)14-6-8-16-15(12-14)7-9-17-19(16,3)10-5-11-20(17,4)18(21)22/h7,12-13,16-17H,5-6,8-11H2,1-4H3,(H,21,22)

> <InChI Key_QSARr>
RSWGJHLUYNHPMX-UHFFFAOYSA-N

> <Salt_Solvent>
?

> <Ready_Biodeg>
0.0

$$$$
100781
  -INDIGO-08031722522D

 20 20  0  0  0  0  0  0  0  0999 V2000
    0.0001    2.7713    0.0000 O   0  0  0  0  0  0  0  0  0  0  0  0
   -0.8000    1.3856    0.0000 C   0  0  0  0  0  0  0  0  0  0  0  0
    0.0001   -0.0000    0.0000 C   0  0  0  0  0  0  0  0  0  0  0  0
    1.2256    1.0285    0.0000 H   0  0  0  0  0  0  0  0  0  0  0  0
    1.2256   -1.0285    0.0000 C   0  0  0  0  0  0  0  0  0  0  0  0
    0.9479   -2.6042    0.0000 O   0  0  0  0  0  0  0  0  0  0  0  0
    2.7292   -0.4813    0.0000 C   0  0  0  0  0  0  0  0  0  0  0  0
    4.2327    0.0660    0.0000 H   0  0  0  0  0  0  0  0  0  0  0  0
    3.9549   -1.5097    0.0000 H   0  0  0  0  0  0  0  0  0  0  0  0
    3.0071    1.0944    0.0000 H   0  0  0  0  0  0  0  0  0  0  0  0
   -0.8000   -1.3856    0.0000 C   0  0  0  0  0  0  0  0  0  0  0  0
    0.0001   -2.7713    0.0000 O   0  0  0  0  0  0  0  0  0  0  0  0
   -2.4000   -1.3856    0.0000 O   0  0  0  0  0  0  0  0  0  0  0  0
   -3.2001   -0.0000    0.0000 C   0  0  0  0  0  0  0  0  0  0  0  0
   -4.7999   -0.0000    0.0000 C   0  0  0  0  0  0  0  0  0  0  0  0
   -6.4000    0.0000    0.0000 H   0  0  0  0  0  0  0  0  0  0  0  0
   -5.6000   -1.3856    0.0000 H   0  0  0  0  0  0  0  0  0  0  0  0
   -5.6000    1.3856    0.0000 H   0  0  0  0  0  0  0  0  0  0  0  0
   -2.4000    1.3856    0.0000 C   0  0  0  0  0  0  0  0  0  0  0  0
   -3.2001    2.7713    0.0000 H   0  0  0  0  0  0  0  0  0  0  0  0
  1  2  2  0  0  0  0
  2  3  1  0  0  0  0
  3  4  1  0  0  0  0
  3  5  1  0  0  0  0
  5  6  2  0  0  0  0
  5  7  1  0  0  0  0
  7  8  1  0  0  0  0
  7  9  1  0  0  0  0
  7 10  1  0  0  0  0
  3 11  1  0  0  0  0
 11 12  2  0  0  0  0
 11 13  1  0  0  0  0
 13 14  1  0  0  0  0
 14 15  1  0  0  0  0
 15 16  1  0  0  0  0
 15 17  1  0  0  0  0
 15 18  1  0  0  0  0
 14 19  2  0  0  0  0
 19  2  1  0  0  0  0
 19 20  1  0  0  0  0
M  END
> <ChemID>
100781

> <source_casrn>
520-45-6

> <CAS>
520-45-6

> <SMILES>
CC(=O)C1C(=O)C=C(C)OC1=O

> <NAME>
2H-Pyran-2,4(3H)-dione, 3-acetyl-6-methyl-

> <preferred_name>
Dehydroacetic acid

> <iupac>
3-acetyl-6-methyl-2H-pyran-2,4(3H)-dione

> <MPID>
100788

> <dsstox_substance_id>
DTXSID6020014

> <Canonical_QSARr>
CC(=O)C1C(=O)C=C(C)OC1=O

> <InChI_Code_QSARr>
InChI=1S/C8H8O4/c1-4-3-6(10)7(5(2)9)8(11)12-4/h3,7H,1-2H3

> <InChI Key_QSARr>
PGRHXDWITVMQBC-UHFFFAOYSA-N

> <Salt_Solvent>
?

> <Ready_Biodeg>
1.0

$$$$
100782
  -INDIGO-08031722522D

 49 51  0  0  0  0  0  0  0  0999 V2000
   -1.6000    2.7713    0.0000 C   0  0  0  0  0  0  0  0  0  0  0  0
    0.0001    2.7713    0.0000 C   0  0  0  0  0  0  0  0  0  0  0  0
    0.8001    1.3857    0.0000 C   0  0  0  0  0  0  0  0  0  0  0  0
    2.3999    1.3857    0.0000 C   0  0  0  0  0  0  0  0  0  0  0  0
    3.7857    0.5857    0.0000 H   0  0  0  0  0  0  0  0  0  0  0  0
    3.1999    2.7713    0.0000 C   0  0  0  0  0  0  0  0  0  0  0  0
    4.8000    2.7713    0.0000 H   0  0  0  0  0  0  0  0  0  0  0  0
    2.3999    4.1569    0.0000 C   0  0  0  0  0  0  0  0  0  0  0  0
    0.8001    4.1569    0.0000 C   0  0  0  0  0  0  0  0  0  0  0  0
    0.0001    5.5426    0.0000 H   0  0  0  0  0  0  0  0  0  0  0  0
    3.1999    5.5426    0.0000 C   0  0  0  0  0  0  0  0  0  0  0  0
    4.0000    6.9282    0.0000 H   0  0  0  0  0  0  0  0  0  0  0  0
    4.8000    5.5426    0.0000 H   0  0  0  0  0  0  0  0  0  0  0  0
    2.3999    6.9282    0.0000 H   0  0  0  0  0  0  0  0  0  0  0  0
    0.0001    0.0001    0.0000 C   0  0  0  0  0  0  0  0  0  0  0  0
    1.5034   -0.5472    0.0000 C   0  0  0  0  0  0  0  0  0  0  0  0
    1.7814   -2.1230    0.0000 H   0  0  0  0  0  0  0  0  0  0  0  0
    3.0071   -1.0944    0.0000 H   0  0  0  0  0  0  0  0  0  0  0  0
    2.7291    0.4812    0.0000 H   0  0  0  0  0  0  0  0  0  0  0  0
   -0.2779   -1.5757    0.0000 C   0  0  0  0  0  0  0  0  0  0  0  0
   -0.5556   -3.1514    0.0000 H   0  0  0  0  0  0  0  0  0  0  0  0
   -1.7813   -2.1230    0.0000 H   0  0  0  0  0  0  0  0  0  0  0  0
    0.9478   -2.6041    0.0000 H   0  0  0  0  0  0  0  0  0  0  0  0
   -1.6000    0.0001    0.0000 O   0  0  0  0  0  0  0  0  0  0  0  0
   -2.4001    1.3857    0.0000 C   0  0  0  0  0  0  0  0  0  0  0  0
   -4.0001    1.3857    0.0000 C   0  0  0  0  0  0  0  0  0  0  0  0
   -4.7999    0.0001    0.0000 H   0  0  0  0  0  0  0  0  0  0  0  0
   -4.7999    2.7713    0.0000 C   0  0  0  0  0  0  0  0  0  0  0  0
   -6.4000    2.7713    0.0000 C   0  0  0  0  0  0  0  0  0  0  0  0
   -7.6695    1.7973    0.0000 H   0  0  0  0  0  0  0  0  0  0  0  0
   -6.6089    1.1850    0.0000 H   0  0  0  0  0  0  0  0  0  0  0  0
   -7.2000    4.1569    0.0000 C   0  0  0  0  0  0  0  0  0  0  0  0
   -5.9305    5.1309    0.0000 H   0  0  0  0  0  0  0  0  0  0  0  0
   -6.9911    5.7433    0.0000 H   0  0  0  0  0  0  0  0  0  0  0  0
   -8.8001    4.1569    0.0000 C   0  0  0  0  0  0  0  0  0  0  0  0
  -10.0693    3.1829    0.0000 H   0  0  0  0  0  0  0  0  0  0  0  0
   -9.0088    2.5706    0.0000 H   0  0  0  0  0  0  0  0  0  0  0  0
   -9.6001    5.5426    0.0000 C   0  0  0  0  0  0  0  0  0  0  0  0
   -8.3306    6.5166    0.0000 H   0  0  0  0  0  0  0  0  0  0  0  0
   -9.3912    7.1289    0.0000 H   0  0  0  0  0  0  0  0  0  0  0  0
  -11.1999    5.5426    0.0000 C   0  0  0  0  0  0  0  0  0  0  0  0
  -12.8000    5.5426    0.0000 H   0  0  0  0  0  0  0  0  0  0  0  0
  -12.0000    6.9282    0.0000 H   0  0  0  0  0  0  0  0  0  0  0  0
  -12.0000    4.1569    0.0000 H   0  0  0  0  0  0  0  0  0  0  0  0
   -4.0001    4.1569    0.0000 C   0  0  0  0  0  0  0  0  0  0  0  0
   -4.7999    5.5426    0.0000 H   0  0  0  0  0  0  0  0  0  0  0  0
   -2.4001    4.1569    0.0000 C   0  0  0  0  0  0  0  0  0  0  0  0
   -1.6000    5.5426    0.0000 O   0  0  0  0  0  0  0  0  0  0  0  0
   -2.4001    6.9282    0.0000 H   0  0  0  0  0  0  0  0  0  0  0  0
  1  2  1  0  0  0  0
  2  3  1  0  0  0  0
  3  4  2  0  0  0  0
  4  5  1  0  0  0  0
  4  6  1  0  0  0  0
  6  7  1  0  0  0  0
  6  8  2  0  0  0  0
  8  9  1  0  0  0  0
  9  2  2  0  0  0  0
  9 10  1  0  0  0  0
  8 11  1  0  0  0  0
 11 12  1  0  0  0  0
 11 13  1  0  0  0  0
 11 14  1  0  0  0  0
  3 15  1  0  0  0  0
 15 16  1  0  0  0  0
 16 17  1  0  0  0  0
 16 18  1  0  0  0  0
 16 19  1  0  0  0  0
 15 20  1  0  0  0  0
 20 21  1  0  0  0  0
 20 22  1  0  0  0  0
 20 23  1  0  0  0  0
 15 24  1  0  0  0  0
 24 25  1  0  0  0  0
 25  1  1  0  0  0  0
 25 26  2  0  0  0  0
 26 27  1  0  0  0  0
 26 28  1  0  0  0  0
 28 29  1  0  0  0  0
 29 30  1  0  0  0  0
 29 31  1  0  0  0  0
 29 32  1  0  0  0  0
 32 33  1  0  0  0  0
 32 34  1  0  0  0  0
 32 35  1  0  0  0  0
 35 36  1  0  0  0  0
 35 37  1  0  0  0  0
 35 38  1  0  0  0  0
 38 39  1  0  0  0  0
 38 40  1  0  0  0  0
 38 41  1  0  0  0  0
 41 42  1  0  0  0  0
 41 43  1  0  0  0  0
 41 44  1  0  0  0  0
 28 45  2  0  0  0  0
 45 46  1  0  0  0  0
 45 47  1  0  0  0  0
 47  1  2  0  0  0  0
 47 48  1  0  0  0  0
 48 49  1  0  0  0  0
M  END
> <ChemID>
100782

> <source_casrn>
521-35-7

> <CAS>
521-35-7

> <SMILES>
Cc1ccc2c(c1)-c1c(O)cc(CCCCC)cc1OC2(C)C

> <NAME>
Cannabinol

> <preferred_name>
Cannabinol

> <iupac>
6,6,9-trimethyl-3-pentyl-6H-benzo[c]chromen-1-ol

> <MPID>
100789

> <dsstox_substance_id>
DTXSID3048996

> <Canonical_QSARr>
Cc1ccc2c(c1)-c1c(O)cc(CCCCC)cc1OC2(C)C

> <InChI_Code_QSARr>
InChI=1S/C21H26O2/c1-5-6-7-8-15-12-18(22)20-16-11-14(2)9-10-17(16)21(3,4)23-19(20)13-15/h9-13,22H,5-8H2,1-4H3

> <InChI Key_QSARr>
VBGLYOIFKLUMQG-UHFFFAOYSA-N

> <Salt_Solvent>
?

> <Ready_Biodeg>
1.0

$$$$
100783
  -INDIGO-08031722522D

 21 21  0  0  0  0  0  0  0  0999 V2000
    1.5999    0.0000    0.0000 C   0  0  0  0  0  0  0  0  0  0  0  0
    2.4000   -1.3856    0.0000 C   0  0  0  0  0  0  0  0  0  0  0  0
    4.0000   -1.3856    0.0000 H   0  0  0  0  0  0  0  0  0  0  0  0
    1.6001   -2.7713    0.0000 C   0  0  0  0  0  0  0  0  0  0  0  0
    2.4000   -4.1569    0.0000 H   0  0  0  0  0  0  0  0  0  0  0  0
   -0.0001   -2.7713    0.0000 C   0  0  0  0  0  0  0  0  0  0  0  0
   -0.8000   -4.1569    0.0000 H   0  0  0  0  0  0  0  0  0  0  0  0
   -0.8000   -1.3856    0.0000 C   0  0  0  0  0  0  0  0  0  0  0  0
   -2.4000   -1.3856    0.0000 C   0  0  0  0  0  0  0  0  0  0  0  0
   -4.0000   -1.3856    0.0000 H   0  0  0  0  0  0  0  0  0  0  0  0
   -3.2001   -2.7713    0.0000 H   0  0  0  0  0  0  0  0  0  0  0  0
   -3.2001    0.0000    0.0000 H   0  0  0  0  0  0  0  0  0  0  0  0
   -0.0001    0.0000    0.0000 C   0  0  0  0  0  0  0  0  0  0  0  0
   -0.8000    1.3856    0.0000 C   0  0  0  0  0  0  0  0  0  0  0  0
   -1.5999    2.7713    0.0000 H   0  0  0  0  0  0  0  0  0  0  0  0
   -2.4000    1.3856    0.0000 H   0  0  0  0  0  0  0  0  0  0  0  0
    0.0001    2.7713    0.0000 H   0  0  0  0  0  0  0  0  0  0  0  0
    2.4000    1.3856    0.0000 C   0  0  0  0  0  0  0  0  0  0  0  0
    3.1999    2.7713    0.0000 H   0  0  0  0  0  0  0  0  0  0  0  0
    4.0000    1.3856    0.0000 H   0  0  0  0  0  0  0  0  0  0  0  0
    1.5999    2.7713    0.0000 H   0  0  0  0  0  0  0  0  0  0  0  0
  1  2  1  0  0  0  0
  2  3  1  0  0  0  0
  2  4  2  0  0  0  0
  4  5  1  0  0  0  0
  4  6  1  0  0  0  0
  6  7  1  0  0  0  0
  6  8  2  0  0  0  0
  8  9  1  0  0  0  0
  9 10  1  0  0  0  0
  9 11  1  0  0  0  0
  9 12  1  0  0  0  0
  8 13  1  0  0  0  0
 13  1  2  0  0  0  0
 13 14  1  0  0  0  0
 14 15  1  0  0  0  0
 14 16  1  0  0  0  0
 14 17  1  0  0  0  0
  1 18  1  0  0  0  0
 18 19  1  0  0  0  0
 18 20  1  0  0  0  0
 18 21  1  0  0  0  0
M  END
> <ChemID>
100783

> <source_casrn>
526-73-8

> <CAS>
526-73-8

> <SMILES>
Cc1c(C)cccc1C

> <NAME>
Benzene, 1,2,3-trimethyl-

> <preferred_name>
1,2,3-Trimethylbenzene

> <iupac>
1,2,3-trimethylbenzene

> <MPID>
100790

> <dsstox_substance_id>
DTXSID8047769

> <Canonical_QSARr>
Cc1c(C)cccc1C

> <InChI_Code_QSARr>
InChI=1S/C9H12/c1-7-5-4-6-8(2)9(7)3/h4-6H,1-3H3

> <InChI Key_QSARr>
FYGHSUNMUKGBRK-UHFFFAOYSA-N

> <Salt_Solvent>
?

> <Ready_Biodeg>
0.0

$$$$
100785
  -INDIGO-08031722522D

 14 14  0  0  0  0  0  0  0  0999 V2000
    0.0000   -0.0000    0.0000 C   0  0  0  0  0  0  0  0  0  0  0  0
   -0.8000    1.3856    0.0000 C   0  0  0  0  0  0  0  0  0  0  0  0
    0.0000    2.7713    0.0000 Cl  0  0  0  0  0  0  0  0  0  0  0  0
   -2.4000    1.3856    0.0000 C   0  0  0  0  0  0  0  0  0  0  0  0
   -3.2000    2.7713    0.0000 Cl  0  0  0  0  0  0  0  0  0  0  0  0
   -3.2000   -0.0000    0.0000 C   0  0  0  0  0  0  0  0  0  0  0  0
   -4.8000   -0.0000    0.0000 Cl  0  0  0  0  0  0  0  0  0  0  0  0
   -2.4000   -1.3856    0.0000 C   0  0  0  0  0  0  0  0  0  0  0  0
   -3.2000   -2.7713    0.0000 Cl  0  0  0  0  0  0  0  0  0  0  0  0
   -0.8000   -1.3856    0.0000 C   0  0  0  0  0  0  0  0  0  0  0  0
    0.0000   -2.7713    0.0000 Cl  0  0  0  0  0  0  0  0  0  0  0  0
    1.6000   -0.0000    0.0000 N   0  0  0  0  0  0  0  0  0  0  0  0
    2.4000    1.3856    0.0000 H   0  0  0  0  0  0  0  0  0  0  0  0
    2.4000   -1.3856    0.0000 H   0  0  0  0  0  0  0  0  0  0  0  0
  1  2  1  0  0  0  0
  2  3  1  0  0  0  0
  2  4  2  0  0  0  0
  4  5  1  0  0  0  0
  4  6  1  0  0  0  0
  6  7  1  0  0  0  0
  6  8  2  0  0  0  0
  8  9  1  0  0  0  0
  8 10  1  0  0  0  0
 10  1  2  0  0  0  0
 10 11  1  0  0  0  0
  1 12  1  0  0  0  0
 12 13  1  0  0  0  0
 12 14  1  0  0  0  0
M  END
> <ChemID>
100785

> <source_casrn>
527-20-8

> <CAS>
527-20-8

> <SMILES>
Nc1c(Cl)c(Cl)c(Cl)c(Cl)c1Cl

> <NAME>
PENTACHLOROANILINE

> <preferred_name>
Pentachloroaniline

> <iupac>
pentachloroaniline

> <MPID>
100792

> <dsstox_substance_id>
DTXSID4037584

> <Canonical_QSARr>
Nc1c(Cl)c(Cl)c(Cl)c(Cl)c1Cl

> <InChI_Code_QSARr>
InChI=1S/C6H2Cl5N/c7-1-2(8)4(10)6(12)5(11)3(1)9/h12H2

> <InChI Key_QSARr>
KHCZSJXTDDHLGJ-UHFFFAOYSA-N

> <Salt_Solvent>
?

> <Ready_Biodeg>
0.0

$$$$
100786
  -INDIGO-08031722522D

 22 22  0  0  0  0  0  0  0  0999 V2000
    1.3857    2.4000    0.0000 O   0  0  0  0  0  0  0  0  0  0  0  0
    1.3857    4.0000    0.0000 H   0  0  0  0  0  0  0  0  0  0  0  0
    0.0000    1.6001    0.0000 C   0  0  0  0  0  0  0  0  0  0  0  0
   -1.3857    2.4000    0.0000 C   0  0  0  0  0  0  0  0  0  0  0  0
   -1.3857    4.0000    0.0000 C   0  0  0  0  0  0  0  0  0  0  0  0
   -1.3857    5.6000    0.0000 H   0  0  0  0  0  0  0  0  0  0  0  0
   -2.7713    4.8001    0.0000 H   0  0  0  0  0  0  0  0  0  0  0  0
    0.0000    4.8001    0.0000 H   0  0  0  0  0  0  0  0  0  0  0  0
   -2.7713    1.6001    0.0000 C   0  0  0  0  0  0  0  0  0  0  0  0
   -4.1570    2.4000    0.0000 H   0  0  0  0  0  0  0  0  0  0  0  0
   -2.7713    0.0001    0.0000 C   0  0  0  0  0  0  0  0  0  0  0  0
   -4.1569   -0.8000    0.0000 C   0  0  0  0  0  0  0  0  0  0  0  0
   -5.5426   -1.6001    0.0000 H   0  0  0  0  0  0  0  0  0  0  0  0
   -4.1569   -2.4000    0.0000 H   0  0  0  0  0  0  0  0  0  0  0  0
   -5.5426   -0.0001    0.0000 H   0  0  0  0  0  0  0  0  0  0  0  0
   -1.3856   -0.8000    0.0000 C   0  0  0  0  0  0  0  0  0  0  0  0
   -1.3856   -2.4000    0.0000 H   0  0  0  0  0  0  0  0  0  0  0  0
    0.0000    0.0001    0.0000 C   0  0  0  0  0  0  0  0  0  0  0  0
    1.3857   -0.8000    0.0000 C   0  0  0  0  0  0  0  0  0  0  0  0
    2.7713   -1.5999    0.0000 H   0  0  0  0  0  0  0  0  0  0  0  0
    1.3857   -2.4000    0.0000 H   0  0  0  0  0  0  0  0  0  0  0  0
    2.7713    0.0001    0.0000 H   0  0  0  0  0  0  0  0  0  0  0  0
  1  2  1  0  0  0  0
  1  3  1  0  0  0  0
  3  4  1  0  0  0  0
  4  5  1  0  0  0  0
  5  6  1  0  0  0  0
  5  7  1  0  0  0  0
  5  8  1  0  0  0  0
  4  9  2  0  0  0  0
  9 10  1  0  0  0  0
  9 11  1  0  0  0  0
 11 12  1  0  0  0  0
 12 13  1  0  0  0  0
 12 14  1  0  0  0  0
 12 15  1  0  0  0  0
 11 16  2  0  0  0  0
 16 17  1  0  0  0  0
 16 18  1  0  0  0  0
 18  3  2  0  0  0  0
 18 19  1  0  0  0  0
 19 20  1  0  0  0  0
 19 21  1  0  0  0  0
 19 22  1  0  0  0  0
M  END
> <ChemID>
100786

> <source_casrn>
527-60-6

> <CAS>
527-60-6

> <SMILES>
Cc1cc(C)c(O)c(C)c1

> <NAME>
Phenol, 2,4,6-trimethyl-

> <preferred_name>
2,4,6-Trimethylphenol

> <iupac>
2,4,6-trimethylphenol

> <MPID>
100793

> <dsstox_substance_id>
DTXSID7022049

> <Canonical_QSARr>
Cc1cc(C)c(O)c(C)c1

> <InChI_Code_QSARr>
InChI=1S/C9H12O/c1-6-4-7(2)9(10)8(3)5-6/h4-5,10H,1-3H3

> <InChI Key_QSARr>
BPRYUXCVCCNUFE-UHFFFAOYSA-N

> <Salt_Solvent>
?

> <Ready_Biodeg>
0.0

$$$$
100787
  -INDIGO-08031722522D

 24 24  0  0  0  0  0  0  0  0999 V2000
    4.0000    1.3857    0.0000 C   0  0  0  0  0  0  0  0  0  0  0  0
    4.8000    2.7713    0.0000 H   0  0  0  0  0  0  0  0  0  0  0  0
    2.4000    1.3857    0.0000 C   0  0  0  0  0  0  0  0  0  0  0  0
    1.6000    2.7713    0.0000 C   0  0  0  0  0  0  0  0  0  0  0  0
    0.8000    4.1569    0.0000 H   0  0  0  0  0  0  0  0  0  0  0  0
    2.4000    4.1569    0.0000 H   0  0  0  0  0  0  0  0  0  0  0  0
    0.0001    2.7713    0.0000 H   0  0  0  0  0  0  0  0  0  0  0  0
    1.6000   -0.0000    0.0000 C   0  0  0  0  0  0  0  0  0  0  0  0
    0.0001   -0.0000    0.0000 C   0  0  0  0  0  0  0  0  0  0  0  0
    0.0001    1.6000    0.0000 H   0  0  0  0  0  0  0  0  0  0  0  0
   -1.5757    0.2778    0.0000 C   0  0  0  0  0  0  0  0  0  0  0  0
   -3.1514    0.5556    0.0000 H   0  0  0  0  0  0  0  0  0  0  0  0
   -2.6041   -0.9479    0.0000 H   0  0  0  0  0  0  0  0  0  0  0  0
   -2.1229    1.7814    0.0000 H   0  0  0  0  0  0  0  0  0  0  0  0
    0.0001   -1.6000    0.0000 C   0  0  0  0  0  0  0  0  0  0  0  0
    0.0001   -3.2000    0.0000 H   0  0  0  0  0  0  0  0  0  0  0  0
   -1.3857   -2.4000    0.0000 H   0  0  0  0  0  0  0  0  0  0  0  0
   -1.3857   -0.8000    0.0000 H   0  0  0  0  0  0  0  0  0  0  0  0
    2.4000   -1.3857    0.0000 C   0  0  0  0  0  0  0  0  0  0  0  0
    1.6000   -2.7713    0.0000 H   0  0  0  0  0  0  0  0  0  0  0  0
    4.0000   -1.3857    0.0000 C   0  0  0  0  0  0  0  0  0  0  0  0
    4.8000   -2.7713    0.0000 H   0  0  0  0  0  0  0  0  0  0  0  0
    4.8000   -0.0000    0.0000 C   0  0  0  0  0  0  0  0  0  0  0  0
    6.4000   -0.0000    0.0000 H   0  0  0  0  0  0  0  0  0  0  0  0
  1  2  1  0  0  0  0
  1  3  1  0  0  0  0
  3  4  1  0  0  0  0
  4  5  1  0  0  0  0
  4  6  1  0  0  0  0
  4  7  1  0  0  0  0
  3  8  2  0  0  0  0
  8  9  1  0  0  0  0
  9 10  1  0  0  0  0
  9 11  1  0  0  0  0
 11 12  1  0  0  0  0
 11 13  1  0  0  0  0
 11 14  1  0  0  0  0
  9 15  1  0  0  0  0
 15 16  1  0  0  0  0
 15 17  1  0  0  0  0
 15 18  1  0  0  0  0
  8 19  1  0  0  0  0
 19 20  1  0  0  0  0
 19 21  2  0  0  0  0
 21 22  1  0  0  0  0
 21 23  1  0  0  0  0
 23  1  2  0  0  0  0
 23 24  1  0  0  0  0
M  END
> <ChemID>
100787

> <source_casrn>
527-84-4

> <CAS>
527-84-4

> <SMILES>
Cc1ccccc1C(C)C

> <NAME>
Benzene, 1-methyl-2-(1-methylethyl)-

> <preferred_name>
1-Methyl-2-(propan-2-yl)benzene

> <iupac>
1-isopropyl-2-methylbenzene

> <MPID>
100794

> <dsstox_substance_id>
DTXSID1052165

> <Canonical_QSARr>
Cc1ccccc1C(C)C

> <InChI_Code_QSARr>
InChI=1S/C10H14/c1-8(2)10-7-5-4-6-9(10)3/h4-8H,1-3H3

> <InChI Key_QSARr>
WWRCMNKATXZARA-UHFFFAOYSA-N

> <Salt_Solvent>
?

> <Ready_Biodeg>
0.0

$$$$
100789
  -INDIGO-08031722522D

 19 20  0  0  0  0  0  0  0  0999 V2000
    2.4001    1.3856    0.0000 S   0  0  0  0  0  0  0  0  0  0  0  0
    4.0000    1.3856    0.0000 H   0  0  0  0  0  0  0  0  0  0  0  0
    1.6000    0.0000    0.0000 C   0  0  0  0  0  0  0  0  0  0  0  0
   -0.0000    0.0000    0.0000 C   0  0  0  0  0  0  0  0  0  0  0  0
   -0.8000   -1.3856    0.0000 C   0  0  0  0  0  0  0  0  0  0  0  0
   -2.4000   -1.3856    0.0000 C   0  0  0  0  0  0  0  0  0  0  0  0
   -3.2001   -2.7713    0.0000 H   0  0  0  0  0  0  0  0  0  0  0  0
   -3.2001    0.0000    0.0000 C   0  0  0  0  0  0  0  0  0  0  0  0
   -4.8000    0.0000    0.0000 H   0  0  0  0  0  0  0  0  0  0  0  0
   -2.4000    1.3856    0.0000 C   0  0  0  0  0  0  0  0  0  0  0  0
   -3.2001    2.7713    0.0000 H   0  0  0  0  0  0  0  0  0  0  0  0
   -0.8000    1.3856    0.0000 C   0  0  0  0  0  0  0  0  0  0  0  0
   -0.0000    2.7713    0.0000 H   0  0  0  0  0  0  0  0  0  0  0  0
   -0.0000   -2.7713    0.0000 C   0  0  0  0  0  0  0  0  0  0  0  0
   -0.8000   -4.1569    0.0000 H   0  0  0  0  0  0  0  0  0  0  0  0
    1.6000   -2.7713    0.0000 C   0  0  0  0  0  0  0  0  0  0  0  0
    2.4001   -4.1569    0.0000 H   0  0  0  0  0  0  0  0  0  0  0  0
    2.4001   -1.3856    0.0000 C   0  0  0  0  0  0  0  0  0  0  0  0
    4.0000   -1.3856    0.0000 H   0  0  0  0  0  0  0  0  0  0  0  0
  1  2  1  0  0  0  0
  1  3  1  0  0  0  0
  3  4  1  0  0  0  0
  4  5  1  0  0  0  0
  5  6  2  0  0  0  0
  6  7  1  0  0  0  0
  6  8  1  0  0  0  0
  8  9  1  0  0  0  0
  8 10  2  0  0  0  0
 10 11  1  0  0  0  0
 10 12  1  0  0  0  0
 12  4  2  0  0  0  0
 12 13  1  0  0  0  0
  5 14  1  0  0  0  0
 14 15  1  0  0  0  0
 14 16  2  0  0  0  0
 16 17  1  0  0  0  0
 16 18  1  0  0  0  0
 18  3  2  0  0  0  0
 18 19  1  0  0  0  0
M  END
> <ChemID>
100789

> <source_casrn>
529-36-2

> <CAS>
529-36-2

> <SMILES>
Sc1cccc2ccccc21

> <NAME>
1-Naphthalenethiol

> <preferred_name>
1-Naphthalenethiol

> <iupac>
naphthalene-1-thiol

> <MPID>
100796

> <dsstox_substance_id>
DTXSID6060185

> <Canonical_QSARr>
Sc1cccc2ccccc21

> <InChI_Code_QSARr>
InChI=1S/C10H8S/c11-10-7-3-5-8-4-1-2-6-9(8)10/h1-7,11H

> <InChI Key_QSARr>
SEXOVMIIVBKGGM-UHFFFAOYSA-N

> <Salt_Solvent>
?

> <Ready_Biodeg>
0.0

$$$$
100790
  -INDIGO-08031722522D

 24 24  0  0  0  0  0  0  0  0999 V2000
    2.7713    0.0000    0.0000 C   0  0  0  0  0  0  0  0  0  0  0  0
    4.1569    0.8000    0.0000 H   0  0  0  0  0  0  0  0  0  0  0  0
    4.1569   -0.8000    0.0000 H   0  0  0  0  0  0  0  0  0  0  0  0
    2.7713    1.6001    0.0000 H   0  0  0  0  0  0  0  0  0  0  0  0
    1.3856    0.8000    0.0000 O   0  0  0  0  0  0  0  0  0  0  0  0
   -0.0001    0.0000    0.0000 C   0  0  0  0  0  0  0  0  0  0  0  0
   -0.0001   -1.5999    0.0000 C   0  0  0  0  0  0  0  0  0  0  0  0
    1.3856   -2.4000    0.0000 H   0  0  0  0  0  0  0  0  0  0  0  0
   -1.3856   -2.4000    0.0000 C   0  0  0  0  0  0  0  0  0  0  0  0
   -1.3856   -4.0000    0.0000 C   0  0  0  0  0  0  0  0  0  0  0  0
   -0.0001   -4.7999    0.0000 O   0  0  0  0  0  0  0  0  0  0  0  0
   -2.7712   -4.7999    0.0000 O   0  0  0  0  0  0  0  0  0  0  0  0
   -2.7712   -6.4000    0.0000 H   0  0  0  0  0  0  0  0  0  0  0  0
   -2.7712   -1.5999    0.0000 C   0  0  0  0  0  0  0  0  0  0  0  0
   -4.1569   -2.4000    0.0000 H   0  0  0  0  0  0  0  0  0  0  0  0
   -2.7712    0.0000    0.0000 C   0  0  0  0  0  0  0  0  0  0  0  0
   -4.1569    0.8000    0.0000 O   0  0  0  0  0  0  0  0  0  0  0  0
   -5.5425    0.0000    0.0000 C   0  0  0  0  0  0  0  0  0  0  0  0
   -6.9282    0.8000    0.0000 H   0  0  0  0  0  0  0  0  0  0  0  0
   -6.9282   -0.8000    0.0000 H   0  0  0  0  0  0  0  0  0  0  0  0
   -5.5425    1.6001    0.0000 H   0  0  0  0  0  0  0  0  0  0  0  0
   -1.3856    0.8000    0.0000 C   0  0  0  0  0  0  0  0  0  0  0  0
   -1.3856    2.4000    0.0000 O   0  0  0  0  0  0  0  0  0  0  0  0
   -0.0001    3.2000    0.0000 H   0  0  0  0  0  0  0  0  0  0  0  0
  1  2  1  0  0  0  0
  1  3  1  0  0  0  0
  1  4  1  0  0  0  0
  1  5  1  0  0  0  0
  5  6  1  0  0  0  0
  6  7  1  0  0  0  0
  7  8  1  0  0  0  0
  7  9  2  0  0  0  0
  9 10  1  0  0  0  0
 10 11  2  0  0  0  0
 10 12  1  0  0  0  0
 12 13  1  0  0  0  0
  9 14  1  0  0  0  0
 14 15  1  0  0  0  0
 14 16  2  0  0  0  0
 16 17  1  0  0  0  0
 17 18  1  0  0  0  0
 18 19  1  0  0  0  0
 18 20  1  0  0  0  0
 18 21  1  0  0  0  0
 16 22  1  0  0  0  0
 22  6  2  0  0  0  0
 22 23  1  0  0  0  0
 23 24  1  0  0  0  0
M  END
> <ChemID>
100790

> <source_casrn>
530-57-4

> <CAS>
530-57-4

> <SMILES>
COc1cc(cc(OC)c1O)C(O)=O

> <NAME>
Syringic acid

> <preferred_name>
Syringic acid

> <iupac>
4-Hydroxy-3,5-dimethoxybenzoic acid

> <MPID>
100797

> <dsstox_substance_id>
DTXSID0060191

> <Canonical_QSARr>
COc1cc(cc(OC)c1O)C(O)=O

> <InChI_Code_QSARr>
InChI=1S/C9H10O5/c1-13-6-3-5(9(11)12)4-7(14-2)8(6)10/h3-4,10H,1-2H3,(H,11,12)

> <InChI Key_QSARr>
JMSVCTWVEWCHDZ-UHFFFAOYSA-N

> <Salt_Solvent>
?

> <Ready_Biodeg>
1.0

$$$$
100791
  -INDIGO-08031722522D

 32 32  0  0  0  0  0  0  0  0999 V2000
    5.5427   -0.0000    0.0000 C   0  0  0  0  0  0  0  0  0  0  0  0
    5.5427    1.6000    0.0000 O   0  0  0  0  0  0  0  0  0  0  0  0
    6.9281    2.4001    0.0000 C   0  0  0  0  0  0  0  0  0  0  0  0
    6.9281    4.0000    0.0000 H   0  0  0  0  0  0  0  0  0  0  0  0
    8.3138    3.2000    0.0000 H   0  0  0  0  0  0  0  0  0  0  0  0
    5.5427    3.2000    0.0000 H   0  0  0  0  0  0  0  0  0  0  0  0
    6.9281   -0.8000    0.0000 C   0  0  0  0  0  0  0  0  0  0  0  0
    8.3138   -0.0000    0.0000 H   0  0  0  0  0  0  0  0  0  0  0  0
    6.9281   -2.4000    0.0000 C   0  0  0  0  0  0  0  0  0  0  0  0
    8.3138   -3.2001    0.0000 H   0  0  0  0  0  0  0  0  0  0  0  0
    5.5427   -3.2001    0.0000 C   0  0  0  0  0  0  0  0  0  0  0  0
    5.5427   -4.8000    0.0000 H   0  0  0  0  0  0  0  0  0  0  0  0
    4.1570   -2.4000    0.0000 C   0  0  0  0  0  0  0  0  0  0  0  0
    2.7713   -3.2001    0.0000 H   0  0  0  0  0  0  0  0  0  0  0  0
    4.1570   -0.8000    0.0000 C   0  0  0  0  0  0  0  0  0  0  0  0
    2.7713   -0.0000    0.0000 O   0  0  0  0  0  0  0  0  0  0  0  0
    1.3856   -0.8000    0.0000 C   0  0  0  0  0  0  0  0  0  0  0  0
    0.7734   -2.2782    0.0000 H   0  0  0  0  0  0  0  0  0  0  0  0
    1.9979   -2.2782    0.0000 H   0  0  0  0  0  0  0  0  0  0  0  0
    0.0001   -0.0000    0.0000 C   0  0  0  0  0  0  0  0  0  0  0  0
    0.7999    1.3856    0.0000 H   0  0  0  0  0  0  0  0  0  0  0  0
   -0.8000   -1.3857    0.0000 O   0  0  0  0  0  0  0  0  0  0  0  0
   -2.3999   -1.3857    0.0000 H   0  0  0  0  0  0  0  0  0  0  0  0
   -1.3856    0.8000    0.0000 C   0  0  0  0  0  0  0  0  0  0  0  0
   -0.7732    2.2783    0.0000 H   0  0  0  0  0  0  0  0  0  0  0  0
   -1.9980    2.2783    0.0000 H   0  0  0  0  0  0  0  0  0  0  0  0
   -2.7713   -0.0000    0.0000 O   0  0  0  0  0  0  0  0  0  0  0  0
   -4.1570    0.8000    0.0000 C   0  0  0  0  0  0  0  0  0  0  0  0
   -5.5425   -0.0000    0.0000 N   0  0  0  0  0  0  0  0  0  0  0  0
   -6.9282    0.8000    0.0000 H   0  0  0  0  0  0  0  0  0  0  0  0
   -5.5425   -1.6000    0.0000 H   0  0  0  0  0  0  0  0  0  0  0  0
   -4.1570    2.4001    0.0000 O   0  0  0  0  0  0  0  0  0  0  0  0
  1  2  1  0  0  0  0
  2  3  1  0  0  0  0
  3  4  1  0  0  0  0
  3  5  1  0  0  0  0
  3  6  1  0  0  0  0
  1  7  1  0  0  0  0
  7  8  1  0  0  0  0
  7  9  2  0  0  0  0
  9 10  1  0  0  0  0
  9 11  1  0  0  0  0
 11 12  1  0  0  0  0
 11 13  2  0  0  0  0
 13 14  1  0  0  0  0
 13 15  1  0  0  0  0
 15  1  2  0  0  0  0
 15 16  1  0  0  0  0
 16 17  1  0  0  0  0
 17 18  1  0  0  0  0
 17 19  1  0  0  0  0
 17 20  1  0  0  0  0
 20 21  1  0  0  0  0
 20 22  1  0  0  0  0
 22 23  1  0  0  0  0
 20 24  1  0  0  0  0
 24 25  1  0  0  0  0
 24 26  1  0  0  0  0
 24 27  1  0  0  0  0
 27 28  1  0  0  0  0
 28 29  1  0  0  0  0
 29 30  1  0  0  0  0
 29 31  1  0  0  0  0
 28 32  2  0  0  0  0
M  END
> <ChemID>
100791

> <source_casrn>
532-03-6

> <CAS>
532-03-6

> <SMILES>
COc1ccccc1OCC(O)COC(N)=O

> <NAME>
1,2-Propanediol, 3-(2-methoxyphenoxy)-, 1-carbamate

> <preferred_name>
Methocarbamol

> <iupac>
2-hydroxy-3-(2-methoxyphenoxy)propyl carbamate

> <MPID>
100798

> <dsstox_substance_id>
DTXSID6023286

> <Canonical_QSARr>
COc1ccccc1OCC(O)COC(N)=O

> <InChI_Code_QSARr>
InChI=1S/C11H15NO5/c1-15-9-4-2-3-5-10(9)16-6-8(13)7-17-11(12)14/h2-5,8,13H,6-7H2,1H3,(H2,12,14)

> <InChI Key_QSARr>
GNXFOGHNGIVQEH-UHFFFAOYSA-N

> <Salt_Solvent>
?

> <Ready_Biodeg>
0.0

$$$$
100792
  -INDIGO-08031722522D

 15 15  0  0  0  0  0  0  0  0999 V2000
    2.7713   -0.0000    0.0000 O   0  0  0  0  0  0  0  0  0  0  0  0
    4.1569    0.8000    0.0000 H   0  0  0  0  0  0  0  0  0  0  0  0
    1.3856    0.8000    0.0000 C   0  0  0  0  0  0  0  0  0  0  0  0
    0.0001   -0.0000    0.0000 C   0  0  0  0  0  0  0  0  0  0  0  0
    0.0001   -1.6000    0.0000 C   0  0  0  0  0  0  0  0  0  0  0  0
    1.3856   -2.4000    0.0000 H   0  0  0  0  0  0  0  0  0  0  0  0
   -1.3856   -2.4000    0.0000 C   0  0  0  0  0  0  0  0  0  0  0  0
   -1.3856   -4.0000    0.0000 H   0  0  0  0  0  0  0  0  0  0  0  0
   -2.7712   -1.6000    0.0000 C   0  0  0  0  0  0  0  0  0  0  0  0
   -4.1569   -2.4000    0.0000 H   0  0  0  0  0  0  0  0  0  0  0  0
   -2.7712   -0.0000    0.0000 C   0  0  0  0  0  0  0  0  0  0  0  0
   -4.1569    0.8000    0.0000 H   0  0  0  0  0  0  0  0  0  0  0  0
   -1.3856    0.8000    0.0000 C   0  0  0  0  0  0  0  0  0  0  0  0
   -1.3856    2.4000    0.0000 H   0  0  0  0  0  0  0  0  0  0  0  0
    1.3856    2.4000    0.0000 O   0  0  0  0  0  0  0  0  0  0  0  0
  1  2  1  0  0  0  0
  1  3  1  0  0  0  0
  3  4  1  0  0  0  0
  4  5  1  0  0  0  0
  5  6  1  0  0  0  0
  5  7  2  0  0  0  0
  7  8  1  0  0  0  0
  7  9  1  0  0  0  0
  9 10  1  0  0  0  0
  9 11  2  0  0  0  0
 11 12  1  0  0  0  0
 11 13  1  0  0  0  0
 13  4  2  0  0  0  0
 13 14  1  0  0  0  0
  3 15  2  0  0  0  0
M  END
> <ChemID>
100792

> <source_casrn>
532-32-1

> <CAS>
532-32-1

> <SMILES>
[Na+].[O-]C(=O)c1ccccc1

> <NAME>
Sodium benzoate

> <preferred_name>
Sodium benzoate

> <iupac>
sodium benzoate

> <MPID>
100799

> <dsstox_substance_id>
DTXSID1020140

> <Canonical_QSARr>
OC(=O)c1ccccc1

> <InChI_Code_QSARr>
InChI=1S/C7H6O2/c8-7(9)6-4-2-1-3-5-6/h1-5H,(H,8,9)

> <InChI Key_QSARr>
WPYMKLBDIGXBTP-UHFFFAOYSA-N

> <Salt_Solvent>
[Na+]

> <Ready_Biodeg>
1.0

$$$$
100794
  -INDIGO-08031722522D

 20 20  0  0  0  0  0  0  0  0999 V2000
    1.3856   -2.4000    0.0000 O   0  0  0  0  0  0  0  0  0  0  0  0
    1.3856   -4.0000    0.0000 H   0  0  0  0  0  0  0  0  0  0  0  0
    0.0000   -1.6000    0.0000 C   0  0  0  0  0  0  0  0  0  0  0  0
    0.0000    0.0000    0.0000 C   0  0  0  0  0  0  0  0  0  0  0  0
    1.3857    0.8000    0.0000 C   0  0  0  0  0  0  0  0  0  0  0  0
    2.7713    1.6000    0.0000 H   0  0  0  0  0  0  0  0  0  0  0  0
    1.3857    2.4000    0.0000 H   0  0  0  0  0  0  0  0  0  0  0  0
    2.7713    0.0000    0.0000 H   0  0  0  0  0  0  0  0  0  0  0  0
   -1.3857    0.8000    0.0000 C   0  0  0  0  0  0  0  0  0  0  0  0
   -1.3856    2.4000    0.0000 H   0  0  0  0  0  0  0  0  0  0  0  0
   -2.7713    0.0000    0.0000 C   0  0  0  0  0  0  0  0  0  0  0  0
   -4.1570    0.8000    0.0000 N   0  0  0  0  0  0  0  0  0  0  0  0
   -5.5426    0.0000    0.0000 O   0  0  0  0  0  0  0  0  0  0  0  0
   -4.1570    2.4000    0.0000 O   0  0  0  0  0  0  0  0  0  0  0  0
   -2.7713   -1.6000    0.0000 C   0  0  0  0  0  0  0  0  0  0  0  0
   -4.1570   -2.4000    0.0000 H   0  0  0  0  0  0  0  0  0  0  0  0
   -1.3857   -2.4000    0.0000 C   0  0  0  0  0  0  0  0  0  0  0  0
   -1.3856   -4.0000    0.0000 N   0  0  0  0  0  0  0  0  0  0  0  0
   -2.7713   -4.8000    0.0000 O   0  0  0  0  0  0  0  0  0  0  0  0
    0.0000   -4.8000    0.0000 O   0  0  0  0  0  0  0  0  0  0  0  0
  1  2  1  0  0  0  0
  1  3  1  0  0  0  0
  3  4  1  0  0  0  0
  4  5  1  0  0  0  0
  5  6  1  0  0  0  0
  5  7  1  0  0  0  0
  5  8  1  0  0  0  0
  4  9  2  0  0  0  0
  9 10  1  0  0  0  0
  9 11  1  0  0  0  0
 11 12  1  0  0  0  0
 12 13  1  0  0  0  0
 12 14  2  0  0  0  0
 11 15  2  0  0  0  0
 15 16  1  0  0  0  0
 15 17  1  0  0  0  0
 17  3  2  0  0  0  0
 17 18  1  0  0  0  0
 18 19  1  0  0  0  0
 18 20  2  0  0  0  0
M  CHG  4  12   1  13  -1  18   1  19  -1
M  END
> <ChemID>
100794

> <source_casrn>
534-52-1

> <CAS>
534-52-1

> <SMILES>
Cc1cc(cc(c1O)[N+]([O-])=O)[N+]([O-])=O

> <NAME>
4,6-Dinitro-o-cresol

> <preferred_name>
2-Methyl-4,6-dinitrophenol

> <iupac>
2-methyl-4,6-dinitrophenol

> <MPID>
100801

> <dsstox_substance_id>
DTXSID1022053

> <Canonical_QSARr>
Cc1cc(cc(c1O)[N+]([O-])=O)[N+]([O-])=O

> <InChI_Code_QSARr>
InChI=1S/C7H6N2O5/c1-4-2-5(8(11)12)3-6(7(4)10)9(13)14/h2-3,10H,1H3

> <InChI Key_QSARr>
ZXVONLUNISGICL-UHFFFAOYSA-N

> <Salt_Solvent>
?

> <Ready_Biodeg>
0.0

$$$$
100795
  -INDIGO-08031722522D

 24 24  0  0  0  0  0  0  0  0999 V2000
   -1.6000   -0.0000    0.0000 C   0  0  0  0  0  0  0  0  0  0  0  0
   -2.4000    1.3857    0.0000 C   0  0  0  0  0  0  0  0  0  0  0  0
   -1.6000    2.7713    0.0000 H   0  0  0  0  0  0  0  0  0  0  0  0
   -4.0000    1.3857    0.0000 C   0  0  0  0  0  0  0  0  0  0  0  0
   -4.8000    2.7713    0.0000 C   0  0  0  0  0  0  0  0  0  0  0  0
   -5.6000    4.1569    0.0000 H   0  0  0  0  0  0  0  0  0  0  0  0
   -6.4000    2.7713    0.0000 H   0  0  0  0  0  0  0  0  0  0  0  0
   -4.0000    4.1569    0.0000 H   0  0  0  0  0  0  0  0  0  0  0  0
   -4.8000   -0.0000    0.0000 C   0  0  0  0  0  0  0  0  0  0  0  0
   -6.4000   -0.0000    0.0000 H   0  0  0  0  0  0  0  0  0  0  0  0
   -4.0000   -1.3857    0.0000 C   0  0  0  0  0  0  0  0  0  0  0  0
   -4.8000   -2.7713    0.0000 H   0  0  0  0  0  0  0  0  0  0  0  0
   -2.4000   -1.3857    0.0000 C   0  0  0  0  0  0  0  0  0  0  0  0
   -1.6000   -2.7713    0.0000 H   0  0  0  0  0  0  0  0  0  0  0  0
   -0.0001   -0.0000    0.0000 C   0  0  0  0  0  0  0  0  0  0  0  0
   -0.0001    1.6000    0.0000 H   0  0  0  0  0  0  0  0  0  0  0  0
    1.5757    0.2778    0.0000 C   0  0  0  0  0  0  0  0  0  0  0  0
    3.1514    0.5556    0.0000 H   0  0  0  0  0  0  0  0  0  0  0  0
    2.1229    1.7814    0.0000 H   0  0  0  0  0  0  0  0  0  0  0  0
    2.6041   -0.9479    0.0000 H   0  0  0  0  0  0  0  0  0  0  0  0
   -0.0001   -1.6000    0.0000 C   0  0  0  0  0  0  0  0  0  0  0  0
   -0.0001   -3.2000    0.0000 H   0  0  0  0  0  0  0  0  0  0  0  0
    1.3857   -2.4000    0.0000 H   0  0  0  0  0  0  0  0  0  0  0  0
    1.3857   -0.8000    0.0000 H   0  0  0  0  0  0  0  0  0  0  0  0
  1  2  1  0  0  0  0
  2  3  1  0  0  0  0
  2  4  2  0  0  0  0
  4  5  1  0  0  0  0
  5  6  1  0  0  0  0
  5  7  1  0  0  0  0
  5  8  1  0  0  0  0
  4  9  1  0  0  0  0
  9 10  1  0  0  0  0
  9 11  2  0  0  0  0
 11 12  1  0  0  0  0
 11 13  1  0  0  0  0
 13  1  2  0  0  0  0
 13 14  1  0  0  0  0
  1 15  1  0  0  0  0
 15 16  1  0  0  0  0
 15 17  1  0  0  0  0
 17 18  1  0  0  0  0
 17 19  1  0  0  0  0
 17 20  1  0  0  0  0
 15 21  1  0  0  0  0
 21 22  1  0  0  0  0
 21 23  1  0  0  0  0
 21 24  1  0  0  0  0
M  END
> <ChemID>
100795

> <source_casrn>
535-77-3

> <CAS>
535-77-3

> <SMILES>
Cc1cccc(c1)C(C)C

> <NAME>
Benzene, 1-methyl-3-(1-methylethyl)-

> <preferred_name>
m-Cymene

> <iupac>
1-methyl-3-propan-2-ylbenzene

> <MPID>
100802

> <dsstox_substance_id>
DTXSID2060206

> <Canonical_QSARr>
Cc1cccc(c1)C(C)C

> <InChI_Code_QSARr>
InChI=1S/C10H14/c1-8(2)10-6-4-5-9(3)7-10/h4-8H,1-3H3

> <InChI Key_QSARr>
XCYJPXQACVEIOS-UHFFFAOYSA-N

> <Salt_Solvent>
?

> <Ready_Biodeg>
0.0

$$$$
100796
  -INDIGO-08031722522D

 15 15  0  0  0  0  0  0  0  0999 V2000
   -1.3856    0.8000    0.0000 C   0  0  0  0  0  0  0  0  0  0  0  0
   -1.3856    2.4000    0.0000 O   0  0  0  0  0  0  0  0  0  0  0  0
   -2.7713   -0.0000    0.0000 O   0  0  0  0  0  0  0  0  0  0  0  0
   -4.1569    0.8000    0.0000 H   0  0  0  0  0  0  0  0  0  0  0  0
   -0.0001   -0.0000    0.0000 C   0  0  0  0  0  0  0  0  0  0  0  0
   -0.0001   -1.6000    0.0000 C   0  0  0  0  0  0  0  0  0  0  0  0
   -1.3856   -2.4000    0.0000 H   0  0  0  0  0  0  0  0  0  0  0  0
    1.3856   -2.4000    0.0000 C   0  0  0  0  0  0  0  0  0  0  0  0
    1.3856   -4.0000    0.0000 H   0  0  0  0  0  0  0  0  0  0  0  0
    2.7713   -1.6000    0.0000 C   0  0  0  0  0  0  0  0  0  0  0  0
    4.1569   -2.4000    0.0000 H   0  0  0  0  0  0  0  0  0  0  0  0
    2.7712   -0.0000    0.0000 C   0  0  0  0  0  0  0  0  0  0  0  0
    4.1569    0.8000    0.0000 Cl  0  0  0  0  0  0  0  0  0  0  0  0
    1.3856    0.8000    0.0000 C   0  0  0  0  0  0  0  0  0  0  0  0
    1.3856    2.4000    0.0000 H   0  0  0  0  0  0  0  0  0  0  0  0
  1  2  2  0  0  0  0
  1  3  1  0  0  0  0
  3  4  1  0  0  0  0
  1  5  1  0  0  0  0
  5  6  1  0  0  0  0
  6  7  1  0  0  0  0
  6  8  2  0  0  0  0
  8  9  1  0  0  0  0
  8 10  1  0  0  0  0
 10 11  1  0  0  0  0
 10 12  2  0  0  0  0
 12 13  1  0  0  0  0
 12 14  1  0  0  0  0
 14  5  2  0  0  0  0
 14 15  1  0  0  0  0
M  END
> <ChemID>
100796

> <source_casrn>
535-80-8

> <CAS>
535-80-8

> <SMILES>
OC(=O)c1cccc(Cl)c1

> <NAME>
3-Chlorobenzoic acid

> <preferred_name>
3-Chlorobenzoic acid

> <iupac>
3-chlorobenzoic acid

> <MPID>
100803

> <dsstox_substance_id>
DTXSID9024770

> <Canonical_QSARr>
OC(=O)c1cccc(Cl)c1

> <InChI_Code_QSARr>
InChI=1S/C7H5ClO2/c8-6-3-1-2-5(4-6)7(9)10/h1-4H,(H,9,10)

> <InChI Key_QSARr>
LULAYUGMBFYYEX-UHFFFAOYSA-N

> <Salt_Solvent>
?

> <Ready_Biodeg>
1.0

$$$$
100798
  -INDIGO-08031722522D

 24 24  0  0  0  0  0  0  0  0999 V2000
   -0.0001    1.6000    0.0000 C   0  0  0  0  0  0  0  0  0  0  0  0
   -0.0001    3.2000    0.0000 H   0  0  0  0  0  0  0  0  0  0  0  0
    1.3857    2.4000    0.0000 H   0  0  0  0  0  0  0  0  0  0  0  0
    1.3857    0.8000    0.0000 H   0  0  0  0  0  0  0  0  0  0  0  0
   -0.0001    0.0000    0.0000 C   0  0  0  0  0  0  0  0  0  0  0  0
   -0.0001   -1.6000    0.0000 H   0  0  0  0  0  0  0  0  0  0  0  0
    1.5757   -0.2778    0.0000 C   0  0  0  0  0  0  0  0  0  0  0  0
    3.1514   -0.5557    0.0000 H   0  0  0  0  0  0  0  0  0  0  0  0
    2.1228   -1.7813    0.0000 H   0  0  0  0  0  0  0  0  0  0  0  0
    2.6041    0.9478    0.0000 H   0  0  0  0  0  0  0  0  0  0  0  0
   -1.6000    0.0000    0.0000 C   0  0  0  0  0  0  0  0  0  0  0  0
   -2.4000    1.3856    0.0000 C   0  0  0  0  0  0  0  0  0  0  0  0
   -1.6000    2.7713    0.0000 H   0  0  0  0  0  0  0  0  0  0  0  0
   -3.9999    1.3856    0.0000 C   0  0  0  0  0  0  0  0  0  0  0  0
   -4.8000    2.7713    0.0000 H   0  0  0  0  0  0  0  0  0  0  0  0
   -4.8000    0.0000    0.0000 C   0  0  0  0  0  0  0  0  0  0  0  0
   -6.4001    0.0000    0.0000 C   0  0  0  0  0  0  0  0  0  0  0  0
   -7.1999    1.3856    0.0000 O   0  0  0  0  0  0  0  0  0  0  0  0
   -7.1999   -1.3857    0.0000 O   0  0  0  0  0  0  0  0  0  0  0  0
   -8.8000   -1.3857    0.0000 H   0  0  0  0  0  0  0  0  0  0  0  0
   -3.9999   -1.3857    0.0000 C   0  0  0  0  0  0  0  0  0  0  0  0
   -4.8000   -2.7713    0.0000 H   0  0  0  0  0  0  0  0  0  0  0  0
   -2.4000   -1.3857    0.0000 C   0  0  0  0  0  0  0  0  0  0  0  0
   -1.6000   -2.7713    0.0000 H   0  0  0  0  0  0  0  0  0  0  0  0
  1  2  1  0  0  0  0
  1  3  1  0  0  0  0
  1  4  1  0  0  0  0
  1  5  1  0  0  0  0
  5  6  1  0  0  0  0
  5  7  1  0  0  0  0
  7  8  1  0  0  0  0
  7  9  1  0  0  0  0
  7 10  1  0  0  0  0
  5 11  1  0  0  0  0
 11 12  1  0  0  0  0
 12 13  1  0  0  0  0
 12 14  2  0  0  0  0
 14 15  1  0  0  0  0
 14 16  1  0  0  0  0
 16 17  1  0  0  0  0
 17 18  2  0  0  0  0
 17 19  1  0  0  0  0
 19 20  1  0  0  0  0
 16 21  2  0  0  0  0
 21 22  1  0  0  0  0
 21 23  1  0  0  0  0
 23 11  2  0  0  0  0
 23 24  1  0  0  0  0
M  END
> <ChemID>
100798

> <source_casrn>
536-66-3

> <CAS>
536-66-3

> <SMILES>
CC(C)c1ccc(cc1)C(O)=O

> <NAME>
4-Isopropylbenzoic acid

> <preferred_name>
4-Isopropylbenzoic acid

> <iupac>
4-propan-2-ylbenzoic acid

> <MPID>
100805

> <dsstox_substance_id>
DTXSID6060210

> <Canonical_QSARr>
CC(C)c1ccc(cc1)C(O)=O

> <InChI_Code_QSARr>
InChI=1S/C10H12O2/c1-7(2)8-3-5-9(6-4-8)10(11)12/h3-7H,1-2H3,(H,11,12)

> <InChI Key_QSARr>
CKMXAIVXVKGGFM-UHFFFAOYSA-N

> <Salt_Solvent>
?

> <Ready_Biodeg>
1.0

$$$$
100799
  -INDIGO-08031722522D

 18 18  0  0  0  0  0  0  0  0999 V2000
    1.3857    0.8000    0.0000 O   0  0  0  0  0  0  0  0  0  0  0  0
    2.7713   -0.0000    0.0000 C   0  0  0  0  0  0  0  0  0  0  0  0
    4.1569    0.8000    0.0000 H   0  0  0  0  0  0  0  0  0  0  0  0
    4.1569   -0.8000    0.0000 H   0  0  0  0  0  0  0  0  0  0  0  0
    2.7713    1.6000    0.0000 H   0  0  0  0  0  0  0  0  0  0  0  0
    0.0001   -0.0000    0.0000 C   0  0  0  0  0  0  0  0  0  0  0  0
    0.0001   -1.6000    0.0000 C   0  0  0  0  0  0  0  0  0  0  0  0
    1.3857   -2.4000    0.0000 H   0  0  0  0  0  0  0  0  0  0  0  0
   -1.3857   -2.4000    0.0000 C   0  0  0  0  0  0  0  0  0  0  0  0
   -1.3857   -4.0000    0.0000 H   0  0  0  0  0  0  0  0  0  0  0  0
   -2.7713   -1.6000    0.0000 C   0  0  0  0  0  0  0  0  0  0  0  0
   -4.1569   -2.4000    0.0000 H   0  0  0  0  0  0  0  0  0  0  0  0
   -2.7713   -0.0000    0.0000 C   0  0  0  0  0  0  0  0  0  0  0  0
   -4.1569    0.8000    0.0000 N   0  0  0  0  0  0  0  0  0  0  0  0
   -5.5426   -0.0000    0.0000 H   0  0  0  0  0  0  0  0  0  0  0  0
   -4.1569    2.4000    0.0000 H   0  0  0  0  0  0  0  0  0  0  0  0
   -1.3857    0.8000    0.0000 C   0  0  0  0  0  0  0  0  0  0  0  0
   -1.3857    2.4000    0.0000 H   0  0  0  0  0  0  0  0  0  0  0  0
  1  2  1  0  0  0  0
  2  3  1  0  0  0  0
  2  4  1  0  0  0  0
  2  5  1  0  0  0  0
  1  6  1  0  0  0  0
  6  7  1  0  0  0  0
  7  8  1  0  0  0  0
  7  9  2  0  0  0  0
  9 10  1  0  0  0  0
  9 11  1  0  0  0  0
 11 12  1  0  0  0  0
 11 13  2  0  0  0  0
 13 14  1  0  0  0  0
 14 15  1  0  0  0  0
 14 16  1  0  0  0  0
 13 17  1  0  0  0  0
 17  6  2  0  0  0  0
 17 18  1  0  0  0  0
M  END
> <ChemID>
100799

> <source_casrn>
536-90-3

> <CAS>
536-90-3

> <SMILES>
COc1cccc(N)c1

> <NAME>
m-Methoxyaniline

> <preferred_name>
3-Methoxyaniline

> <iupac>
3-methoxyaniline

> <MPID>
100806

> <dsstox_substance_id>
DTXSID8024529

> <Canonical_QSARr>
COc1cccc(N)c1

> <InChI_Code_QSARr>
InChI=1S/C7H9NO/c1-9-7-4-2-3-6(8)5-7/h2-5H,8H2,1H3

> <InChI Key_QSARr>
NCBZRJODKRCREW-UHFFFAOYSA-N

> <Salt_Solvent>
?

> <Ready_Biodeg>
0.0

$$$$
100800
  -INDIGO-08031722522D

 37 38  0  0  0  0  0  0  0  0999 V2000
    2.7291    0.4812    0.0000 C   0  0  0  0  0  0  0  0  0  0  0  0
    4.2326   -0.0660    0.0000 N   0  0  0  0  0  0  0  0  0  0  0  0
    5.4583    0.9625    0.0000 C   0  0  0  0  0  0  0  0  0  0  0  0
    4.2326    1.9909    0.0000 H   0  0  0  0  0  0  0  0  0  0  0  0
    6.2583   -0.4232    0.0000 C   0  0  0  0  0  0  0  0  0  0  0  0
    4.7549   -0.9704    0.0000 H   0  0  0  0  0  0  0  0  0  0  0  0
    6.5363   -1.9989    0.0000 H   0  0  0  0  0  0  0  0  0  0  0  0
    7.8584   -0.4232    0.0000 C   0  0  0  0  0  0  0  0  0  0  0  0
    7.5804   -1.9989    0.0000 H   0  0  0  0  0  0  0  0  0  0  0  0
    9.3620   -0.9704    0.0000 H   0  0  0  0  0  0  0  0  0  0  0  0
    8.6584    0.9625    0.0000 C   0  0  0  0  0  0  0  0  0  0  0  0
    9.8840   -0.0660    0.0000 H   0  0  0  0  0  0  0  0  0  0  0  0
    9.8840    1.9909    0.0000 H   0  0  0  0  0  0  0  0  0  0  0  0
    7.8584    2.3481    0.0000 C   0  0  0  0  0  0  0  0  0  0  0  0
    9.3620    2.8954    0.0000 H   0  0  0  0  0  0  0  0  0  0  0  0
    7.5804    3.9238    0.0000 H   0  0  0  0  0  0  0  0  0  0  0  0
    6.2583    2.3481    0.0000 C   0  0  0  0  0  0  0  0  0  0  0  0
    6.5363    3.9238    0.0000 H   0  0  0  0  0  0  0  0  0  0  0  0
    4.7549    2.8954    0.0000 H   0  0  0  0  0  0  0  0  0  0  0  0
    1.2257    1.0284    0.0000 N   0  0  0  0  0  0  0  0  0  0  0  0
    0.0001    0.0000    0.0000 C   0  0  0  0  0  0  0  0  0  0  0  0
    1.2257   -1.0284    0.0000 H   0  0  0  0  0  0  0  0  0  0  0  0
   -0.7999    1.3856    0.0000 C   0  0  0  0  0  0  0  0  0  0  0  0
    0.7034    1.9329    0.0000 H   0  0  0  0  0  0  0  0  0  0  0  0
   -1.0779    2.9613    0.0000 H   0  0  0  0  0  0  0  0  0  0  0  0
   -2.4000    1.3856    0.0000 C   0  0  0  0  0  0  0  0  0  0  0  0
   -2.1221    2.9613    0.0000 H   0  0  0  0  0  0  0  0  0  0  0  0
   -3.9036    1.9329    0.0000 H   0  0  0  0  0  0  0  0  0  0  0  0
   -3.2001    0.0000    0.0000 C   0  0  0  0  0  0  0  0  0  0  0  0
   -4.4257    1.0284    0.0000 H   0  0  0  0  0  0  0  0  0  0  0  0
   -4.4257   -1.0284    0.0000 H   0  0  0  0  0  0  0  0  0  0  0  0
   -2.4000   -1.3856    0.0000 C   0  0  0  0  0  0  0  0  0  0  0  0
   -3.9036   -1.9329    0.0000 H   0  0  0  0  0  0  0  0  0  0  0  0
   -2.1221   -2.9613    0.0000 H   0  0  0  0  0  0  0  0  0  0  0  0
   -0.7999   -1.3856    0.0000 C   0  0  0  0  0  0  0  0  0  0  0  0
   -1.0779   -2.9613    0.0000 H   0  0  0  0  0  0  0  0  0  0  0  0
    0.7034   -1.9329    0.0000 H   0  0  0  0  0  0  0  0  0  0  0  0
  1  2  2  0  0  0  0
  2  3  1  0  0  0  0
  3  4  1  0  0  0  0
  3  5  1  0  0  0  0
  5  6  1  0  0  0  0
  5  7  1  0  0  0  0
  5  8  1  0  0  0  0
  8  9  1  0  0  0  0
  8 10  1  0  0  0  0
  8 11  1  0  0  0  0
 11 12  1  0  0  0  0
 11 13  1  0  0  0  0
 11 14  1  0  0  0  0
 14 15  1  0  0  0  0
 14 16  1  0  0  0  0
 14 17  1  0  0  0  0
 17  3  1  0  0  0  0
 17 18  1  0  0  0  0
 17 19  1  0  0  0  0
  1 20  2  0  0  0  0
 20 21  1  0  0  0  0
 21 22  1  0  0  0  0
 21 23  1  0  0  0  0
 23 24  1  0  0  0  0
 23 25  1  0  0  0  0
 23 26  1  0  0  0  0
 26 27  1  0  0  0  0
 26 28  1  0  0  0  0
 26 29  1  0  0  0  0
 29 30  1  0  0  0  0
 29 31  1  0  0  0  0
 29 32  1  0  0  0  0
 32 33  1  0  0  0  0
 32 34  1  0  0  0  0
 32 35  1  0  0  0  0
 35 21  1  0  0  0  0
 35 36  1  0  0  0  0
 35 37  1  0  0  0  0
M  END
> <ChemID>
100800

> <source_casrn>
538-75-0

> <CAS>
538-75-0

> <SMILES>
C1CCCCC1N=C=NC1CCCCC1

> <NAME>
Cyclohexanamine, N,N'-methanetetraylbis-

> <preferred_name>
Dicyclohexylcarbodiimide

> <iupac>
N,N'-dicyclohexylcarbodiimide

> <MPID>
100807

> <dsstox_substance_id>
DTXSID1023817

> <Canonical_QSARr>
C1CCCCC1N=C=NC1CCCCC1

> <InChI_Code_QSARr>
InChI=1S/C13H22N2/c1-3-7-12(8-4-1)14-11-15-13-9-5-2-6-10-13/h12-13H,1-10H2

> <InChI Key_QSARr>
QOSSAOTZNIDXMA-UHFFFAOYSA-N

> <Salt_Solvent>
?

> <Ready_Biodeg>
0.0

$$$$
100802
  -INDIGO-08031722522D

  6  5  0  0  0  0  0  0  0  0999 V2000
   -0.0000    0.0000    0.0000 C   0  0  0  0  0  0  0  0  0  0  0  0
    0.8000    1.3856    0.0000 H   0  0  0  0  0  0  0  0  0  0  0  0
   -1.6000    0.0000    0.0000 C   0  0  0  0  0  0  0  0  0  0  0  0
   -2.4000    1.3856    0.0000 H   0  0  0  0  0  0  0  0  0  0  0  0
   -2.4000   -1.3856    0.0000 Br  0  0  0  0  0  0  0  0  0  0  0  0
    0.8000   -1.3856    0.0000 Br  0  0  0  0  0  0  0  0  0  0  0  0
  1  2  1  0  0  0  0
  1  3  2  0  0  0  0
  3  4  1  0  0  0  0
  3  5  1  0  0  0  0
  1  6  1  0  0  0  0
M  END
> <ChemID>
100802

> <source_casrn>
540-49-8

> <CAS>
540-49-8

> <SMILES>
BrC=CBr

> <NAME>
1,2-DIBROMOETHENE

> <preferred_name>
1,2-Dibromoethylene

> <iupac>


> <MPID>
100809

> <dsstox_substance_id>
DTXSID3060241

> <Canonical_QSARr>
BrC=CBr

> <InChI_Code_QSARr>
InChI=1S/C2H2Br2/c3-1-2-4/h1-2H/b2-1-

> <InChI Key_QSARr>
UWTUEMKLYAGTNQ-UPHRSURJSA-N

> <Salt_Solvent>
?

> <Ready_Biodeg>
0.0

$$$$
100803
  -INDIGO-08031722522D

  6  5  0  0  0  0  0  0  0  0999 V2000
   -0.0000    0.0000    0.0000 C   0  0  0  0  0  0  0  0  0  0  0  0
    0.8000    1.3856    0.0000 H   0  0  0  0  0  0  0  0  0  0  0  0
   -1.6000    0.0000    0.0000 C   0  0  0  0  0  0  0  0  0  0  0  0
   -2.4000    1.3856    0.0000 H   0  0  0  0  0  0  0  0  0  0  0  0
   -2.4000   -1.3856    0.0000 Cl  0  0  0  0  0  0  0  0  0  0  0  0
    0.8000   -1.3856    0.0000 Cl  0  0  0  0  0  0  0  0  0  0  0  0
  1  2  1  0  0  0  0
  1  3  2  0  0  0  0
  3  4  1  0  0  0  0
  3  5  1  0  0  0  0
  1  6  1  0  0  0  0
M  END
> <ChemID>
100803

> <source_casrn>
540-59-0

> <CAS>
540-59-0

> <SMILES>
ClC=CCl

> <NAME>
Ethene, 1,2-dichloro-

> <preferred_name>
(Z,E)-1,2-Dichloroethylene

> <iupac>
1,2-dichloroethene

> <MPID>
100810

> <dsstox_substance_id>
DTXSID8024991

> <Canonical_QSARr>
ClC=CCl

> <InChI_Code_QSARr>
InChI=1S/C2H2Cl2/c3-1-2-4/h1-2H/b2-1-

> <InChI Key_QSARr>
KFUSEUYYWQURPO-UPHRSURJSA-N

> <Salt_Solvent>
?

> <Ready_Biodeg>
0.0

$$$$
100804
  -INDIGO-08031722522D

 11 10  0  0  0  0  0  0  0  0999 V2000
    2.7713    0.0000    0.0000 C   0  0  0  0  0  0  0  0  0  0  0  0
    4.1569    0.8000    0.0000 O   0  0  0  0  0  0  0  0  0  0  0  0
    1.3856    0.8000    0.0000 O   0  0  0  0  0  0  0  0  0  0  0  0
    0.0000    0.0000    0.0000 C   0  0  0  0  0  0  0  0  0  0  0  0
   -0.6123   -1.4782    0.0000 H   0  0  0  0  0  0  0  0  0  0  0  0
    0.6123   -1.4782    0.0000 H   0  0  0  0  0  0  0  0  0  0  0  0
   -1.3856    0.8000    0.0000 C   0  0  0  0  0  0  0  0  0  0  0  0
   -2.7713    1.6000    0.0000 H   0  0  0  0  0  0  0  0  0  0  0  0
   -2.7713    0.0000    0.0000 H   0  0  0  0  0  0  0  0  0  0  0  0
   -1.3856    2.4000    0.0000 H   0  0  0  0  0  0  0  0  0  0  0  0
    2.7713   -1.6000    0.0000 Cl  0  0  0  0  0  0  0  0  0  0  0  0
  1  2  2  0  0  0  0
  1  3  1  0  0  0  0
  3  4  1  0  0  0  0
  4  5  1  0  0  0  0
  4  6  1  0  0  0  0
  4  7  1  0  0  0  0
  7  8  1  0  0  0  0
  7  9  1  0  0  0  0
  7 10  1  0  0  0  0
  1 11  1  0  0  0  0
M  END
> <ChemID>
100804

> <source_casrn>
541-41-3

> <CAS>
541-41-3

> <SMILES>
CCOC(=O)Cl

> <NAME>
Carbonochloridic acid, ethyl ester

> <preferred_name>
Ethyl chloroformate

> <iupac>
ethyl carbonochloridate

> <MPID>
100811

> <dsstox_substance_id>
DTXSID1027186

> <Canonical_QSARr>
CCOC(=O)Cl

> <InChI_Code_QSARr>
InChI=1S/C3H5ClO2/c1-2-6-3(4)5/h2H2,1H3

> <InChI Key_QSARr>
RIFGWPKJUGCATF-UHFFFAOYSA-N

> <Salt_Solvent>
?

> <Ready_Biodeg>
1.0

$$$$
100806
  -INDIGO-08031722522D

 25 24  0  0  0  0  0  0  0  0999 V2000
    5.4583   -0.9625    0.0000 C   0  0  0  0  0  0  0  0  0  0  0  0
    6.6840   -1.9909    0.0000 H   0  0  0  0  0  0  0  0  0  0  0  0
    6.9619   -0.4152    0.0000 H   0  0  0  0  0  0  0  0  0  0  0  0
    5.1806   -2.5381    0.0000 H   0  0  0  0  0  0  0  0  0  0  0  0
    4.2327    0.0660    0.0000 C   0  0  0  0  0  0  0  0  0  0  0  0
    3.8864    1.6281    0.0000 H   0  0  0  0  0  0  0  0  0  0  0  0
    5.0923    1.4154    0.0000 H   0  0  0  0  0  0  0  0  0  0  0  0
    2.7292   -0.4813    0.0000 C   0  0  0  0  0  0  0  0  0  0  0  0
    1.5034    0.5473    0.0000 C   0  0  0  0  0  0  0  0  0  0  0  0
    1.1572    2.1093    0.0000 H   0  0  0  0  0  0  0  0  0  0  0  0
    2.3633    1.8966    0.0000 H   0  0  0  0  0  0  0  0  0  0  0  0
    0.0000   -0.0000    0.0000 C   0  0  0  0  0  0  0  0  0  0  0  0
    0.8000   -1.3856    0.0000 H   0  0  0  0  0  0  0  0  0  0  0  0
   -1.2256   -1.0285    0.0000 C   0  0  0  0  0  0  0  0  0  0  0  0
   -2.8241   -1.0983    0.0000 H   0  0  0  0  0  0  0  0  0  0  0  0
   -2.4053    0.0525    0.0000 H   0  0  0  0  0  0  0  0  0  0  0  0
   -0.9479   -2.6041    0.0000 C   0  0  0  0  0  0  0  0  0  0  0  0
   -0.6700   -4.1798    0.0000 H   0  0  0  0  0  0  0  0  0  0  0  0
   -2.1735   -3.6326    0.0000 H   0  0  0  0  0  0  0  0  0  0  0  0
    0.5557   -3.1514    0.0000 H   0  0  0  0  0  0  0  0  0  0  0  0
   -0.8000    1.3856    0.0000 C   0  0  0  0  0  0  0  0  0  0  0  0
   -1.6000    2.7713    0.0000 H   0  0  0  0  0  0  0  0  0  0  0  0
   -2.4001    1.3856    0.0000 H   0  0  0  0  0  0  0  0  0  0  0  0
    0.0000    2.7713    0.0000 H   0  0  0  0  0  0  0  0  0  0  0  0
    2.4514   -2.0569    0.0000 O   0  0  0  0  0  0  0  0  0  0  0  0
  1  2  1  0  0  0  0
  1  3  1  0  0  0  0
  1  4  1  0  0  0  0
  1  5  1  0  0  0  0
  5  6  1  0  0  0  0
  5  7  1  0  0  0  0
  5  8  1  0  0  0  0
  8  9  1  0  0  0  0
  9 10  1  0  0  0  0
  9 11  1  0  0  0  0
  9 12  1  0  0  0  0
 12 13  1  0  0  0  0
 12 14  1  0  0  0  0
 14 15  1  0  0  0  0
 14 16  1  0  0  0  0
 14 17  1  0  0  0  0
 17 18  1  0  0  0  0
 17 19  1  0  0  0  0
 17 20  1  0  0  0  0
 12 21  1  0  0  0  0
 21 22  1  0  0  0  0
 21 23  1  0  0  0  0
 21 24  1  0  0  0  0
  8 25  2  0  0  0  0
M  END
> <ChemID>
100806

> <source_casrn>
541-85-5

> <CAS>
541-85-5

> <SMILES>
CCC(=O)CC(C)CC

> <NAME>
Ethyl amyl ketone

> <preferred_name>
5-Methyl-3-heptanone

> <iupac>
5-methylheptan-3-one

> <MPID>
100813

> <dsstox_substance_id>
DTXSID9047047

> <Canonical_QSARr>
CC(CC(=O)CC)CC

> <InChI_Code_QSARr>
InChI=1S/C8H16O/c1-4-7(3)6-8(9)5-2/h7H,4-6H2,1-3H3

> <InChI Key_QSARr>
PSBKJPTZCVYXSD-UHFFFAOYSA-N

> <Salt_Solvent>
?

> <Ready_Biodeg>
1.0

$$$$
100807
  -INDIGO-08031722522D

 18 18  0  0  0  0  0  0  0  0999 V2000
    0.0000    0.0000    0.0000 C   0  0  0  0  0  0  0  0  0  0  0  0
    1.5757   -0.2778    0.0000 H   0  0  0  0  0  0  0  0  0  0  0  0
   -1.3856    0.8000    0.0000 C   0  0  0  0  0  0  0  0  0  0  0  0
   -0.3571    2.0257    0.0000 H   0  0  0  0  0  0  0  0  0  0  0  0
   -2.4141    2.0257    0.0000 H   0  0  0  0  0  0  0  0  0  0  0  0
   -2.7713    0.0000    0.0000 C   0  0  0  0  0  0  0  0  0  0  0  0
   -3.3185    1.5035    0.0000 H   0  0  0  0  0  0  0  0  0  0  0  0
   -4.3470   -0.2778    0.0000 H   0  0  0  0  0  0  0  0  0  0  0  0
   -2.7713   -1.6000    0.0000 C   0  0  0  0  0  0  0  0  0  0  0  0
   -4.3470   -1.3222    0.0000 H   0  0  0  0  0  0  0  0  0  0  0  0
   -3.3185   -3.1035    0.0000 H   0  0  0  0  0  0  0  0  0  0  0  0
   -1.3856   -2.4000    0.0000 C   0  0  0  0  0  0  0  0  0  0  0  0
   -2.4141   -3.6257    0.0000 H   0  0  0  0  0  0  0  0  0  0  0  0
   -0.3571   -3.6257    0.0000 H   0  0  0  0  0  0  0  0  0  0  0  0
    0.0000   -1.6000    0.0000 C   0  0  0  0  0  0  0  0  0  0  0  0
    0.5472   -3.1035    0.0000 H   0  0  0  0  0  0  0  0  0  0  0  0
    1.5757   -1.3222    0.0000 H   0  0  0  0  0  0  0  0  0  0  0  0
    0.5472    1.5035    0.0000 Cl  0  0  0  0  0  0  0  0  0  0  0  0
  1  2  1  0  0  0  0
  1  3  1  0  0  0  0
  3  4  1  0  0  0  0
  3  5  1  0  0  0  0
  3  6  1  0  0  0  0
  6  7  1  0  0  0  0
  6  8  1  0  0  0  0
  6  9  1  0  0  0  0
  9 10  1  0  0  0  0
  9 11  1  0  0  0  0
  9 12  1  0  0  0  0
 12 13  1  0  0  0  0
 12 14  1  0  0  0  0
 12 15  1  0  0  0  0
 15  1  1  0  0  0  0
 15 16  1  0  0  0  0
 15 17  1  0  0  0  0
  1 18  1  0  0  0  0
M  END
> <ChemID>
100807

> <source_casrn>
542-18-7

> <CAS>
542-18-7

> <SMILES>
ClC1CCCCC1

> <NAME>
Cyclohexane, chloro-

> <preferred_name>
Chlorocyclohexane

> <iupac>
chlorocyclohexane

> <MPID>
100814

> <dsstox_substance_id>
DTXSID3052193

> <Canonical_QSARr>
ClC1CCCCC1

> <InChI_Code_QSARr>
InChI=1S/C6H11Cl/c7-6-4-2-1-3-5-6/h6H,1-5H2

> <InChI Key_QSARr>
UNFUYWDGSFDHCW-UHFFFAOYSA-N

> <Salt_Solvent>
?

> <Ready_Biodeg>
0.0

$$$$
100808
  -INDIGO-08031722522D

  9  8  0  0  0  0  0  0  0  0999 V2000
    1.3857   -0.8000    0.0000 C   0  0  0  0  0  0  0  0  0  0  0  0
    1.3857   -2.4000    0.0000 H   0  0  0  0  0  0  0  0  0  0  0  0
    2.7713    0.0000    0.0000 C   0  0  0  0  0  0  0  0  0  0  0  0
    4.1569   -0.8000    0.0000 H   0  0  0  0  0  0  0  0  0  0  0  0
    2.7713    1.6000    0.0000 Cl  0  0  0  0  0  0  0  0  0  0  0  0
    0.0000    0.0000    0.0000 C   0  0  0  0  0  0  0  0  0  0  0  0
   -1.3856    0.8000    0.0000 H   0  0  0  0  0  0  0  0  0  0  0  0
    0.0000    1.6000    0.0000 H   0  0  0  0  0  0  0  0  0  0  0  0
   -1.3856   -0.8000    0.0000 Cl  0  0  0  0  0  0  0  0  0  0  0  0
  1  2  1  0  0  0  0
  1  3  2  0  0  0  0
  3  4  1  0  0  0  0
  3  5  1  0  0  0  0
  1  6  1  0  0  0  0
  6  7  1  0  0  0  0
  6  8  1  0  0  0  0
  6  9  1  0  0  0  0
M  END
> <ChemID>
100808

> <source_casrn>
542-75-6

> <CAS>
542-75-6

> <SMILES>
ClC=CCCl

> <NAME>
1-Propene, 1,3-dichloro-

> <preferred_name>
1,3-Dichloropropene

> <iupac>
1,3-dichloroprop-1-ene

> <MPID>
100815

> <dsstox_substance_id>
DTXSID1022057

> <Canonical_QSARr>
ClC=CCCl

> <InChI_Code_QSARr>
InChI=1S/C3H4Cl2/c4-2-1-3-5/h1-2H,3H2/b2-1-

> <InChI Key_QSARr>
UOORRWUZONOOLO-UPHRSURJSA-N

> <Salt_Solvent>
?

> <Ready_Biodeg>
0.0

$$$$
100810
  -INDIGO-08031722522D

 50 49  0  0  0  0  0  0  0  0999 V2000
    9.6995   -0.8000    0.0000 C   0  0  0  0  0  0  0  0  0  0  0  0
   11.0851   -1.6000    0.0000 H   0  0  0  0  0  0  0  0  0  0  0  0
   11.0851    0.0000    0.0000 H   0  0  0  0  0  0  0  0  0  0  0  0
    9.6995   -2.4000    0.0000 H   0  0  0  0  0  0  0  0  0  0  0  0
    8.3138    0.0000    0.0000 C   0  0  0  0  0  0  0  0  0  0  0  0
    8.9260    1.4782    0.0000 H   0  0  0  0  0  0  0  0  0  0  0  0
    7.7017    1.4782    0.0000 H   0  0  0  0  0  0  0  0  0  0  0  0
    6.9282   -0.8000    0.0000 C   0  0  0  0  0  0  0  0  0  0  0  0
    6.3161   -2.2782    0.0000 H   0  0  0  0  0  0  0  0  0  0  0  0
    7.5403   -2.2782    0.0000 H   0  0  0  0  0  0  0  0  0  0  0  0
    5.5426    0.0000    0.0000 C   0  0  0  0  0  0  0  0  0  0  0  0
    6.1547    1.4782    0.0000 H   0  0  0  0  0  0  0  0  0  0  0  0
    4.9304    1.4782    0.0000 H   0  0  0  0  0  0  0  0  0  0  0  0
    4.1569   -0.8000    0.0000 C   0  0  0  0  0  0  0  0  0  0  0  0
    3.5448   -2.2782    0.0000 H   0  0  0  0  0  0  0  0  0  0  0  0
    4.7690   -2.2782    0.0000 H   0  0  0  0  0  0  0  0  0  0  0  0
    2.7713    0.0000    0.0000 C   0  0  0  0  0  0  0  0  0  0  0  0
    3.3834    1.4782    0.0000 H   0  0  0  0  0  0  0  0  0  0  0  0
    2.1592    1.4782    0.0000 H   0  0  0  0  0  0  0  0  0  0  0  0
    1.3856   -0.8000    0.0000 C   0  0  0  0  0  0  0  0  0  0  0  0
    0.7735   -2.2782    0.0000 H   0  0  0  0  0  0  0  0  0  0  0  0
    1.9978   -2.2782    0.0000 H   0  0  0  0  0  0  0  0  0  0  0  0
    0.0000    0.0000    0.0000 C   0  0  0  0  0  0  0  0  0  0  0  0
    0.6121    1.4782    0.0000 H   0  0  0  0  0  0  0  0  0  0  0  0
   -0.6121    1.4782    0.0000 H   0  0  0  0  0  0  0  0  0  0  0  0
   -1.3856   -0.8000    0.0000 C   0  0  0  0  0  0  0  0  0  0  0  0
   -1.9978   -2.2782    0.0000 H   0  0  0  0  0  0  0  0  0  0  0  0
   -0.7735   -2.2782    0.0000 H   0  0  0  0  0  0  0  0  0  0  0  0
   -2.7713    0.0000    0.0000 C   0  0  0  0  0  0  0  0  0  0  0  0
   -2.1592    1.4782    0.0000 H   0  0  0  0  0  0  0  0  0  0  0  0
   -3.3834    1.4782    0.0000 H   0  0  0  0  0  0  0  0  0  0  0  0
   -4.1569   -0.8000    0.0000 C   0  0  0  0  0  0  0  0  0  0  0  0
   -4.7690   -2.2782    0.0000 H   0  0  0  0  0  0  0  0  0  0  0  0
   -3.5448   -2.2782    0.0000 H   0  0  0  0  0  0  0  0  0  0  0  0
   -5.5426    0.0000    0.0000 C   0  0  0  0  0  0  0  0  0  0  0  0
   -4.9304    1.4782    0.0000 H   0  0  0  0  0  0  0  0  0  0  0  0
   -6.1547    1.4782    0.0000 H   0  0  0  0  0  0  0  0  0  0  0  0
   -6.9282   -0.8000    0.0000 C   0  0  0  0  0  0  0  0  0  0  0  0
   -7.5403   -2.2782    0.0000 H   0  0  0  0  0  0  0  0  0  0  0  0
   -6.3161   -2.2782    0.0000 H   0  0  0  0  0  0  0  0  0  0  0  0
   -8.3138    0.0000    0.0000 C   0  0  0  0  0  0  0  0  0  0  0  0
   -7.7017    1.4782    0.0000 H   0  0  0  0  0  0  0  0  0  0  0  0
   -8.9260    1.4782    0.0000 H   0  0  0  0  0  0  0  0  0  0  0  0
   -9.6995   -0.8000    0.0000 C   0  0  0  0  0  0  0  0  0  0  0  0
  -10.3116   -2.2782    0.0000 H   0  0  0  0  0  0  0  0  0  0  0  0
   -9.0874   -2.2782    0.0000 H   0  0  0  0  0  0  0  0  0  0  0  0
  -11.0851    0.0000    0.0000 C   0  0  0  0  0  0  0  0  0  0  0  0
  -12.4708    0.8000    0.0000 H   0  0  0  0  0  0  0  0  0  0  0  0
  -12.4708   -0.8000    0.0000 H   0  0  0  0  0  0  0  0  0  0  0  0
  -11.0851    1.6000    0.0000 H   0  0  0  0  0  0  0  0  0  0  0  0
  1  2  1  0  0  0  0
  1  3  1  0  0  0  0
  1  4  1  0  0  0  0
  1  5  1  0  0  0  0
  5  6  1  0  0  0  0
  5  7  1  0  0  0  0
  5  8  1  0  0  0  0
  8  9  1  0  0  0  0
  8 10  1  0  0  0  0
  8 11  1  0  0  0  0
 11 12  1  0  0  0  0
 11 13  1  0  0  0  0
 11 14  1  0  0  0  0
 14 15  1  0  0  0  0
 14 16  1  0  0  0  0
 14 17  1  0  0  0  0
 17 18  1  0  0  0  0
 17 19  1  0  0  0  0
 17 20  1  0  0  0  0
 20 21  1  0  0  0  0
 20 22  1  0  0  0  0
 20 23  1  0  0  0  0
 23 24  1  0  0  0  0
 23 25  1  0  0  0  0
 23 26  1  0  0  0  0
 26 27  1  0  0  0  0
 26 28  1  0  0  0  0
 26 29  1  0  0  0  0
 29 30  1  0  0  0  0
 29 31  1  0  0  0  0
 29 32  1  0  0  0  0
 32 33  1  0  0  0  0
 32 34  1  0  0  0  0
 32 35  1  0  0  0  0
 35 36  1  0  0  0  0
 35 37  1  0  0  0  0
 35 38  1  0  0  0  0
 38 39  1  0  0  0  0
 38 40  1  0  0  0  0
 38 41  1  0  0  0  0
 41 42  1  0  0  0  0
 41 43  1  0  0  0  0
 41 44  1  0  0  0  0
 44 45  1  0  0  0  0
 44 46  1  0  0  0  0
 44 47  1  0  0  0  0
 47 48  1  0  0  0  0
 47 49  1  0  0  0  0
 47 50  1  0  0  0  0
M  END
> <ChemID>
100810

> <source_casrn>
544-76-3

> <CAS>
544-76-3

> <SMILES>
CCCCCCCCCCCCCCCC

> <NAME>
Hexadecane

> <preferred_name>
Hexadecane

> <iupac>
hexadecane

> <MPID>
100818

> <dsstox_substance_id>
DTXSID0027195

> <Canonical_QSARr>
CCCCCCCCCCCCCCCC

> <InChI_Code_QSARr>
InChI=1S/C16H34/c1-3-5-7-9-11-13-15-16-14-12-10-8-6-4-2/h3-16H2,1-2H3

> <InChI Key_QSARr>
DCAYPVUWAIABOU-UHFFFAOYSA-N

> <Salt_Solvent>
?

> <Ready_Biodeg>
0.0

$$$$
100811
  -INDIGO-08031722522D

 98 97  0  0  0  0  0  0  0  0999 V2000
    9.6994   -0.8000    0.0000 C   0  0  0  0  0  0  0  0  0  0  0  0
   11.0851   -1.6000    0.0000 H   0  0  0  0  0  0  0  0  0  0  0  0
   11.0851    0.0000    0.0000 H   0  0  0  0  0  0  0  0  0  0  0  0
    9.6994   -2.4000    0.0000 H   0  0  0  0  0  0  0  0  0  0  0  0
    8.3137    0.0000    0.0000 C   0  0  0  0  0  0  0  0  0  0  0  0
    8.9263    1.4782    0.0000 H   0  0  0  0  0  0  0  0  0  0  0  0
    7.7018    1.4782    0.0000 H   0  0  0  0  0  0  0  0  0  0  0  0
    6.9280   -0.8000    0.0000 C   0  0  0  0  0  0  0  0  0  0  0  0
    6.3161   -2.2782    0.0000 H   0  0  0  0  0  0  0  0  0  0  0  0
    7.5406   -2.2782    0.0000 H   0  0  0  0  0  0  0  0  0  0  0  0
    5.5423    0.0000    0.0000 C   0  0  0  0  0  0  0  0  0  0  0  0
    6.1549    1.4782    0.0000 H   0  0  0  0  0  0  0  0  0  0  0  0
    4.9304    1.4782    0.0000 H   0  0  0  0  0  0  0  0  0  0  0  0
    4.1566   -0.8000    0.0000 C   0  0  0  0  0  0  0  0  0  0  0  0
    3.5447   -2.2782    0.0000 H   0  0  0  0  0  0  0  0  0  0  0  0
    4.7692   -2.2782    0.0000 H   0  0  0  0  0  0  0  0  0  0  0  0
    2.7716    0.0000    0.0000 C   0  0  0  0  0  0  0  0  0  0  0  0
    3.3835    1.4782    0.0000 H   0  0  0  0  0  0  0  0  0  0  0  0
    2.1590    1.4782    0.0000 H   0  0  0  0  0  0  0  0  0  0  0  0
    1.3859   -0.8000    0.0000 C   0  0  0  0  0  0  0  0  0  0  0  0
    0.7733   -2.2782    0.0000 H   0  0  0  0  0  0  0  0  0  0  0  0
    1.9978   -2.2782    0.0000 H   0  0  0  0  0  0  0  0  0  0  0  0
    0.0002    0.0000    0.0000 C   0  0  0  0  0  0  0  0  0  0  0  0
    0.6121    1.4782    0.0000 H   0  0  0  0  0  0  0  0  0  0  0  0
   -0.6124    1.4782    0.0000 H   0  0  0  0  0  0  0  0  0  0  0  0
   -1.3855   -0.8000    0.0000 C   0  0  0  0  0  0  0  0  0  0  0  0
   -1.9981   -2.2782    0.0000 H   0  0  0  0  0  0  0  0  0  0  0  0
   -0.7736   -2.2782    0.0000 H   0  0  0  0  0  0  0  0  0  0  0  0
   -2.7712    0.0000    0.0000 C   0  0  0  0  0  0  0  0  0  0  0  0
   -2.1593    1.4782    0.0000 H   0  0  0  0  0  0  0  0  0  0  0  0
   -3.3838    1.4782    0.0000 H   0  0  0  0  0  0  0  0  0  0  0  0
   -4.1569   -0.8000    0.0000 C   0  0  0  0  0  0  0  0  0  0  0  0
   -4.7695   -2.2782    0.0000 H   0  0  0  0  0  0  0  0  0  0  0  0
   -3.5443   -2.2782    0.0000 H   0  0  0  0  0  0  0  0  0  0  0  0
   -5.5426    0.0000    0.0000 C   0  0  0  0  0  0  0  0  0  0  0  0
   -4.9300    1.4782    0.0000 H   0  0  0  0  0  0  0  0  0  0  0  0
   -6.1545    1.4782    0.0000 H   0  0  0  0  0  0  0  0  0  0  0  0
   -6.9283   -0.8000    0.0000 C   0  0  0  0  0  0  0  0  0  0  0  0
   -7.5402   -2.2782    0.0000 H   0  0  0  0  0  0  0  0  0  0  0  0
   -6.3157   -2.2782    0.0000 H   0  0  0  0  0  0  0  0  0  0  0  0
   -8.3140    0.0000    0.0000 C   0  0  0  0  0  0  0  0  0  0  0  0
   -7.7014    1.4782    0.0000 H   0  0  0  0  0  0  0  0  0  0  0  0
   -8.9259    1.4782    0.0000 H   0  0  0  0  0  0  0  0  0  0  0  0
   -9.6997   -0.8000    0.0000 C   0  0  0  0  0  0  0  0  0  0  0  0
  -10.3117   -2.2782    0.0000 H   0  0  0  0  0  0  0  0  0  0  0  0
   -9.0871   -2.2782    0.0000 H   0  0  0  0  0  0  0  0  0  0  0  0
  -11.0854    0.0000    0.0000 C   0  0  0  0  0  0  0  0  0  0  0  0
  -10.4728    1.4782    0.0000 H   0  0  0  0  0  0  0  0  0  0  0  0
  -11.6974    1.4782    0.0000 H   0  0  0  0  0  0  0  0  0  0  0  0
  -12.4704   -0.8000    0.0000 C   0  0  0  0  0  0  0  0  0  0  0  0
  -13.0831   -2.2782    0.0000 H   0  0  0  0  0  0  0  0  0  0  0  0
  -11.8585   -2.2782    0.0000 H   0  0  0  0  0  0  0  0  0  0  0  0
  -13.8562    0.0000    0.0000 C   0  0  0  0  0  0  0  0  0  0  0  0
  -13.2442    1.4782    0.0000 H   0  0  0  0  0  0  0  0  0  0  0  0
  -14.4688    1.4782    0.0000 H   0  0  0  0  0  0  0  0  0  0  0  0
  -15.2419   -0.8000    0.0000 C   0  0  0  0  0  0  0  0  0  0  0  0
  -15.8545   -2.2782    0.0000 H   0  0  0  0  0  0  0  0  0  0  0  0
  -14.6299   -2.2782    0.0000 H   0  0  0  0  0  0  0  0  0  0  0  0
  -16.6276    0.0000    0.0000 C   0  0  0  0  0  0  0  0  0  0  0  0
  -16.0156    1.4782    0.0000 H   0  0  0  0  0  0  0  0  0  0  0  0
  -17.2402    1.4782    0.0000 H   0  0  0  0  0  0  0  0  0  0  0  0
  -18.0133   -0.8000    0.0000 C   0  0  0  0  0  0  0  0  0  0  0  0
  -18.6259   -2.2782    0.0000 H   0  0  0  0  0  0  0  0  0  0  0  0
  -17.4014   -2.2782    0.0000 H   0  0  0  0  0  0  0  0  0  0  0  0
  -19.3990    0.0000    0.0000 C   0  0  0  0  0  0  0  0  0  0  0  0
  -18.7864    1.4782    0.0000 H   0  0  0  0  0  0  0  0  0  0  0  0
  -20.0116    1.4782    0.0000 H   0  0  0  0  0  0  0  0  0  0  0  0
  -20.7847   -0.8000    0.0000 C   0  0  0  0  0  0  0  0  0  0  0  0
  -21.3966   -2.2782    0.0000 H   0  0  0  0  0  0  0  0  0  0  0  0
  -20.1721   -2.2782    0.0000 H   0  0  0  0  0  0  0  0  0  0  0  0
  -22.1704    0.0000    0.0000 C   0  0  0  0  0  0  0  0  0  0  0  0
  -21.5578    1.4782    0.0000 H   0  0  0  0  0  0  0  0  0  0  0  0
  -22.7823    1.4782    0.0000 H   0  0  0  0  0  0  0  0  0  0  0  0
  -23.5561   -0.8000    0.0000 C   0  0  0  0  0  0  0  0  0  0  0  0
  -24.1680   -2.2782    0.0000 H   0  0  0  0  0  0  0  0  0  0  0  0
  -22.9435   -2.2782    0.0000 H   0  0  0  0  0  0  0  0  0  0  0  0
  -24.9418    0.0000    0.0000 C   0  0  0  0  0  0  0  0  0  0  0  0
  -24.3292    1.4782    0.0000 H   0  0  0  0  0  0  0  0  0  0  0  0
  -25.5537    1.4782    0.0000 H   0  0  0  0  0  0  0  0  0  0  0  0
  -26.3275   -0.8000    0.0000 C   0  0  0  0  0  0  0  0  0  0  0  0
  -26.9394   -2.2782    0.0000 H   0  0  0  0  0  0  0  0  0  0  0  0
  -25.7149   -2.2782    0.0000 H   0  0  0  0  0  0  0  0  0  0  0  0
  -27.7125    0.0000    0.0000 C   0  0  0  0  0  0  0  0  0  0  0  0
  -27.1006    1.4782    0.0000 H   0  0  0  0  0  0  0  0  0  0  0  0
  -28.3251    1.4782    0.0000 H   0  0  0  0  0  0  0  0  0  0  0  0
  -29.0982   -0.8000    0.0000 C   0  0  0  0  0  0  0  0  0  0  0  0
  -29.7108   -2.2782    0.0000 H   0  0  0  0  0  0  0  0  0  0  0  0
  -28.4863   -2.2782    0.0000 H   0  0  0  0  0  0  0  0  0  0  0  0
  -30.4839    0.0000    0.0000 C   0  0  0  0  0  0  0  0  0  0  0  0
  -29.8720    1.4782    0.0000 H   0  0  0  0  0  0  0  0  0  0  0  0
  -31.0965    1.4782    0.0000 H   0  0  0  0  0  0  0  0  0  0  0  0
  -31.8696   -0.8000    0.0000 C   0  0  0  0  0  0  0  0  0  0  0  0
  -32.4822   -2.2782    0.0000 H   0  0  0  0  0  0  0  0  0  0  0  0
  -31.2577   -2.2782    0.0000 H   0  0  0  0  0  0  0  0  0  0  0  0
  -33.2553    0.0000    0.0000 C   0  0  0  0  0  0  0  0  0  0  0  0
  -34.6410    0.8000    0.0000 H   0  0  0  0  0  0  0  0  0  0  0  0
  -34.6410   -0.8000    0.0000 H   0  0  0  0  0  0  0  0  0  0  0  0
  -33.2553    1.6000    0.0000 H   0  0  0  0  0  0  0  0  0  0  0  0
  1  2  1  0  0  0  0
  1  3  1  0  0  0  0
  1  4  1  0  0  0  0
  1  5  1  0  0  0  0
  5  6  1  0  0  0  0
  5  7  1  0  0  0  0
  5  8  1  0  0  0  0
  8  9  1  0  0  0  0
  8 10  1  0  0  0  0
  8 11  1  0  0  0  0
 11 12  1  0  0  0  0
 11 13  1  0  0  0  0
 11 14  1  0  0  0  0
 14 15  1  0  0  0  0
 14 16  1  0  0  0  0
 14 17  1  0  0  0  0
 17 18  1  0  0  0  0
 17 19  1  0  0  0  0
 17 20  1  0  0  0  0
 20 21  1  0  0  0  0
 20 22  1  0  0  0  0
 20 23  1  0  0  0  0
 23 24  1  0  0  0  0
 23 25  1  0  0  0  0
 23 26  1  0  0  0  0
 26 27  1  0  0  0  0
 26 28  1  0  0  0  0
 26 29  1  0  0  0  0
 29 30  1  0  0  0  0
 29 31  1  0  0  0  0
 29 32  1  0  0  0  0
 32 33  1  0  0  0  0
 32 34  1  0  0  0  0
 32 35  1  0  0  0  0
 35 36  1  0  0  0  0
 35 37  1  0  0  0  0
 35 38  1  0  0  0  0
 38 39  1  0  0  0  0
 38 40  1  0  0  0  0
 38 41  1  0  0  0  0
 41 42  1  0  0  0  0
 41 43  1  0  0  0  0
 41 44  1  0  0  0  0
 44 45  1  0  0  0  0
 44 46  1  0  0  0  0
 44 47  1  0  0  0  0
 47 48  1  0  0  0  0
 47 49  1  0  0  0  0
 47 50  1  0  0  0  0
 50 51  1  0  0  0  0
 50 52  1  0  0  0  0
 50 53  1  0  0  0  0
 53 54  1  0  0  0  0
 53 55  1  0  0  0  0
 53 56  1  0  0  0  0
 56 57  1  0  0  0  0
 56 58  1  0  0  0  0
 56 59  1  0  0  0  0
 59 60  1  0  0  0  0
 59 61  1  0  0  0  0
 59 62  1  0  0  0  0
 62 63  1  0  0  0  0
 62 64  1  0  0  0  0
 62 65  1  0  0  0  0
 65 66  1  0  0  0  0
 65 67  1  0  0  0  0
 65 68  1  0  0  0  0
 68 69  1  0  0  0  0
 68 70  1  0  0  0  0
 68 71  1  0  0  0  0
 71 72  1  0  0  0  0
 71 73  1  0  0  0  0
 71 74  1  0  0  0  0
 74 75  1  0  0  0  0
 74 76  1  0  0  0  0
 74 77  1  0  0  0  0
 77 78  1  0  0  0  0
 77 79  1  0  0  0  0
 77 80  1  0  0  0  0
 80 81  1  0  0  0  0
 80 82  1  0  0  0  0
 80 83  1  0  0  0  0
 83 84  1  0  0  0  0
 83 85  1  0  0  0  0
 83 86  1  0  0  0  0
 86 87  1  0  0  0  0
 86 88  1  0  0  0  0
 86 89  1  0  0  0  0
 89 90  1  0  0  0  0
 89 91  1  0  0  0  0
 89 92  1  0  0  0  0
 92 93  1  0  0  0  0
 92 94  1  0  0  0  0
 92 95  1  0  0  0  0
 95 96  1  0  0  0  0
 95 97  1  0  0  0  0
 95 98  1  0  0  0  0
M  END
> <ChemID>
100811

> <source_casrn>
544-85-4

> <CAS>
544-85-4

> <SMILES>
CCCCCCCCCCCCCCCCCCCCCCCCCCCCCCCC

> <NAME>
Dotriacontane

> <preferred_name>
Dotriacontane

> <iupac>
dotriacontane

> <MPID>
100819

> <dsstox_substance_id>
DTXSID5052202

> <Canonical_QSARr>
CCCCCCCCCCCCCCCCCCCCCCCCCCCCCCCC

> <InChI_Code_QSARr>
InChI=1S/C32H66/c1-3-5-7-9-11-13-15-17-19-21-23-25-27-29-31-32-30-28-26-24-22-20-18-16-14-12-10-8-6-4-2/h3-32H2,1-2H3

> <InChI Key_QSARr>
QHMGJGNTMQDRQA-UHFFFAOYSA-N

> <Salt_Solvent>
?

> <Ready_Biodeg>
1.0

$$$$
100817
  -INDIGO-08031722522D

 17 17  0  0  0  0  0  0  0  0999 V2000
   -0.8000    1.3856    0.0000 C   0  0  0  0  0  0  0  0  0  0  0  0
    0.0000    2.7713    0.0000 O   0  0  0  0  0  0  0  0  0  0  0  0
   -2.4000    1.3856    0.0000 O   0  0  0  0  0  0  0  0  0  0  0  0
   -3.2000    2.7713    0.0000 H   0  0  0  0  0  0  0  0  0  0  0  0
    0.0000    0.0000    0.0000 C   0  0  0  0  0  0  0  0  0  0  0  0
   -0.8000   -1.3856    0.0000 C   0  0  0  0  0  0  0  0  0  0  0  0
   -2.4000   -1.3856    0.0000 H   0  0  0  0  0  0  0  0  0  0  0  0
    0.0000   -2.7713    0.0000 C   0  0  0  0  0  0  0  0  0  0  0  0
   -0.8000   -4.1569    0.0000 H   0  0  0  0  0  0  0  0  0  0  0  0
    1.6000   -2.7713    0.0000 C   0  0  0  0  0  0  0  0  0  0  0  0
    2.4000   -4.1569    0.0000 H   0  0  0  0  0  0  0  0  0  0  0  0
    2.4000   -1.3856    0.0000 C   0  0  0  0  0  0  0  0  0  0  0  0
    4.0000   -1.3856    0.0000 H   0  0  0  0  0  0  0  0  0  0  0  0
    1.6000    0.0000    0.0000 C   0  0  0  0  0  0  0  0  0  0  0  0
    2.4000    1.3856    0.0000 N   0  0  0  0  0  0  0  0  0  0  0  0
    4.0000    1.3856    0.0000 O   0  0  0  0  0  0  0  0  0  0  0  0
    1.6000    2.7713    0.0000 O   0  0  0  0  0  0  0  0  0  0  0  0
  1  2  2  0  0  0  0
  1  3  1  0  0  0  0
  3  4  1  0  0  0  0
  1  5  1  0  0  0  0
  5  6  1  0  0  0  0
  6  7  1  0  0  0  0
  6  8  2  0  0  0  0
  8  9  1  0  0  0  0
  8 10  1  0  0  0  0
 10 11  1  0  0  0  0
 10 12  2  0  0  0  0
 12 13  1  0  0  0  0
 12 14  1  0  0  0  0
 14  5  2  0  0  0  0
 14 15  1  0  0  0  0
 15 16  2  0  0  0  0
 15 17  1  0  0  0  0
M  CHG  2  15   1  17  -1
M  END
> <ChemID>
100817

> <source_casrn>
552-16-9

> <CAS>
552-16-9

> <SMILES>
[O-][N+](=O)c1ccccc1C(O)=O

> <NAME>
2-Nitrobenzoic acid

> <preferred_name>
2-Nitrobenzoic acid

> <iupac>
2-nitrobenzoic acid

> <MPID>
100822

> <dsstox_substance_id>
DTXSID5025738

> <Canonical_QSARr>
[O-][N+](=O)c1ccccc1C(O)=O

> <InChI_Code_QSARr>
InChI=1S/C7H5NO4/c9-7(10)5-3-1-2-4-6(5)8(11)12/h1-4H,(H,9,10)

> <InChI Key_QSARr>
SLAMLWHELXOEJZ-UHFFFAOYSA-N

> <Salt_Solvent>
?

> <Ready_Biodeg>
1.0

$$$$
100818
  -INDIGO-08031722522D

 18 19  0  0  0  0  0  0  0  0999 V2000
   -2.0161    2.0161    0.0000 O   0  0  0  0  0  0  0  0  0  0  0  0
   -1.5218    0.4944    0.0000 C   0  0  0  0  0  0  0  0  0  0  0  0
   -2.4621   -0.8000    0.0000 O   0  0  0  0  0  0  0  0  0  0  0  0
   -1.5218   -2.0944    0.0000 C   0  0  0  0  0  0  0  0  0  0  0  0
   -2.0161   -3.6161    0.0000 O   0  0  0  0  0  0  0  0  0  0  0  0
   -0.0000   -1.6000    0.0000 C   0  0  0  0  0  0  0  0  0  0  0  0
   -0.0000   -0.0000    0.0000 C   0  0  0  0  0  0  0  0  0  0  0  0
    1.3857    0.8000    0.0000 C   0  0  0  0  0  0  0  0  0  0  0  0
    1.3857    2.4000    0.0000 H   0  0  0  0  0  0  0  0  0  0  0  0
    2.7713   -0.0000    0.0000 C   0  0  0  0  0  0  0  0  0  0  0  0
    2.7713   -1.6000    0.0000 C   0  0  0  0  0  0  0  0  0  0  0  0
    4.1569   -2.4000    0.0000 H   0  0  0  0  0  0  0  0  0  0  0  0
    1.3857   -2.4000    0.0000 C   0  0  0  0  0  0  0  0  0  0  0  0
    1.3857   -4.0000    0.0000 H   0  0  0  0  0  0  0  0  0  0  0  0
    4.1569    0.8000    0.0000 C   0  0  0  0  0  0  0  0  0  0  0  0
    4.1569    2.4000    0.0000 O   0  0  0  0  0  0  0  0  0  0  0  0
    5.5426   -0.0000    0.0000 O   0  0  0  0  0  0  0  0  0  0  0  0
    6.9282    0.8000    0.0000 H   0  0  0  0  0  0  0  0  0  0  0  0
  1  2  2  0  0  0  0
  2  3  1  0  0  0  0
  3  4  1  0  0  0  0
  4  5  2  0  0  0  0
  4  6  1  0  0  0  0
  6  7  1  0  0  0  0
  7  2  1  0  0  0  0
  7  8  2  0  0  0  0
  8  9  1  0  0  0  0
  8 10  1  0  0  0  0
 10 11  2  0  0  0  0
 11 12  1  0  0  0  0
 11 13  1  0  0  0  0
 13  6  2  0  0  0  0
 13 14  1  0  0  0  0
 10 15  1  0  0  0  0
 15 16  2  0  0  0  0
 15 17  1  0  0  0  0
 17 18  1  0  0  0  0
M  END
> <ChemID>
100818

> <source_casrn>
552-30-7

> <CAS>
552-30-7

> <SMILES>
O=C(OC(=O)c1ccc(C(=O)O)c2)c12

> <NAME>
Trimellitic anhydride

> <preferred_name>
Trimellitic anhydride

> <iupac>
1,3-dioxo-1,3-dihydro-2-benzofuran-5-carboxylic acid

> <MPID>
100823

> <dsstox_substance_id>
DTXSID7026235

> <Canonical_QSARr>
OC(=O)c1cc2c(cc1)C(=O)OC2=O

> <InChI_Code_QSARr>
InChI=1S/C9H4O5/c10-7(11)4-1-2-5-6(3-4)9(13)14-8(5)12/h1-3H,(H,10,11)

> <InChI Key_QSARr>
SRPWOOOHEPICQU-UHFFFAOYSA-N

> <Salt_Solvent>
?

> <Ready_Biodeg>
1.0

$$$$
100819
  -INDIGO-08031722522D

 14 14  0  0  0  0  0  0  0  0999 V2000
    0.0000    2.7713    0.0000 Cl  0  0  0  0  0  0  0  0  0  0  0  0
    0.8000    1.3856    0.0000 C   0  0  0  0  0  0  0  0  0  0  0  0
    2.4000    1.3856    0.0000 C   0  0  0  0  0  0  0  0  0  0  0  0
    3.2000    2.7713    0.0000 H   0  0  0  0  0  0  0  0  0  0  0  0
    3.2000   -0.0000    0.0000 C   0  0  0  0  0  0  0  0  0  0  0  0
    4.8000    0.0000    0.0000 Cl  0  0  0  0  0  0  0  0  0  0  0  0
    2.4000   -1.3856    0.0000 C   0  0  0  0  0  0  0  0  0  0  0  0
    3.2000   -2.7713    0.0000 H   0  0  0  0  0  0  0  0  0  0  0  0
    0.8000   -1.3856    0.0000 C   0  0  0  0  0  0  0  0  0  0  0  0
    0.0000   -2.7713    0.0000 H   0  0  0  0  0  0  0  0  0  0  0  0
    0.0000   -0.0000    0.0000 C   0  0  0  0  0  0  0  0  0  0  0  0
   -1.6000    0.0000    0.0000 N   0  0  0  0  0  0  0  0  0  0  0  0
   -2.4000   -1.3856    0.0000 H   0  0  0  0  0  0  0  0  0  0  0  0
   -2.4000    1.3856    0.0000 H   0  0  0  0  0  0  0  0  0  0  0  0
  1  2  1  0  0  0  0
  2  3  1  0  0  0  0
  3  4  1  0  0  0  0
  3  5  2  0  0  0  0
  5  6  1  0  0  0  0
  5  7  1  0  0  0  0
  7  8  1  0  0  0  0
  7  9  2  0  0  0  0
  9 10  1  0  0  0  0
  9 11  1  0  0  0  0
 11  2  2  0  0  0  0
 11 12  1  0  0  0  0
 12 13  1  0  0  0  0
 12 14  1  0  0  0  0
M  END
> <ChemID>
100819

> <source_casrn>
554-00-7

> <CAS>
554-00-7

> <SMILES>
Nc1ccc(Cl)cc1Cl

> <NAME>
Benzenamine, 2,4-dichloro-

> <preferred_name>
2,4-Dichloroaniline

> <iupac>
2,4-dichloroaniline

> <MPID>
100824

> <dsstox_substance_id>
DTXSID1024966

> <Canonical_QSARr>
Nc1ccc(Cl)cc1Cl

> <InChI_Code_QSARr>
InChI=1S/C6H5Cl2N/c7-4-1-2-6(9)5(8)3-4/h1-3H,9H2

> <InChI Key_QSARr>
KQCMTOWTPBNWDB-UHFFFAOYSA-N

> <Salt_Solvent>
?

> <Ready_Biodeg>
0.0

$$$$
100821
  -INDIGO-08031722522D

 18 18  0  0  0  0  0  0  0  0999 V2000
   -2.7713   -0.0000    0.0000 C   0  0  0  0  0  0  0  0  0  0  0  0
   -1.3857    0.8000    0.0000 C   0  0  0  0  0  0  0  0  0  0  0  0
   -1.3857    2.4000    0.0000 H   0  0  0  0  0  0  0  0  0  0  0  0
    0.0001   -0.0000    0.0000 C   0  0  0  0  0  0  0  0  0  0  0  0
    1.3857    0.8000    0.0000 O   0  0  0  0  0  0  0  0  0  0  0  0
    2.7713   -0.0000    0.0000 C   0  0  0  0  0  0  0  0  0  0  0  0
    4.1569    0.8000    0.0000 H   0  0  0  0  0  0  0  0  0  0  0  0
    4.1569   -0.8000    0.0000 H   0  0  0  0  0  0  0  0  0  0  0  0
    2.7713    1.6000    0.0000 H   0  0  0  0  0  0  0  0  0  0  0  0
    0.0001   -1.6000    0.0000 C   0  0  0  0  0  0  0  0  0  0  0  0
    1.3857   -2.4000    0.0000 H   0  0  0  0  0  0  0  0  0  0  0  0
   -1.3857   -2.4000    0.0000 C   0  0  0  0  0  0  0  0  0  0  0  0
   -1.3857   -4.0000    0.0000 H   0  0  0  0  0  0  0  0  0  0  0  0
   -2.7713   -1.6000    0.0000 C   0  0  0  0  0  0  0  0  0  0  0  0
   -4.1569   -2.4000    0.0000 H   0  0  0  0  0  0  0  0  0  0  0  0
   -4.1569    0.8000    0.0000 N   0  0  0  0  0  0  0  0  0  0  0  0
   -5.5426   -0.0000    0.0000 O   0  0  0  0  0  0  0  0  0  0  0  0
   -4.1569    2.4000    0.0000 O   0  0  0  0  0  0  0  0  0  0  0  0
  1  2  1  0  0  0  0
  2  3  1  0  0  0  0
  2  4  2  0  0  0  0
  4  5  1  0  0  0  0
  5  6  1  0  0  0  0
  6  7  1  0  0  0  0
  6  8  1  0  0  0  0
  6  9  1  0  0  0  0
  4 10  1  0  0  0  0
 10 11  1  0  0  0  0
 10 12  2  0  0  0  0
 12 13  1  0  0  0  0
 12 14  1  0  0  0  0
 14  1  2  0  0  0  0
 14 15  1  0  0  0  0
  1 16  1  0  0  0  0
 16 17  2  0  0  0  0
 16 18  1  0  0  0  0
M  CHG  2  16   1  18  -1
M  END
> <ChemID>
100821

> <source_casrn>
555-03-3

> <CAS>
555-03-3

> <SMILES>
COc1cc(ccc1)[N+]([O-])=O

> <NAME>
Benzene, 1-methoxy-3-nitro-

> <preferred_name>
Benzene, 1-methoxy-3-nitro-

> <iupac>
1-Methoxy-3-nitrobenzene

> <MPID>
100826

> <dsstox_substance_id>
DTXSID3060295

> <Canonical_QSARr>
COc1cc(ccc1)[N+]([O-])=O

> <InChI_Code_QSARr>
InChI=1S/C7H7NO3/c1-11-7-4-2-3-6(5-7)8(9)10/h2-5H,1H3

> <InChI Key_QSARr>
WGYFINWERLNPHR-UHFFFAOYSA-N

> <Salt_Solvent>
?

> <Ready_Biodeg>
0.0

$$$$
100822
  -INDIGO-08031722522D

 33 33  0  0  0  0  0  0  0  0999 V2000
    4.1568   -0.7999    0.0000 C   0  0  0  0  0  0  0  0  0  0  0  0
    5.5425    0.0000    0.0000 N   0  0  0  0  0  0  0  0  0  0  0  0
    5.5425    1.6000    0.0000 H   0  0  0  0  0  0  0  0  0  0  0  0
    6.9282   -0.7999    0.0000 C   0  0  0  0  0  0  0  0  0  0  0  0
    8.3139    0.0000    0.0000 C   0  0  0  0  0  0  0  0  0  0  0  0
    8.3139    1.6000    0.0000 H   0  0  0  0  0  0  0  0  0  0  0  0
    9.6994   -0.7999    0.0000 C   0  0  0  0  0  0  0  0  0  0  0  0
   11.0851    0.0000    0.0000 Cl  0  0  0  0  0  0  0  0  0  0  0  0
    9.6994   -2.3999    0.0000 C   0  0  0  0  0  0  0  0  0  0  0  0
   11.0851   -3.2000    0.0000 Cl  0  0  0  0  0  0  0  0  0  0  0  0
    8.3139   -3.2000    0.0000 C   0  0  0  0  0  0  0  0  0  0  0  0
    8.3139   -4.8000    0.0000 H   0  0  0  0  0  0  0  0  0  0  0  0
    6.9282   -2.3999    0.0000 C   0  0  0  0  0  0  0  0  0  0  0  0
    5.5425   -3.2000    0.0000 H   0  0  0  0  0  0  0  0  0  0  0  0
    2.7714    0.0000    0.0000 N   0  0  0  0  0  0  0  0  0  0  0  0
    1.3857   -0.7999    0.0000 C   0  0  0  0  0  0  0  0  0  0  0  0
    0.7733   -2.2782    0.0000 H   0  0  0  0  0  0  0  0  0  0  0  0
    1.9980   -2.2782    0.0000 H   0  0  0  0  0  0  0  0  0  0  0  0
   -0.0000    0.0000    0.0000 C   0  0  0  0  0  0  0  0  0  0  0  0
    0.6123    1.4782    0.0000 H   0  0  0  0  0  0  0  0  0  0  0  0
   -0.6122    1.4782    0.0000 H   0  0  0  0  0  0  0  0  0  0  0  0
   -1.3857   -0.7999    0.0000 C   0  0  0  0  0  0  0  0  0  0  0  0
   -1.9979   -2.2782    0.0000 H   0  0  0  0  0  0  0  0  0  0  0  0
   -0.7734   -2.2782    0.0000 H   0  0  0  0  0  0  0  0  0  0  0  0
   -2.7712    0.0000    0.0000 C   0  0  0  0  0  0  0  0  0  0  0  0
   -4.1569    0.8001    0.0000 H   0  0  0  0  0  0  0  0  0  0  0  0
   -4.1569   -0.7999    0.0000 H   0  0  0  0  0  0  0  0  0  0  0  0
   -2.7712    1.6000    0.0000 H   0  0  0  0  0  0  0  0  0  0  0  0
    2.7714    1.6000    0.0000 C   0  0  0  0  0  0  0  0  0  0  0  0
    2.7714    3.2000    0.0000 H   0  0  0  0  0  0  0  0  0  0  0  0
    1.3857    2.4001    0.0000 H   0  0  0  0  0  0  0  0  0  0  0  0
    4.1568    2.4001    0.0000 H   0  0  0  0  0  0  0  0  0  0  0  0
    4.1568   -2.4001    0.0000 O   0  0  0  0  0  0  0  0  0  0  0  0
  1  2  1  0  0  0  0
  2  3  1  0  0  0  0
  2  4  1  0  0  0  0
  4  5  1  0  0  0  0
  5  6  1  0  0  0  0
  5  7  2  0  0  0  0
  7  8  1  0  0  0  0
  7  9  1  0  0  0  0
  9 10  1  0  0  0  0
  9 11  2  0  0  0  0
 11 12  1  0  0  0  0
 11 13  1  0  0  0  0
 13  4  2  0  0  0  0
 13 14  1  0  0  0  0
  1 15  1  0  0  0  0
 15 16  1  0  0  0  0
 16 17  1  0  0  0  0
 16 18  1  0  0  0  0
 16 19  1  0  0  0  0
 19 20  1  0  0  0  0
 19 21  1  0  0  0  0
 19 22  1  0  0  0  0
 22 23  1  0  0  0  0
 22 24  1  0  0  0  0
 22 25  1  0  0  0  0
 25 26  1  0  0  0  0
 25 27  1  0  0  0  0
 25 28  1  0  0  0  0
 15 29  1  0  0  0  0
 29 30  1  0  0  0  0
 29 31  1  0  0  0  0
 29 32  1  0  0  0  0
  1 33  2  0  0  0  0
M  END
> <ChemID>
100822

> <source_casrn>
555-37-3

> <CAS>
555-37-3

> <SMILES>
CCCCN(C)C(=O)Nc1cc(Cl)c(Cl)cc1

> <NAME>
NEBURON

> <preferred_name>
Neburon

> <iupac>
1-butyl-3-(3,4-dichlorophenyl)-1-methylurea

> <MPID>
100827

> <dsstox_substance_id>
DTXSID4042200

> <Canonical_QSARr>
CCCCN(C)C(=O)Nc1cc(Cl)c(Cl)cc1

> <InChI_Code_QSARr>
InChI=1S/C12H16Cl2N2O/c1-3-4-7-16(2)12(17)15-9-5-6-10(13)11(14)8-9/h5-6,8H,3-4,7H2,1-2H3,(H,15,17)

> <InChI Key_QSARr>
CCGPUGMWYLICGL-UHFFFAOYSA-N

> <Salt_Solvent>
?

> <Ready_Biodeg>
0.0

$$$$
100823
  -INDIGO-08031722522D

 87 86  0  0  0  0  0  0  0  0999 V2000
    9.6998   -0.8000    0.0000 C   0  0  0  0  0  0  0  0  0  0  0  0
   11.0851   -1.6000    0.0000 H   0  0  0  0  0  0  0  0  0  0  0  0
   11.0851    0.0000    0.0000 H   0  0  0  0  0  0  0  0  0  0  0  0
    9.6998   -2.4000    0.0000 H   0  0  0  0  0  0  0  0  0  0  0  0
    8.3138    0.0000    0.0000 C   0  0  0  0  0  0  0  0  0  0  0  0
    8.9260    1.4782    0.0000 H   0  0  0  0  0  0  0  0  0  0  0  0
    7.7017    1.4782    0.0000 H   0  0  0  0  0  0  0  0  0  0  0  0
    6.9285   -0.8000    0.0000 C   0  0  0  0  0  0  0  0  0  0  0  0
    6.3158   -2.2782    0.0000 H   0  0  0  0  0  0  0  0  0  0  0  0
    7.5406   -2.2782    0.0000 H   0  0  0  0  0  0  0  0  0  0  0  0
    5.5426    0.0000    0.0000 C   0  0  0  0  0  0  0  0  0  0  0  0
    6.1547    1.4782    0.0000 H   0  0  0  0  0  0  0  0  0  0  0  0
    4.9305    1.4782    0.0000 H   0  0  0  0  0  0  0  0  0  0  0  0
    4.1572   -0.8000    0.0000 C   0  0  0  0  0  0  0  0  0  0  0  0
    3.5445   -2.2782    0.0000 H   0  0  0  0  0  0  0  0  0  0  0  0
    4.7693   -2.2782    0.0000 H   0  0  0  0  0  0  0  0  0  0  0  0
    2.7713    0.0000    0.0000 C   0  0  0  0  0  0  0  0  0  0  0  0
    3.3834    1.4782    0.0000 H   0  0  0  0  0  0  0  0  0  0  0  0
    2.1592    1.4782    0.0000 H   0  0  0  0  0  0  0  0  0  0  0  0
    1.3860   -0.8000    0.0000 C   0  0  0  0  0  0  0  0  0  0  0  0
    0.7732   -2.2782    0.0000 H   0  0  0  0  0  0  0  0  0  0  0  0
    1.9981   -2.2782    0.0000 H   0  0  0  0  0  0  0  0  0  0  0  0
    0.0000    0.0000    0.0000 C   0  0  0  0  0  0  0  0  0  0  0  0
    0.6121    1.4782    0.0000 H   0  0  0  0  0  0  0  0  0  0  0  0
   -0.6121    1.4782    0.0000 H   0  0  0  0  0  0  0  0  0  0  0  0
   -1.3853   -0.8000    0.0000 C   0  0  0  0  0  0  0  0  0  0  0  0
   -1.9981   -2.2782    0.0000 H   0  0  0  0  0  0  0  0  0  0  0  0
   -0.7732   -2.2782    0.0000 H   0  0  0  0  0  0  0  0  0  0  0  0
   -2.7713    0.0000    0.0000 C   0  0  0  0  0  0  0  0  0  0  0  0
   -2.1592    1.4782    0.0000 H   0  0  0  0  0  0  0  0  0  0  0  0
   -3.3834    1.4782    0.0000 H   0  0  0  0  0  0  0  0  0  0  0  0
   -4.1566   -0.8000    0.0000 C   0  0  0  0  0  0  0  0  0  0  0  0
   -4.7693   -2.2782    0.0000 H   0  0  0  0  0  0  0  0  0  0  0  0
   -3.5445   -2.2782    0.0000 H   0  0  0  0  0  0  0  0  0  0  0  0
   -5.5426    0.0000    0.0000 C   0  0  0  0  0  0  0  0  0  0  0  0
   -4.9305    1.4782    0.0000 H   0  0  0  0  0  0  0  0  0  0  0  0
   -6.1547    1.4782    0.0000 H   0  0  0  0  0  0  0  0  0  0  0  0
   -6.9279   -0.8000    0.0000 C   0  0  0  0  0  0  0  0  0  0  0  0
   -7.5406   -2.2782    0.0000 H   0  0  0  0  0  0  0  0  0  0  0  0
   -6.3158   -2.2782    0.0000 H   0  0  0  0  0  0  0  0  0  0  0  0
   -8.3138    0.0000    0.0000 C   0  0  0  0  0  0  0  0  0  0  0  0
   -7.7017    1.4782    0.0000 H   0  0  0  0  0  0  0  0  0  0  0  0
   -8.9259    1.4782    0.0000 H   0  0  0  0  0  0  0  0  0  0  0  0
   -9.6992   -0.8000    0.0000 C   0  0  0  0  0  0  0  0  0  0  0  0
  -10.3119   -2.2782    0.0000 H   0  0  0  0  0  0  0  0  0  0  0  0
   -9.0871   -2.2782    0.0000 H   0  0  0  0  0  0  0  0  0  0  0  0
  -11.0851    0.0000    0.0000 C   0  0  0  0  0  0  0  0  0  0  0  0
  -10.4730    1.4782    0.0000 H   0  0  0  0  0  0  0  0  0  0  0  0
  -11.6972    1.4782    0.0000 H   0  0  0  0  0  0  0  0  0  0  0  0
  -12.4711   -0.8000    0.0000 C   0  0  0  0  0  0  0  0  0  0  0  0
  -13.0832   -2.2782    0.0000 H   0  0  0  0  0  0  0  0  0  0  0  0
  -11.8583   -2.2782    0.0000 H   0  0  0  0  0  0  0  0  0  0  0  0
  -13.8564    0.0000    0.0000 C   0  0  0  0  0  0  0  0  0  0  0  0
  -13.2443    1.4782    0.0000 H   0  0  0  0  0  0  0  0  0  0  0  0
  -14.4685    1.4782    0.0000 H   0  0  0  0  0  0  0  0  0  0  0  0
  -15.2424   -0.8000    0.0000 C   0  0  0  0  0  0  0  0  0  0  0  0
  -15.8545   -2.2782    0.0000 H   0  0  0  0  0  0  0  0  0  0  0  0
  -14.6296   -2.2782    0.0000 H   0  0  0  0  0  0  0  0  0  0  0  0
  -16.6277    0.0000    0.0000 C   0  0  0  0  0  0  0  0  0  0  0  0
  -16.0156    1.4782    0.0000 H   0  0  0  0  0  0  0  0  0  0  0  0
  -17.2398    1.4782    0.0000 H   0  0  0  0  0  0  0  0  0  0  0  0
  -18.0136   -0.8000    0.0000 C   0  0  0  0  0  0  0  0  0  0  0  0
  -18.6258   -2.2782    0.0000 H   0  0  0  0  0  0  0  0  0  0  0  0
  -17.4009   -2.2782    0.0000 H   0  0  0  0  0  0  0  0  0  0  0  0
  -19.3990    0.0000    0.0000 C   0  0  0  0  0  0  0  0  0  0  0  0
  -18.7869    1.4782    0.0000 H   0  0  0  0  0  0  0  0  0  0  0  0
  -20.0111    1.4782    0.0000 H   0  0  0  0  0  0  0  0  0  0  0  0
  -20.7849   -0.8000    0.0000 C   0  0  0  0  0  0  0  0  0  0  0  0
  -21.3970   -2.2782    0.0000 H   0  0  0  0  0  0  0  0  0  0  0  0
  -20.1722   -2.2782    0.0000 H   0  0  0  0  0  0  0  0  0  0  0  0
  -22.1702    0.0000    0.0000 C   0  0  0  0  0  0  0  0  0  0  0  0
  -21.5581    1.4782    0.0000 H   0  0  0  0  0  0  0  0  0  0  0  0
  -22.7824    1.4782    0.0000 H   0  0  0  0  0  0  0  0  0  0  0  0
  -23.5556   -0.8000    0.0000 C   0  0  0  0  0  0  0  0  0  0  0  0
  -24.1683   -2.2782    0.0000 H   0  0  0  0  0  0  0  0  0  0  0  0
  -22.9435   -2.2782    0.0000 H   0  0  0  0  0  0  0  0  0  0  0  0
  -24.9415    0.0000    0.0000 C   0  0  0  0  0  0  0  0  0  0  0  0
  -24.3294    1.4782    0.0000 H   0  0  0  0  0  0  0  0  0  0  0  0
  -25.5536    1.4782    0.0000 H   0  0  0  0  0  0  0  0  0  0  0  0
  -26.3275   -0.8000    0.0000 C   0  0  0  0  0  0  0  0  0  0  0  0
  -26.9396   -2.2782    0.0000 H   0  0  0  0  0  0  0  0  0  0  0  0
  -25.7148   -2.2782    0.0000 H   0  0  0  0  0  0  0  0  0  0  0  0
  -27.7128    0.0000    0.0000 C   0  0  0  0  0  0  0  0  0  0  0  0
  -27.1007    1.4782    0.0000 H   0  0  0  0  0  0  0  0  0  0  0  0
  -28.3249    1.4782    0.0000 H   0  0  0  0  0  0  0  0  0  0  0  0
  -29.0988   -0.8000    0.0000 O   0  0  0  0  0  0  0  0  0  0  0  0
  -30.4841    0.0000    0.0000 H   0  0  0  0  0  0  0  0  0  0  0  0
  1  2  1  0  0  0  0
  1  3  1  0  0  0  0
  1  4  1  0  0  0  0
  1  5  1  0  0  0  0
  5  6  1  0  0  0  0
  5  7  1  0  0  0  0
  5  8  1  0  0  0  0
  8  9  1  0  0  0  0
  8 10  1  0  0  0  0
  8 11  1  0  0  0  0
 11 12  1  0  0  0  0
 11 13  1  0  0  0  0
 11 14  1  0  0  0  0
 14 15  1  0  0  0  0
 14 16  1  0  0  0  0
 14 17  1  0  0  0  0
 17 18  1  0  0  0  0
 17 19  1  0  0  0  0
 17 20  1  0  0  0  0
 20 21  1  0  0  0  0
 20 22  1  0  0  0  0
 20 23  1  0  0  0  0
 23 24  1  0  0  0  0
 23 25  1  0  0  0  0
 23 26  1  0  0  0  0
 26 27  1  0  0  0  0
 26 28  1  0  0  0  0
 26 29  1  0  0  0  0
 29 30  1  0  0  0  0
 29 31  1  0  0  0  0
 29 32  1  0  0  0  0
 32 33  1  0  0  0  0
 32 34  1  0  0  0  0
 32 35  1  0  0  0  0
 35 36  1  0  0  0  0
 35 37  1  0  0  0  0
 35 38  1  0  0  0  0
 38 39  1  0  0  0  0
 38 40  1  0  0  0  0
 38 41  1  0  0  0  0
 41 42  1  0  0  0  0
 41 43  1  0  0  0  0
 41 44  1  0  0  0  0
 44 45  1  0  0  0  0
 44 46  1  0  0  0  0
 44 47  1  0  0  0  0
 47 48  1  0  0  0  0
 47 49  1  0  0  0  0
 47 50  1  0  0  0  0
 50 51  1  0  0  0  0
 50 52  1  0  0  0  0
 50 53  1  0  0  0  0
 53 54  1  0  0  0  0
 53 55  1  0  0  0  0
 53 56  1  0  0  0  0
 56 57  1  0  0  0  0
 56 58  1  0  0  0  0
 56 59  1  0  0  0  0
 59 60  1  0  0  0  0
 59 61  1  0  0  0  0
 59 62  1  0  0  0  0
 62 63  1  0  0  0  0
 62 64  1  0  0  0  0
 62 65  1  0  0  0  0
 65 66  1  0  0  0  0
 65 67  1  0  0  0  0
 65 68  1  0  0  0  0
 68 69  1  0  0  0  0
 68 70  1  0  0  0  0
 68 71  1  0  0  0  0
 71 72  1  0  0  0  0
 71 73  1  0  0  0  0
 71 74  1  0  0  0  0
 74 75  1  0  0  0  0
 74 76  1  0  0  0  0
 74 77  1  0  0  0  0
 77 78  1  0  0  0  0
 77 79  1  0  0  0  0
 77 80  1  0  0  0  0
 80 81  1  0  0  0  0
 80 82  1  0  0  0  0
 80 83  1  0  0  0  0
 83 84  1  0  0  0  0
 83 85  1  0  0  0  0
 83 86  1  0  0  0  0
 86 87  1  0  0  0  0
M  END
> <ChemID>
100823

> <source_casrn>
557-61-9

> <CAS>
557-61-9

> <SMILES>
CCCCCCCCCCCCCCCCCCCCCCCCCCCCO

> <NAME>
Octacosanol

> <preferred_name>
1-Octacosanol

> <iupac>
octacosan-1-ol

> <MPID>
100828

> <dsstox_substance_id>
DTXSID1025803

> <Canonical_QSARr>
CCCCCCCCCCCCCCCCCCCCCCCCCCCCO

> <InChI_Code_QSARr>
InChI=1S/C28H58O/c1-2-3-4-5-6-7-8-9-10-11-12-13-14-15-16-17-18-19-20-21-22-23-24-25-26-27-28-29/h29H,2-28H2,1H3

> <InChI Key_QSARr>
CNNRPFQICPFDPO-UHFFFAOYSA-N

> <Salt_Solvent>
?

> <Ready_Biodeg>
1.0

$$$$
100824
  -INDIGO-08031722522D

 10  9  0  0  0  0  0  0  0  0999 V2000
    1.3856    0.8000    0.0000 C   0  0  0  0  0  0  0  0  0  0  0  0
    2.7713    1.6000    0.0000 H   0  0  0  0  0  0  0  0  0  0  0  0
    2.7713    0.0000    0.0000 H   0  0  0  0  0  0  0  0  0  0  0  0
    1.3856    2.4000    0.0000 H   0  0  0  0  0  0  0  0  0  0  0  0
   -0.0000    0.0000    0.0000 C   0  0  0  0  0  0  0  0  0  0  0  0
    0.6123   -1.4782    0.0000 H   0  0  0  0  0  0  0  0  0  0  0  0
   -0.6123   -1.4782    0.0000 H   0  0  0  0  0  0  0  0  0  0  0  0
   -1.3856    0.8000    0.0000 N   0  0  0  0  0  0  0  0  0  0  0  0
   -2.7713    0.0000    0.0000 H   0  0  0  0  0  0  0  0  0  0  0  0
   -1.3856    2.4000    0.0000 H   0  0  0  0  0  0  0  0  0  0  0  0
  1  2  1  0  0  0  0
  1  3  1  0  0  0  0
  1  4  1  0  0  0  0
  1  5  1  0  0  0  0
  5  6  1  0  0  0  0
  5  7  1  0  0  0  0
  5  8  1  0  0  0  0
  8  9  1  0  0  0  0
  8 10  1  0  0  0  0
M  END
> <ChemID>
100824

> <source_casrn>
557-66-4

> <CAS>
557-66-4

> <SMILES>
Cl.CCN

> <NAME>
Ethylamine hydrochloride

> <preferred_name>
Ethylamine hydrochloride

> <iupac>


> <MPID>
100829

> <dsstox_substance_id>
DTXSID8060323

> <Canonical_QSARr>
CCN

> <InChI_Code_QSARr>
InChI=1S/C2H7N/c1-2-3/h2-3H2,1H3

> <InChI Key_QSARr>
QUSNBJAOOMFDIB-UHFFFAOYSA-N

> <Salt_Solvent>
Cl

> <Ready_Biodeg>
1.0

$$$$
100826
  -INDIGO-08031722522D

 12 11  0  0  0  0  0  0  0  0999 V2000
    1.3856    0.8000    0.0000 C   0  0  0  0  0  0  0  0  0  0  0  0
    2.7713    1.6000    0.0000 H   0  0  0  0  0  0  0  0  0  0  0  0
    2.7713    0.0000    0.0000 H   0  0  0  0  0  0  0  0  0  0  0  0
    1.3856    2.4000    0.0000 H   0  0  0  0  0  0  0  0  0  0  0  0
    0.0000    0.0000    0.0000 C   0  0  0  0  0  0  0  0  0  0  0  0
    0.0000   -1.6000    0.0000 C   0  0  0  0  0  0  0  0  0  0  0  0
   -1.3856   -2.4000    0.0000 H   0  0  0  0  0  0  0  0  0  0  0  0
    1.3856   -2.4000    0.0000 H   0  0  0  0  0  0  0  0  0  0  0  0
   -1.3856    0.8000    0.0000 C   0  0  0  0  0  0  0  0  0  0  0  0
   -2.7713    1.6000    0.0000 H   0  0  0  0  0  0  0  0  0  0  0  0
   -2.7713    0.0000    0.0000 H   0  0  0  0  0  0  0  0  0  0  0  0
   -1.3856    2.4000    0.0000 Cl  0  0  0  0  0  0  0  0  0  0  0  0
  1  2  1  0  0  0  0
  1  3  1  0  0  0  0
  1  4  1  0  0  0  0
  1  5  1  0  0  0  0
  5  6  2  0  0  0  0
  6  7  1  0  0  0  0
  6  8  1  0  0  0  0
  5  9  1  0  0  0  0
  9 10  1  0  0  0  0
  9 11  1  0  0  0  0
  9 12  1  0  0  0  0
M  END
> <ChemID>
100826

> <source_casrn>
563-47-3

> <CAS>
563-47-3

> <SMILES>
CC(=C)CCl

> <NAME>
1-Propene, 3-chloro-2-methyl-

> <preferred_name>
3-Chloro-2-methylpropene

> <iupac>
3-chloro-2-methylprop-1-ene

> <MPID>
100831

> <dsstox_substance_id>
DTXSID1020279

> <Canonical_QSARr>
CC(=C)CCl

> <InChI_Code_QSARr>
InChI=1S/C4H7Cl/c1-4(2)3-5/h1,3H2,2H3

> <InChI Key_QSARr>
OHXAOPZTJOUYKM-UHFFFAOYSA-N

> <Salt_Solvent>
?

> <Ready_Biodeg>
1.0

$$$$
100827
  -INDIGO-08031722522D

 13 13  0  0  0  0  0  0  0  0999 V2000
    2.4000    1.3856    0.0000 Cl  0  0  0  0  0  0  0  0  0  0  0  0
    1.6000   -0.0000    0.0000 C   0  0  0  0  0  0  0  0  0  0  0  0
    2.4000   -1.3857    0.0000 C   0  0  0  0  0  0  0  0  0  0  0  0
    4.0000   -1.3857    0.0000 Cl  0  0  0  0  0  0  0  0  0  0  0  0
    1.6000   -2.7713    0.0000 C   0  0  0  0  0  0  0  0  0  0  0  0
    2.4000   -4.1569    0.0000 H   0  0  0  0  0  0  0  0  0  0  0  0
    0.0000   -2.7713    0.0000 C   0  0  0  0  0  0  0  0  0  0  0  0
   -0.8000   -4.1569    0.0000 H   0  0  0  0  0  0  0  0  0  0  0  0
   -0.8000   -1.3856    0.0000 C   0  0  0  0  0  0  0  0  0  0  0  0
   -2.4000   -1.3856    0.0000 H   0  0  0  0  0  0  0  0  0  0  0  0
    0.0000   -0.0000    0.0000 C   0  0  0  0  0  0  0  0  0  0  0  0
   -0.8000    1.3856    0.0000 O   0  0  0  0  0  0  0  0  0  0  0  0
   -2.4000    1.3856    0.0000 H   0  0  0  0  0  0  0  0  0  0  0  0
  1  2  1  0  0  0  0
  2  3  1  0  0  0  0
  3  4  1  0  0  0  0
  3  5  2  0  0  0  0
  5  6  1  0  0  0  0
  5  7  1  0  0  0  0
  7  8  1  0  0  0  0
  7  9  2  0  0  0  0
  9 10  1  0  0  0  0
  9 11  1  0  0  0  0
 11  2  2  0  0  0  0
 11 12  1  0  0  0  0
 12 13  1  0  0  0  0
M  END
> <ChemID>
100827

> <source_casrn>
576-24-9

> <CAS>
576-24-9

> <SMILES>
Oc1cccc(Cl)c1Cl

> <NAME>
Phenol, 2,3-dichloro-

> <preferred_name>
2,3-Dichlorophenol

> <iupac>
2,3-dichlorophenol

> <MPID>
100832

> <dsstox_substance_id>
DTXSID7025001

> <Canonical_QSARr>
Oc1cccc(Cl)c1Cl

> <InChI_Code_QSARr>
InChI=1S/C6H4Cl2O/c7-4-2-1-3-5(9)6(4)8/h1-3,9H

> <InChI Key_QSARr>
UMPSXRYVXUPCOS-UHFFFAOYSA-N

> <Salt_Solvent>
?

> <Ready_Biodeg>
0.0

$$$$
100829
  -INDIGO-08031722522D

 30 30  0  0  0  0  0  0  0  0999 V2000
   -1.0285   -1.2257    0.0000 C   0  0  0  0  0  0  0  0  0  0  0  0
   -0.2285   -2.6113    0.0000 C   0  0  0  0  0  0  0  0  0  0  0  0
    1.3715   -2.6113    0.0000 H   0  0  0  0  0  0  0  0  0  0  0  0
   -1.0285   -3.9970    0.0000 C   0  0  0  0  0  0  0  0  0  0  0  0
   -0.2285   -5.3826    0.0000 H   0  0  0  0  0  0  0  0  0  0  0  0
   -2.6284   -3.9970    0.0000 C   0  0  0  0  0  0  0  0  0  0  0  0
   -3.4285   -5.3826    0.0000 H   0  0  0  0  0  0  0  0  0  0  0  0
   -3.4285   -2.6113    0.0000 C   0  0  0  0  0  0  0  0  0  0  0  0
   -5.0284   -2.6113    0.0000 H   0  0  0  0  0  0  0  0  0  0  0  0
   -2.6284   -1.2257    0.0000 C   0  0  0  0  0  0  0  0  0  0  0  0
   -3.4285    0.1599    0.0000 C   0  0  0  0  0  0  0  0  0  0  0  0
   -2.0429    0.9600    0.0000 H   0  0  0  0  0  0  0  0  0  0  0  0
   -3.9757    1.6635    0.0000 C   0  0  0  0  0  0  0  0  0  0  0  0
   -4.5230    3.1670    0.0000 H   0  0  0  0  0  0  0  0  0  0  0  0
   -5.5513    1.9413    0.0000 H   0  0  0  0  0  0  0  0  0  0  0  0
   -2.9473    2.8891    0.0000 H   0  0  0  0  0  0  0  0  0  0  0  0
   -4.8141   -0.6400    0.0000 C   0  0  0  0  0  0  0  0  0  0  0  0
   -6.1997   -1.4400    0.0000 H   0  0  0  0  0  0  0  0  0  0  0  0
   -6.1997    0.1599    0.0000 H   0  0  0  0  0  0  0  0  0  0  0  0
   -4.8141    0.9600    0.0000 H   0  0  0  0  0  0  0  0  0  0  0  0
    0.0000   -0.0000    0.0000 C   0  0  0  0  0  0  0  0  0  0  0  0
   -1.0285    1.2256    0.0000 H   0  0  0  0  0  0  0  0  0  0  0  0
    0.8001    1.3856    0.0000 C   0  0  0  0  0  0  0  0  0  0  0  0
    1.6000    2.7713    0.0000 H   0  0  0  0  0  0  0  0  0  0  0  0
    2.4000    1.3856    0.0000 H   0  0  0  0  0  0  0  0  0  0  0  0
    0.0000    2.7713    0.0000 H   0  0  0  0  0  0  0  0  0  0  0  0
    1.2257   -1.0284    0.0000 C   0  0  0  0  0  0  0  0  0  0  0  0
    2.4514   -2.0570    0.0000 H   0  0  0  0  0  0  0  0  0  0  0  0
    2.7292   -0.4813    0.0000 H   0  0  0  0  0  0  0  0  0  0  0  0
    1.5035    0.5473    0.0000 H   0  0  0  0  0  0  0  0  0  0  0  0
  1  2  1  0  0  0  0
  2  3  1  0  0  0  0
  2  4  2  0  0  0  0
  4  5  1  0  0  0  0
  4  6  1  0  0  0  0
  6  7  1  0  0  0  0
  6  8  2  0  0  0  0
  8  9  1  0  0  0  0
  8 10  1  0  0  0  0
 10  1  2  0  0  0  0
 10 11  1  0  0  0  0
 11 12  1  0  0  0  0
 11 13  1  0  0  0  0
 13 14  1  0  0  0  0
 13 15  1  0  0  0  0
 13 16  1  0  0  0  0
 11 17  1  0  0  0  0
 17 18  1  0  0  0  0
 17 19  1  0  0  0  0
 17 20  1  0  0  0  0
  1 21  1  0  0  0  0
 21 22  1  0  0  0  0
 21 23  1  0  0  0  0
 23 24  1  0  0  0  0
 23 25  1  0  0  0  0
 23 26  1  0  0  0  0
 21 27  1  0  0  0  0
 27 28  1  0  0  0  0
 27 29  1  0  0  0  0
 27 30  1  0  0  0  0
M  END
> <ChemID>
100829

> <source_casrn>
577-55-9

> <CAS>
NOCAS_860336

> <SMILES>
c(c(ccc1)C(C)C)(c1)C(C)C

> <NAME>
Benzene, 1,2-bis(1-methylethyl)-

> <preferred_name>


> <iupac>


> <MPID>
100833

> <dsstox_substance_id>
DTXSID30860336

> <Canonical_QSARr>
CC(C)c1ccccc1C(C)C

> <InChI_Code_QSARr>
InChI=1S/C12H18/c1-9(2)11-7-5-6-8-12(11)10(3)4/h5-10H,1-4H3

> <InChI Key_QSARr>
OKIRBHVFJGXOIS-UHFFFAOYSA-N

> <Salt_Solvent>
?

> <Ready_Biodeg>
0.0

$$$$
100831
  -INDIGO-08031722522D

 22 22  0  0  0  0  0  0  0  0999 V2000
   -1.3857   -0.7999    0.0000 C   0  0  0  0  0  0  0  0  0  0  0  0
    0.0001    0.0000    0.0000 N   0  0  0  0  0  0  0  0  0  0  0  0
    1.3857   -0.7999    0.0000 C   0  0  0  0  0  0  0  0  0  0  0  0
    2.7713    0.0000    0.0000 C   0  0  0  0  0  0  0  0  0  0  0  0
    4.1569    0.8001    0.0000 H   0  0  0  0  0  0  0  0  0  0  0  0
    4.1569   -0.7999    0.0000 H   0  0  0  0  0  0  0  0  0  0  0  0
    2.7713    1.6000    0.0000 H   0  0  0  0  0  0  0  0  0  0  0  0
    1.3857   -2.3999    0.0000 O   0  0  0  0  0  0  0  0  0  0  0  0
    0.0001    1.6000    0.0000 C   0  0  0  0  0  0  0  0  0  0  0  0
    0.0001    3.2000    0.0000 H   0  0  0  0  0  0  0  0  0  0  0  0
    1.3857    2.4001    0.0000 H   0  0  0  0  0  0  0  0  0  0  0  0
   -1.3857    2.4001    0.0000 H   0  0  0  0  0  0  0  0  0  0  0  0
   -1.3857   -2.4001    0.0000 C   0  0  0  0  0  0  0  0  0  0  0  0
    0.0001   -3.2000    0.0000 H   0  0  0  0  0  0  0  0  0  0  0  0
   -2.7713   -3.2000    0.0000 C   0  0  0  0  0  0  0  0  0  0  0  0
   -2.7713   -4.8000    0.0000 H   0  0  0  0  0  0  0  0  0  0  0  0
   -4.1569   -2.3999    0.0000 C   0  0  0  0  0  0  0  0  0  0  0  0
   -5.5426   -3.2000    0.0000 H   0  0  0  0  0  0  0  0  0  0  0  0
   -4.1569   -0.7999    0.0000 C   0  0  0  0  0  0  0  0  0  0  0  0
   -5.5426    0.0000    0.0000 H   0  0  0  0  0  0  0  0  0  0  0  0
   -2.7713    0.0000    0.0000 C   0  0  0  0  0  0  0  0  0  0  0  0
   -2.7713    1.6000    0.0000 H   0  0  0  0  0  0  0  0  0  0  0  0
  1  2  1  0  0  0  0
  2  3  1  0  0  0  0
  3  4  1  0  0  0  0
  4  5  1  0  0  0  0
  4  6  1  0  0  0  0
  4  7  1  0  0  0  0
  3  8  2  0  0  0  0
  2  9  1  0  0  0  0
  9 10  1  0  0  0  0
  9 11  1  0  0  0  0
  9 12  1  0  0  0  0
  1 13  1  0  0  0  0
 13 14  1  0  0  0  0
 13 15  2  0  0  0  0
 15 16  1  0  0  0  0
 15 17  1  0  0  0  0
 17 18  1  0  0  0  0
 17 19  2  0  0  0  0
 19 20  1  0  0  0  0
 19 21  1  0  0  0  0
 21  1  2  0  0  0  0
 21 22  1  0  0  0  0
M  END
> <ChemID>
100831

> <source_casrn>
579-10-2

> <CAS>
579-10-2

> <SMILES>
CC(=O)N(C)c1ccccc1

> <NAME>
Acetamide, N-methyl-N-phenyl-

> <preferred_name>
Acetamide, N-methyl-N-phenyl-

> <iupac>
N-Methyl-N-phenylacetamide

> <MPID>
100835

> <dsstox_substance_id>
DTXSID8060373

> <Canonical_QSARr>
CC(=O)N(C)c1ccccc1

> <InChI_Code_QSARr>
InChI=1S/C9H11NO/c1-8(11)10(2)9-6-4-3-5-7-9/h3-7H,1-2H3

> <InChI Key_QSARr>
LMTGCJANOQOGPI-UHFFFAOYSA-N

> <Salt_Solvent>
?

> <Ready_Biodeg>
0.0

$$$$
100832
  -INDIGO-08031722522D

 19 19  0  0  0  0  0  0  0  0999 V2000
    4.0001    1.3856    0.0000 C   0  0  0  0  0  0  0  0  0  0  0  0
    4.8000    2.7713    0.0000 H   0  0  0  0  0  0  0  0  0  0  0  0
    5.6000    1.3856    0.0000 H   0  0  0  0  0  0  0  0  0  0  0  0
    3.2000    2.7713    0.0000 H   0  0  0  0  0  0  0  0  0  0  0  0
    2.4000    1.3856    0.0000 O   0  0  0  0  0  0  0  0  0  0  0  0
    1.6000    0.0000    0.0000 C   0  0  0  0  0  0  0  0  0  0  0  0
    2.4000   -1.3856    0.0000 C   0  0  0  0  0  0  0  0  0  0  0  0
    4.0001   -1.3856    0.0000 H   0  0  0  0  0  0  0  0  0  0  0  0
    1.6000   -2.7713    0.0000 C   0  0  0  0  0  0  0  0  0  0  0  0
    2.4000   -4.1569    0.0000 H   0  0  0  0  0  0  0  0  0  0  0  0
    0.0000   -2.7713    0.0000 C   0  0  0  0  0  0  0  0  0  0  0  0
   -0.8000   -4.1569    0.0000 H   0  0  0  0  0  0  0  0  0  0  0  0
   -0.8000   -1.3856    0.0000 C   0  0  0  0  0  0  0  0  0  0  0  0
   -2.4000   -1.3856    0.0000 H   0  0  0  0  0  0  0  0  0  0  0  0
    0.0000    0.0000    0.0000 C   0  0  0  0  0  0  0  0  0  0  0  0
   -0.8000    1.3856    0.0000 C   0  0  0  0  0  0  0  0  0  0  0  0
    0.0000    2.7713    0.0000 O   0  0  0  0  0  0  0  0  0  0  0  0
   -2.4000    1.3856    0.0000 O   0  0  0  0  0  0  0  0  0  0  0  0
   -3.2000    2.7713    0.0000 H   0  0  0  0  0  0  0  0  0  0  0  0
  1  2  1  0  0  0  0
  1  3  1  0  0  0  0
  1  4  1  0  0  0  0
  1  5  1  0  0  0  0
  5  6  1  0  0  0  0
  6  7  1  0  0  0  0
  7  8  1  0  0  0  0
  7  9  2  0  0  0  0
  9 10  1  0  0  0  0
  9 11  1  0  0  0  0
 11 12  1  0  0  0  0
 11 13  2  0  0  0  0
 13 14  1  0  0  0  0
 13 15  1  0  0  0  0
 15  6  2  0  0  0  0
 15 16  1  0  0  0  0
 16 17  2  0  0  0  0
 16 18  1  0  0  0  0
 18 19  1  0  0  0  0
M  END
> <ChemID>
100832

> <source_casrn>
579-75-9

> <CAS>
579-75-9

> <SMILES>
COc1ccccc1C(O)=O

> <NAME>
Benzoic acid, 2-methoxy-

> <preferred_name>
Benzoic acid, 2-methoxy-

> <iupac>
2-Methoxybenzoic acid

> <MPID>
100836

> <dsstox_substance_id>
DTXSID3060376

> <Canonical_QSARr>
COc1ccccc1C(O)=O

> <InChI_Code_QSARr>
InChI=1S/C8H8O3/c1-11-7-5-3-2-4-6(7)8(9)10/h2-5H,1H3,(H,9,10)

> <InChI Key_QSARr>
ILUJQPXNXACGAN-UHFFFAOYSA-N

> <Salt_Solvent>
?

> <Ready_Biodeg>
1.0

$$$$
100833
  -INDIGO-08031722522D

 24 25  0  0  0  0  0  0  0  0999 V2000
   -2.7713    1.6000    0.0000 C   0  0  0  0  0  0  0  0  0  0  0  0
   -1.3856    2.4000    0.0000 C   0  0  0  0  0  0  0  0  0  0  0  0
   -1.3856    4.0000    0.0000 H   0  0  0  0  0  0  0  0  0  0  0  0
    0.0000    1.6000    0.0000 C   0  0  0  0  0  0  0  0  0  0  0  0
    1.3857    2.4000    0.0000 C   0  0  0  0  0  0  0  0  0  0  0  0
    2.7713    3.2000    0.0000 H   0  0  0  0  0  0  0  0  0  0  0  0
    2.7713    1.6000    0.0000 H   0  0  0  0  0  0  0  0  0  0  0  0
    1.3857    4.0000    0.0000 H   0  0  0  0  0  0  0  0  0  0  0  0
    0.0000    0.0000    0.0000 C   0  0  0  0  0  0  0  0  0  0  0  0
    1.3857   -0.8000    0.0000 C   0  0  0  0  0  0  0  0  0  0  0  0
    2.7713   -1.6000    0.0000 H   0  0  0  0  0  0  0  0  0  0  0  0
    1.3857   -2.4000    0.0000 H   0  0  0  0  0  0  0  0  0  0  0  0
    2.7713    0.0000    0.0000 H   0  0  0  0  0  0  0  0  0  0  0  0
   -1.3856   -0.8000    0.0000 C   0  0  0  0  0  0  0  0  0  0  0  0
   -1.3856   -2.4000    0.0000 H   0  0  0  0  0  0  0  0  0  0  0  0
   -2.7713    0.0000    0.0000 C   0  0  0  0  0  0  0  0  0  0  0  0
   -4.1570   -0.8000    0.0000 C   0  0  0  0  0  0  0  0  0  0  0  0
   -4.1570   -2.4000    0.0000 H   0  0  0  0  0  0  0  0  0  0  0  0
   -5.5426    0.0000    0.0000 C   0  0  0  0  0  0  0  0  0  0  0  0
   -6.9282   -0.8000    0.0000 H   0  0  0  0  0  0  0  0  0  0  0  0
   -5.5426    1.6000    0.0000 C   0  0  0  0  0  0  0  0  0  0  0  0
   -6.9282    2.4000    0.0000 H   0  0  0  0  0  0  0  0  0  0  0  0
   -4.1570    2.4000    0.0000 C   0  0  0  0  0  0  0  0  0  0  0  0
   -4.1570    4.0000    0.0000 H   0  0  0  0  0  0  0  0  0  0  0  0
  1  2  1  0  0  0  0
  2  3  1  0  0  0  0
  2  4  2  0  0  0  0
  4  5  1  0  0  0  0
  5  6  1  0  0  0  0
  5  7  1  0  0  0  0
  5  8  1  0  0  0  0
  4  9  1  0  0  0  0
  9 10  1  0  0  0  0
 10 11  1  0  0  0  0
 10 12  1  0  0  0  0
 10 13  1  0  0  0  0
  9 14  2  0  0  0  0
 14 15  1  0  0  0  0
 14 16  1  0  0  0  0
 16  1  1  0  0  0  0
 16 17  2  0  0  0  0
 17 18  1  0  0  0  0
 17 19  1  0  0  0  0
 19 20  1  0  0  0  0
 19 21  2  0  0  0  0
 21 22  1  0  0  0  0
 21 23  1  0  0  0  0
 23  1  2  0  0  0  0
 23 24  1  0  0  0  0
M  END
> <ChemID>
100833

> <source_casrn>
581-40-8

> <CAS>
581-40-8

> <SMILES>
Cc1cc2ccccc2cc1C

> <NAME>
2,3-Dimethylnaphthalene

> <preferred_name>
2,3-Dimethylnaphthalene

> <iupac>
2,3-Dimethylnaphthalene

> <MPID>
100837

> <dsstox_substance_id>
DTXSID2060383

> <Canonical_QSARr>
Cc1cc2ccccc2cc1C

> <InChI_Code_QSARr>
InChI=1S/C12H12/c1-9-7-11-5-3-4-6-12(11)8-10(9)2/h3-8H,1-2H3

> <InChI Key_QSARr>
WWGUMAYGTYQSGA-UHFFFAOYSA-N

> <Salt_Solvent>
?

> <Ready_Biodeg>
1.0

$$$$
100835
  -INDIGO-08031722522D

 13 13  0  0  0  0  0  0  0  0999 V2000
    0.8000    1.3856    0.0000 O   0  0  0  0  0  0  0  0  0  0  0  0
    2.4000    1.3856    0.0000 H   0  0  0  0  0  0  0  0  0  0  0  0
   -0.0000   -0.0000    0.0000 C   0  0  0  0  0  0  0  0  0  0  0  0
    0.8000   -1.3857    0.0000 C   0  0  0  0  0  0  0  0  0  0  0  0
    2.4000   -1.3857    0.0000 H   0  0  0  0  0  0  0  0  0  0  0  0
   -0.0000   -2.7713    0.0000 C   0  0  0  0  0  0  0  0  0  0  0  0
    0.8000   -4.1569    0.0000 Cl  0  0  0  0  0  0  0  0  0  0  0  0
   -1.6000   -2.7713    0.0000 C   0  0  0  0  0  0  0  0  0  0  0  0
   -2.4000   -4.1569    0.0000 H   0  0  0  0  0  0  0  0  0  0  0  0
   -2.4000   -1.3856    0.0000 C   0  0  0  0  0  0  0  0  0  0  0  0
   -4.0000   -1.3856    0.0000 H   0  0  0  0  0  0  0  0  0  0  0  0
   -1.6000   -0.0000    0.0000 C   0  0  0  0  0  0  0  0  0  0  0  0
   -2.4000    1.3856    0.0000 Cl  0  0  0  0  0  0  0  0  0  0  0  0
  1  2  1  0  0  0  0
  1  3  1  0  0  0  0
  3  4  1  0  0  0  0
  4  5  1  0  0  0  0
  4  6  2  0  0  0  0
  6  7  1  0  0  0  0
  6  8  1  0  0  0  0
  8  9  1  0  0  0  0
  8 10  2  0  0  0  0
 10 11  1  0  0  0  0
 10 12  1  0  0  0  0
 12  3  2  0  0  0  0
 12 13  1  0  0  0  0
M  END
> <ChemID>
100835

> <source_casrn>
583-78-8

> <CAS>
583-78-8

> <SMILES>
Oc1cc(Cl)ccc1Cl

> <NAME>
Phenol, 2,5-dichloro-

> <preferred_name>
2,5-Dichlorophenol

> <iupac>
2,5-dichlorophenol

> <MPID>
100839

> <dsstox_substance_id>
DTXSID7025003

> <Canonical_QSARr>
Oc1cc(Cl)ccc1Cl

> <InChI_Code_QSARr>
InChI=1S/C6H4Cl2O/c7-4-1-2-5(8)6(9)3-4/h1-3,9H

> <InChI Key_QSARr>
RANCECPPZPIPNO-UHFFFAOYSA-N

> <Salt_Solvent>
?

> <Ready_Biodeg>
0.0

$$$$
100836
  -INDIGO-08031722522D

 19 19  0  0  0  0  0  0  0  0999 V2000
   -0.0000    0.0000    0.0000 C   0  0  0  0  0  0  0  0  0  0  0  0
    1.6000    0.0000    0.0000 C   0  0  0  0  0  0  0  0  0  0  0  0
    2.4000    1.3856    0.0000 H   0  0  0  0  0  0  0  0  0  0  0  0
    2.4000   -1.3856    0.0000 C   0  0  0  0  0  0  0  0  0  0  0  0
    4.0001   -1.3856    0.0000 H   0  0  0  0  0  0  0  0  0  0  0  0
    1.6000   -2.7713    0.0000 C   0  0  0  0  0  0  0  0  0  0  0  0
    2.4000   -4.1569    0.0000 N   0  0  0  0  0  0  0  0  0  0  0  0
    4.0001   -4.1569    0.0000 C   0  0  0  0  0  0  0  0  0  0  0  0
    5.6000   -4.1569    0.0000 O   0  0  0  0  0  0  0  0  0  0  0  0
   -0.0000   -2.7713    0.0000 C   0  0  0  0  0  0  0  0  0  0  0  0
   -0.8000   -4.1569    0.0000 H   0  0  0  0  0  0  0  0  0  0  0  0
   -0.8000   -1.3856    0.0000 C   0  0  0  0  0  0  0  0  0  0  0  0
   -2.3999   -1.3856    0.0000 N   0  0  0  0  0  0  0  0  0  0  0  0
   -3.2000   -2.7713    0.0000 C   0  0  0  0  0  0  0  0  0  0  0  0
   -4.0000   -4.1569    0.0000 O   0  0  0  0  0  0  0  0  0  0  0  0
   -0.8000    1.3856    0.0000 C   0  0  0  0  0  0  0  0  0  0  0  0
   -1.6000    2.7713    0.0000 H   0  0  0  0  0  0  0  0  0  0  0  0
   -0.0000    2.7713    0.0000 H   0  0  0  0  0  0  0  0  0  0  0  0
   -2.4001    1.3856    0.0000 H   0  0  0  0  0  0  0  0  0  0  0  0
  1  2  1  0  0  0  0
  2  3  1  0  0  0  0
  2  4  2  0  0  0  0
  4  5  1  0  0  0  0
  4  6  1  0  0  0  0
  6  7  1  0  0  0  0
  7  8  2  0  0  0  0
  8  9  2  0  0  0  0
  6 10  2  0  0  0  0
 10 11  1  0  0  0  0
 10 12  1  0  0  0  0
 12  1  2  0  0  0  0
 12 13  1  0  0  0  0
 13 14  2  0  0  0  0
 14 15  2  0  0  0  0
  1 16  1  0  0  0  0
 16 17  1  0  0  0  0
 16 18  1  0  0  0  0
 16 19  1  0  0  0  0
M  END
> <ChemID>
100836

> <source_casrn>
584-84-9

> <CAS>
584-84-9

> <SMILES>
Cc1ccc(cc1N=C=O)N=C=O

> <NAME>
Benzene, 2,4-diisocyanato-1-methyl-

> <preferred_name>
Toluene-2,4-diisocyanate

> <iupac>
2,4-diisocyanato-1-methylbenzene

> <MPID>
100840

> <dsstox_substance_id>
DTXSID7026156

> <Canonical_QSARr>
Cc1ccc(cc1N=C=O)N=C=O

> <InChI_Code_QSARr>
InChI=1S/C9H6N2O2/c1-7-2-3-8(10-5-12)4-9(7)11-6-13/h2-4H,1H3

> <InChI Key_QSARr>
DVKJHBMWWAPEIU-UHFFFAOYSA-N

> <Salt_Solvent>
?

> <Ready_Biodeg>
0.0

$$$$
100837
  -INDIGO-08031722522D

 19 19  0  0  0  0  0  0  0  0999 V2000
    5.5425   -0.0000    0.0000 C   0  0  0  0  0  0  0  0  0  0  0  0
    6.9282    0.8000    0.0000 H   0  0  0  0  0  0  0  0  0  0  0  0
    6.9282   -0.8000    0.0000 H   0  0  0  0  0  0  0  0  0  0  0  0
    5.5425    1.6000    0.0000 H   0  0  0  0  0  0  0  0  0  0  0  0
    4.1569    0.8000    0.0000 O   0  0  0  0  0  0  0  0  0  0  0  0
    2.7712   -0.0000    0.0000 C   0  0  0  0  0  0  0  0  0  0  0  0
    2.7712   -1.6000    0.0000 C   0  0  0  0  0  0  0  0  0  0  0  0
    4.1569   -2.4000    0.0000 H   0  0  0  0  0  0  0  0  0  0  0  0
    1.3856   -2.4000    0.0000 C   0  0  0  0  0  0  0  0  0  0  0  0
    1.3857   -4.0000    0.0000 H   0  0  0  0  0  0  0  0  0  0  0  0
    0.0001   -1.6000    0.0000 C   0  0  0  0  0  0  0  0  0  0  0  0
   -1.3856   -2.4000    0.0000 H   0  0  0  0  0  0  0  0  0  0  0  0
    0.0001   -0.0000    0.0000 C   0  0  0  0  0  0  0  0  0  0  0  0
   -1.3856    0.8000    0.0000 C   0  0  0  0  0  0  0  0  0  0  0  0
   -1.3856    2.4000    0.0000 O   0  0  0  0  0  0  0  0  0  0  0  0
   -2.7713   -0.0000    0.0000 O   0  0  0  0  0  0  0  0  0  0  0  0
   -4.1569    0.8000    0.0000 H   0  0  0  0  0  0  0  0  0  0  0  0
    1.3856    0.8000    0.0000 C   0  0  0  0  0  0  0  0  0  0  0  0
    1.3857    2.4000    0.0000 H   0  0  0  0  0  0  0  0  0  0  0  0
  1  2  1  0  0  0  0
  1  3  1  0  0  0  0
  1  4  1  0  0  0  0
  1  5  1  0  0  0  0
  5  6  1  0  0  0  0
  6  7  1  0  0  0  0
  7  8  1  0  0  0  0
  7  9  2  0  0  0  0
  9 10  1  0  0  0  0
  9 11  1  0  0  0  0
 11 12  1  0  0  0  0
 11 13  2  0  0  0  0
 13 14  1  0  0  0  0
 14 15  2  0  0  0  0
 14 16  1  0  0  0  0
 16 17  1  0  0  0  0
 13 18  1  0  0  0  0
 18  6  2  0  0  0  0
 18 19  1  0  0  0  0
M  END
> <ChemID>
100837

> <source_casrn>
586-38-9

> <CAS>
586-38-9

> <SMILES>
COc1cc(ccc1)C(O)=O

> <NAME>
Benzoic acid, 3-methoxy-

> <preferred_name>
Benzoic acid, 3-methoxy-

> <iupac>
3-Methoxybenzoic acid

> <MPID>
100841

> <dsstox_substance_id>
DTXSID2060410

> <Canonical_QSARr>
COc1cc(ccc1)C(O)=O

> <InChI_Code_QSARr>
InChI=1S/C8H8O3/c1-11-7-4-2-3-6(5-7)8(9)10/h2-5H,1H3,(H,9,10)

> <InChI Key_QSARr>
XHQZJYCNDZAGLW-UHFFFAOYSA-N

> <Salt_Solvent>
?

> <Ready_Biodeg>
1.0

$$$$
100839
  -INDIGO-08031722522D

 22 22  0  0  0  0  0  0  0  0999 V2000
    0.0001   -0.0000    0.0000 C   0  0  0  0  0  0  0  0  0  0  0  0
    0.0001   -1.6000    0.0000 C   0  0  0  0  0  0  0  0  0  0  0  0
    1.3857   -2.4000    0.0000 H   0  0  0  0  0  0  0  0  0  0  0  0
   -1.3856   -2.4000    0.0000 C   0  0  0  0  0  0  0  0  0  0  0  0
   -1.3856   -4.0000    0.0000 H   0  0  0  0  0  0  0  0  0  0  0  0
   -2.7713   -1.6000    0.0000 C   0  0  0  0  0  0  0  0  0  0  0  0
   -4.1569   -2.4000    0.0000 H   0  0  0  0  0  0  0  0  0  0  0  0
   -2.7713   -0.0000    0.0000 C   0  0  0  0  0  0  0  0  0  0  0  0
   -4.1569    0.8000    0.0000 H   0  0  0  0  0  0  0  0  0  0  0  0
   -1.3856    0.8000    0.0000 C   0  0  0  0  0  0  0  0  0  0  0  0
   -1.3856    2.4000    0.0000 H   0  0  0  0  0  0  0  0  0  0  0  0
    1.3857    0.8000    0.0000 C   0  0  0  0  0  0  0  0  0  0  0  0
    1.9979    2.2782    0.0000 H   0  0  0  0  0  0  0  0  0  0  0  0
    0.7734    2.2782    0.0000 H   0  0  0  0  0  0  0  0  0  0  0  0
    2.7712   -0.0000    0.0000 N   0  0  0  0  0  0  0  0  0  0  0  0
    2.7712   -1.6000    0.0000 H   0  0  0  0  0  0  0  0  0  0  0  0
    4.1569    0.8000    0.0000 C   0  0  0  0  0  0  0  0  0  0  0  0
    5.5425   -0.0000    0.0000 C   0  0  0  0  0  0  0  0  0  0  0  0
    6.9282   -0.8000    0.0000 H   0  0  0  0  0  0  0  0  0  0  0  0
    6.9282    0.8000    0.0000 H   0  0  0  0  0  0  0  0  0  0  0  0
    5.5425   -1.6000    0.0000 H   0  0  0  0  0  0  0  0  0  0  0  0
    4.1569    2.4000    0.0000 O   0  0  0  0  0  0  0  0  0  0  0  0
  1  2  1  0  0  0  0
  2  3  1  0  0  0  0
  2  4  2  0  0  0  0
  4  5  1  0  0  0  0
  4  6  1  0  0  0  0
  6  7  1  0  0  0  0
  6  8  2  0  0  0  0
  8  9  1  0  0  0  0
  8 10  1  0  0  0  0
 10  1  2  0  0  0  0
 10 11  1  0  0  0  0
  1 12  1  0  0  0  0
 12 13  1  0  0  0  0
 12 14  1  0  0  0  0
 12 15  1  0  0  0  0
 15 16  1  0  0  0  0
 15 17  1  0  0  0  0
 17 18  1  0  0  0  0
 18 19  1  0  0  0  0
 18 20  1  0  0  0  0
 18 21  1  0  0  0  0
 17 22  2  0  0  0  0
M  END
> <ChemID>
100839

> <source_casrn>
588-46-5

> <CAS>
588-46-5

> <SMILES>
CC(=O)NCc1ccccc1

> <NAME>
N-Benzylacetamide

> <preferred_name>
N-Benzylacetamide

> <iupac>
N-benzylacetamide

> <MPID>
100843

> <dsstox_substance_id>
DTXSID6052249

> <Canonical_QSARr>
CC(=O)NCc1ccccc1

> <InChI_Code_QSARr>
InChI=1S/C9H11NO/c1-8(11)10-7-9-5-3-2-4-6-9/h2-6H,7H2,1H3,(H,10,11)

> <InChI Key_QSARr>
UZJLYRRDVFWSGA-UHFFFAOYSA-N

> <Salt_Solvent>
?

> <Ready_Biodeg>
1.0

$$$$
100840
  -INDIGO-08031722522D

 19 18  0  0  0  0  0  0  0  0999 V2000
    4.1569    0.8000    0.0000 C   0  0  0  0  0  0  0  0  0  0  0  0
    5.5426    1.6000    0.0000 H   0  0  0  0  0  0  0  0  0  0  0  0
    5.5426    0.0000    0.0000 H   0  0  0  0  0  0  0  0  0  0  0  0
    4.1569    2.4000    0.0000 H   0  0  0  0  0  0  0  0  0  0  0  0
    2.7713    0.0000    0.0000 C   0  0  0  0  0  0  0  0  0  0  0  0
    2.1590   -1.4782    0.0000 H   0  0  0  0  0  0  0  0  0  0  0  0
    3.3836   -1.4782    0.0000 H   0  0  0  0  0  0  0  0  0  0  0  0
    1.3857    0.8000    0.0000 C   0  0  0  0  0  0  0  0  0  0  0  0
   -0.0001    0.0000    0.0000 C   0  0  0  0  0  0  0  0  0  0  0  0
   -0.6124   -1.4782    0.0000 H   0  0  0  0  0  0  0  0  0  0  0  0
    0.6122   -1.4782    0.0000 H   0  0  0  0  0  0  0  0  0  0  0  0
   -1.3857    0.8000    0.0000 C   0  0  0  0  0  0  0  0  0  0  0  0
   -0.7734    2.2782    0.0000 H   0  0  0  0  0  0  0  0  0  0  0  0
   -1.9980    2.2782    0.0000 H   0  0  0  0  0  0  0  0  0  0  0  0
   -2.7713    0.0000    0.0000 C   0  0  0  0  0  0  0  0  0  0  0  0
   -4.1569   -0.8000    0.0000 H   0  0  0  0  0  0  0  0  0  0  0  0
   -4.1569    0.8000    0.0000 H   0  0  0  0  0  0  0  0  0  0  0  0
   -2.7713   -1.6000    0.0000 H   0  0  0  0  0  0  0  0  0  0  0  0
    1.3857    2.4000    0.0000 O   0  0  0  0  0  0  0  0  0  0  0  0
  1  2  1  0  0  0  0
  1  3  1  0  0  0  0
  1  4  1  0  0  0  0
  1  5  1  0  0  0  0
  5  6  1  0  0  0  0
  5  7  1  0  0  0  0
  5  8  1  0  0  0  0
  8  9  1  0  0  0  0
  9 10  1  0  0  0  0
  9 11  1  0  0  0  0
  9 12  1  0  0  0  0
 12 13  1  0  0  0  0
 12 14  1  0  0  0  0
 12 15  1  0  0  0  0
 15 16  1  0  0  0  0
 15 17  1  0  0  0  0
 15 18  1  0  0  0  0
  8 19  2  0  0  0  0
M  END
> <ChemID>
100840

> <source_casrn>
589-38-8

> <CAS>
589-38-8

> <SMILES>
CCC(=O)CCC

> <NAME>
3-Hexanone

> <preferred_name>
3-Hexanone

> <iupac>
hexan-3-one

> <MPID>
100844

> <dsstox_substance_id>
DTXSID2021608

> <Canonical_QSARr>
CCC(=O)CCC

> <InChI_Code_QSARr>
InChI=1S/C6H12O/c1-3-5-6(7)4-2/h3-5H2,1-2H3

> <InChI Key_QSARr>
PFCHFHIRKBAQGU-UHFFFAOYSA-N

> <Salt_Solvent>
?

> <Ready_Biodeg>
0.0

$$$$
100841
  -INDIGO-08031722522D

 24 24  0  0  0  0  0  0  0  0999 V2000
    0.0000   -0.0000    0.0000 C   0  0  0  0  0  0  0  0  0  0  0  0
   -0.8000    1.3857    0.0000 C   0  0  0  0  0  0  0  0  0  0  0  0
    0.7035    1.9329    0.0000 H   0  0  0  0  0  0  0  0  0  0  0  0
   -1.0778    2.9613    0.0000 H   0  0  0  0  0  0  0  0  0  0  0  0
   -2.4000    1.3857    0.0000 C   0  0  0  0  0  0  0  0  0  0  0  0
   -2.1222    2.9613    0.0000 H   0  0  0  0  0  0  0  0  0  0  0  0
   -3.9035    1.9329    0.0000 H   0  0  0  0  0  0  0  0  0  0  0  0
   -3.2000   -0.0000    0.0000 C   0  0  0  0  0  0  0  0  0  0  0  0
   -4.4257    1.0285    0.0000 H   0  0  0  0  0  0  0  0  0  0  0  0
   -4.4257   -1.0285    0.0000 H   0  0  0  0  0  0  0  0  0  0  0  0
   -2.4000   -1.3857    0.0000 C   0  0  0  0  0  0  0  0  0  0  0  0
   -3.9035   -1.9329    0.0000 H   0  0  0  0  0  0  0  0  0  0  0  0
   -2.1222   -2.9613    0.0000 H   0  0  0  0  0  0  0  0  0  0  0  0
   -0.8000   -1.3857    0.0000 C   0  0  0  0  0  0  0  0  0  0  0  0
   -1.0778   -2.9613    0.0000 H   0  0  0  0  0  0  0  0  0  0  0  0
    0.7035   -1.9329    0.0000 H   0  0  0  0  0  0  0  0  0  0  0  0
    1.2257   -1.0285    0.0000 C   0  0  0  0  0  0  0  0  0  0  0  0
    2.4513   -2.0570    0.0000 H   0  0  0  0  0  0  0  0  0  0  0  0
    2.7292   -0.4812    0.0000 H   0  0  0  0  0  0  0  0  0  0  0  0
    1.5035   -2.6042    0.0000 H   0  0  0  0  0  0  0  0  0  0  0  0
    1.2257    1.0285    0.0000 C   0  0  0  0  0  0  0  0  0  0  0  0
    2.4513    2.0570    0.0000 H   0  0  0  0  0  0  0  0  0  0  0  0
    2.7292    0.4812    0.0000 H   0  0  0  0  0  0  0  0  0  0  0  0
    1.5035    2.6042    0.0000 H   0  0  0  0  0  0  0  0  0  0  0  0
  1  2  1  0  0  0  0
  2  3  1  0  0  0  0
  2  4  1  0  0  0  0
  2  5  1  0  0  0  0
  5  6  1  0  0  0  0
  5  7  1  0  0  0  0
  5  8  1  0  0  0  0
  8  9  1  0  0  0  0
  8 10  1  0  0  0  0
  8 11  1  0  0  0  0
 11 12  1  0  0  0  0
 11 13  1  0  0  0  0
 11 14  1  0  0  0  0
 14  1  1  0  0  0  0
 14 15  1  0  0  0  0
 14 16  1  0  0  0  0
  1 17  1  0  0  0  0
 17 18  1  0  0  0  0
 17 19  1  0  0  0  0
 17 20  1  0  0  0  0
  1 21  1  0  0  0  0
 21 22  1  0  0  0  0
 21 23  1  0  0  0  0
 21 24  1  0  0  0  0
M  END
> <ChemID>
100841

> <source_casrn>
590-66-9

> <CAS>
590-66-9

> <SMILES>
CC1(C)CCCCC1

> <NAME>
1,1-Dimethylcyclohexane

> <preferred_name>
1,1-Dimethylcyclohexane

> <iupac>
1,1-Dimethylcyclohexane

> <MPID>
100845

> <dsstox_substance_id>
DTXSID1074832

> <Canonical_QSARr>
CC1(C)CCCCC1

> <InChI_Code_QSARr>
InChI=1S/C8H16/c1-8(2)6-4-3-5-7-8/h3-7H2,1-2H3

> <InChI Key_QSARr>
QEGNUYASOUJEHD-UHFFFAOYSA-N

> <Salt_Solvent>
?

> <Ready_Biodeg>
0.0

$$$$
100844
  -INDIGO-08031722522D

 15 15  0  0  0  0  0  0  0  0999 V2000
    3.2000    2.7713    0.0000 O   0  0  0  0  0  0  0  0  0  0  0  0
    4.8000    2.7713    0.0000 H   0  0  0  0  0  0  0  0  0  0  0  0
    2.4000    1.3856    0.0000 C   0  0  0  0  0  0  0  0  0  0  0  0
    3.2000   -0.0000    0.0000 C   0  0  0  0  0  0  0  0  0  0  0  0
    4.8000   -0.0000    0.0000 H   0  0  0  0  0  0  0  0  0  0  0  0
    2.4000   -1.3856    0.0000 C   0  0  0  0  0  0  0  0  0  0  0  0
    3.2000   -2.7713    0.0000 H   0  0  0  0  0  0  0  0  0  0  0  0
    0.8000   -1.3856    0.0000 C   0  0  0  0  0  0  0  0  0  0  0  0
    0.0000   -2.7713    0.0000 H   0  0  0  0  0  0  0  0  0  0  0  0
    0.0000   -0.0000    0.0000 C   0  0  0  0  0  0  0  0  0  0  0  0
   -1.6000   -0.0000    0.0000 N   0  0  0  0  0  0  0  0  0  0  0  0
   -2.4000   -1.3856    0.0000 H   0  0  0  0  0  0  0  0  0  0  0  0
   -2.4000    1.3856    0.0000 H   0  0  0  0  0  0  0  0  0  0  0  0
    0.8000    1.3856    0.0000 C   0  0  0  0  0  0  0  0  0  0  0  0
    0.0000    2.7713    0.0000 H   0  0  0  0  0  0  0  0  0  0  0  0
  1  2  1  0  0  0  0
  1  3  1  0  0  0  0
  3  4  1  0  0  0  0
  4  5  1  0  0  0  0
  4  6  2  0  0  0  0
  6  7  1  0  0  0  0
  6  8  1  0  0  0  0
  8  9  1  0  0  0  0
  8 10  2  0  0  0  0
 10 11  1  0  0  0  0
 11 12  1  0  0  0  0
 11 13  1  0  0  0  0
 10 14  1  0  0  0  0
 14  3  2  0  0  0  0
 14 15  1  0  0  0  0
M  END
> <ChemID>
100844

> <source_casrn>
591-27-5

> <CAS>
591-27-5

> <SMILES>
Nc1cc(O)ccc1

> <NAME>
3-Aminophenol

> <preferred_name>
3-Aminophenol

> <iupac>
3-aminophenol

> <MPID>
100847

> <dsstox_substance_id>
DTXSID3024497

> <Canonical_QSARr>
Nc1cc(O)ccc1

> <InChI_Code_QSARr>
InChI=1S/C6H7NO/c7-5-2-1-3-6(8)4-5/h1-4,8H,7H2

> <InChI Key_QSARr>
CWLKGDAVCFYWJK-UHFFFAOYSA-N

> <Salt_Solvent>
?

> <Ready_Biodeg>
0.0

$$$$
100845
  -INDIGO-08031722522D

 13 13  0  0  0  0  0  0  0  0999 V2000
   -0.0000   -0.0000    0.0000 C   0  0  0  0  0  0  0  0  0  0  0  0
    0.8000   -1.3857    0.0000 C   0  0  0  0  0  0  0  0  0  0  0  0
    2.4000   -1.3857    0.0000 H   0  0  0  0  0  0  0  0  0  0  0  0
   -0.0000   -2.7713    0.0000 C   0  0  0  0  0  0  0  0  0  0  0  0
    0.8000   -4.1569    0.0000 Cl  0  0  0  0  0  0  0  0  0  0  0  0
   -1.6000   -2.7713    0.0000 C   0  0  0  0  0  0  0  0  0  0  0  0
   -2.4000   -4.1569    0.0000 H   0  0  0  0  0  0  0  0  0  0  0  0
   -2.4000   -1.3856    0.0000 C   0  0  0  0  0  0  0  0  0  0  0  0
   -4.0000   -1.3856    0.0000 Cl  0  0  0  0  0  0  0  0  0  0  0  0
   -1.6000   -0.0000    0.0000 C   0  0  0  0  0  0  0  0  0  0  0  0
   -2.4000    1.3856    0.0000 H   0  0  0  0  0  0  0  0  0  0  0  0
    0.8000    1.3856    0.0000 O   0  0  0  0  0  0  0  0  0  0  0  0
    2.4000    1.3856    0.0000 H   0  0  0  0  0  0  0  0  0  0  0  0
  1  2  1  0  0  0  0
  2  3  1  0  0  0  0
  2  4  2  0  0  0  0
  4  5  1  0  0  0  0
  4  6  1  0  0  0  0
  6  7  1  0  0  0  0
  6  8  2  0  0  0  0
  8  9  1  0  0  0  0
  8 10  1  0  0  0  0
 10  1  2  0  0  0  0
 10 11  1  0  0  0  0
  1 12  1  0  0  0  0
 12 13  1  0  0  0  0
M  END
> <ChemID>
100845

> <source_casrn>
591-35-5

> <CAS>
591-35-5

> <SMILES>
Oc1cc(Cl)cc(Cl)c1

> <NAME>
3,5-Dichlorophenol

> <preferred_name>
3,5-Dichlorophenol

> <iupac>
3,5-dichlorophenol

> <MPID>
100848

> <dsstox_substance_id>
DTXSID2025006

> <Canonical_QSARr>
Oc1cc(Cl)cc(Cl)c1

> <InChI_Code_QSARr>
InChI=1S/C6H4Cl2O/c7-4-1-5(8)3-6(9)2-4/h1-3,9H

> <InChI Key_QSARr>
VPOMSPZBQMDLTM-UHFFFAOYSA-N

> <Salt_Solvent>
?

> <Ready_Biodeg>
0.0

$$$$
100846
  -INDIGO-08031722522D

 25 24  0  0  0  0  0  0  0  0999 V2000
    2.7712    0.0000    0.0000 O   0  0  0  0  0  0  0  0  0  0  0  0
    4.1569    0.8000    0.0000 C   0  0  0  0  0  0  0  0  0  0  0  0
    5.5425    0.0000    0.0000 C   0  0  0  0  0  0  0  0  0  0  0  0
    4.9304   -1.4782    0.0000 H   0  0  0  0  0  0  0  0  0  0  0  0
    6.1548   -1.4782    0.0000 H   0  0  0  0  0  0  0  0  0  0  0  0
    6.9282    0.8000    0.0000 C   0  0  0  0  0  0  0  0  0  0  0  0
    8.3137    0.0000    0.0000 C   0  0  0  0  0  0  0  0  0  0  0  0
    9.6995   -0.8000    0.0000 H   0  0  0  0  0  0  0  0  0  0  0  0
    9.6995    0.8000    0.0000 H   0  0  0  0  0  0  0  0  0  0  0  0
    8.3137   -1.6000    0.0000 H   0  0  0  0  0  0  0  0  0  0  0  0
    6.9282    2.4000    0.0000 O   0  0  0  0  0  0  0  0  0  0  0  0
    4.1569    2.4000    0.0000 O   0  0  0  0  0  0  0  0  0  0  0  0
    1.3856    0.8000    0.0000 C   0  0  0  0  0  0  0  0  0  0  0  0
    1.9980    2.2782    0.0000 H   0  0  0  0  0  0  0  0  0  0  0  0
    0.7733    2.2782    0.0000 H   0  0  0  0  0  0  0  0  0  0  0  0
   -0.0001    0.0000    0.0000 C   0  0  0  0  0  0  0  0  0  0  0  0
   -0.6122   -1.4782    0.0000 H   0  0  0  0  0  0  0  0  0  0  0  0
    0.6122   -1.4782    0.0000 H   0  0  0  0  0  0  0  0  0  0  0  0
   -1.3856    0.8000    0.0000 C   0  0  0  0  0  0  0  0  0  0  0  0
   -0.7733    2.2782    0.0000 H   0  0  0  0  0  0  0  0  0  0  0  0
   -1.9980    2.2782    0.0000 H   0  0  0  0  0  0  0  0  0  0  0  0
   -2.7712    0.0000    0.0000 C   0  0  0  0  0  0  0  0  0  0  0  0
   -4.1569   -0.8000    0.0000 H   0  0  0  0  0  0  0  0  0  0  0  0
   -4.1569    0.8000    0.0000 H   0  0  0  0  0  0  0  0  0  0  0  0
   -2.7714   -1.6000    0.0000 H   0  0  0  0  0  0  0  0  0  0  0  0
  1  2  1  0  0  0  0
  2  3  1  0  0  0  0
  3  4  1  0  0  0  0
  3  5  1  0  0  0  0
  3  6  1  0  0  0  0
  6  7  1  0  0  0  0
  7  8  1  0  0  0  0
  7  9  1  0  0  0  0
  7 10  1  0  0  0  0
  6 11  2  0  0  0  0
  2 12  2  0  0  0  0
  1 13  1  0  0  0  0
 13 14  1  0  0  0  0
 13 15  1  0  0  0  0
 13 16  1  0  0  0  0
 16 17  1  0  0  0  0
 16 18  1  0  0  0  0
 16 19  1  0  0  0  0
 19 20  1  0  0  0  0
 19 21  1  0  0  0  0
 19 22  1  0  0  0  0
 22 23  1  0  0  0  0
 22 24  1  0  0  0  0
 22 25  1  0  0  0  0
M  END
> <ChemID>
100846

> <source_casrn>
591-60-6

> <CAS>
591-60-6

> <SMILES>
CC(=O)CC(=O)OCCCC

> <NAME>
Butanoic acid, 3-oxo-, butyl ester

> <preferred_name>
Butanoic acid, 3-oxo-, butyl ester

> <iupac>
Butyl 3-oxobutanoate

> <MPID>
100849

> <dsstox_substance_id>
DTXSID3060453

> <Canonical_QSARr>
CC(=O)CC(=O)OCCCC

> <InChI_Code_QSARr>
InChI=1S/C8H14O3/c1-3-4-5-11-8(10)6-7(2)9/h3-6H2,1-2H3

> <InChI Key_QSARr>
REIYHFWZISXFKU-UHFFFAOYSA-N

> <Salt_Solvent>
?

> <Ready_Biodeg>
1.0

$$$$
100848
  -INDIGO-08031722522D

 18 17  0  0  0  0  0  0  0  0999 V2000
    0.0001    0.0000    0.0000 C   0  0  0  0  0  0  0  0  0  0  0  0
    0.6124   -1.4782    0.0000 H   0  0  0  0  0  0  0  0  0  0  0  0
   -0.6122   -1.4782    0.0000 H   0  0  0  0  0  0  0  0  0  0  0  0
    1.3857    0.8000    0.0000 C   0  0  0  0  0  0  0  0  0  0  0  0
    0.7734    2.2782    0.0000 H   0  0  0  0  0  0  0  0  0  0  0  0
    1.9980    2.2782    0.0000 H   0  0  0  0  0  0  0  0  0  0  0  0
    2.7713    0.0000    0.0000 C   0  0  0  0  0  0  0  0  0  0  0  0
    4.1569   -0.8000    0.0000 H   0  0  0  0  0  0  0  0  0  0  0  0
    4.1569    0.8000    0.0000 H   0  0  0  0  0  0  0  0  0  0  0  0
    2.7713   -1.6000    0.0000 H   0  0  0  0  0  0  0  0  0  0  0  0
   -1.3857    0.8000    0.0000 C   0  0  0  0  0  0  0  0  0  0  0  0
   -1.9980    2.2782    0.0000 H   0  0  0  0  0  0  0  0  0  0  0  0
   -0.7734    2.2782    0.0000 H   0  0  0  0  0  0  0  0  0  0  0  0
   -2.7713    0.0000    0.0000 C   0  0  0  0  0  0  0  0  0  0  0  0
   -2.7713   -1.6000    0.0000 H   0  0  0  0  0  0  0  0  0  0  0  0
   -4.1569    0.8000    0.0000 C   0  0  0  0  0  0  0  0  0  0  0  0
   -5.5426    0.0000    0.0000 H   0  0  0  0  0  0  0  0  0  0  0  0
   -4.1569    2.4000    0.0000 H   0  0  0  0  0  0  0  0  0  0  0  0
  1  2  1  0  0  0  0
  1  3  1  0  0  0  0
  1  4  1  0  0  0  0
  4  5  1  0  0  0  0
  4  6  1  0  0  0  0
  4  7  1  0  0  0  0
  7  8  1  0  0  0  0
  7  9  1  0  0  0  0
  7 10  1  0  0  0  0
  1 11  1  0  0  0  0
 11 12  1  0  0  0  0
 11 13  1  0  0  0  0
 11 14  1  0  0  0  0
 14 15  1  0  0  0  0
 14 16  2  0  0  0  0
 16 17  1  0  0  0  0
 16 18  1  0  0  0  0
M  END
> <ChemID>
100848

> <source_casrn>
592-41-6

> <CAS>
592-41-6

> <SMILES>
CCCCC=C

> <NAME>
1-Hexene

> <preferred_name>
1-Hexene

> <iupac>
hex-1-ene

> <MPID>
100851

> <dsstox_substance_id>
DTXSID4025402

> <Canonical_QSARr>
CCCCC=C

> <InChI_Code_QSARr>
InChI=1S/C6H12/c1-3-5-6-4-2/h3H,1,4-6H2,2H3

> <InChI Key_QSARr>
LIKMAJRDDDTEIG-UHFFFAOYSA-N

> <Salt_Solvent>
?

> <Ready_Biodeg>
1.0

$$$$
100849
  -INDIGO-08031722522D

 18 17  0  0  0  0  0  0  0  0999 V2000
    5.5426    0.0000    0.0000 C   0  0  0  0  0  0  0  0  0  0  0  0
    6.9282   -0.8000    0.0000 H   0  0  0  0  0  0  0  0  0  0  0  0
    6.9282    0.8000    0.0000 H   0  0  0  0  0  0  0  0  0  0  0  0
    5.5426   -1.6000    0.0000 H   0  0  0  0  0  0  0  0  0  0  0  0
    4.1570    0.8000    0.0000 C   0  0  0  0  0  0  0  0  0  0  0  0
    4.1570    2.4000    0.0000 H   0  0  0  0  0  0  0  0  0  0  0  0
    2.7713    0.0000    0.0000 C   0  0  0  0  0  0  0  0  0  0  0  0
    2.7713   -1.6000    0.0000 H   0  0  0  0  0  0  0  0  0  0  0  0
    1.3856    0.8000    0.0000 C   0  0  0  0  0  0  0  0  0  0  0  0
    0.7733    2.2782    0.0000 H   0  0  0  0  0  0  0  0  0  0  0  0
    1.9979    2.2782    0.0000 H   0  0  0  0  0  0  0  0  0  0  0  0
   -0.0000    0.0000    0.0000 C   0  0  0  0  0  0  0  0  0  0  0  0
    0.6123   -1.4782    0.0000 H   0  0  0  0  0  0  0  0  0  0  0  0
   -0.6123   -1.4782    0.0000 H   0  0  0  0  0  0  0  0  0  0  0  0
   -1.3857    0.8000    0.0000 C   0  0  0  0  0  0  0  0  0  0  0  0
   -2.7713    1.6000    0.0000 H   0  0  0  0  0  0  0  0  0  0  0  0
   -2.7713    0.0000    0.0000 H   0  0  0  0  0  0  0  0  0  0  0  0
   -1.3857    2.4000    0.0000 H   0  0  0  0  0  0  0  0  0  0  0  0
  1  2  1  0  0  0  0
  1  3  1  0  0  0  0
  1  4  1  0  0  0  0
  1  5  1  0  0  0  0
  5  6  1  0  0  0  0
  5  7  2  0  0  0  0
  7  8  1  0  0  0  0
  7  9  1  0  0  0  0
  9 10  1  0  0  0  0
  9 11  1  0  0  0  0
  9 12  1  0  0  0  0
 12 13  1  0  0  0  0
 12 14  1  0  0  0  0
 12 15  1  0  0  0  0
 15 16  1  0  0  0  0
 15 17  1  0  0  0  0
 15 18  1  0  0  0  0
M  END
> <ChemID>
100849

> <source_casrn>
592-43-8

> <CAS>
592-43-8

> <SMILES>
C(=CC)CCC

> <NAME>
2-Hexene

> <preferred_name>
Hexene

> <iupac>
(2E)-hex-2-ene

> <MPID>
100852

> <dsstox_substance_id>
DTXSID10860334

> <Canonical_QSARr>
CC=CCCC

> <InChI_Code_QSARr>
InChI=1S/C6H12/c1-3-5-6-4-2/h3,5H,4,6H2,1-2H3/b5-3+

> <InChI Key_QSARr>
RYPKRALMXUUNKS-HWKANZROSA-N

> <Salt_Solvent>
?

> <Ready_Biodeg>
0.0

$$$$
100850
  -INDIGO-08031722522D

 56 55  0  0  0  0  0  0  0  0999 V2000
    9.6996   -0.8000    0.0000 C   0  0  0  0  0  0  0  0  0  0  0  0
   11.0851   -1.6000    0.0000 H   0  0  0  0  0  0  0  0  0  0  0  0
   11.0851    0.0000    0.0000 H   0  0  0  0  0  0  0  0  0  0  0  0
    9.6996   -2.4000    0.0000 H   0  0  0  0  0  0  0  0  0  0  0  0
    8.3140    0.0000    0.0000 C   0  0  0  0  0  0  0  0  0  0  0  0
    8.9262    1.4782    0.0000 H   0  0  0  0  0  0  0  0  0  0  0  0
    7.7014    1.4782    0.0000 H   0  0  0  0  0  0  0  0  0  0  0  0
    6.9281   -0.8000    0.0000 C   0  0  0  0  0  0  0  0  0  0  0  0
    6.3158   -2.2782    0.0000 H   0  0  0  0  0  0  0  0  0  0  0  0
    7.5407   -2.2782    0.0000 H   0  0  0  0  0  0  0  0  0  0  0  0
    5.5425    0.0000    0.0000 C   0  0  0  0  0  0  0  0  0  0  0  0
    6.1547    1.4782    0.0000 H   0  0  0  0  0  0  0  0  0  0  0  0
    4.9303    1.4782    0.0000 H   0  0  0  0  0  0  0  0  0  0  0  0
    4.1569   -0.8000    0.0000 C   0  0  0  0  0  0  0  0  0  0  0  0
    3.5447   -2.2782    0.0000 H   0  0  0  0  0  0  0  0  0  0  0  0
    4.7692   -2.2782    0.0000 H   0  0  0  0  0  0  0  0  0  0  0  0
    2.7714    0.0000    0.0000 C   0  0  0  0  0  0  0  0  0  0  0  0
    3.3836    1.4782    0.0000 H   0  0  0  0  0  0  0  0  0  0  0  0
    2.1592    1.4782    0.0000 H   0  0  0  0  0  0  0  0  0  0  0  0
    1.3858   -0.8000    0.0000 C   0  0  0  0  0  0  0  0  0  0  0  0
    0.7732   -2.2782    0.0000 H   0  0  0  0  0  0  0  0  0  0  0  0
    1.9981   -2.2782    0.0000 H   0  0  0  0  0  0  0  0  0  0  0  0
   -0.0001    0.0000    0.0000 C   0  0  0  0  0  0  0  0  0  0  0  0
    0.6121    1.4782    0.0000 H   0  0  0  0  0  0  0  0  0  0  0  0
   -0.6124    1.4782    0.0000 H   0  0  0  0  0  0  0  0  0  0  0  0
   -1.3857   -0.8000    0.0000 C   0  0  0  0  0  0  0  0  0  0  0  0
   -1.9979   -2.2782    0.0000 H   0  0  0  0  0  0  0  0  0  0  0  0
   -0.7735   -2.2782    0.0000 H   0  0  0  0  0  0  0  0  0  0  0  0
   -2.7712    0.0000    0.0000 C   0  0  0  0  0  0  0  0  0  0  0  0
   -2.1590    1.4782    0.0000 H   0  0  0  0  0  0  0  0  0  0  0  0
   -3.3835    1.4782    0.0000 H   0  0  0  0  0  0  0  0  0  0  0  0
   -4.1568   -0.8000    0.0000 C   0  0  0  0  0  0  0  0  0  0  0  0
   -4.7690   -2.2782    0.0000 H   0  0  0  0  0  0  0  0  0  0  0  0
   -3.5446   -2.2782    0.0000 H   0  0  0  0  0  0  0  0  0  0  0  0
   -5.5428    0.0000    0.0000 C   0  0  0  0  0  0  0  0  0  0  0  0
   -4.9301    1.4782    0.0000 H   0  0  0  0  0  0  0  0  0  0  0  0
   -6.1550    1.4782    0.0000 H   0  0  0  0  0  0  0  0  0  0  0  0
   -6.9283   -0.8000    0.0000 C   0  0  0  0  0  0  0  0  0  0  0  0
   -7.5405   -2.2782    0.0000 H   0  0  0  0  0  0  0  0  0  0  0  0
   -6.3161   -2.2782    0.0000 H   0  0  0  0  0  0  0  0  0  0  0  0
   -8.3139    0.0000    0.0000 C   0  0  0  0  0  0  0  0  0  0  0  0
   -7.7016    1.4782    0.0000 H   0  0  0  0  0  0  0  0  0  0  0  0
   -8.9261    1.4782    0.0000 H   0  0  0  0  0  0  0  0  0  0  0  0
   -9.6994   -0.8000    0.0000 C   0  0  0  0  0  0  0  0  0  0  0  0
  -10.3117   -2.2782    0.0000 H   0  0  0  0  0  0  0  0  0  0  0  0
   -9.0872   -2.2782    0.0000 H   0  0  0  0  0  0  0  0  0  0  0  0
  -11.0850    0.0000    0.0000 C   0  0  0  0  0  0  0  0  0  0  0  0
  -10.4727    1.4782    0.0000 H   0  0  0  0  0  0  0  0  0  0  0  0
  -11.6976    1.4782    0.0000 H   0  0  0  0  0  0  0  0  0  0  0  0
  -12.4709   -0.8000    0.0000 C   0  0  0  0  0  0  0  0  0  0  0  0
  -13.0832   -2.2782    0.0000 H   0  0  0  0  0  0  0  0  0  0  0  0
  -11.8583   -2.2782    0.0000 H   0  0  0  0  0  0  0  0  0  0  0  0
  -13.8565    0.0000    0.0000 C   0  0  0  0  0  0  0  0  0  0  0  0
  -15.2420    0.8000    0.0000 H   0  0  0  0  0  0  0  0  0  0  0  0
  -15.2420   -0.8000    0.0000 H   0  0  0  0  0  0  0  0  0  0  0  0
  -13.8565    1.6000    0.0000 H   0  0  0  0  0  0  0  0  0  0  0  0
  1  2  1  0  0  0  0
  1  3  1  0  0  0  0
  1  4  1  0  0  0  0
  1  5  1  0  0  0  0
  5  6  1  0  0  0  0
  5  7  1  0  0  0  0
  5  8  1  0  0  0  0
  8  9  1  0  0  0  0
  8 10  1  0  0  0  0
  8 11  1  0  0  0  0
 11 12  1  0  0  0  0
 11 13  1  0  0  0  0
 11 14  1  0  0  0  0
 14 15  1  0  0  0  0
 14 16  1  0  0  0  0
 14 17  1  0  0  0  0
 17 18  1  0  0  0  0
 17 19  1  0  0  0  0
 17 20  1  0  0  0  0
 20 21  1  0  0  0  0
 20 22  1  0  0  0  0
 20 23  1  0  0  0  0
 23 24  1  0  0  0  0
 23 25  1  0  0  0  0
 23 26  1  0  0  0  0
 26 27  1  0  0  0  0
 26 28  1  0  0  0  0
 26 29  1  0  0  0  0
 29 30  1  0  0  0  0
 29 31  1  0  0  0  0
 29 32  1  0  0  0  0
 32 33  1  0  0  0  0
 32 34  1  0  0  0  0
 32 35  1  0  0  0  0
 35 36  1  0  0  0  0
 35 37  1  0  0  0  0
 35 38  1  0  0  0  0
 38 39  1  0  0  0  0
 38 40  1  0  0  0  0
 38 41  1  0  0  0  0
 41 42  1  0  0  0  0
 41 43  1  0  0  0  0
 41 44  1  0  0  0  0
 44 45  1  0  0  0  0
 44 46  1  0  0  0  0
 44 47  1  0  0  0  0
 47 48  1  0  0  0  0
 47 49  1  0  0  0  0
 47 50  1  0  0  0  0
 50 51  1  0  0  0  0
 50 52  1  0  0  0  0
 50 53  1  0  0  0  0
 53 54  1  0  0  0  0
 53 55  1  0  0  0  0
 53 56  1  0  0  0  0
M  END
> <ChemID>
100850

> <source_casrn>
593-45-3

> <CAS>
593-45-3

> <SMILES>
CCCCCCCCCCCCCCCCCC

> <NAME>
Octadecane

> <preferred_name>
Octadecane

> <iupac>
octadecane

> <MPID>
100853

> <dsstox_substance_id>
DTXSID9047172

> <Canonical_QSARr>
CCCCCCCCCCCCCCCCCC

> <InChI_Code_QSARr>
InChI=1S/C18H38/c1-3-5-7-9-11-13-15-17-18-16-14-12-10-8-6-4-2/h3-18H2,1-2H3

> <InChI Key_QSARr>
RZJRJXONCZWCBN-UHFFFAOYSA-N

> <Salt_Solvent>
?

> <Ready_Biodeg>
1.0

$$$$
100853
  -INDIGO-08031722522D

 19 19  0  0  0  0  0  0  0  0999 V2000
   -1.5217    2.0944    0.0000 C   0  0  0  0  0  0  0  0  0  0  0  0
   -0.0001    2.5888    0.0000 O   0  0  0  0  0  0  0  0  0  0  0  0
    0.9405    1.2945    0.0000 C   0  0  0  0  0  0  0  0  0  0  0  0
    2.1295    2.3650    0.0000 H   0  0  0  0  0  0  0  0  0  0  0  0
    2.4240    0.6950    0.0000 H   0  0  0  0  0  0  0  0  0  0  0  0
   -0.0001    0.0000    0.0000 C   0  0  0  0  0  0  0  0  0  0  0  0
    1.3856   -0.8000    0.0000 C   0  0  0  0  0  0  0  0  0  0  0  0
    2.7712   -1.6000    0.0000 H   0  0  0  0  0  0  0  0  0  0  0  0
    1.3856   -2.4000    0.0000 H   0  0  0  0  0  0  0  0  0  0  0  0
    2.8891   -0.2528    0.0000 H   0  0  0  0  0  0  0  0  0  0  0  0
   -0.6508   -1.4617    0.0000 C   0  0  0  0  0  0  0  0  0  0  0  0
   -1.3016   -2.9233    0.0000 H   0  0  0  0  0  0  0  0  0  0  0  0
    0.2897   -2.7561    0.0000 H   0  0  0  0  0  0  0  0  0  0  0  0
   -2.1888   -1.9027    0.0000 H   0  0  0  0  0  0  0  0  0  0  0  0
   -1.5217    0.4944    0.0000 C   0  0  0  0  0  0  0  0  0  0  0  0
   -2.3695   -0.8624    0.0000 H   0  0  0  0  0  0  0  0  0  0  0  0
   -3.1129    0.6617    0.0000 O   0  0  0  0  0  0  0  0  0  0  0  0
   -4.0534   -0.6328    0.0000 H   0  0  0  0  0  0  0  0  0  0  0  0
   -2.8162    3.0349    0.0000 O   0  0  0  0  0  0  0  0  0  0  0  0
  1  2  1  0  0  0  0
  2  3  1  0  0  0  0
  3  4  1  0  0  0  0
  3  5  1  0  0  0  0
  3  6  1  0  0  0  0
  6  7  1  0  0  0  0
  7  8  1  0  0  0  0
  7  9  1  0  0  0  0
  7 10  1  0  0  0  0
  6 11  1  0  0  0  0
 11 12  1  0  0  0  0
 11 13  1  0  0  0  0
 11 14  1  0  0  0  0
  6 15  1  0  0  0  0
 15  1  1  0  0  0  0
 15 16  1  0  0  0  0
 15 17  1  0  0  0  0
 17 18  1  0  0  0  0
  1 19  2  0  0  0  0
M  END
> <ChemID>
100853

> <source_casrn>
599-04-2

> <CAS>
NOCAS_861637

> <SMILES>
O=C(OCC1(C)C)C1O

> <NAME>
Pantolactone

> <preferred_name>


> <iupac>


> <MPID>
100855

> <dsstox_substance_id>
DTXSID40861637

> <Canonical_QSARr>
CC1(C)COC(=O)C1O

> <InChI_Code_QSARr>
InChI=1S/C6H10O3/c1-6(2)3-9-5(8)4(6)7/h4,7H,3H2,1-2H3

> <InChI Key_QSARr>
SERHXTVXHNVDKA-UHFFFAOYSA-N

> <Salt_Solvent>
?

> <Ready_Biodeg>
1.0

$$$$
100854
  -INDIGO-08031722522D

 16 16  0  0  0  0  0  0  0  0999 V2000
   -0.0000    0.0000    0.0000 C   0  0  0  0  0  0  0  0  0  0  0  0
    0.8000   -1.3856    0.0000 C   0  0  0  0  0  0  0  0  0  0  0  0
    2.4000   -1.3856    0.0000 O   0  0  0  0  0  0  0  0  0  0  0  0
    3.2000   -2.7713    0.0000 H   0  0  0  0  0  0  0  0  0  0  0  0
   -0.0000   -2.7713    0.0000 C   0  0  0  0  0  0  0  0  0  0  0  0
    0.8000   -4.1569    0.0000 H   0  0  0  0  0  0  0  0  0  0  0  0
   -1.6000   -2.7713    0.0000 C   0  0  0  0  0  0  0  0  0  0  0  0
   -2.4000   -4.1569    0.0000 H   0  0  0  0  0  0  0  0  0  0  0  0
   -2.4000   -1.3856    0.0000 C   0  0  0  0  0  0  0  0  0  0  0  0
   -4.0000   -1.3856    0.0000 H   0  0  0  0  0  0  0  0  0  0  0  0
   -1.6000    0.0000    0.0000 C   0  0  0  0  0  0  0  0  0  0  0  0
   -2.4000    1.3856    0.0000 O   0  0  0  0  0  0  0  0  0  0  0  0
   -4.0000    1.3856    0.0000 H   0  0  0  0  0  0  0  0  0  0  0  0
    0.8000    1.3856    0.0000 N   0  0  0  0  0  0  0  0  0  0  0  0
    2.4000    1.3856    0.0000 O   0  0  0  0  0  0  0  0  0  0  0  0
   -0.0000    2.7713    0.0000 O   0  0  0  0  0  0  0  0  0  0  0  0
  1  2  1  0  0  0  0
  2  3  1  0  0  0  0
  3  4  1  0  0  0  0
  2  5  2  0  0  0  0
  5  6  1  0  0  0  0
  5  7  1  0  0  0  0
  7  8  1  0  0  0  0
  7  9  2  0  0  0  0
  9 10  1  0  0  0  0
  9 11  1  0  0  0  0
 11  1  2  0  0  0  0
 11 12  1  0  0  0  0
 12 13  1  0  0  0  0
  1 14  1  0  0  0  0
 14 15  2  0  0  0  0
 14 16  1  0  0  0  0
M  CHG  2  14   1  16  -1
M  END
> <ChemID>
100854

> <source_casrn>
601-89-8

> <CAS>
601-89-8

> <SMILES>
[O-][N+](=O)c1c(O)cccc1O

> <NAME>
2-Nitroresorcinol

> <preferred_name>
1,3-Benzenediol, 2-nitro-

> <iupac>
2-nitrobenzene-1,3-diol

> <MPID>
100856

> <dsstox_substance_id>
DTXSID4060525

> <Canonical_QSARr>
[O-][N+](=O)c1c(O)cccc1O

> <InChI_Code_QSARr>
InChI=1S/C6H5NO4/c8-4-2-1-3-5(9)6(4)7(10)11/h1-3,8-9H

> <InChI Key_QSARr>
ZLCPKMIJYMHZMJ-UHFFFAOYSA-N

> <Salt_Solvent>
?

> <Ready_Biodeg>
1.0

$$$$
100855
  -INDIGO-08031722522D

 20 20  0  0  0  0  0  0  0  0999 V2000
    2.7713   -1.6000    0.0000 O   0  0  0  0  0  0  0  0  0  0  0  0
    1.3856   -2.4001    0.0000 C   0  0  0  0  0  0  0  0  0  0  0  0
    1.3856   -3.9999    0.0000 O   0  0  0  0  0  0  0  0  0  0  0  0
    2.7713   -4.8000    0.0000 H   0  0  0  0  0  0  0  0  0  0  0  0
    0.0000   -1.6000    0.0000 C   0  0  0  0  0  0  0  0  0  0  0  0
    0.0000    0.0000    0.0000 C   0  0  0  0  0  0  0  0  0  0  0  0
    1.3856    0.8001    0.0000 C   0  0  0  0  0  0  0  0  0  0  0  0
    2.7713    0.0000    0.0000 O   0  0  0  0  0  0  0  0  0  0  0  0
    1.3856    2.4001    0.0000 O   0  0  0  0  0  0  0  0  0  0  0  0
    2.7713    3.2000    0.0000 H   0  0  0  0  0  0  0  0  0  0  0  0
   -1.3856    0.8001    0.0000 C   0  0  0  0  0  0  0  0  0  0  0  0
   -1.3856    2.4001    0.0000 N   0  0  0  0  0  0  0  0  0  0  0  0
   -2.7713    3.2000    0.0000 O   0  0  0  0  0  0  0  0  0  0  0  0
    0.0000    3.2000    0.0000 O   0  0  0  0  0  0  0  0  0  0  0  0
   -2.7713    0.0000    0.0000 C   0  0  0  0  0  0  0  0  0  0  0  0
   -4.1569    0.8001    0.0000 H   0  0  0  0  0  0  0  0  0  0  0  0
   -2.7713   -1.6000    0.0000 C   0  0  0  0  0  0  0  0  0  0  0  0
   -4.1569   -2.3999    0.0000 H   0  0  0  0  0  0  0  0  0  0  0  0
   -1.3856   -2.3999    0.0000 C   0  0  0  0  0  0  0  0  0  0  0  0
   -1.3856   -3.9999    0.0000 H   0  0  0  0  0  0  0  0  0  0  0  0
  1  2  2  0  0  0  0
  2  3  1  0  0  0  0
  3  4  1  0  0  0  0
  2  5  1  0  0  0  0
  5  6  1  0  0  0  0
  6  7  1  0  0  0  0
  7  8  2  0  0  0  0
  7  9  1  0  0  0  0
  9 10  1  0  0  0  0
  6 11  2  0  0  0  0
 11 12  1  0  0  0  0
 12 13  1  0  0  0  0
 12 14  2  0  0  0  0
 11 15  1  0  0  0  0
 15 16  1  0  0  0  0
 15 17  2  0  0  0  0
 17 18  1  0  0  0  0
 17 19  1  0  0  0  0
 19  5  2  0  0  0  0
 19 20  1  0  0  0  0
M  CHG  2  12   1  13  -1
M  END
> <ChemID>
100855

> <source_casrn>
603-11-2

> <CAS>
603-11-2

> <SMILES>
[O-][N+](=O)c1cccc(c1C(O)=O)C(O)=O

> <NAME>
1,2-Benzenedicarboxylic acid, 3-nitro-

> <preferred_name>
3-Nitrophthalic acid

> <iupac>
3-Nitrophthalic acid

> <MPID>
100857

> <dsstox_substance_id>
DTXSID9060528

> <Canonical_QSARr>
[O-][N+](=O)c1cccc(c1C(O)=O)C(O)=O

> <InChI_Code_QSARr>
InChI=1S/C8H5NO6/c10-7(11)4-2-1-3-5(9(14)15)6(4)8(12)13/h1-3H,(H,10,11)(H,12,13)

> <InChI Key_QSARr>
KFIRODWJCYBBHY-UHFFFAOYSA-N

> <Salt_Solvent>
?

> <Ready_Biodeg>
0.0

$$$$
100857
  -INDIGO-08031722522D

 17 17  0  0  0  0  0  0  0  0999 V2000
    0.8000    1.3856    0.0000 C   0  0  0  0  0  0  0  0  0  0  0  0
    1.6000    2.7713    0.0000 H   0  0  0  0  0  0  0  0  0  0  0  0
   -0.0000    2.7713    0.0000 H   0  0  0  0  0  0  0  0  0  0  0  0
    2.4000    1.3856    0.0000 H   0  0  0  0  0  0  0  0  0  0  0  0
   -0.0000    0.0000    0.0000 C   0  0  0  0  0  0  0  0  0  0  0  0
    0.8000   -1.3856    0.0000 C   0  0  0  0  0  0  0  0  0  0  0  0
    2.4000   -1.3856    0.0000 O   0  0  0  0  0  0  0  0  0  0  0  0
    3.2000   -2.7713    0.0000 H   0  0  0  0  0  0  0  0  0  0  0  0
   -0.0000   -2.7713    0.0000 C   0  0  0  0  0  0  0  0  0  0  0  0
    0.8000   -4.1569    0.0000 H   0  0  0  0  0  0  0  0  0  0  0  0
   -1.6000   -2.7713    0.0000 C   0  0  0  0  0  0  0  0  0  0  0  0
   -2.4000   -4.1569    0.0000 H   0  0  0  0  0  0  0  0  0  0  0  0
   -2.4000   -1.3856    0.0000 C   0  0  0  0  0  0  0  0  0  0  0  0
   -4.0000   -1.3856    0.0000 H   0  0  0  0  0  0  0  0  0  0  0  0
   -1.6000    0.0000    0.0000 C   0  0  0  0  0  0  0  0  0  0  0  0
   -2.4000    1.3856    0.0000 O   0  0  0  0  0  0  0  0  0  0  0  0
   -4.0000    1.3856    0.0000 H   0  0  0  0  0  0  0  0  0  0  0  0
  1  2  1  0  0  0  0
  1  3  1  0  0  0  0
  1  4  1  0  0  0  0
  1  5  1  0  0  0  0
  5  6  1  0  0  0  0
  6  7  1  0  0  0  0
  7  8  1  0  0  0  0
  6  9  2  0  0  0  0
  9 10  1  0  0  0  0
  9 11  1  0  0  0  0
 11 12  1  0  0  0  0
 11 13  2  0  0  0  0
 13 14  1  0  0  0  0
 13 15  1  0  0  0  0
 15  5  2  0  0  0  0
 15 16  1  0  0  0  0
 16 17  1  0  0  0  0
M  END
> <ChemID>
100857

> <source_casrn>
608-25-3

> <CAS>
608-25-3

> <SMILES>
Cc1c(O)cccc1O

> <NAME>
2-Methylresorcinol

> <preferred_name>
2-Methyl-1,3-benzenediol

> <iupac>
2-methylbenzene-1,3-diol

> <MPID>
100859

> <dsstox_substance_id>
DTXSID0025571

> <Canonical_QSARr>
Cc1c(O)cccc1O

> <InChI_Code_QSARr>
InChI=1S/C7H8O2/c1-5-6(8)3-2-4-7(5)9/h2-4,8-9H,1H3

> <InChI Key_QSARr>
ZTMADXFOCUXMJE-UHFFFAOYSA-N

> <Salt_Solvent>
?

> <Ready_Biodeg>
0.0

$$$$
100858
  -INDIGO-08031722522D

 12 12  0  0  0  0  0  0  0  0999 V2000
   -0.0000   -0.0000    0.0000 C   0  0  0  0  0  0  0  0  0  0  0  0
    0.8000   -1.3857    0.0000 C   0  0  0  0  0  0  0  0  0  0  0  0
    2.4000   -1.3857    0.0000 Cl  0  0  0  0  0  0  0  0  0  0  0  0
   -0.0000   -2.7713    0.0000 C   0  0  0  0  0  0  0  0  0  0  0  0
    0.8000   -4.1569    0.0000 Cl  0  0  0  0  0  0  0  0  0  0  0  0
   -1.6000   -2.7713    0.0000 C   0  0  0  0  0  0  0  0  0  0  0  0
   -2.4000   -4.1569    0.0000 Cl  0  0  0  0  0  0  0  0  0  0  0  0
   -2.4000   -1.3856    0.0000 C   0  0  0  0  0  0  0  0  0  0  0  0
   -4.0000   -1.3856    0.0000 Cl  0  0  0  0  0  0  0  0  0  0  0  0
   -1.6000   -0.0000    0.0000 C   0  0  0  0  0  0  0  0  0  0  0  0
   -2.4000    1.3856    0.0000 H   0  0  0  0  0  0  0  0  0  0  0  0
    0.8000    1.3856    0.0000 Cl  0  0  0  0  0  0  0  0  0  0  0  0
  1  2  1  0  0  0  0
  2  3  1  0  0  0  0
  2  4  2  0  0  0  0
  4  5  1  0  0  0  0
  4  6  1  0  0  0  0
  6  7  1  0  0  0  0
  6  8  2  0  0  0  0
  8  9  1  0  0  0  0
  8 10  1  0  0  0  0
 10  1  2  0  0  0  0
 10 11  1  0  0  0  0
  1 12  1  0  0  0  0
M  END
> <ChemID>
100858

> <source_casrn>
608-93-5

> <CAS>
608-93-5

> <SMILES>
Clc1c(Cl)c(Cl)cc(Cl)c1Cl

> <NAME>
Benzene, pentachloro-

> <preferred_name>
Pentachlorobenzene

> <iupac>
1,2,3,4,5-pentachlorobenzene

> <MPID>
100860

> <dsstox_substance_id>
DTXSID7024247

> <Canonical_QSARr>
Clc1c(Cl)c(Cl)cc(Cl)c1Cl

> <InChI_Code_QSARr>
InChI=1S/C6HCl5/c7-2-1-3(8)5(10)6(11)4(2)9/h1H

> <InChI Key_QSARr>
CEOCDNVZRAIOQZ-UHFFFAOYSA-N

> <Salt_Solvent>
?

> <Ready_Biodeg>
0.0

$$$$
100859
  -INDIGO-08031722522D

 15 15  0  0  0  0  0  0  0  0999 V2000
   -1.3856    4.0000    0.0000 Cl  0  0  0  0  0  0  0  0  0  0  0  0
   -1.3856    2.4000    0.0000 C   0  0  0  0  0  0  0  0  0  0  0  0
    0.0000    1.6000    0.0000 C   0  0  0  0  0  0  0  0  0  0  0  0
    1.3856    2.4000    0.0000 O   0  0  0  0  0  0  0  0  0  0  0  0
    1.3856    4.0000    0.0000 H   0  0  0  0  0  0  0  0  0  0  0  0
    0.0000    0.0000    0.0000 C   0  0  0  0  0  0  0  0  0  0  0  0
    1.3856   -0.8000    0.0000 N   0  0  0  0  0  0  0  0  0  0  0  0
    1.3856   -2.4000    0.0000 O   0  0  0  0  0  0  0  0  0  0  0  0
    2.7713    0.0000    0.0000 O   0  0  0  0  0  0  0  0  0  0  0  0
   -1.3856   -0.8000    0.0000 C   0  0  0  0  0  0  0  0  0  0  0  0
   -1.3856   -2.4000    0.0000 H   0  0  0  0  0  0  0  0  0  0  0  0
   -2.7713    0.0000    0.0000 C   0  0  0  0  0  0  0  0  0  0  0  0
   -4.1569   -0.8000    0.0000 Cl  0  0  0  0  0  0  0  0  0  0  0  0
   -2.7713    1.6000    0.0000 C   0  0  0  0  0  0  0  0  0  0  0  0
   -4.1569    2.4000    0.0000 H   0  0  0  0  0  0  0  0  0  0  0  0
  1  2  1  0  0  0  0
  2  3  1  0  0  0  0
  3  4  1  0  0  0  0
  4  5  1  0  0  0  0
  3  6  2  0  0  0  0
  6  7  1  0  0  0  0
  7  8  1  0  0  0  0
  7  9  2  0  0  0  0
  6 10  1  0  0  0  0
 10 11  1  0  0  0  0
 10 12  2  0  0  0  0
 12 13  1  0  0  0  0
 12 14  1  0  0  0  0
 14  2  2  0  0  0  0
 14 15  1  0  0  0  0
M  CHG  2   7   1   8  -1
M  END
> <ChemID>
100859

> <source_casrn>
609-89-2

> <CAS>
609-89-2

> <SMILES>
[O-][N+](=O)c1cc(Cl)cc(Cl)c1O

> <NAME>
2,4-Dichloro-6-nitrophenol

> <preferred_name>
Phenol, 2,4-dichloro-6-nitro-

> <iupac>
2,4-Dichloro-6-nitrophenol

> <MPID>
100861

> <dsstox_substance_id>
DTXSID00209738

> <Canonical_QSARr>
[O-][N+](=O)c1cc(Cl)cc(Cl)c1O

> <InChI_Code_QSARr>
InChI=1S/C6H3Cl2NO3/c7-3-1-4(8)6(10)5(2-3)9(11)12/h1-2,10H

> <InChI Key_QSARr>
LYPMXMBQPXPNIQ-UHFFFAOYSA-N

> <Salt_Solvent>
?

> <Ready_Biodeg>
0.0

$$$$
100861
  -INDIGO-08031722522D

 20 20  0  0  0  0  0  0  0  0999 V2000
    1.6000    0.0000    0.0000 N   0  0  0  0  0  0  0  0  0  0  0  0
    2.4001    1.3856    0.0000 H   0  0  0  0  0  0  0  0  0  0  0  0
   -0.0000    0.0000    0.0000 C   0  0  0  0  0  0  0  0  0  0  0  0
   -0.8000    1.3856    0.0000 C   0  0  0  0  0  0  0  0  0  0  0  0
   -0.0000    2.7713    0.0000 C   0  0  0  0  0  0  0  0  0  0  0  0
    0.8000    4.1569    0.0000 H   0  0  0  0  0  0  0  0  0  0  0  0
   -0.8000    4.1569    0.0000 H   0  0  0  0  0  0  0  0  0  0  0  0
    1.6000    2.7713    0.0000 H   0  0  0  0  0  0  0  0  0  0  0  0
   -2.4000    1.3856    0.0000 C   0  0  0  0  0  0  0  0  0  0  0  0
   -3.2001    2.7713    0.0000 H   0  0  0  0  0  0  0  0  0  0  0  0
   -3.2001    0.0000    0.0000 C   0  0  0  0  0  0  0  0  0  0  0  0
   -4.8000    0.0000    0.0000 H   0  0  0  0  0  0  0  0  0  0  0  0
   -2.4000   -1.3856    0.0000 C   0  0  0  0  0  0  0  0  0  0  0  0
   -3.2001   -2.7713    0.0000 H   0  0  0  0  0  0  0  0  0  0  0  0
   -0.8000   -1.3856    0.0000 C   0  0  0  0  0  0  0  0  0  0  0  0
   -0.0000   -2.7713    0.0000 H   0  0  0  0  0  0  0  0  0  0  0  0
    2.4001   -1.3856    0.0000 C   0  0  0  0  0  0  0  0  0  0  0  0
    3.2000   -2.7713    0.0000 H   0  0  0  0  0  0  0  0  0  0  0  0
    4.0000   -1.3856    0.0000 H   0  0  0  0  0  0  0  0  0  0  0  0
    1.6000   -2.7713    0.0000 H   0  0  0  0  0  0  0  0  0  0  0  0
  1  2  1  0  0  0  0
  1  3  1  0  0  0  0
  3  4  1  0  0  0  0
  4  5  1  0  0  0  0
  5  6  1  0  0  0  0
  5  7  1  0  0  0  0
  5  8  1  0  0  0  0
  4  9  2  0  0  0  0
  9 10  1  0  0  0  0
  9 11  1  0  0  0  0
 11 12  1  0  0  0  0
 11 13  2  0  0  0  0
 13 14  1  0  0  0  0
 13 15  1  0  0  0  0
 15  3  2  0  0  0  0
 15 16  1  0  0  0  0
  1 17  1  0  0  0  0
 17 18  1  0  0  0  0
 17 19  1  0  0  0  0
 17 20  1  0  0  0  0
M  END
> <ChemID>
100861

> <source_casrn>
611-21-2

> <CAS>
611-21-2

> <SMILES>
Cc1ccccc1NC

> <NAME>
Benzenamine, N,2-dimethyl-

> <preferred_name>
Benzenamine, N,2-dimethyl-

> <iupac>
N,2-Dimethylaniline

> <MPID>
100863

> <dsstox_substance_id>
DTXSID4060600

> <Canonical_QSARr>
Cc1ccccc1NC

> <InChI_Code_QSARr>
InChI=1S/C8H11N/c1-7-5-3-4-6-8(7)9-2/h3-6,9H,1-2H3

> <InChI Key_QSARr>
GUAWMXYQZKVRCW-UHFFFAOYSA-N

> <Salt_Solvent>
?

> <Ready_Biodeg>
0.0

$$$$
100862
  -INDIGO-08031722522D

 20 20  0  0  0  0  0  0  0  0999 V2000
   -0.0000    2.7713    0.0000 O   0  0  0  0  0  0  0  0  0  0  0  0
    0.8000    4.1569    0.0000 H   0  0  0  0  0  0  0  0  0  0  0  0
    0.8000    1.3856    0.0000 C   0  0  0  0  0  0  0  0  0  0  0  0
   -0.0000    0.0000    0.0000 C   0  0  0  0  0  0  0  0  0  0  0  0
   -1.6000    0.0000    0.0000 N   0  0  0  0  0  0  0  0  0  0  0  0
   -2.3999    1.3856    0.0000 H   0  0  0  0  0  0  0  0  0  0  0  0
   -2.3999   -1.3856    0.0000 C   0  0  0  0  0  0  0  0  0  0  0  0
   -1.6000   -2.7713    0.0000 O   0  0  0  0  0  0  0  0  0  0  0  0
   -4.0000   -1.3856    0.0000 C   0  0  0  0  0  0  0  0  0  0  0  0
   -5.6000   -1.3856    0.0000 H   0  0  0  0  0  0  0  0  0  0  0  0
   -4.8000   -2.7713    0.0000 H   0  0  0  0  0  0  0  0  0  0  0  0
   -4.8000    0.0000    0.0000 H   0  0  0  0  0  0  0  0  0  0  0  0
    0.8000   -1.3856    0.0000 C   0  0  0  0  0  0  0  0  0  0  0  0
   -0.0000   -2.7713    0.0000 H   0  0  0  0  0  0  0  0  0  0  0  0
    2.4001   -1.3856    0.0000 C   0  0  0  0  0  0  0  0  0  0  0  0
    3.2000   -2.7713    0.0000 H   0  0  0  0  0  0  0  0  0  0  0  0
    3.2000    0.0000    0.0000 C   0  0  0  0  0  0  0  0  0  0  0  0
    4.8000    0.0000    0.0000 H   0  0  0  0  0  0  0  0  0  0  0  0
    2.4001    1.3856    0.0000 C   0  0  0  0  0  0  0  0  0  0  0  0
    3.2000    2.7713    0.0000 H   0  0  0  0  0  0  0  0  0  0  0  0
  1  2  1  0  0  0  0
  1  3  1  0  0  0  0
  3  4  1  0  0  0  0
  4  5  1  0  0  0  0
  5  6  1  0  0  0  0
  5  7  1  0  0  0  0
  7  8  2  0  0  0  0
  7  9  1  0  0  0  0
  9 10  1  0  0  0  0
  9 11  1  0  0  0  0
  9 12  1  0  0  0  0
  4 13  2  0  0  0  0
 13 14  1  0  0  0  0
 13 15  1  0  0  0  0
 15 16  1  0  0  0  0
 15 17  2  0  0  0  0
 17 18  1  0  0  0  0
 17 19  1  0  0  0  0
 19  3  2  0  0  0  0
 19 20  1  0  0  0  0
M  END
> <ChemID>
100862

> <source_casrn>
614-80-2

> <CAS>
614-80-2

> <SMILES>
CC(=O)Nc1ccccc1O

> <NAME>
Acetamide, N-(2-hydroxyphenyl)-

> <preferred_name>
2-Acetamidophenol

> <iupac>
N-(2-hydroxyphenyl)acetamide

> <MPID>
100864

> <dsstox_substance_id>
DTXSID8022082

> <Canonical_QSARr>
CC(=O)Nc1ccccc1O

> <InChI_Code_QSARr>
InChI=1S/C8H9NO2/c1-6(10)9-7-4-2-3-5-8(7)11/h2-5,11H,1H3,(H,9,10)

> <InChI Key_QSARr>
ADVGKWPZRIDURE-UHFFFAOYSA-N

> <Salt_Solvent>
?

> <Ready_Biodeg>
1.0

$$$$
100863
  -INDIGO-08031722522D

 13 13  0  0  0  0  0  0  0  0999 V2000
    1.6000   -0.0000    0.0000 C   0  0  0  0  0  0  0  0  0  0  0  0
    2.4000   -1.3857    0.0000 C   0  0  0  0  0  0  0  0  0  0  0  0
    4.0000   -1.3857    0.0000 H   0  0  0  0  0  0  0  0  0  0  0  0
    1.6000   -2.7713    0.0000 C   0  0  0  0  0  0  0  0  0  0  0  0
    2.4000   -4.1569    0.0000 Br  0  0  0  0  0  0  0  0  0  0  0  0
    0.0000   -2.7713    0.0000 C   0  0  0  0  0  0  0  0  0  0  0  0
   -0.8000   -4.1569    0.0000 H   0  0  0  0  0  0  0  0  0  0  0  0
   -0.8000   -1.3856    0.0000 C   0  0  0  0  0  0  0  0  0  0  0  0
   -2.4000   -1.3856    0.0000 H   0  0  0  0  0  0  0  0  0  0  0  0
    0.0000   -0.0000    0.0000 C   0  0  0  0  0  0  0  0  0  0  0  0
   -0.8000    1.3856    0.0000 O   0  0  0  0  0  0  0  0  0  0  0  0
   -2.4000    1.3856    0.0000 H   0  0  0  0  0  0  0  0  0  0  0  0
    2.4000    1.3856    0.0000 Br  0  0  0  0  0  0  0  0  0  0  0  0
  1  2  1  0  0  0  0
  2  3  1  0  0  0  0
  2  4  2  0  0  0  0
  4  5  1  0  0  0  0
  4  6  1  0  0  0  0
  6  7  1  0  0  0  0
  6  8  2  0  0  0  0
  8  9  1  0  0  0  0
  8 10  1  0  0  0  0
 10  1  2  0  0  0  0
 10 11  1  0  0  0  0
 11 12  1  0  0  0  0
  1 13  1  0  0  0  0
M  END
> <ChemID>
100863

> <source_casrn>
615-58-7

> <CAS>
615-58-7

> <SMILES>
Oc1ccc(Br)cc1Br

> <NAME>
2,4-Dibromophenol

> <preferred_name>
2,4-Dibromophenol

> <iupac>
2,4-dibromophenol

> <MPID>
100865

> <dsstox_substance_id>
DTXSID1052290

> <Canonical_QSARr>
Oc1ccc(Br)cc1Br

> <InChI_Code_QSARr>
InChI=1S/C6H4Br2O/c7-4-1-2-6(9)5(8)3-4/h1-3,9H

> <InChI Key_QSARr>
FAXWFCTVSHEODL-UHFFFAOYSA-N

> <Salt_Solvent>
?

> <Ready_Biodeg>
0.0

$$$$
100865
  -INDIGO-08031722522D

 16 16  0  0  0  0  0  0  0  0999 V2000
    1.3857    0.8000    0.0000 C   0  0  0  0  0  0  0  0  0  0  0  0
    2.7713    1.6000    0.0000 H   0  0  0  0  0  0  0  0  0  0  0  0
    2.7713   -0.0000    0.0000 H   0  0  0  0  0  0  0  0  0  0  0  0
    1.3857    2.4000    0.0000 H   0  0  0  0  0  0  0  0  0  0  0  0
    0.0000   -0.0000    0.0000 C   0  0  0  0  0  0  0  0  0  0  0  0
    0.0000   -1.6000    0.0000 C   0  0  0  0  0  0  0  0  0  0  0  0
    1.3857   -2.4000    0.0000 H   0  0  0  0  0  0  0  0  0  0  0  0
   -1.3856   -2.4000    0.0000 C   0  0  0  0  0  0  0  0  0  0  0  0
   -1.3856   -4.0000    0.0000 H   0  0  0  0  0  0  0  0  0  0  0  0
   -2.7713   -1.6000    0.0000 C   0  0  0  0  0  0  0  0  0  0  0  0
   -4.1570   -2.4000    0.0000 Cl  0  0  0  0  0  0  0  0  0  0  0  0
   -2.7713   -0.0000    0.0000 C   0  0  0  0  0  0  0  0  0  0  0  0
   -4.1569    0.8000    0.0000 O   0  0  0  0  0  0  0  0  0  0  0  0
   -5.5426   -0.0000    0.0000 H   0  0  0  0  0  0  0  0  0  0  0  0
   -1.3856    0.8000    0.0000 C   0  0  0  0  0  0  0  0  0  0  0  0
   -1.3856    2.4000    0.0000 H   0  0  0  0  0  0  0  0  0  0  0  0
  1  2  1  0  0  0  0
  1  3  1  0  0  0  0
  1  4  1  0  0  0  0
  1  5  1  0  0  0  0
  5  6  1  0  0  0  0
  6  7  1  0  0  0  0
  6  8  2  0  0  0  0
  8  9  1  0  0  0  0
  8 10  1  0  0  0  0
 10 11  1  0  0  0  0
 10 12  2  0  0  0  0
 12 13  1  0  0  0  0
 13 14  1  0  0  0  0
 12 15  1  0  0  0  0
 15  5  2  0  0  0  0
 15 16  1  0  0  0  0
M  END
> <ChemID>
100865

> <source_casrn>
615-74-7

> <CAS>
615-74-7

> <SMILES>
Cc1ccc(Cl)c(O)c1

> <NAME>
Phenol, 2-chloro-5-methyl-

> <preferred_name>
2-Chloro-5-methylphenol

> <iupac>
2-chloro-5-methylphenol

> <MPID>
100867

> <dsstox_substance_id>
DTXSID1046558

> <Canonical_QSARr>
Cc1ccc(Cl)c(O)c1

> <InChI_Code_QSARr>
InChI=1S/C7H7ClO/c1-5-2-3-6(8)7(9)4-5/h2-4,9H,1H3

> <InChI Key_QSARr>
SMFHPCZZAAMJJO-UHFFFAOYSA-N

> <Salt_Solvent>
?

> <Ready_Biodeg>
0.0

$$$$
100867
  -INDIGO-08031722522D

 15 15  0  0  0  0  0  0  0  0999 V2000
    1.3856    0.8000    0.0000 S   0  0  0  0  0  0  0  0  0  0  0  0
    2.7713   -0.0000    0.0000 O   0  0  0  0  0  0  0  0  0  0  0  0
    4.1569    0.8000    0.0000 H   0  0  0  0  0  0  0  0  0  0  0  0
    1.3856    2.4000    0.0000 O   0  0  0  0  0  0  0  0  0  0  0  0
    0.0001   -0.0000    0.0000 C   0  0  0  0  0  0  0  0  0  0  0  0
    0.0001   -1.6000    0.0000 C   0  0  0  0  0  0  0  0  0  0  0  0
    1.3856   -2.4000    0.0000 H   0  0  0  0  0  0  0  0  0  0  0  0
   -1.3856   -2.4000    0.0000 C   0  0  0  0  0  0  0  0  0  0  0  0
   -1.3856   -4.0000    0.0000 H   0  0  0  0  0  0  0  0  0  0  0  0
   -2.7712   -1.6000    0.0000 C   0  0  0  0  0  0  0  0  0  0  0  0
   -4.1569   -2.4000    0.0000 H   0  0  0  0  0  0  0  0  0  0  0  0
   -2.7712   -0.0000    0.0000 C   0  0  0  0  0  0  0  0  0  0  0  0
   -4.1569    0.8000    0.0000 H   0  0  0  0  0  0  0  0  0  0  0  0
   -1.3856    0.8000    0.0000 C   0  0  0  0  0  0  0  0  0  0  0  0
   -1.3856    2.4000    0.0000 H   0  0  0  0  0  0  0  0  0  0  0  0
  1  2  1  0  0  0  0
  2  3  1  0  0  0  0
  1  4  2  0  0  0  0
  1  5  1  0  0  0  0
  5  6  1  0  0  0  0
  6  7  1  0  0  0  0
  6  8  2  0  0  0  0
  8  9  1  0  0  0  0
  8 10  1  0  0  0  0
 10 11  1  0  0  0  0
 10 12  2  0  0  0  0
 12 13  1  0  0  0  0
 12 14  1  0  0  0  0
 14  5  2  0  0  0  0
 14 15  1  0  0  0  0
M  END
> <ChemID>
100867

> <source_casrn>
618-41-7

> <CAS>
NOCAS_862453

> <SMILES>
OS(=O)c1ccccc1

> <NAME>
BENZENESULFINIC ACID

> <preferred_name>
Benzenesulfinic acid

> <iupac>
Benzenesulfinic acid

> <MPID>
100868

> <dsstox_substance_id>
DTXSID50862453

> <Canonical_QSARr>
OS(=O)c1ccccc1

> <InChI_Code_QSARr>
InChI=1S/C6H6O2S/c7-9(8)6-4-2-1-3-5-6/h1-5H,(H,7,8)

> <InChI Key_QSARr>
JEHKKBHWRAXMCH-UHFFFAOYSA-N

> <Salt_Solvent>
?

> <Ready_Biodeg>
0.0

$$$$
100868
  -INDIGO-08031722522D

 22 22  0  0  0  0  0  0  0  0999 V2000
   -4.1569   -0.8000    0.0000 C   0  0  0  0  0  0  0  0  0  0  0  0
   -2.7712   -0.0000    0.0000 N   0  0  0  0  0  0  0  0  0  0  0  0
   -2.7714    1.6000    0.0000 H   0  0  0  0  0  0  0  0  0  0  0  0
   -1.3857   -0.8000    0.0000 C   0  0  0  0  0  0  0  0  0  0  0  0
   -0.0000   -0.0000    0.0000 C   0  0  0  0  0  0  0  0  0  0  0  0
    0.6123    1.4782    0.0000 H   0  0  0  0  0  0  0  0  0  0  0  0
   -0.6124    1.4782    0.0000 H   0  0  0  0  0  0  0  0  0  0  0  0
    1.3856   -0.8000    0.0000 C   0  0  0  0  0  0  0  0  0  0  0  0
    2.7713   -1.6000    0.0000 H   0  0  0  0  0  0  0  0  0  0  0  0
    2.7713   -0.0000    0.0000 H   0  0  0  0  0  0  0  0  0  0  0  0
    1.3856   -2.4000    0.0000 H   0  0  0  0  0  0  0  0  0  0  0  0
   -1.3857   -2.4000    0.0000 O   0  0  0  0  0  0  0  0  0  0  0  0
   -4.1569   -2.4000    0.0000 C   0  0  0  0  0  0  0  0  0  0  0  0
   -2.7712   -3.2000    0.0000 H   0  0  0  0  0  0  0  0  0  0  0  0
   -5.5425   -3.2000    0.0000 C   0  0  0  0  0  0  0  0  0  0  0  0
   -5.5425   -4.8000    0.0000 H   0  0  0  0  0  0  0  0  0  0  0  0
   -6.9282   -2.4000    0.0000 C   0  0  0  0  0  0  0  0  0  0  0  0
   -8.3138   -3.2000    0.0000 H   0  0  0  0  0  0  0  0  0  0  0  0
   -6.9282   -0.8000    0.0000 C   0  0  0  0  0  0  0  0  0  0  0  0
   -8.3138   -0.0000    0.0000 H   0  0  0  0  0  0  0  0  0  0  0  0
   -5.5425   -0.0000    0.0000 C   0  0  0  0  0  0  0  0  0  0  0  0
   -5.5425    1.6000    0.0000 H   0  0  0  0  0  0  0  0  0  0  0  0
  1  2  1  0  0  0  0
  2  3  1  0  0  0  0
  2  4  1  0  0  0  0
  4  5  1  0  0  0  0
  5  6  1  0  0  0  0
  5  7  1  0  0  0  0
  5  8  1  0  0  0  0
  8  9  1  0  0  0  0
  8 10  1  0  0  0  0
  8 11  1  0  0  0  0
  4 12  2  0  0  0  0
  1 13  1  0  0  0  0
 13 14  1  0  0  0  0
 13 15  2  0  0  0  0
 15 16  1  0  0  0  0
 15 17  1  0  0  0  0
 17 18  1  0  0  0  0
 17 19  2  0  0  0  0
 19 20  1  0  0  0  0
 19 21  1  0  0  0  0
 21  1  2  0  0  0  0
 21 22  1  0  0  0  0
M  END
> <ChemID>
100868

> <source_casrn>
620-71-3

> <CAS>
620-71-3

> <SMILES>
CCC(=O)Nc1ccccc1

> <NAME>
Propionanilide

> <preferred_name>
N-Phenylpropanamide

> <iupac>
N-Phenylpropanamide

> <MPID>
100869

> <dsstox_substance_id>
DTXSID0060721

> <Canonical_QSARr>
CCC(=O)Nc1ccccc1

> <InChI_Code_QSARr>
InChI=1S/C9H11NO/c1-2-9(11)10-8-6-4-3-5-7-8/h3-7H,2H2,1H3,(H,10,11)

> <InChI Key_QSARr>
ZTHRQJQJODGZHV-UHFFFAOYSA-N

> <Salt_Solvent>
?

> <Ready_Biodeg>
0.0

$$$$
100870
  -INDIGO-08031722522D

 19 19  0  0  0  0  0  0  0  0999 V2000
   -4.0000   -1.3856    0.0000 C   0  0  0  0  0  0  0  0  0  0  0  0
   -2.4001   -1.3856    0.0000 C   0  0  0  0  0  0  0  0  0  0  0  0
   -1.6001   -2.7713    0.0000 H   0  0  0  0  0  0  0  0  0  0  0  0
   -1.6001   -0.0000    0.0000 C   0  0  0  0  0  0  0  0  0  0  0  0
   -2.4001    1.3856    0.0000 H   0  0  0  0  0  0  0  0  0  0  0  0
    0.0001    0.0000    0.0000 C   0  0  0  0  0  0  0  0  0  0  0  0
    0.8001    1.3856    0.0000 C   0  0  0  0  0  0  0  0  0  0  0  0
    0.0001    2.7713    0.0000 H   0  0  0  0  0  0  0  0  0  0  0  0
    2.4000    1.3856    0.0000 C   0  0  0  0  0  0  0  0  0  0  0  0
    3.2000    2.7713    0.0000 H   0  0  0  0  0  0  0  0  0  0  0  0
    3.2000    0.0000    0.0000 C   0  0  0  0  0  0  0  0  0  0  0  0
    4.8000   -0.0000    0.0000 H   0  0  0  0  0  0  0  0  0  0  0  0
    2.4000   -1.3856    0.0000 C   0  0  0  0  0  0  0  0  0  0  0  0
    3.2000   -2.7713    0.0000 H   0  0  0  0  0  0  0  0  0  0  0  0
    0.8001   -1.3856    0.0000 C   0  0  0  0  0  0  0  0  0  0  0  0
    0.0001   -2.7713    0.0000 H   0  0  0  0  0  0  0  0  0  0  0  0
   -4.8000   -0.0000    0.0000 O   0  0  0  0  0  0  0  0  0  0  0  0
   -4.8000   -2.7713    0.0000 O   0  0  0  0  0  0  0  0  0  0  0  0
   -6.4000   -2.7713    0.0000 H   0  0  0  0  0  0  0  0  0  0  0  0
  1  2  1  0  0  0  0
  2  3  1  0  0  0  0
  2  4  2  0  0  0  0
  4  5  1  0  0  0  0
  4  6  1  0  0  0  0
  6  7  1  0  0  0  0
  7  8  1  0  0  0  0
  7  9  2  0  0  0  0
  9 10  1  0  0  0  0
  9 11  1  0  0  0  0
 11 12  1  0  0  0  0
 11 13  2  0  0  0  0
 13 14  1  0  0  0  0
 13 15  1  0  0  0  0
 15  6  2  0  0  0  0
 15 16  1  0  0  0  0
  1 17  2  0  0  0  0
  1 18  1  0  0  0  0
 18 19  1  0  0  0  0
M  END
> <ChemID>
100870

> <source_casrn>
621-82-9

> <CAS>
621-82-9

> <SMILES>
OC(=O)C=Cc1ccccc1

> <NAME>
Cinnamic acid

> <preferred_name>
Cinnamic acid

> <iupac>


> <MPID>
100871

> <dsstox_substance_id>
DTXSID40110056

> <Canonical_QSARr>
OC(=O)C=Cc1ccccc1

> <InChI_Code_QSARr>
InChI=1S/C9H8O2/c10-9(11)7-6-8-4-2-1-3-5-8/h1-7H,(H,10,11)/b7-6+

> <InChI Key_QSARr>
WBYWAXJHAXSJNI-VOTSOKGWSA-N

> <Salt_Solvent>
?

> <Ready_Biodeg>
1.0

$$$$
100871
  -INDIGO-08031722522D

 22 22  0  0  0  0  0  0  0  0999 V2000
    2.7713   -1.6000    0.0000 O   0  0  0  0  0  0  0  0  0  0  0  0
    4.1569   -2.4000    0.0000 H   0  0  0  0  0  0  0  0  0  0  0  0
    2.7713   -0.0000    0.0000 C   0  0  0  0  0  0  0  0  0  0  0  0
    3.7453    1.2694    0.0000 H   0  0  0  0  0  0  0  0  0  0  0  0
    4.3576    0.2088    0.0000 H   0  0  0  0  0  0  0  0  0  0  0  0
    1.3857    0.8000    0.0000 C   0  0  0  0  0  0  0  0  0  0  0  0
    1.9980    2.2782    0.0000 H   0  0  0  0  0  0  0  0  0  0  0  0
    0.7734    2.2782    0.0000 H   0  0  0  0  0  0  0  0  0  0  0  0
    0.0001   -0.0000    0.0000 N   0  0  0  0  0  0  0  0  0  0  0  0
    0.0001   -1.6000    0.0000 C   0  0  0  0  0  0  0  0  0  0  0  0
    1.5757   -1.3221    0.0000 H   0  0  0  0  0  0  0  0  0  0  0  0
    0.5473   -3.1035    0.0000 H   0  0  0  0  0  0  0  0  0  0  0  0
   -1.3857   -2.4000    0.0000 C   0  0  0  0  0  0  0  0  0  0  0  0
   -0.3572   -3.6257    0.0000 H   0  0  0  0  0  0  0  0  0  0  0  0
   -2.4141   -3.6257    0.0000 H   0  0  0  0  0  0  0  0  0  0  0  0
   -2.7713   -1.6000    0.0000 O   0  0  0  0  0  0  0  0  0  0  0  0
   -2.7713   -0.0000    0.0000 C   0  0  0  0  0  0  0  0  0  0  0  0
   -4.3470   -0.2778    0.0000 H   0  0  0  0  0  0  0  0  0  0  0  0
   -3.3185    1.5035    0.0000 H   0  0  0  0  0  0  0  0  0  0  0  0
   -1.3857    0.8000    0.0000 C   0  0  0  0  0  0  0  0  0  0  0  0
   -2.4141    2.0257    0.0000 H   0  0  0  0  0  0  0  0  0  0  0  0
   -0.3572    2.0257    0.0000 H   0  0  0  0  0  0  0  0  0  0  0  0
  1  2  1  0  0  0  0
  1  3  1  0  0  0  0
  3  4  1  0  0  0  0
  3  5  1  0  0  0  0
  3  6  1  0  0  0  0
  6  7  1  0  0  0  0
  6  8  1  0  0  0  0
  6  9  1  0  0  0  0
  9 10  1  0  0  0  0
 10 11  1  0  0  0  0
 10 12  1  0  0  0  0
 10 13  1  0  0  0  0
 13 14  1  0  0  0  0
 13 15  1  0  0  0  0
 13 16  1  0  0  0  0
 16 17  1  0  0  0  0
 17 18  1  0  0  0  0
 17 19  1  0  0  0  0
 17 20  1  0  0  0  0
 20  9  1  0  0  0  0
 20 21  1  0  0  0  0
 20 22  1  0  0  0  0
M  END
> <ChemID>
100871

> <source_casrn>
622-40-2

> <CAS>
622-40-2

> <SMILES>
O(CCN(C1)CCO)C1

> <NAME>
4-(2-Hydroxyethyl) morpholine

> <preferred_name>
4-(2-Hydroxyethyl)morpholine

> <iupac>
2-(morpholin-4-yl)ethanol

> <MPID>
100872

> <dsstox_substance_id>
DTXSID2022090

> <Canonical_QSARr>
OCCN1CCOCC1

> <InChI_Code_QSARr>
InChI=1S/C6H13NO2/c8-4-1-7-2-5-9-6-3-7/h8H,1-6H2

> <InChI Key_QSARr>
KKFDCBRMNNSAAW-UHFFFAOYSA-N

> <Salt_Solvent>
?

> <Ready_Biodeg>
1.0

$$$$
100872
  -INDIGO-08031722522D

 23 23  0  0  0  0  0  0  0  0999 V2000
    0.0000    0.0000    0.0000 C   0  0  0  0  0  0  0  0  0  0  0  0
   -0.8000    1.3857    0.0000 C   0  0  0  0  0  0  0  0  0  0  0  0
    0.0000    2.7713    0.0000 H   0  0  0  0  0  0  0  0  0  0  0  0
   -2.4000    1.3857    0.0000 C   0  0  0  0  0  0  0  0  0  0  0  0
   -3.2000    2.7713    0.0000 H   0  0  0  0  0  0  0  0  0  0  0  0
   -3.2000    0.0000    0.0000 C   0  0  0  0  0  0  0  0  0  0  0  0
   -4.8000    0.0000    0.0000 C   0  0  0  0  0  0  0  0  0  0  0  0
   -6.4000    0.0000    0.0000 H   0  0  0  0  0  0  0  0  0  0  0  0
   -5.6000   -1.3857    0.0000 H   0  0  0  0  0  0  0  0  0  0  0  0
   -5.6000    1.3857    0.0000 H   0  0  0  0  0  0  0  0  0  0  0  0
   -2.4000   -1.3857    0.0000 C   0  0  0  0  0  0  0  0  0  0  0  0
   -3.2000   -2.7713    0.0000 H   0  0  0  0  0  0  0  0  0  0  0  0
   -0.8000   -1.3857    0.0000 C   0  0  0  0  0  0  0  0  0  0  0  0
    0.0000   -2.7713    0.0000 H   0  0  0  0  0  0  0  0  0  0  0  0
    1.6000    0.0000    0.0000 N   0  0  0  0  0  0  0  0  0  0  0  0
    2.4000   -1.3857    0.0000 H   0  0  0  0  0  0  0  0  0  0  0  0
    2.4000    1.3857    0.0000 C   0  0  0  0  0  0  0  0  0  0  0  0
    1.1307    2.3596    0.0000 H   0  0  0  0  0  0  0  0  0  0  0  0
    2.1911    2.9720    0.0000 H   0  0  0  0  0  0  0  0  0  0  0  0
    4.0000    1.3857    0.0000 C   0  0  0  0  0  0  0  0  0  0  0  0
    5.6000    1.3857    0.0000 H   0  0  0  0  0  0  0  0  0  0  0  0
    4.8000    2.7713    0.0000 H   0  0  0  0  0  0  0  0  0  0  0  0
    4.8000    0.0000    0.0000 H   0  0  0  0  0  0  0  0  0  0  0  0
  1  2  1  0  0  0  0
  2  3  1  0  0  0  0
  2  4  2  0  0  0  0
  4  5  1  0  0  0  0
  4  6  1  0  0  0  0
  6  7  1  0  0  0  0
  7  8  1  0  0  0  0
  7  9  1  0  0  0  0
  7 10  1  0  0  0  0
  6 11  2  0  0  0  0
 11 12  1  0  0  0  0
 11 13  1  0  0  0  0
 13  1  2  0  0  0  0
 13 14  1  0  0  0  0
  1 15  1  0  0  0  0
 15 16  1  0  0  0  0
 15 17  1  0  0  0  0
 17 18  1  0  0  0  0
 17 19  1  0  0  0  0
 17 20  1  0  0  0  0
 20 21  1  0  0  0  0
 20 22  1  0  0  0  0
 20 23  1  0  0  0  0
M  END
> <ChemID>
100872

> <source_casrn>
622-57-1

> <CAS>
622-57-1

> <SMILES>
Cc1ccc(cc1)NCC

> <NAME>
Benzenamine, N-ethyl-4-methyl-

> <preferred_name>
Benzenamine, N-ethyl-4-methyl-

> <iupac>
N-Ethyl-4-methylaniline

> <MPID>
100873

> <dsstox_substance_id>
DTXSID7060754

> <Canonical_QSARr>
Cc1ccc(cc1)NCC

> <InChI_Code_QSARr>
InChI=1S/C9H13N/c1-3-10-9-6-4-8(2)5-7-9/h4-7,10H,3H2,1-2H3

> <InChI Key_QSARr>
AASABFUMCBTXRL-UHFFFAOYSA-N

> <Salt_Solvent>
?

> <Ready_Biodeg>
0.0

$$$$
100874
  -INDIGO-08031722522D

 16 16  0  0  0  0  0  0  0  0999 V2000
   -0.8000    1.3856    0.0000 C   0  0  0  0  0  0  0  0  0  0  0  0
    0.0001    2.7713    0.0000 H   0  0  0  0  0  0  0  0  0  0  0  0
   -2.4000    1.3856    0.0000 C   0  0  0  0  0  0  0  0  0  0  0  0
   -3.2001    2.7713    0.0000 H   0  0  0  0  0  0  0  0  0  0  0  0
   -3.2001   -0.0000    0.0000 C   0  0  0  0  0  0  0  0  0  0  0  0
   -4.8001    0.0000    0.0000 C   0  0  0  0  0  0  0  0  0  0  0  0
   -5.6000   -1.3856    0.0000 H   0  0  0  0  0  0  0  0  0  0  0  0
   -5.6000    1.3856    0.0000 O   0  0  0  0  0  0  0  0  0  0  0  0
   -2.4000   -1.3856    0.0000 C   0  0  0  0  0  0  0  0  0  0  0  0
   -3.1999   -2.7713    0.0000 H   0  0  0  0  0  0  0  0  0  0  0  0
   -0.8000   -1.3856    0.0000 C   0  0  0  0  0  0  0  0  0  0  0  0
    0.0001   -2.7713    0.0000 H   0  0  0  0  0  0  0  0  0  0  0  0
    0.0001   -0.0000    0.0000 C   0  0  0  0  0  0  0  0  0  0  0  0
    1.6001    0.0000    0.0000 C   0  0  0  0  0  0  0  0  0  0  0  0
    2.4000   -1.3856    0.0000 H   0  0  0  0  0  0  0  0  0  0  0  0
    2.4000    1.3856    0.0000 O   0  0  0  0  0  0  0  0  0  0  0  0
  1  2  1  0  0  0  0
  1  3  1  0  0  0  0
  3  4  1  0  0  0  0
  3  5  2  0  0  0  0
  5  6  1  0  0  0  0
  6  7  1  0  0  0  0
  6  8  2  0  0  0  0
  5  9  1  0  0  0  0
  9 10  1  0  0  0  0
  9 11  2  0  0  0  0
 11 12  1  0  0  0  0
 11 13  1  0  0  0  0
 13  1  2  0  0  0  0
 13 14  1  0  0  0  0
 14 15  1  0  0  0  0
 14 16  2  0  0  0  0
M  END
> <ChemID>
100874

> <source_casrn>
623-27-8

> <CAS>
623-27-8

> <SMILES>
O=Cc1ccc(cc1)C=O

> <NAME>
1,4-Benzenedicarboxaldehyde

> <preferred_name>
1,4-Benzenedicarboxaldehyde

> <iupac>
Terephthalaldehyde

> <MPID>
100875

> <dsstox_substance_id>
DTXSID6060769

> <Canonical_QSARr>
O=Cc1ccc(cc1)C=O

> <InChI_Code_QSARr>
InChI=1S/C8H6O2/c9-5-7-1-2-8(6-10)4-3-7/h1-6H

> <InChI Key_QSARr>
KUCOHFSKRZZVRO-UHFFFAOYSA-N

> <Salt_Solvent>
?

> <Ready_Biodeg>
1.0

$$$$
100875
  -INDIGO-08031722522D

 21 20  0  0  0  0  0  0  0  0999 V2000
   -1.0284    1.2257    0.0000 O   0  0  0  0  0  0  0  0  0  0  0  0
   -0.4812    2.7292    0.0000 H   0  0  0  0  0  0  0  0  0  0  0  0
   -0.0001   -0.0000    0.0000 C   0  0  0  0  0  0  0  0  0  0  0  0
    0.8000   -1.3856    0.0000 H   0  0  0  0  0  0  0  0  0  0  0  0
    1.3857    0.8000    0.0000 C   0  0  0  0  0  0  0  0  0  0  0  0
    0.7734    2.2782    0.0000 H   0  0  0  0  0  0  0  0  0  0  0  0
    1.9980    2.2782    0.0000 H   0  0  0  0  0  0  0  0  0  0  0  0
    2.7713   -0.0000    0.0000 C   0  0  0  0  0  0  0  0  0  0  0  0
    3.3836   -1.4782    0.0000 H   0  0  0  0  0  0  0  0  0  0  0  0
    2.1590   -1.4782    0.0000 H   0  0  0  0  0  0  0  0  0  0  0  0
    4.1569    0.8000    0.0000 C   0  0  0  0  0  0  0  0  0  0  0  0
    5.5426    1.6000    0.0000 H   0  0  0  0  0  0  0  0  0  0  0  0
    5.5426   -0.0000    0.0000 H   0  0  0  0  0  0  0  0  0  0  0  0
    4.1569    2.4000    0.0000 H   0  0  0  0  0  0  0  0  0  0  0  0
   -1.3857   -0.8000    0.0000 C   0  0  0  0  0  0  0  0  0  0  0  0
   -0.7734   -2.2782    0.0000 H   0  0  0  0  0  0  0  0  0  0  0  0
   -1.9980   -2.2782    0.0000 H   0  0  0  0  0  0  0  0  0  0  0  0
   -2.7713   -0.0000    0.0000 C   0  0  0  0  0  0  0  0  0  0  0  0
   -4.1569    0.8000    0.0000 H   0  0  0  0  0  0  0  0  0  0  0  0
   -4.1569   -0.8000    0.0000 H   0  0  0  0  0  0  0  0  0  0  0  0
   -2.7713    1.6000    0.0000 H   0  0  0  0  0  0  0  0  0  0  0  0
  1  2  1  0  0  0  0
  1  3  1  0  0  0  0
  3  4  1  0  0  0  0
  3  5  1  0  0  0  0
  5  6  1  0  0  0  0
  5  7  1  0  0  0  0
  5  8  1  0  0  0  0
  8  9  1  0  0  0  0
  8 10  1  0  0  0  0
  8 11  1  0  0  0  0
 11 12  1  0  0  0  0
 11 13  1  0  0  0  0
 11 14  1  0  0  0  0
  3 15  1  0  0  0  0
 15 16  1  0  0  0  0
 15 17  1  0  0  0  0
 15 18  1  0  0  0  0
 18 19  1  0  0  0  0
 18 20  1  0  0  0  0
 18 21  1  0  0  0  0
M  END
> <ChemID>
100875

> <source_casrn>
623-37-0

> <CAS>
NOCAS_862314

> <SMILES>
OC(CCC)CC

> <NAME>
3-Hexanol

> <preferred_name>
(3S)-hexan-3-ol

> <iupac>
C6H14O

> <MPID>
100876

> <dsstox_substance_id>
DTXSID70862314

> <Canonical_QSARr>
CCC(O)CCC

> <InChI_Code_QSARr>
InChI=1S/C6H14O/c1-3-5-6(7)4-2/h6-7H,3-5H2,1-2H3

> <InChI Key_QSARr>
ZOCHHNOQQHDWHG-UHFFFAOYSA-N

> <Salt_Solvent>
?

> <Ready_Biodeg>
0.0

$$$$
100877
  -INDIGO-08031722522D

 18 17  0  0  0  0  0  0  0  0999 V2000
   -1.3856   -0.8000    0.0000 C   0  0  0  0  0  0  0  0  0  0  0  0
    0.0001    0.0000    0.0000 C   0  0  0  0  0  0  0  0  0  0  0  0
    0.0001    1.6000    0.0000 H   0  0  0  0  0  0  0  0  0  0  0  0
    1.3856   -0.8000    0.0000 C   0  0  0  0  0  0  0  0  0  0  0  0
    1.3856   -2.4000    0.0000 H   0  0  0  0  0  0  0  0  0  0  0  0
    2.7713    0.0000    0.0000 C   0  0  0  0  0  0  0  0  0  0  0  0
    2.7713    1.6000    0.0000 O   0  0  0  0  0  0  0  0  0  0  0  0
    4.1570   -0.8000    0.0000 O   0  0  0  0  0  0  0  0  0  0  0  0
    5.5425    0.0000    0.0000 C   0  0  0  0  0  0  0  0  0  0  0  0
    6.9282    0.8000    0.0000 H   0  0  0  0  0  0  0  0  0  0  0  0
    6.9282   -0.8000    0.0000 H   0  0  0  0  0  0  0  0  0  0  0  0
    5.5425    1.6000    0.0000 H   0  0  0  0  0  0  0  0  0  0  0  0
   -1.3856   -2.4000    0.0000 O   0  0  0  0  0  0  0  0  0  0  0  0
   -2.7713    0.0000    0.0000 O   0  0  0  0  0  0  0  0  0  0  0  0
   -4.1569   -0.8000    0.0000 C   0  0  0  0  0  0  0  0  0  0  0  0
   -5.5426   -1.6000    0.0000 H   0  0  0  0  0  0  0  0  0  0  0  0
   -5.5426    0.0000    0.0000 H   0  0  0  0  0  0  0  0  0  0  0  0
   -4.1569   -2.4000    0.0000 H   0  0  0  0  0  0  0  0  0  0  0  0
  1  2  1  0  0  0  0
  2  3  1  0  0  0  0
  2  4  2  0  0  0  0
  4  5  1  0  0  0  0
  4  6  1  0  0  0  0
  6  7  2  0  0  0  0
  6  8  1  0  0  0  0
  8  9  1  0  0  0  0
  9 10  1  0  0  0  0
  9 11  1  0  0  0  0
  9 12  1  0  0  0  0
  1 13  2  0  0  0  0
  1 14  1  0  0  0  0
 14 15  1  0  0  0  0
 15 16  1  0  0  0  0
 15 17  1  0  0  0  0
 15 18  1  0  0  0  0
M  END
> <ChemID>
100877

> <source_casrn>
624-48-6|624-49-7

> <CAS>
624-48-6|624-49-7

> <SMILES>
O=C(OC)C=CC(=O)OC

> <NAME>
2-Butenedioic acid (Z)-, dimethyl ester, 2-Butenedioic acid (E)-, dimethyl ester

> <preferred_name>
Dimethyl maleate

> <iupac>
dimethyl (2Z)-but-2-enedioate

> <MPID>
100878|100879

> <dsstox_substance_id>
DTXSID4040765|DTXSID4060787

> <Canonical_QSARr>
COC(=O)C=CC(=O)OC

> <InChI_Code_QSARr>
InChI=1S/C6H8O4/c1-9-5(7)3-4-6(8)10-2/h3-4H,1-2H3/b4-3+

> <InChI Key_QSARr>
LDCRTTXIJACKKU-ONEGZZNKSA-N

> <Salt_Solvent>
?

> <Ready_Biodeg>
1.0

$$$$
100880
  -INDIGO-08031722522D

 19 18  0  0  0  0  0  0  0  0999 V2000
    2.7713    1.6000    0.0000 C   0  0  0  0  0  0  0  0  0  0  0  0
    4.1569    2.4000    0.0000 H   0  0  0  0  0  0  0  0  0  0  0  0
    4.1569    0.8000    0.0000 H   0  0  0  0  0  0  0  0  0  0  0  0
    2.7713    3.2000    0.0000 H   0  0  0  0  0  0  0  0  0  0  0  0
    1.3856    0.8000    0.0000 C   0  0  0  0  0  0  0  0  0  0  0  0
    0.5857    2.1856    0.0000 H   0  0  0  0  0  0  0  0  0  0  0  0
    0.0001    0.0000    0.0000 C   0  0  0  0  0  0  0  0  0  0  0  0
    0.6123   -1.4782    0.0000 H   0  0  0  0  0  0  0  0  0  0  0  0
   -0.6123   -1.4782    0.0000 H   0  0  0  0  0  0  0  0  0  0  0  0
   -1.3856    0.8000    0.0000 C   0  0  0  0  0  0  0  0  0  0  0  0
   -0.5857    2.1856    0.0000 H   0  0  0  0  0  0  0  0  0  0  0  0
   -2.7712    1.6000    0.0000 C   0  0  0  0  0  0  0  0  0  0  0  0
   -4.1569    2.4000    0.0000 H   0  0  0  0  0  0  0  0  0  0  0  0
   -4.1569    0.8000    0.0000 H   0  0  0  0  0  0  0  0  0  0  0  0
   -2.7712    3.2000    0.0000 H   0  0  0  0  0  0  0  0  0  0  0  0
   -2.1856   -0.5856    0.0000 O   0  0  0  0  0  0  0  0  0  0  0  0
   -3.7856   -0.5856    0.0000 H   0  0  0  0  0  0  0  0  0  0  0  0
    2.1856   -0.5856    0.0000 O   0  0  0  0  0  0  0  0  0  0  0  0
    3.7856   -0.5856    0.0000 H   0  0  0  0  0  0  0  0  0  0  0  0
  1  2  1  0  0  0  0
  1  3  1  0  0  0  0
  1  4  1  0  0  0  0
  1  5  1  0  0  0  0
  5  6  1  0  0  0  0
  5  7  1  0  0  0  0
  7  8  1  0  0  0  0
  7  9  1  0  0  0  0
  7 10  1  0  0  0  0
 10 11  1  0  0  0  0
 10 12  1  0  0  0  0
 12 13  1  0  0  0  0
 12 14  1  0  0  0  0
 12 15  1  0  0  0  0
 10 16  1  0  0  0  0
 16 17  1  0  0  0  0
  5 18  1  0  0  0  0
 18 19  1  0  0  0  0
M  END
> <ChemID>
100880

> <source_casrn>
625-69-4

> <CAS>
625-69-4

> <SMILES>
CC(O)CC(C)O

> <NAME>
2,4-Pentanediol

> <preferred_name>
2,4-Pentanediol

> <iupac>
pentane-2,4-diol

> <MPID>
100881

> <dsstox_substance_id>
DTXSID9032878

> <Canonical_QSARr>
CC(O)CC(C)O

> <InChI_Code_QSARr>
InChI=1S/C5H12O2/c1-4(6)3-5(2)7/h4-7H,3H2,1-2H3

> <InChI Key_QSARr>
GTCCGKPBSJZVRZ-UHFFFAOYSA-N

> <Salt_Solvent>
?

> <Ready_Biodeg>
1.0

$$$$
100881
  -INDIGO-08031722522D

 14 14  0  0  0  0  0  0  0  0999 V2000
    0.0000   -0.0000    0.0000 C   0  0  0  0  0  0  0  0  0  0  0  0
    0.0000   -1.6000    0.0000 C   0  0  0  0  0  0  0  0  0  0  0  0
    1.3857   -2.4000    0.0000 H   0  0  0  0  0  0  0  0  0  0  0  0
   -1.3857   -2.4000    0.0000 C   0  0  0  0  0  0  0  0  0  0  0  0
   -1.3857   -4.0000    0.0000 H   0  0  0  0  0  0  0  0  0  0  0  0
   -2.7713   -1.6000    0.0000 C   0  0  0  0  0  0  0  0  0  0  0  0
   -4.1570   -2.4000    0.0000 H   0  0  0  0  0  0  0  0  0  0  0  0
   -2.7713   -0.0000    0.0000 C   0  0  0  0  0  0  0  0  0  0  0  0
   -4.1570    0.8000    0.0000 C   0  0  0  0  0  0  0  0  0  0  0  0
   -5.5426    1.6000    0.0000 N   0  0  0  0  0  0  0  0  0  0  0  0
   -1.3857    0.8000    0.0000 C   0  0  0  0  0  0  0  0  0  0  0  0
   -1.3856    2.4000    0.0000 H   0  0  0  0  0  0  0  0  0  0  0  0
    1.3856    0.8000    0.0000 C   0  0  0  0  0  0  0  0  0  0  0  0
    2.7713    1.6000    0.0000 N   0  0  0  0  0  0  0  0  0  0  0  0
  1  2  1  0  0  0  0
  2  3  1  0  0  0  0
  2  4  2  0  0  0  0
  4  5  1  0  0  0  0
  4  6  1  0  0  0  0
  6  7  1  0  0  0  0
  6  8  2  0  0  0  0
  8  9  1  0  0  0  0
  9 10  3  0  0  0  0
  8 11  1  0  0  0  0
 11  1  2  0  0  0  0
 11 12  1  0  0  0  0
  1 13  1  0  0  0  0
 13 14  3  0  0  0  0
M  END
> <ChemID>
100881

> <source_casrn>
626-17-5

> <CAS>
626-17-5

> <SMILES>
N#Cc1cc(ccc1)C#N

> <NAME>
1,3-Benzenedicarbonitrile

> <preferred_name>
1,3-Benzenedicarbonitrile

> <iupac>
benzene-1,3-dicarbonitrile

> <MPID>
100882

> <dsstox_substance_id>
DTXSID7027259

> <Canonical_QSARr>
N#Cc1cc(ccc1)C#N

> <InChI_Code_QSARr>
InChI=1S/C8H4N2/c9-5-7-2-1-3-8(4-7)6-10/h1-4H

> <InChI Key_QSARr>
LAQPNDIUHRHNCV-UHFFFAOYSA-N

> <Salt_Solvent>
?

> <Ready_Biodeg>
0.0

$$$$
100882
  -INDIGO-08031722522D

 14 14  0  0  0  0  0  0  0  0999 V2000
    1.6000   -0.0000    0.0000 N   0  0  0  0  0  0  0  0  0  0  0  0
    2.4000    1.3856    0.0000 H   0  0  0  0  0  0  0  0  0  0  0  0
    2.4000   -1.3856    0.0000 H   0  0  0  0  0  0  0  0  0  0  0  0
    0.0000   -0.0000    0.0000 C   0  0  0  0  0  0  0  0  0  0  0  0
   -0.8000    1.3856    0.0000 C   0  0  0  0  0  0  0  0  0  0  0  0
    0.0000    2.7713    0.0000 H   0  0  0  0  0  0  0  0  0  0  0  0
   -2.4000    1.3856    0.0000 C   0  0  0  0  0  0  0  0  0  0  0  0
   -3.2000    2.7713    0.0000 Cl  0  0  0  0  0  0  0  0  0  0  0  0
   -3.2000   -0.0000    0.0000 C   0  0  0  0  0  0  0  0  0  0  0  0
   -4.8000   -0.0000    0.0000 H   0  0  0  0  0  0  0  0  0  0  0  0
   -2.4000   -1.3856    0.0000 C   0  0  0  0  0  0  0  0  0  0  0  0
   -3.2000   -2.7713    0.0000 Cl  0  0  0  0  0  0  0  0  0  0  0  0
   -0.8000   -1.3856    0.0000 C   0  0  0  0  0  0  0  0  0  0  0  0
    0.0000   -2.7713    0.0000 H   0  0  0  0  0  0  0  0  0  0  0  0
  1  2  1  0  0  0  0
  1  3  1  0  0  0  0
  1  4  1  0  0  0  0
  4  5  1  0  0  0  0
  5  6  1  0  0  0  0
  5  7  2  0  0  0  0
  7  8  1  0  0  0  0
  7  9  1  0  0  0  0
  9 10  1  0  0  0  0
  9 11  2  0  0  0  0
 11 12  1  0  0  0  0
 11 13  1  0  0  0  0
 13  4  2  0  0  0  0
 13 14  1  0  0  0  0
M  END
> <ChemID>
100882

> <source_casrn>
626-43-7

> <CAS>
626-43-7

> <SMILES>
Nc1cc(Cl)cc(Cl)c1

> <NAME>
3,5-DICHLOROANILINE

> <preferred_name>
3,5-Dichloroaniline

> <iupac>
3,5-dichloroaniline

> <MPID>
100883

> <dsstox_substance_id>
DTXSID7030307

> <Canonical_QSARr>
Nc1cc(Cl)cc(Cl)c1

> <InChI_Code_QSARr>
InChI=1S/C6H5Cl2N/c7-4-1-5(8)3-6(9)2-4/h1-3H,9H2

> <InChI Key_QSARr>
UQRLKWGPEVNVHT-UHFFFAOYSA-N

> <Salt_Solvent>
?

> <Ready_Biodeg>
0.0

$$$$
100885
  -INDIGO-08031722522D

 26 25  0  0  0  0  0  0  0  0999 V2000
   -2.7713    0.0000    0.0000 C   0  0  0  0  0  0  0  0  0  0  0  0
   -1.3856    0.8000    0.0000 C   0  0  0  0  0  0  0  0  0  0  0  0
   -1.9979    2.2782    0.0000 H   0  0  0  0  0  0  0  0  0  0  0  0
   -0.7734    2.2782    0.0000 H   0  0  0  0  0  0  0  0  0  0  0  0
   -0.0001    0.0000    0.0000 C   0  0  0  0  0  0  0  0  0  0  0  0
    0.6123   -1.4782    0.0000 H   0  0  0  0  0  0  0  0  0  0  0  0
   -0.6122   -1.4782    0.0000 H   0  0  0  0  0  0  0  0  0  0  0  0
    1.3856    0.8000    0.0000 C   0  0  0  0  0  0  0  0  0  0  0  0
    0.7732    2.2782    0.0000 H   0  0  0  0  0  0  0  0  0  0  0  0
    1.9980    2.2782    0.0000 H   0  0  0  0  0  0  0  0  0  0  0  0
    2.7713    0.0000    0.0000 C   0  0  0  0  0  0  0  0  0  0  0  0
    3.3835   -1.4782    0.0000 H   0  0  0  0  0  0  0  0  0  0  0  0
    2.1589   -1.4782    0.0000 H   0  0  0  0  0  0  0  0  0  0  0  0
    4.1570    0.8000    0.0000 C   0  0  0  0  0  0  0  0  0  0  0  0
    5.5425    0.0000    0.0000 O   0  0  0  0  0  0  0  0  0  0  0  0
    6.9282    0.8000    0.0000 H   0  0  0  0  0  0  0  0  0  0  0  0
    4.1570    2.4000    0.0000 O   0  0  0  0  0  0  0  0  0  0  0  0
   -4.1570    0.8000    0.0000 O   0  0  0  0  0  0  0  0  0  0  0  0
   -5.5427    0.0000    0.0000 C   0  0  0  0  0  0  0  0  0  0  0  0
   -4.9303   -1.4782    0.0000 H   0  0  0  0  0  0  0  0  0  0  0  0
   -6.1548   -1.4782    0.0000 H   0  0  0  0  0  0  0  0  0  0  0  0
   -6.9281    0.8000    0.0000 C   0  0  0  0  0  0  0  0  0  0  0  0
   -8.3138    1.6000    0.0000 H   0  0  0  0  0  0  0  0  0  0  0  0
   -8.3138    0.0000    0.0000 H   0  0  0  0  0  0  0  0  0  0  0  0
   -6.9281    2.4000    0.0000 H   0  0  0  0  0  0  0  0  0  0  0  0
   -2.7713   -1.6000    0.0000 O   0  0  0  0  0  0  0  0  0  0  0  0
  1  2  1  0  0  0  0
  2  3  1  0  0  0  0
  2  4  1  0  0  0  0
  2  5  1  0  0  0  0
  5  6  1  0  0  0  0
  5  7  1  0  0  0  0
  5  8  1  0  0  0  0
  8  9  1  0  0  0  0
  8 10  1  0  0  0  0
  8 11  1  0  0  0  0
 11 12  1  0  0  0  0
 11 13  1  0  0  0  0
 11 14  1  0  0  0  0
 14 15  1  0  0  0  0
 15 16  1  0  0  0  0
 14 17  2  0  0  0  0
  1 18  1  0  0  0  0
 18 19  1  0  0  0  0
 19 20  1  0  0  0  0
 19 21  1  0  0  0  0
 19 22  1  0  0  0  0
 22 23  1  0  0  0  0
 22 24  1  0  0  0  0
 22 25  1  0  0  0  0
  1 26  2  0  0  0  0
M  END
> <ChemID>
100885

> <source_casrn>
626-86-8

> <CAS>
NOCAS_862319

> <SMILES>
O=C(OCC)CCCCC(=O)O

> <NAME>
Hexanedioic acid, monoethyl ester

> <preferred_name>


> <iupac>


> <MPID>
100886

> <dsstox_substance_id>
DTXSID70862319

> <Canonical_QSARr>
CCOC(=O)CCCCC(O)=O

> <InChI_Code_QSARr>
InChI=1S/C8H14O4/c1-2-12-8(11)6-4-3-5-7(9)10/h2-6H2,1H3,(H,9,10)

> <InChI Key_QSARr>
UZNLHJCCGYKCIL-UHFFFAOYSA-N

> <Salt_Solvent>
?

> <Ready_Biodeg>
1.0

$$$$
100886
  -INDIGO-08031722522D

 21 20  0  0  0  0  0  0  0  0999 V2000
    2.7713    1.6000    0.0000 C   0  0  0  0  0  0  0  0  0  0  0  0
    4.1569    2.4000    0.0000 H   0  0  0  0  0  0  0  0  0  0  0  0
    4.1569    0.8000    0.0000 H   0  0  0  0  0  0  0  0  0  0  0  0
    2.7713    3.2000    0.0000 H   0  0  0  0  0  0  0  0  0  0  0  0
    1.3857    0.8000    0.0000 C   0  0  0  0  0  0  0  0  0  0  0  0
    0.5856    2.1856    0.0000 H   0  0  0  0  0  0  0  0  0  0  0  0
    0.0001    0.0000    0.0000 C   0  0  0  0  0  0  0  0  0  0  0  0
   -0.6122   -1.4782    0.0000 H   0  0  0  0  0  0  0  0  0  0  0  0
    0.6124   -1.4782    0.0000 H   0  0  0  0  0  0  0  0  0  0  0  0
   -1.3857    0.8000    0.0000 C   0  0  0  0  0  0  0  0  0  0  0  0
   -0.7734    2.2782    0.0000 H   0  0  0  0  0  0  0  0  0  0  0  0
   -1.9980    2.2782    0.0000 H   0  0  0  0  0  0  0  0  0  0  0  0
   -2.7713    0.0000    0.0000 C   0  0  0  0  0  0  0  0  0  0  0  0
   -3.3836   -1.4782    0.0000 H   0  0  0  0  0  0  0  0  0  0  0  0
   -2.1590   -1.4782    0.0000 H   0  0  0  0  0  0  0  0  0  0  0  0
   -4.1569    0.8000    0.0000 C   0  0  0  0  0  0  0  0  0  0  0  0
   -5.5426    1.6000    0.0000 H   0  0  0  0  0  0  0  0  0  0  0  0
   -5.5426    0.0000    0.0000 H   0  0  0  0  0  0  0  0  0  0  0  0
   -4.1569    2.4000    0.0000 H   0  0  0  0  0  0  0  0  0  0  0  0
    2.1856   -0.5856    0.0000 O   0  0  0  0  0  0  0  0  0  0  0  0
    3.7856   -0.5856    0.0000 H   0  0  0  0  0  0  0  0  0  0  0  0
  1  2  1  0  0  0  0
  1  3  1  0  0  0  0
  1  4  1  0  0  0  0
  1  5  1  0  0  0  0
  5  6  1  0  0  0  0
  5  7  1  0  0  0  0
  7  8  1  0  0  0  0
  7  9  1  0  0  0  0
  7 10  1  0  0  0  0
 10 11  1  0  0  0  0
 10 12  1  0  0  0  0
 10 13  1  0  0  0  0
 13 14  1  0  0  0  0
 13 15  1  0  0  0  0
 13 16  1  0  0  0  0
 16 17  1  0  0  0  0
 16 18  1  0  0  0  0
 16 19  1  0  0  0  0
  5 20  1  0  0  0  0
 20 21  1  0  0  0  0
M  END
> <ChemID>
100886

> <source_casrn>
626-98-7

> <CAS>
NOCAS_862320

> <SMILES>
CC(O)CCCC

> <NAME>
2-Hexanol

> <preferred_name>


> <iupac>


> <MPID>
100887

> <dsstox_substance_id>
DTXSID80862320

> <Canonical_QSARr>
CCCCC(C)O

> <InChI_Code_QSARr>
InChI=1S/C6H14O/c1-3-4-5-6(2)7/h6-7H,3-5H2,1-2H3

> <InChI Key_QSARr>
QNVRIHYSUZMSGM-UHFFFAOYSA-N

> <Salt_Solvent>
?

> <Ready_Biodeg>
0.0

$$$$
100887
  -INDIGO-08031722522D

 38 37  0  0  0  0  0  0  0  0999 V2000
    9.6995    0.8000    0.0000 O   0  0  0  0  0  0  0  0  0  0  0  0
   11.0851    0.0000    0.0000 H   0  0  0  0  0  0  0  0  0  0  0  0
    8.3139    0.0000    0.0000 C   0  0  0  0  0  0  0  0  0  0  0  0
    6.9283    0.8000    0.0000 C   0  0  0  0  0  0  0  0  0  0  0  0
    6.3158    2.2782    0.0000 H   0  0  0  0  0  0  0  0  0  0  0  0
    7.5404    2.2782    0.0000 H   0  0  0  0  0  0  0  0  0  0  0  0
    5.5426    0.0000    0.0000 C   0  0  0  0  0  0  0  0  0  0  0  0
    6.1548   -1.4782    0.0000 H   0  0  0  0  0  0  0  0  0  0  0  0
    4.9302   -1.4782    0.0000 H   0  0  0  0  0  0  0  0  0  0  0  0
    4.1570    0.8000    0.0000 C   0  0  0  0  0  0  0  0  0  0  0  0
    3.5446    2.2782    0.0000 H   0  0  0  0  0  0  0  0  0  0  0  0
    4.7692    2.2782    0.0000 H   0  0  0  0  0  0  0  0  0  0  0  0
    2.7714    0.0000    0.0000 C   0  0  0  0  0  0  0  0  0  0  0  0
    3.3836   -1.4782    0.0000 H   0  0  0  0  0  0  0  0  0  0  0  0
    2.1590   -1.4782    0.0000 H   0  0  0  0  0  0  0  0  0  0  0  0
    1.3858    0.8000    0.0000 C   0  0  0  0  0  0  0  0  0  0  0  0
    0.7733    2.2782    0.0000 H   0  0  0  0  0  0  0  0  0  0  0  0
    1.9979    2.2782    0.0000 H   0  0  0  0  0  0  0  0  0  0  0  0
   -0.0001    0.0000    0.0000 C   0  0  0  0  0  0  0  0  0  0  0  0
    0.6123   -1.4782    0.0000 H   0  0  0  0  0  0  0  0  0  0  0  0
   -0.6123   -1.4782    0.0000 H   0  0  0  0  0  0  0  0  0  0  0  0
   -1.3857    0.8000    0.0000 C   0  0  0  0  0  0  0  0  0  0  0  0
   -1.9979    2.2782    0.0000 H   0  0  0  0  0  0  0  0  0  0  0  0
   -0.7733    2.2782    0.0000 H   0  0  0  0  0  0  0  0  0  0  0  0
   -2.7714    0.0000    0.0000 C   0  0  0  0  0  0  0  0  0  0  0  0
   -2.1589   -1.4782    0.0000 H   0  0  0  0  0  0  0  0  0  0  0  0
   -3.3835   -1.4782    0.0000 H   0  0  0  0  0  0  0  0  0  0  0  0
   -4.1570    0.8000    0.0000 C   0  0  0  0  0  0  0  0  0  0  0  0
   -4.7691    2.2782    0.0000 H   0  0  0  0  0  0  0  0  0  0  0  0
   -3.5445    2.2782    0.0000 H   0  0  0  0  0  0  0  0  0  0  0  0
   -5.5426    0.0000    0.0000 C   0  0  0  0  0  0  0  0  0  0  0  0
   -4.9302   -1.4782    0.0000 H   0  0  0  0  0  0  0  0  0  0  0  0
   -6.1548   -1.4782    0.0000 H   0  0  0  0  0  0  0  0  0  0  0  0
   -6.9282    0.8000    0.0000 C   0  0  0  0  0  0  0  0  0  0  0  0
   -8.3138    1.6000    0.0000 H   0  0  0  0  0  0  0  0  0  0  0  0
   -8.3138    0.0000    0.0000 H   0  0  0  0  0  0  0  0  0  0  0  0
   -6.9282    2.4000    0.0000 H   0  0  0  0  0  0  0  0  0  0  0  0
    8.3139   -1.6000    0.0000 O   0  0  0  0  0  0  0  0  0  0  0  0
  1  2  1  0  0  0  0
  1  3  1  0  0  0  0
  3  4  1  0  0  0  0
  4  5  1  0  0  0  0
  4  6  1  0  0  0  0
  4  7  1  0  0  0  0
  7  8  1  0  0  0  0
  7  9  1  0  0  0  0
  7 10  1  0  0  0  0
 10 11  1  0  0  0  0
 10 12  1  0  0  0  0
 10 13  1  0  0  0  0
 13 14  1  0  0  0  0
 13 15  1  0  0  0  0
 13 16  1  0  0  0  0
 16 17  1  0  0  0  0
 16 18  1  0  0  0  0
 16 19  1  0  0  0  0
 19 20  1  0  0  0  0
 19 21  1  0  0  0  0
 19 22  1  0  0  0  0
 22 23  1  0  0  0  0
 22 24  1  0  0  0  0
 22 25  1  0  0  0  0
 25 26  1  0  0  0  0
 25 27  1  0  0  0  0
 25 28  1  0  0  0  0
 28 29  1  0  0  0  0
 28 30  1  0  0  0  0
 28 31  1  0  0  0  0
 31 32  1  0  0  0  0
 31 33  1  0  0  0  0
 31 34  1  0  0  0  0
 34 35  1  0  0  0  0
 34 36  1  0  0  0  0
 34 37  1  0  0  0  0
  3 38  2  0  0  0  0
M  END
> <ChemID>
100887

> <source_casrn>
629-25-4

> <CAS>
629-25-4

> <SMILES>
[Na]OC(=O)CCCCCCCCCCC

> <NAME>
Laurate

> <preferred_name>
Sodium dodecanoate

> <iupac>
sodium dodecanoate

> <MPID>
100888

> <dsstox_substance_id>
DTXSID9044453

> <Canonical_QSARr>
CCCCCCCCCCCC(O)=O

> <InChI_Code_QSARr>
InChI=1S/C12H24O2/c1-2-3-4-5-6-7-8-9-10-11-12(13)14/h2-11H2,1H3,(H,13,14)

> <InChI Key_QSARr>
POULHZVOKOAJMA-UHFFFAOYSA-N

> <Salt_Solvent>
[Na+]

> <Ready_Biodeg>
1.0

$$$$
100888
  -INDIGO-08031722522D

 41 40  0  0  0  0  0  0  0  0999 V2000
    8.3139   -0.0000    0.0000 C   0  0  0  0  0  0  0  0  0  0  0  0
    9.6995   -0.8000    0.0000 H   0  0  0  0  0  0  0  0  0  0  0  0
    9.6995    0.8000    0.0000 H   0  0  0  0  0  0  0  0  0  0  0  0
    8.3139   -1.6000    0.0000 H   0  0  0  0  0  0  0  0  0  0  0  0
    6.9282    0.8000    0.0000 C   0  0  0  0  0  0  0  0  0  0  0  0
    6.3158    2.2782    0.0000 H   0  0  0  0  0  0  0  0  0  0  0  0
    7.5404    2.2782    0.0000 H   0  0  0  0  0  0  0  0  0  0  0  0
    5.5426   -0.0000    0.0000 C   0  0  0  0  0  0  0  0  0  0  0  0
    6.1548   -1.4782    0.0000 H   0  0  0  0  0  0  0  0  0  0  0  0
    4.9302   -1.4782    0.0000 H   0  0  0  0  0  0  0  0  0  0  0  0
    4.1570    0.8000    0.0000 C   0  0  0  0  0  0  0  0  0  0  0  0
    3.5446    2.2782    0.0000 H   0  0  0  0  0  0  0  0  0  0  0  0
    4.7692    2.2782    0.0000 H   0  0  0  0  0  0  0  0  0  0  0  0
    2.7714   -0.0000    0.0000 C   0  0  0  0  0  0  0  0  0  0  0  0
    3.3835   -1.4782    0.0000 H   0  0  0  0  0  0  0  0  0  0  0  0
    2.1589   -1.4782    0.0000 H   0  0  0  0  0  0  0  0  0  0  0  0
    1.3858    0.8000    0.0000 C   0  0  0  0  0  0  0  0  0  0  0  0
    0.7733    2.2782    0.0000 H   0  0  0  0  0  0  0  0  0  0  0  0
    1.9979    2.2782    0.0000 H   0  0  0  0  0  0  0  0  0  0  0  0
    0.0001   -0.0000    0.0000 C   0  0  0  0  0  0  0  0  0  0  0  0
    0.6123   -1.4782    0.0000 H   0  0  0  0  0  0  0  0  0  0  0  0
   -0.6123   -1.4782    0.0000 H   0  0  0  0  0  0  0  0  0  0  0  0
   -1.3858    0.8000    0.0000 C   0  0  0  0  0  0  0  0  0  0  0  0
   -1.9979    2.2782    0.0000 H   0  0  0  0  0  0  0  0  0  0  0  0
   -0.7733    2.2782    0.0000 H   0  0  0  0  0  0  0  0  0  0  0  0
   -2.7714   -0.0000    0.0000 C   0  0  0  0  0  0  0  0  0  0  0  0
   -2.1589   -1.4782    0.0000 H   0  0  0  0  0  0  0  0  0  0  0  0
   -3.3835   -1.4782    0.0000 H   0  0  0  0  0  0  0  0  0  0  0  0
   -4.1570    0.8000    0.0000 C   0  0  0  0  0  0  0  0  0  0  0  0
   -4.7692    2.2782    0.0000 H   0  0  0  0  0  0  0  0  0  0  0  0
   -3.5446    2.2782    0.0000 H   0  0  0  0  0  0  0  0  0  0  0  0
   -5.5426   -0.0000    0.0000 C   0  0  0  0  0  0  0  0  0  0  0  0
   -4.9302   -1.4782    0.0000 H   0  0  0  0  0  0  0  0  0  0  0  0
   -6.1548   -1.4782    0.0000 H   0  0  0  0  0  0  0  0  0  0  0  0
   -6.9282    0.8000    0.0000 C   0  0  0  0  0  0  0  0  0  0  0  0
   -7.5404    2.2782    0.0000 H   0  0  0  0  0  0  0  0  0  0  0  0
   -6.3158    2.2782    0.0000 H   0  0  0  0  0  0  0  0  0  0  0  0
   -8.3139   -0.0000    0.0000 C   0  0  0  0  0  0  0  0  0  0  0  0
   -9.6995   -0.8000    0.0000 H   0  0  0  0  0  0  0  0  0  0  0  0
   -9.6995    0.8000    0.0000 H   0  0  0  0  0  0  0  0  0  0  0  0
   -8.3139   -1.6000    0.0000 H   0  0  0  0  0  0  0  0  0  0  0  0
  1  2  1  0  0  0  0
  1  3  1  0  0  0  0
  1  4  1  0  0  0  0
  1  5  1  0  0  0  0
  5  6  1  0  0  0  0
  5  7  1  0  0  0  0
  5  8  1  0  0  0  0
  8  9  1  0  0  0  0
  8 10  1  0  0  0  0
  8 11  1  0  0  0  0
 11 12  1  0  0  0  0
 11 13  1  0  0  0  0
 11 14  1  0  0  0  0
 14 15  1  0  0  0  0
 14 16  1  0  0  0  0
 14 17  1  0  0  0  0
 17 18  1  0  0  0  0
 17 19  1  0  0  0  0
 17 20  1  0  0  0  0
 20 21  1  0  0  0  0
 20 22  1  0  0  0  0
 20 23  1  0  0  0  0
 23 24  1  0  0  0  0
 23 25  1  0  0  0  0
 23 26  1  0  0  0  0
 26 27  1  0  0  0  0
 26 28  1  0  0  0  0
 26 29  1  0  0  0  0
 29 30  1  0  0  0  0
 29 31  1  0  0  0  0
 29 32  1  0  0  0  0
 32 33  1  0  0  0  0
 32 34  1  0  0  0  0
 32 35  1  0  0  0  0
 35 36  1  0  0  0  0
 35 37  1  0  0  0  0
 35 38  1  0  0  0  0
 38 39  1  0  0  0  0
 38 40  1  0  0  0  0
 38 41  1  0  0  0  0
M  END
> <ChemID>
100888

> <source_casrn>
629-50-5

> <CAS>
629-50-5

> <SMILES>
CCCCCCCCCCCCC

> <NAME>
Tridecane

> <preferred_name>
Tridecane

> <iupac>
tridecane

> <MPID>
100889

> <dsstox_substance_id>
DTXSID6027266

> <Canonical_QSARr>
CCCCCCCCCCCCC

> <InChI_Code_QSARr>
InChI=1S/C13H28/c1-3-5-7-9-11-13-12-10-8-6-4-2/h3-13H2,1-2H3

> <InChI Key_QSARr>
IIYFAKIEWZDVMP-UHFFFAOYSA-N

> <Salt_Solvent>
?

> <Ready_Biodeg>
1.0

$$$$
100890
  -INDIGO-08031722522D

 47 46  0  0  0  0  0  0  0  0999 V2000
    9.6995    0.8000    0.0000 C   0  0  0  0  0  0  0  0  0  0  0  0
   11.0851    1.6000    0.0000 H   0  0  0  0  0  0  0  0  0  0  0  0
   11.0851    0.0000    0.0000 H   0  0  0  0  0  0  0  0  0  0  0  0
    9.6995    2.4000    0.0000 H   0  0  0  0  0  0  0  0  0  0  0  0
    8.3138    0.0000    0.0000 C   0  0  0  0  0  0  0  0  0  0  0  0
    8.9261   -1.4782    0.0000 H   0  0  0  0  0  0  0  0  0  0  0  0
    7.7015   -1.4782    0.0000 H   0  0  0  0  0  0  0  0  0  0  0  0
    6.9281    0.8000    0.0000 C   0  0  0  0  0  0  0  0  0  0  0  0
    6.3158    2.2782    0.0000 H   0  0  0  0  0  0  0  0  0  0  0  0
    7.5405    2.2782    0.0000 H   0  0  0  0  0  0  0  0  0  0  0  0
    5.5425    0.0000    0.0000 C   0  0  0  0  0  0  0  0  0  0  0  0
    6.1548   -1.4782    0.0000 H   0  0  0  0  0  0  0  0  0  0  0  0
    4.9302   -1.4782    0.0000 H   0  0  0  0  0  0  0  0  0  0  0  0
    4.1568    0.8000    0.0000 C   0  0  0  0  0  0  0  0  0  0  0  0
    3.5445    2.2782    0.0000 H   0  0  0  0  0  0  0  0  0  0  0  0
    4.7691    2.2782    0.0000 H   0  0  0  0  0  0  0  0  0  0  0  0
    2.7712    0.0000    0.0000 C   0  0  0  0  0  0  0  0  0  0  0  0
    3.3835   -1.4782    0.0000 H   0  0  0  0  0  0  0  0  0  0  0  0
    2.1588   -1.4782    0.0000 H   0  0  0  0  0  0  0  0  0  0  0  0
    1.3855    0.8000    0.0000 C   0  0  0  0  0  0  0  0  0  0  0  0
    0.7735    2.2782    0.0000 H   0  0  0  0  0  0  0  0  0  0  0  0
    1.9978    2.2782    0.0000 H   0  0  0  0  0  0  0  0  0  0  0  0
   -0.0002    0.0000    0.0000 C   0  0  0  0  0  0  0  0  0  0  0  0
    0.6121   -1.4782    0.0000 H   0  0  0  0  0  0  0  0  0  0  0  0
   -0.6121   -1.4782    0.0000 H   0  0  0  0  0  0  0  0  0  0  0  0
   -1.3855    0.8000    0.0000 C   0  0  0  0  0  0  0  0  0  0  0  0
   -1.9978    2.2782    0.0000 H   0  0  0  0  0  0  0  0  0  0  0  0
   -0.7735    2.2782    0.0000 H   0  0  0  0  0  0  0  0  0  0  0  0
   -2.7712    0.0000    0.0000 C   0  0  0  0  0  0  0  0  0  0  0  0
   -2.1588   -1.4782    0.0000 H   0  0  0  0  0  0  0  0  0  0  0  0
   -3.3835   -1.4782    0.0000 H   0  0  0  0  0  0  0  0  0  0  0  0
   -4.1568    0.8000    0.0000 C   0  0  0  0  0  0  0  0  0  0  0  0
   -4.7691    2.2782    0.0000 H   0  0  0  0  0  0  0  0  0  0  0  0
   -3.5445    2.2782    0.0000 H   0  0  0  0  0  0  0  0  0  0  0  0
   -5.5425    0.0000    0.0000 C   0  0  0  0  0  0  0  0  0  0  0  0
   -4.9302   -1.4782    0.0000 H   0  0  0  0  0  0  0  0  0  0  0  0
   -6.1548   -1.4782    0.0000 H   0  0  0  0  0  0  0  0  0  0  0  0
   -6.9281    0.8000    0.0000 C   0  0  0  0  0  0  0  0  0  0  0  0
   -7.5405    2.2782    0.0000 H   0  0  0  0  0  0  0  0  0  0  0  0
   -6.3158    2.2782    0.0000 H   0  0  0  0  0  0  0  0  0  0  0  0
   -8.3138    0.0000    0.0000 C   0  0  0  0  0  0  0  0  0  0  0  0
   -7.7015   -1.4782    0.0000 H   0  0  0  0  0  0  0  0  0  0  0  0
   -8.9261   -1.4782    0.0000 H   0  0  0  0  0  0  0  0  0  0  0  0
   -9.6995    0.8000    0.0000 C   0  0  0  0  0  0  0  0  0  0  0  0
  -11.0851    1.6000    0.0000 H   0  0  0  0  0  0  0  0  0  0  0  0
  -11.0851    0.0000    0.0000 H   0  0  0  0  0  0  0  0  0  0  0  0
   -9.6995    2.4000    0.0000 H   0  0  0  0  0  0  0  0  0  0  0  0
  1  2  1  0  0  0  0
  1  3  1  0  0  0  0
  1  4  1  0  0  0  0
  1  5  1  0  0  0  0
  5  6  1  0  0  0  0
  5  7  1  0  0  0  0
  5  8  1  0  0  0  0
  8  9  1  0  0  0  0
  8 10  1  0  0  0  0
  8 11  1  0  0  0  0
 11 12  1  0  0  0  0
 11 13  1  0  0  0  0
 11 14  1  0  0  0  0
 14 15  1  0  0  0  0
 14 16  1  0  0  0  0
 14 17  1  0  0  0  0
 17 18  1  0  0  0  0
 17 19  1  0  0  0  0
 17 20  1  0  0  0  0
 20 21  1  0  0  0  0
 20 22  1  0  0  0  0
 20 23  1  0  0  0  0
 23 24  1  0  0  0  0
 23 25  1  0  0  0  0
 23 26  1  0  0  0  0
 26 27  1  0  0  0  0
 26 28  1  0  0  0  0
 26 29  1  0  0  0  0
 29 30  1  0  0  0  0
 29 31  1  0  0  0  0
 29 32  1  0  0  0  0
 32 33  1  0  0  0  0
 32 34  1  0  0  0  0
 32 35  1  0  0  0  0
 35 36  1  0  0  0  0
 35 37  1  0  0  0  0
 35 38  1  0  0  0  0
 38 39  1  0  0  0  0
 38 40  1  0  0  0  0
 38 41  1  0  0  0  0
 41 42  1  0  0  0  0
 41 43  1  0  0  0  0
 41 44  1  0  0  0  0
 44 45  1  0  0  0  0
 44 46  1  0  0  0  0
 44 47  1  0  0  0  0
M  END
> <ChemID>
100890

> <source_casrn>
629-62-9

> <CAS>
629-62-9

> <SMILES>
CCCCCCCCCCCCCCC

> <NAME>
Pentadecane

> <preferred_name>
Pentadecane

> <iupac>
pentadecane

> <MPID>
100891

> <dsstox_substance_id>
DTXSID6027268

> <Canonical_QSARr>
CCCCCCCCCCCCCCC

> <InChI_Code_QSARr>
InChI=1S/C15H32/c1-3-5-7-9-11-13-15-14-12-10-8-6-4-2/h3-15H2,1-2H3

> <InChI Key_QSARr>
YCOZIPAWZNQLMR-UHFFFAOYSA-N

> <Salt_Solvent>
?

> <Ready_Biodeg>
1.0

$$$$
100891
  -INDIGO-08031722522D

 48 47  0  0  0  0  0  0  0  0999 V2000
   11.0851    0.0000    0.0000 C   0  0  0  0  0  0  0  0  0  0  0  0
   12.4708    0.8000    0.0000 H   0  0  0  0  0  0  0  0  0  0  0  0
   11.0851   -1.6000    0.0000 H   0  0  0  0  0  0  0  0  0  0  0  0
    9.6995    0.8000    0.0000 C   0  0  0  0  0  0  0  0  0  0  0  0
    9.6995    2.4000    0.0000 H   0  0  0  0  0  0  0  0  0  0  0  0
    8.3138    0.0000    0.0000 C   0  0  0  0  0  0  0  0  0  0  0  0
    7.7017   -1.4782    0.0000 H   0  0  0  0  0  0  0  0  0  0  0  0
    8.9260   -1.4782    0.0000 H   0  0  0  0  0  0  0  0  0  0  0  0
    6.9282    0.8000    0.0000 C   0  0  0  0  0  0  0  0  0  0  0  0
    7.5403    2.2782    0.0000 H   0  0  0  0  0  0  0  0  0  0  0  0
    6.3161    2.2782    0.0000 H   0  0  0  0  0  0  0  0  0  0  0  0
    5.5426    0.0000    0.0000 C   0  0  0  0  0  0  0  0  0  0  0  0
    4.9304   -1.4782    0.0000 H   0  0  0  0  0  0  0  0  0  0  0  0
    6.1547   -1.4782    0.0000 H   0  0  0  0  0  0  0  0  0  0  0  0
    4.1569    0.8000    0.0000 C   0  0  0  0  0  0  0  0  0  0  0  0
    4.7690    2.2782    0.0000 H   0  0  0  0  0  0  0  0  0  0  0  0
    3.5448    2.2782    0.0000 H   0  0  0  0  0  0  0  0  0  0  0  0
    2.7713    0.0000    0.0000 C   0  0  0  0  0  0  0  0  0  0  0  0
    2.1592   -1.4782    0.0000 H   0  0  0  0  0  0  0  0  0  0  0  0
    3.3834   -1.4782    0.0000 H   0  0  0  0  0  0  0  0  0  0  0  0
    1.3856    0.8000    0.0000 C   0  0  0  0  0  0  0  0  0  0  0  0
    1.9978    2.2782    0.0000 H   0  0  0  0  0  0  0  0  0  0  0  0
    0.7735    2.2782    0.0000 H   0  0  0  0  0  0  0  0  0  0  0  0
    0.0000    0.0000    0.0000 C   0  0  0  0  0  0  0  0  0  0  0  0
   -0.6121   -1.4782    0.0000 H   0  0  0  0  0  0  0  0  0  0  0  0
    0.6121   -1.4782    0.0000 H   0  0  0  0  0  0  0  0  0  0  0  0
   -1.3856    0.8000    0.0000 C   0  0  0  0  0  0  0  0  0  0  0  0
   -0.7735    2.2782    0.0000 H   0  0  0  0  0  0  0  0  0  0  0  0
   -1.9978    2.2782    0.0000 H   0  0  0  0  0  0  0  0  0  0  0  0
   -2.7713    0.0000    0.0000 C   0  0  0  0  0  0  0  0  0  0  0  0
   -3.3834   -1.4782    0.0000 H   0  0  0  0  0  0  0  0  0  0  0  0
   -2.1592   -1.4782    0.0000 H   0  0  0  0  0  0  0  0  0  0  0  0
   -4.1569    0.8000    0.0000 C   0  0  0  0  0  0  0  0  0  0  0  0
   -3.5448    2.2782    0.0000 H   0  0  0  0  0  0  0  0  0  0  0  0
   -4.7690    2.2782    0.0000 H   0  0  0  0  0  0  0  0  0  0  0  0
   -5.5426    0.0000    0.0000 C   0  0  0  0  0  0  0  0  0  0  0  0
   -6.1547   -1.4782    0.0000 H   0  0  0  0  0  0  0  0  0  0  0  0
   -4.9304   -1.4782    0.0000 H   0  0  0  0  0  0  0  0  0  0  0  0
   -6.9282    0.8000    0.0000 C   0  0  0  0  0  0  0  0  0  0  0  0
   -6.3161    2.2782    0.0000 H   0  0  0  0  0  0  0  0  0  0  0  0
   -7.5403    2.2782    0.0000 H   0  0  0  0  0  0  0  0  0  0  0  0
   -8.3138    0.0000    0.0000 C   0  0  0  0  0  0  0  0  0  0  0  0
   -8.9260   -1.4782    0.0000 H   0  0  0  0  0  0  0  0  0  0  0  0
   -7.7017   -1.4782    0.0000 H   0  0  0  0  0  0  0  0  0  0  0  0
   -9.6995    0.8000    0.0000 C   0  0  0  0  0  0  0  0  0  0  0  0
  -11.0851    1.6000    0.0000 H   0  0  0  0  0  0  0  0  0  0  0  0
  -11.0851    0.0000    0.0000 H   0  0  0  0  0  0  0  0  0  0  0  0
   -9.6995    2.4000    0.0000 H   0  0  0  0  0  0  0  0  0  0  0  0
  1  2  1  0  0  0  0
  1  3  1  0  0  0  0
  1  4  2  0  0  0  0
  4  5  1  0  0  0  0
  4  6  1  0  0  0  0
  6  7  1  0  0  0  0
  6  8  1  0  0  0  0
  6  9  1  0  0  0  0
  9 10  1  0  0  0  0
  9 11  1  0  0  0  0
  9 12  1  0  0  0  0
 12 13  1  0  0  0  0
 12 14  1  0  0  0  0
 12 15  1  0  0  0  0
 15 16  1  0  0  0  0
 15 17  1  0  0  0  0
 15 18  1  0  0  0  0
 18 19  1  0  0  0  0
 18 20  1  0  0  0  0
 18 21  1  0  0  0  0
 21 22  1  0  0  0  0
 21 23  1  0  0  0  0
 21 24  1  0  0  0  0
 24 25  1  0  0  0  0
 24 26  1  0  0  0  0
 24 27  1  0  0  0  0
 27 28  1  0  0  0  0
 27 29  1  0  0  0  0
 27 30  1  0  0  0  0
 30 31  1  0  0  0  0
 30 32  1  0  0  0  0
 30 33  1  0  0  0  0
 33 34  1  0  0  0  0
 33 35  1  0  0  0  0
 33 36  1  0  0  0  0
 36 37  1  0  0  0  0
 36 38  1  0  0  0  0
 36 39  1  0  0  0  0
 39 40  1  0  0  0  0
 39 41  1  0  0  0  0
 39 42  1  0  0  0  0
 42 43  1  0  0  0  0
 42 44  1  0  0  0  0
 42 45  1  0  0  0  0
 45 46  1  0  0  0  0
 45 47  1  0  0  0  0
 45 48  1  0  0  0  0
M  END
> <ChemID>
100891

> <source_casrn>
629-73-2

> <CAS>
629-73-2

> <SMILES>
CCCCCCCCCCCCCCC=C

> <NAME>
1-Hexadecene

> <preferred_name>
1-Hexadecene

> <iupac>
hexadec-1-ene

> <MPID>
100892

> <dsstox_substance_id>
DTXSID1027269

> <Canonical_QSARr>
CCCCCCCCCCCCCCC=C

> <InChI_Code_QSARr>
InChI=1S/C16H32/c1-3-5-7-9-11-13-15-16-14-12-10-8-6-4-2/h3H,1,4-16H2,2H3

> <InChI Key_QSARr>
GQEZCXVZFLOKMC-UHFFFAOYSA-N

> <Salt_Solvent>
?

> <Ready_Biodeg>
1.0

$$$$
100892
  -INDIGO-08031722522D

 48 47  0  0  0  0  0  0  0  0999 V2000
   -9.6995    0.8000    0.0000 C   0  0  0  0  0  0  0  0  0  0  0  0
   -9.0874    2.2782    0.0000 H   0  0  0  0  0  0  0  0  0  0  0  0
  -10.3116    2.2782    0.0000 H   0  0  0  0  0  0  0  0  0  0  0  0
   -8.3138   -0.0000    0.0000 C   0  0  0  0  0  0  0  0  0  0  0  0
   -8.9260   -1.4782    0.0000 H   0  0  0  0  0  0  0  0  0  0  0  0
   -7.7017   -1.4782    0.0000 H   0  0  0  0  0  0  0  0  0  0  0  0
   -6.9282    0.8000    0.0000 C   0  0  0  0  0  0  0  0  0  0  0  0
   -6.3161    2.2782    0.0000 H   0  0  0  0  0  0  0  0  0  0  0  0
   -7.5403    2.2782    0.0000 H   0  0  0  0  0  0  0  0  0  0  0  0
   -5.5426   -0.0000    0.0000 C   0  0  0  0  0  0  0  0  0  0  0  0
   -6.1547   -1.4782    0.0000 H   0  0  0  0  0  0  0  0  0  0  0  0
   -4.9304   -1.4782    0.0000 H   0  0  0  0  0  0  0  0  0  0  0  0
   -4.1569    0.8000    0.0000 C   0  0  0  0  0  0  0  0  0  0  0  0
   -3.5448    2.2782    0.0000 H   0  0  0  0  0  0  0  0  0  0  0  0
   -4.7690    2.2782    0.0000 H   0  0  0  0  0  0  0  0  0  0  0  0
   -2.7713   -0.0000    0.0000 C   0  0  0  0  0  0  0  0  0  0  0  0
   -3.3834   -1.4782    0.0000 H   0  0  0  0  0  0  0  0  0  0  0  0
   -2.1592   -1.4782    0.0000 H   0  0  0  0  0  0  0  0  0  0  0  0
   -1.3856    0.8000    0.0000 C   0  0  0  0  0  0  0  0  0  0  0  0
   -0.7735    2.2782    0.0000 H   0  0  0  0  0  0  0  0  0  0  0  0
   -1.9978    2.2782    0.0000 H   0  0  0  0  0  0  0  0  0  0  0  0
    0.0000   -0.0000    0.0000 C   0  0  0  0  0  0  0  0  0  0  0  0
   -0.6121   -1.4782    0.0000 H   0  0  0  0  0  0  0  0  0  0  0  0
    0.6121   -1.4782    0.0000 H   0  0  0  0  0  0  0  0  0  0  0  0
    1.3856    0.8000    0.0000 C   0  0  0  0  0  0  0  0  0  0  0  0
    1.9978    2.2782    0.0000 H   0  0  0  0  0  0  0  0  0  0  0  0
    0.7735    2.2782    0.0000 H   0  0  0  0  0  0  0  0  0  0  0  0
    2.7713   -0.0000    0.0000 C   0  0  0  0  0  0  0  0  0  0  0  0
    2.1592   -1.4782    0.0000 H   0  0  0  0  0  0  0  0  0  0  0  0
    3.3834   -1.4782    0.0000 H   0  0  0  0  0  0  0  0  0  0  0  0
    4.1569    0.8000    0.0000 C   0  0  0  0  0  0  0  0  0  0  0  0
    4.7690    2.2782    0.0000 H   0  0  0  0  0  0  0  0  0  0  0  0
    3.5448    2.2782    0.0000 H   0  0  0  0  0  0  0  0  0  0  0  0
    5.5426   -0.0000    0.0000 C   0  0  0  0  0  0  0  0  0  0  0  0
    4.9304   -1.4782    0.0000 H   0  0  0  0  0  0  0  0  0  0  0  0
    6.1547   -1.4782    0.0000 H   0  0  0  0  0  0  0  0  0  0  0  0
    6.9282    0.8000    0.0000 C   0  0  0  0  0  0  0  0  0  0  0  0
    7.5403    2.2782    0.0000 H   0  0  0  0  0  0  0  0  0  0  0  0
    6.3161    2.2782    0.0000 H   0  0  0  0  0  0  0  0  0  0  0  0
    8.3138   -0.0000    0.0000 C   0  0  0  0  0  0  0  0  0  0  0  0
    7.7017   -1.4782    0.0000 H   0  0  0  0  0  0  0  0  0  0  0  0
    8.9260   -1.4782    0.0000 H   0  0  0  0  0  0  0  0  0  0  0  0
    9.6995    0.8000    0.0000 C   0  0  0  0  0  0  0  0  0  0  0  0
   11.0851    1.6000    0.0000 H   0  0  0  0  0  0  0  0  0  0  0  0
   11.0851   -0.0000    0.0000 H   0  0  0  0  0  0  0  0  0  0  0  0
    9.6995    2.4000    0.0000 H   0  0  0  0  0  0  0  0  0  0  0  0
  -11.0851   -0.0000    0.0000 O   0  0  0  0  0  0  0  0  0  0  0  0
  -12.4708    0.8000    0.0000 H   0  0  0  0  0  0  0  0  0  0  0  0
  1  2  1  0  0  0  0
  1  3  1  0  0  0  0
  1  4  1  0  0  0  0
  4  5  1  0  0  0  0
  4  6  1  0  0  0  0
  4  7  1  0  0  0  0
  7  8  1  0  0  0  0
  7  9  1  0  0  0  0
  7 10  1  0  0  0  0
 10 11  1  0  0  0  0
 10 12  1  0  0  0  0
 10 13  1  0  0  0  0
 13 14  1  0  0  0  0
 13 15  1  0  0  0  0
 13 16  1  0  0  0  0
 16 17  1  0  0  0  0
 16 18  1  0  0  0  0
 16 19  1  0  0  0  0
 19 20  1  0  0  0  0
 19 21  1  0  0  0  0
 19 22  1  0  0  0  0
 22 23  1  0  0  0  0
 22 24  1  0  0  0  0
 22 25  1  0  0  0  0
 25 26  1  0  0  0  0
 25 27  1  0  0  0  0
 25 28  1  0  0  0  0
 28 29  1  0  0  0  0
 28 30  1  0  0  0  0
 28 31  1  0  0  0  0
 31 32  1  0  0  0  0
 31 33  1  0  0  0  0
 31 34  1  0  0  0  0
 34 35  1  0  0  0  0
 34 36  1  0  0  0  0
 34 37  1  0  0  0  0
 37 38  1  0  0  0  0
 37 39  1  0  0  0  0
 37 40  1  0  0  0  0
 40 41  1  0  0  0  0
 40 42  1  0  0  0  0
 40 43  1  0  0  0  0
 43 44  1  0  0  0  0
 43 45  1  0  0  0  0
 43 46  1  0  0  0  0
  1 47  1  0  0  0  0
 47 48  1  0  0  0  0
M  END
> <ChemID>
100892

> <source_casrn>
629-76-5

> <CAS>
629-76-5

> <SMILES>
CCCCCCCCCCCCCCCO

> <NAME>
1-Pentadecanol

> <preferred_name>
1-Pentadecanol

> <iupac>
pentadecan-1-ol

> <MPID>
100893

> <dsstox_substance_id>
DTXSID0027270

> <Canonical_QSARr>
CCCCCCCCCCCCCCCO

> <InChI_Code_QSARr>
InChI=1S/C15H32O/c1-2-3-4-5-6-7-8-9-10-11-12-13-14-15-16/h16H,2-15H2,1H3

> <InChI Key_QSARr>
REIUXOLGHVXAEO-UHFFFAOYSA-N

> <Salt_Solvent>
?

> <Ready_Biodeg>
1.0

$$$$
100894
  -INDIGO-08031722522D

 51 50  0  0  0  0  0  0  0  0999 V2000
    5.5424   -0.0000    0.0000 O   0  0  0  0  0  0  0  0  0  0  0  0
    6.9281    0.8000    0.0000 C   0  0  0  0  0  0  0  0  0  0  0  0
    7.5404    2.2782    0.0000 H   0  0  0  0  0  0  0  0  0  0  0  0
    6.3161    2.2782    0.0000 H   0  0  0  0  0  0  0  0  0  0  0  0
    8.3138   -0.0000    0.0000 C   0  0  0  0  0  0  0  0  0  0  0  0
    7.7014   -1.4782    0.0000 H   0  0  0  0  0  0  0  0  0  0  0  0
    8.9261   -1.4782    0.0000 H   0  0  0  0  0  0  0  0  0  0  0  0
    9.6995    0.8000    0.0000 C   0  0  0  0  0  0  0  0  0  0  0  0
   10.3118    2.2782    0.0000 H   0  0  0  0  0  0  0  0  0  0  0  0
    9.0871    2.2782    0.0000 H   0  0  0  0  0  0  0  0  0  0  0  0
   11.0852   -0.0000    0.0000 C   0  0  0  0  0  0  0  0  0  0  0  0
   10.4728   -1.4782    0.0000 H   0  0  0  0  0  0  0  0  0  0  0  0
   11.6975   -1.4782    0.0000 H   0  0  0  0  0  0  0  0  0  0  0  0
   12.4709    0.8000    0.0000 C   0  0  0  0  0  0  0  0  0  0  0  0
   13.0829    2.2782    0.0000 H   0  0  0  0  0  0  0  0  0  0  0  0
   11.8585    2.2782    0.0000 H   0  0  0  0  0  0  0  0  0  0  0  0
   13.8562   -0.0000    0.0000 C   0  0  0  0  0  0  0  0  0  0  0  0
   13.2442   -1.4782    0.0000 H   0  0  0  0  0  0  0  0  0  0  0  0
   14.4686   -1.4782    0.0000 H   0  0  0  0  0  0  0  0  0  0  0  0
   15.2419    0.8000    0.0000 C   0  0  0  0  0  0  0  0  0  0  0  0
   15.8543    2.2782    0.0000 H   0  0  0  0  0  0  0  0  0  0  0  0
   14.6299    2.2782    0.0000 H   0  0  0  0  0  0  0  0  0  0  0  0
   16.6276   -0.0000    0.0000 C   0  0  0  0  0  0  0  0  0  0  0  0
   18.0133   -0.8000    0.0000 H   0  0  0  0  0  0  0  0  0  0  0  0
   18.0133    0.8000    0.0000 H   0  0  0  0  0  0  0  0  0  0  0  0
   16.6276   -1.6000    0.0000 H   0  0  0  0  0  0  0  0  0  0  0  0
    4.1570    0.8000    0.0000 C   0  0  0  0  0  0  0  0  0  0  0  0
    4.7690    2.2782    0.0000 H   0  0  0  0  0  0  0  0  0  0  0  0
    3.5447    2.2782    0.0000 H   0  0  0  0  0  0  0  0  0  0  0  0
    2.7713   -0.0000    0.0000 C   0  0  0  0  0  0  0  0  0  0  0  0
    2.1590   -1.4782    0.0000 H   0  0  0  0  0  0  0  0  0  0  0  0
    3.3837   -1.4782    0.0000 H   0  0  0  0  0  0  0  0  0  0  0  0
    1.3856    0.8000    0.0000 C   0  0  0  0  0  0  0  0  0  0  0  0
    1.9980    2.2782    0.0000 H   0  0  0  0  0  0  0  0  0  0  0  0
    0.7733    2.2782    0.0000 H   0  0  0  0  0  0  0  0  0  0  0  0
   -0.0001   -0.0000    0.0000 C   0  0  0  0  0  0  0  0  0  0  0  0
   -0.6124   -1.4782    0.0000 H   0  0  0  0  0  0  0  0  0  0  0  0
    0.6123   -1.4782    0.0000 H   0  0  0  0  0  0  0  0  0  0  0  0
   -1.3858    0.8000    0.0000 C   0  0  0  0  0  0  0  0  0  0  0  0
   -0.7734    2.2782    0.0000 H   0  0  0  0  0  0  0  0  0  0  0  0
   -1.9977    2.2782    0.0000 H   0  0  0  0  0  0  0  0  0  0  0  0
   -2.7711   -0.0000    0.0000 C   0  0  0  0  0  0  0  0  0  0  0  0
   -3.3834   -1.4782    0.0000 H   0  0  0  0  0  0  0  0  0  0  0  0
   -2.1591   -1.4782    0.0000 H   0  0  0  0  0  0  0  0  0  0  0  0
   -4.1568    0.8000    0.0000 C   0  0  0  0  0  0  0  0  0  0  0  0
   -3.5448    2.2782    0.0000 H   0  0  0  0  0  0  0  0  0  0  0  0
   -4.7692    2.2782    0.0000 H   0  0  0  0  0  0  0  0  0  0  0  0
   -5.5425   -0.0000    0.0000 C   0  0  0  0  0  0  0  0  0  0  0  0
   -6.9282   -0.8000    0.0000 H   0  0  0  0  0  0  0  0  0  0  0  0
   -6.9282    0.8000    0.0000 H   0  0  0  0  0  0  0  0  0  0  0  0
   -5.5425   -1.6000    0.0000 H   0  0  0  0  0  0  0  0  0  0  0  0
  1  2  1  0  0  0  0
  2  3  1  0  0  0  0
  2  4  1  0  0  0  0
  2  5  1  0  0  0  0
  5  6  1  0  0  0  0
  5  7  1  0  0  0  0
  5  8  1  0  0  0  0
  8  9  1  0  0  0  0
  8 10  1  0  0  0  0
  8 11  1  0  0  0  0
 11 12  1  0  0  0  0
 11 13  1  0  0  0  0
 11 14  1  0  0  0  0
 14 15  1  0  0  0  0
 14 16  1  0  0  0  0
 14 17  1  0  0  0  0
 17 18  1  0  0  0  0
 17 19  1  0  0  0  0
 17 20  1  0  0  0  0
 20 21  1  0  0  0  0
 20 22  1  0  0  0  0
 20 23  1  0  0  0  0
 23 24  1  0  0  0  0
 23 25  1  0  0  0  0
 23 26  1  0  0  0  0
  1 27  1  0  0  0  0
 27 28  1  0  0  0  0
 27 29  1  0  0  0  0
 27 30  1  0  0  0  0
 30 31  1  0  0  0  0
 30 32  1  0  0  0  0
 30 33  1  0  0  0  0
 33 34  1  0  0  0  0
 33 35  1  0  0  0  0
 33 36  1  0  0  0  0
 36 37  1  0  0  0  0
 36 38  1  0  0  0  0
 36 39  1  0  0  0  0
 39 40  1  0  0  0  0
 39 41  1  0  0  0  0
 39 42  1  0  0  0  0
 42 43  1  0  0  0  0
 42 44  1  0  0  0  0
 42 45  1  0  0  0  0
 45 46  1  0  0  0  0
 45 47  1  0  0  0  0
 45 48  1  0  0  0  0
 48 49  1  0  0  0  0
 48 50  1  0  0  0  0
 48 51  1  0  0  0  0
M  END
> <ChemID>
100894

> <source_casrn>
629-82-3

> <CAS>
NOCAS_862324

> <SMILES>
O(CCCCCCCC)CCCCCCCC

> <NAME>
Di-octyl ether

> <preferred_name>


> <iupac>


> <MPID>
100895

> <dsstox_substance_id>
DTXSID20862324

> <Canonical_QSARr>
CCCCCCCCOCCCCCCCC

> <InChI_Code_QSARr>
InChI=1S/C16H34O/c1-3-5-7-9-11-13-15-17-16-14-12-10-8-6-4-2/h3-16H2,1-2H3

> <InChI Key_QSARr>
NKJOXAZJBOMXID-UHFFFAOYSA-N

> <Salt_Solvent>
?

> <Ready_Biodeg>
1.0

$$$$
100895
  -INDIGO-08031722522D

 59 58  0  0  0  0  0  0  0  0999 V2000
    9.6994   -0.8000    0.0000 C   0  0  0  0  0  0  0  0  0  0  0  0
   11.0851   -1.6000    0.0000 H   0  0  0  0  0  0  0  0  0  0  0  0
   11.0851    0.0000    0.0000 H   0  0  0  0  0  0  0  0  0  0  0  0
    9.6994   -2.4000    0.0000 H   0  0  0  0  0  0  0  0  0  0  0  0
    8.3141    0.0000    0.0000 C   0  0  0  0  0  0  0  0  0  0  0  0
    8.9259    1.4782    0.0000 H   0  0  0  0  0  0  0  0  0  0  0  0
    7.7017    1.4782    0.0000 H   0  0  0  0  0  0  0  0  0  0  0  0
    6.9283   -0.8000    0.0000 C   0  0  0  0  0  0  0  0  0  0  0  0
    6.3160   -2.2782    0.0000 H   0  0  0  0  0  0  0  0  0  0  0  0
    7.5406   -2.2782    0.0000 H   0  0  0  0  0  0  0  0  0  0  0  0
    5.5426    0.0000    0.0000 C   0  0  0  0  0  0  0  0  0  0  0  0
    6.1549    1.4782    0.0000 H   0  0  0  0  0  0  0  0  0  0  0  0
    4.9302    1.4782    0.0000 H   0  0  0  0  0  0  0  0  0  0  0  0
    4.1568   -0.8000    0.0000 C   0  0  0  0  0  0  0  0  0  0  0  0
    3.5445   -2.2782    0.0000 H   0  0  0  0  0  0  0  0  0  0  0  0
    4.7691   -2.2782    0.0000 H   0  0  0  0  0  0  0  0  0  0  0  0
    2.7715    0.0000    0.0000 C   0  0  0  0  0  0  0  0  0  0  0  0
    3.3834    1.4782    0.0000 H   0  0  0  0  0  0  0  0  0  0  0  0
    2.1592    1.4782    0.0000 H   0  0  0  0  0  0  0  0  0  0  0  0
    1.3857   -0.8000    0.0000 C   0  0  0  0  0  0  0  0  0  0  0  0
    0.7734   -2.2782    0.0000 H   0  0  0  0  0  0  0  0  0  0  0  0
    1.9981   -2.2782    0.0000 H   0  0  0  0  0  0  0  0  0  0  0  0
    0.0000    0.0000    0.0000 C   0  0  0  0  0  0  0  0  0  0  0  0
    0.6123    1.4782    0.0000 H   0  0  0  0  0  0  0  0  0  0  0  0
   -0.6123    1.4782    0.0000 H   0  0  0  0  0  0  0  0  0  0  0  0
   -1.3857   -0.8000    0.0000 C   0  0  0  0  0  0  0  0  0  0  0  0
   -1.9981   -2.2782    0.0000 H   0  0  0  0  0  0  0  0  0  0  0  0
   -0.7734   -2.2782    0.0000 H   0  0  0  0  0  0  0  0  0  0  0  0
   -2.7711    0.0000    0.0000 C   0  0  0  0  0  0  0  0  0  0  0  0
   -2.1592    1.4782    0.0000 H   0  0  0  0  0  0  0  0  0  0  0  0
   -3.3834    1.4782    0.0000 H   0  0  0  0  0  0  0  0  0  0  0  0
   -4.1568   -0.8000    0.0000 C   0  0  0  0  0  0  0  0  0  0  0  0
   -4.7691   -2.2782    0.0000 H   0  0  0  0  0  0  0  0  0  0  0  0
   -3.5445   -2.2782    0.0000 H   0  0  0  0  0  0  0  0  0  0  0  0
   -5.5426    0.0000    0.0000 C   0  0  0  0  0  0  0  0  0  0  0  0
   -4.9302    1.4782    0.0000 H   0  0  0  0  0  0  0  0  0  0  0  0
   -6.1549    1.4782    0.0000 H   0  0  0  0  0  0  0  0  0  0  0  0
   -6.9283   -0.8000    0.0000 C   0  0  0  0  0  0  0  0  0  0  0  0
   -7.5406   -2.2782    0.0000 H   0  0  0  0  0  0  0  0  0  0  0  0
   -6.3160   -2.2782    0.0000 H   0  0  0  0  0  0  0  0  0  0  0  0
   -8.3136    0.0000    0.0000 C   0  0  0  0  0  0  0  0  0  0  0  0
   -7.7017    1.4782    0.0000 H   0  0  0  0  0  0  0  0  0  0  0  0
   -8.9260    1.4782    0.0000 H   0  0  0  0  0  0  0  0  0  0  0  0
   -9.6994   -0.8000    0.0000 C   0  0  0  0  0  0  0  0  0  0  0  0
  -10.3117   -2.2782    0.0000 H   0  0  0  0  0  0  0  0  0  0  0  0
   -9.0871   -2.2782    0.0000 H   0  0  0  0  0  0  0  0  0  0  0  0
  -11.0851    0.0000    0.0000 C   0  0  0  0  0  0  0  0  0  0  0  0
  -10.4728    1.4782    0.0000 H   0  0  0  0  0  0  0  0  0  0  0  0
  -11.6974    1.4782    0.0000 H   0  0  0  0  0  0  0  0  0  0  0  0
  -12.4709   -0.8000    0.0000 C   0  0  0  0  0  0  0  0  0  0  0  0
  -13.0832   -2.2782    0.0000 H   0  0  0  0  0  0  0  0  0  0  0  0
  -11.8586   -2.2782    0.0000 H   0  0  0  0  0  0  0  0  0  0  0  0
  -13.8562    0.0000    0.0000 C   0  0  0  0  0  0  0  0  0  0  0  0
  -13.2443    1.4782    0.0000 H   0  0  0  0  0  0  0  0  0  0  0  0
  -14.4685    1.4782    0.0000 H   0  0  0  0  0  0  0  0  0  0  0  0
  -15.2419   -0.8000    0.0000 C   0  0  0  0  0  0  0  0  0  0  0  0
  -16.6277   -1.6000    0.0000 H   0  0  0  0  0  0  0  0  0  0  0  0
  -16.6277    0.0000    0.0000 H   0  0  0  0  0  0  0  0  0  0  0  0
  -15.2419   -2.4000    0.0000 H   0  0  0  0  0  0  0  0  0  0  0  0
  1  2  1  0  0  0  0
  1  3  1  0  0  0  0
  1  4  1  0  0  0  0
  1  5  1  0  0  0  0
  5  6  1  0  0  0  0
  5  7  1  0  0  0  0
  5  8  1  0  0  0  0
  8  9  1  0  0  0  0
  8 10  1  0  0  0  0
  8 11  1  0  0  0  0
 11 12  1  0  0  0  0
 11 13  1  0  0  0  0
 11 14  1  0  0  0  0
 14 15  1  0  0  0  0
 14 16  1  0  0  0  0
 14 17  1  0  0  0  0
 17 18  1  0  0  0  0
 17 19  1  0  0  0  0
 17 20  1  0  0  0  0
 20 21  1  0  0  0  0
 20 22  1  0  0  0  0
 20 23  1  0  0  0  0
 23 24  1  0  0  0  0
 23 25  1  0  0  0  0
 23 26  1  0  0  0  0
 26 27  1  0  0  0  0
 26 28  1  0  0  0  0
 26 29  1  0  0  0  0
 29 30  1  0  0  0  0
 29 31  1  0  0  0  0
 29 32  1  0  0  0  0
 32 33  1  0  0  0  0
 32 34  1  0  0  0  0
 32 35  1  0  0  0  0
 35 36  1  0  0  0  0
 35 37  1  0  0  0  0
 35 38  1  0  0  0  0
 38 39  1  0  0  0  0
 38 40  1  0  0  0  0
 38 41  1  0  0  0  0
 41 42  1  0  0  0  0
 41 43  1  0  0  0  0
 41 44  1  0  0  0  0
 44 45  1  0  0  0  0
 44 46  1  0  0  0  0
 44 47  1  0  0  0  0
 47 48  1  0  0  0  0
 47 49  1  0  0  0  0
 47 50  1  0  0  0  0
 50 51  1  0  0  0  0
 50 52  1  0  0  0  0
 50 53  1  0  0  0  0
 53 54  1  0  0  0  0
 53 55  1  0  0  0  0
 53 56  1  0  0  0  0
 56 57  1  0  0  0  0
 56 58  1  0  0  0  0
 56 59  1  0  0  0  0
M  END
> <ChemID>
100895

> <source_casrn>
629-92-5

> <CAS>
629-92-5

> <SMILES>
CCCCCCCCCCCCCCCCCCC

> <NAME>
Nonadecane

> <preferred_name>
Nonadecane

> <iupac>
nonadecane

> <MPID>
100896

> <dsstox_substance_id>
DTXSID9047170

> <Canonical_QSARr>
CCCCCCCCCCCCCCCCCCC

> <InChI_Code_QSARr>
InChI=1S/C19H40/c1-3-5-7-9-11-13-15-17-19-18-16-14-12-10-8-6-4-2/h3-19H2,1-2H3

> <InChI Key_QSARr>
LQERIDTXQFOHKA-UHFFFAOYSA-N

> <Salt_Solvent>
?

> <Ready_Biodeg>
1.0

$$$$
100896
  -INDIGO-08031722522D

 65 64  0  0  0  0  0  0  0  0999 V2000
    8.3137    0.0000    0.0000 C   0  0  0  0  0  0  0  0  0  0  0  0
    8.9263    1.4782    0.0000 H   0  0  0  0  0  0  0  0  0  0  0  0
    7.7016    1.4782    0.0000 H   0  0  0  0  0  0  0  0  0  0  0  0
    6.9280   -0.8000    0.0000 C   0  0  0  0  0  0  0  0  0  0  0  0
    6.3159   -2.2782    0.0000 H   0  0  0  0  0  0  0  0  0  0  0  0
    7.5406   -2.2782    0.0000 H   0  0  0  0  0  0  0  0  0  0  0  0
    5.5428    0.0000    0.0000 C   0  0  0  0  0  0  0  0  0  0  0  0
    6.1549    1.4782    0.0000 H   0  0  0  0  0  0  0  0  0  0  0  0
    4.9302    1.4782    0.0000 H   0  0  0  0  0  0  0  0  0  0  0  0
    4.1571   -0.8000    0.0000 C   0  0  0  0  0  0  0  0  0  0  0  0
    3.5445   -2.2782    0.0000 H   0  0  0  0  0  0  0  0  0  0  0  0
    4.7692   -2.2782    0.0000 H   0  0  0  0  0  0  0  0  0  0  0  0
    2.7714    0.0000    0.0000 C   0  0  0  0  0  0  0  0  0  0  0  0
    3.3835    1.4782    0.0000 H   0  0  0  0  0  0  0  0  0  0  0  0
    2.1592    1.4782    0.0000 H   0  0  0  0  0  0  0  0  0  0  0  0
    1.3857   -0.8000    0.0000 C   0  0  0  0  0  0  0  0  0  0  0  0
    0.7735   -2.2782    0.0000 H   0  0  0  0  0  0  0  0  0  0  0  0
    1.9978   -2.2782    0.0000 H   0  0  0  0  0  0  0  0  0  0  0  0
   -0.0000    0.0000    0.0000 C   0  0  0  0  0  0  0  0  0  0  0  0
    0.6121    1.4782    0.0000 H   0  0  0  0  0  0  0  0  0  0  0  0
   -0.6122    1.4782    0.0000 H   0  0  0  0  0  0  0  0  0  0  0  0
   -1.3857   -0.8000    0.0000 C   0  0  0  0  0  0  0  0  0  0  0  0
   -1.9979   -2.2782    0.0000 H   0  0  0  0  0  0  0  0  0  0  0  0
   -0.7731   -2.2782    0.0000 H   0  0  0  0  0  0  0  0  0  0  0  0
   -2.7715    0.0000    0.0000 C   0  0  0  0  0  0  0  0  0  0  0  0
   -2.1588    1.4782    0.0000 H   0  0  0  0  0  0  0  0  0  0  0  0
   -3.3836    1.4782    0.0000 H   0  0  0  0  0  0  0  0  0  0  0  0
   -4.1567   -0.8000    0.0000 C   0  0  0  0  0  0  0  0  0  0  0  0
   -4.7693   -2.2782    0.0000 H   0  0  0  0  0  0  0  0  0  0  0  0
   -3.5445   -2.2782    0.0000 H   0  0  0  0  0  0  0  0  0  0  0  0
   -5.5424    0.0000    0.0000 C   0  0  0  0  0  0  0  0  0  0  0  0
   -4.9302    1.4782    0.0000 H   0  0  0  0  0  0  0  0  0  0  0  0
   -6.1550    1.4782    0.0000 H   0  0  0  0  0  0  0  0  0  0  0  0
   -6.9281   -0.8000    0.0000 C   0  0  0  0  0  0  0  0  0  0  0  0
   -7.5407   -2.2782    0.0000 H   0  0  0  0  0  0  0  0  0  0  0  0
   -6.3159   -2.2782    0.0000 H   0  0  0  0  0  0  0  0  0  0  0  0
   -8.3138    0.0000    0.0000 C   0  0  0  0  0  0  0  0  0  0  0  0
   -7.7017    1.4782    0.0000 H   0  0  0  0  0  0  0  0  0  0  0  0
   -8.9259    1.4782    0.0000 H   0  0  0  0  0  0  0  0  0  0  0  0
   -9.6995   -0.8000    0.0000 C   0  0  0  0  0  0  0  0  0  0  0  0
  -10.3117   -2.2782    0.0000 H   0  0  0  0  0  0  0  0  0  0  0  0
   -9.0874   -2.2782    0.0000 H   0  0  0  0  0  0  0  0  0  0  0  0
  -11.0852    0.0000    0.0000 C   0  0  0  0  0  0  0  0  0  0  0  0
  -10.4731    1.4782    0.0000 H   0  0  0  0  0  0  0  0  0  0  0  0
  -11.6974    1.4782    0.0000 H   0  0  0  0  0  0  0  0  0  0  0  0
  -12.4709   -0.8000    0.0000 C   0  0  0  0  0  0  0  0  0  0  0  0
  -13.0831   -2.2782    0.0000 H   0  0  0  0  0  0  0  0  0  0  0  0
  -11.8583   -2.2782    0.0000 H   0  0  0  0  0  0  0  0  0  0  0  0
  -13.8566    0.0000    0.0000 C   0  0  0  0  0  0  0  0  0  0  0  0
  -13.2440    1.4782    0.0000 H   0  0  0  0  0  0  0  0  0  0  0  0
  -14.4688    1.4782    0.0000 H   0  0  0  0  0  0  0  0  0  0  0  0
  -15.2419   -0.8000    0.0000 C   0  0  0  0  0  0  0  0  0  0  0  0
  -15.8545   -2.2782    0.0000 H   0  0  0  0  0  0  0  0  0  0  0  0
  -14.6297   -2.2782    0.0000 H   0  0  0  0  0  0  0  0  0  0  0  0
  -16.6276    0.0000    0.0000 C   0  0  0  0  0  0  0  0  0  0  0  0
  -16.0154    1.4782    0.0000 H   0  0  0  0  0  0  0  0  0  0  0  0
  -17.2402    1.4782    0.0000 H   0  0  0  0  0  0  0  0  0  0  0  0
  -18.0133   -0.8000    0.0000 C   0  0  0  0  0  0  0  0  0  0  0  0
  -19.3990   -1.6000    0.0000 H   0  0  0  0  0  0  0  0  0  0  0  0
  -19.3990    0.0000    0.0000 H   0  0  0  0  0  0  0  0  0  0  0  0
  -18.0133   -2.4000    0.0000 H   0  0  0  0  0  0  0  0  0  0  0  0
    9.6994   -0.8000    0.0000 C   0  0  0  0  0  0  0  0  0  0  0  0
   11.0851   -1.6000    0.0000 H   0  0  0  0  0  0  0  0  0  0  0  0
   11.0851    0.0000    0.0000 H   0  0  0  0  0  0  0  0  0  0  0  0
    9.6994   -2.4000    0.0000 H   0  0  0  0  0  0  0  0  0  0  0  0
  1  2  1  0  0  0  0
  1  3  1  0  0  0  0
  1  4  1  0  0  0  0
  4  5  1  0  0  0  0
  4  6  1  0  0  0  0
  4  7  1  0  0  0  0
  7  8  1  0  0  0  0
  7  9  1  0  0  0  0
  7 10  1  0  0  0  0
 10 11  1  0  0  0  0
 10 12  1  0  0  0  0
 10 13  1  0  0  0  0
 13 14  1  0  0  0  0
 13 15  1  0  0  0  0
 13 16  1  0  0  0  0
 16 17  1  0  0  0  0
 16 18  1  0  0  0  0
 16 19  1  0  0  0  0
 19 20  1  0  0  0  0
 19 21  1  0  0  0  0
 19 22  1  0  0  0  0
 22 23  1  0  0  0  0
 22 24  1  0  0  0  0
 22 25  1  0  0  0  0
 25 26  1  0  0  0  0
 25 27  1  0  0  0  0
 25 28  1  0  0  0  0
 28 29  1  0  0  0  0
 28 30  1  0  0  0  0
 28 31  1  0  0  0  0
 31 32  1  0  0  0  0
 31 33  1  0  0  0  0
 31 34  1  0  0  0  0
 34 35  1  0  0  0  0
 34 36  1  0  0  0  0
 34 37  1  0  0  0  0
 37 38  1  0  0  0  0
 37 39  1  0  0  0  0
 37 40  1  0  0  0  0
 40 41  1  0  0  0  0
 40 42  1  0  0  0  0
 40 43  1  0  0  0  0
 43 44  1  0  0  0  0
 43 45  1  0  0  0  0
 43 46  1  0  0  0  0
 46 47  1  0  0  0  0
 46 48  1  0  0  0  0
 46 49  1  0  0  0  0
 49 50  1  0  0  0  0
 49 51  1  0  0  0  0
 49 52  1  0  0  0  0
 52 53  1  0  0  0  0
 52 54  1  0  0  0  0
 52 55  1  0  0  0  0
 55 56  1  0  0  0  0
 55 57  1  0  0  0  0
 55 58  1  0  0  0  0
 58 59  1  0  0  0  0
 58 60  1  0  0  0  0
 58 61  1  0  0  0  0
  1 62  1  0  0  0  0
 62 63  1  0  0  0  0
 62 64  1  0  0  0  0
 62 65  1  0  0  0  0
M  END
> <ChemID>
100896

> <source_casrn>
629-94-7

> <CAS>
629-94-7

> <SMILES>
CCCCCCCCCCCCCCCCCCCCC

> <NAME>
Heneicosane

> <preferred_name>
Heneicosane

> <iupac>
henicosane

> <MPID>
100897

> <dsstox_substance_id>
DTXSID9047097

> <Canonical_QSARr>
CCCCCCCCCCCCCCCCCCCCC

> <InChI_Code_QSARr>
InChI=1S/C21H44/c1-3-5-7-9-11-13-15-17-19-21-20-18-16-14-12-10-8-6-4-2/h3-21H2,1-2H3

> <InChI Key_QSARr>
FNAZRRHPUDJQCJ-UHFFFAOYSA-N

> <Salt_Solvent>
?

> <Ready_Biodeg>
1.0

$$$$
100898
  -INDIGO-08031722522D

 77 76  0  0  0  0  0  0  0  0999 V2000
    0.0003    0.0000    0.0000 C   0  0  0  0  0  0  0  0  0  0  0  0
    0.6121    1.4782    0.0000 H   0  0  0  0  0  0  0  0  0  0  0  0
   -0.6121    1.4782    0.0000 H   0  0  0  0  0  0  0  0  0  0  0  0
    1.3856   -0.8000    0.0000 C   0  0  0  0  0  0  0  0  0  0  0  0
    0.7732   -2.2782    0.0000 H   0  0  0  0  0  0  0  0  0  0  0  0
    1.9980   -2.2782    0.0000 H   0  0  0  0  0  0  0  0  0  0  0  0
    2.7715    0.0000    0.0000 C   0  0  0  0  0  0  0  0  0  0  0  0
    3.3833    1.4782    0.0000 H   0  0  0  0  0  0  0  0  0  0  0  0
    2.1591    1.4782    0.0000 H   0  0  0  0  0  0  0  0  0  0  0  0
    4.1568   -0.8000    0.0000 C   0  0  0  0  0  0  0  0  0  0  0  0
    3.5444   -2.2782    0.0000 H   0  0  0  0  0  0  0  0  0  0  0  0
    4.7692   -2.2782    0.0000 H   0  0  0  0  0  0  0  0  0  0  0  0
    5.5427    0.0000    0.0000 C   0  0  0  0  0  0  0  0  0  0  0  0
    6.1551    1.4782    0.0000 H   0  0  0  0  0  0  0  0  0  0  0  0
    4.9303    1.4782    0.0000 H   0  0  0  0  0  0  0  0  0  0  0  0
    6.9280   -0.8000    0.0000 C   0  0  0  0  0  0  0  0  0  0  0  0
    6.3161   -2.2782    0.0000 H   0  0  0  0  0  0  0  0  0  0  0  0
    7.5404   -2.2782    0.0000 H   0  0  0  0  0  0  0  0  0  0  0  0
    8.3139    0.0000    0.0000 C   0  0  0  0  0  0  0  0  0  0  0  0
    8.9263    1.4782    0.0000 H   0  0  0  0  0  0  0  0  0  0  0  0
    7.7015    1.4782    0.0000 H   0  0  0  0  0  0  0  0  0  0  0  0
    9.6997   -0.8000    0.0000 C   0  0  0  0  0  0  0  0  0  0  0  0
    9.0873   -2.2782    0.0000 H   0  0  0  0  0  0  0  0  0  0  0  0
   10.3116   -2.2782    0.0000 H   0  0  0  0  0  0  0  0  0  0  0  0
   11.0851    0.0000    0.0000 C   0  0  0  0  0  0  0  0  0  0  0  0
   11.6975    1.4782    0.0000 H   0  0  0  0  0  0  0  0  0  0  0  0
   10.4727    1.4782    0.0000 H   0  0  0  0  0  0  0  0  0  0  0  0
   12.4709   -0.8000    0.0000 C   0  0  0  0  0  0  0  0  0  0  0  0
   11.8585   -2.2782    0.0000 H   0  0  0  0  0  0  0  0  0  0  0  0
   13.0833   -2.2782    0.0000 H   0  0  0  0  0  0  0  0  0  0  0  0
   13.8563    0.0000    0.0000 C   0  0  0  0  0  0  0  0  0  0  0  0
   14.4687    1.4782    0.0000 H   0  0  0  0  0  0  0  0  0  0  0  0
   13.2439    1.4782    0.0000 H   0  0  0  0  0  0  0  0  0  0  0  0
   15.2421   -0.8000    0.0000 C   0  0  0  0  0  0  0  0  0  0  0  0
   14.6297   -2.2782    0.0000 H   0  0  0  0  0  0  0  0  0  0  0  0
   15.8545   -2.2782    0.0000 H   0  0  0  0  0  0  0  0  0  0  0  0
   16.6275    0.0000    0.0000 C   0  0  0  0  0  0  0  0  0  0  0  0
   18.0133    0.8000    0.0000 H   0  0  0  0  0  0  0  0  0  0  0  0
   18.0133   -0.8000    0.0000 H   0  0  0  0  0  0  0  0  0  0  0  0
   16.6275    1.6000    0.0000 H   0  0  0  0  0  0  0  0  0  0  0  0
   -1.3856   -0.8000    0.0000 C   0  0  0  0  0  0  0  0  0  0  0  0
   -1.9980   -2.2782    0.0000 H   0  0  0  0  0  0  0  0  0  0  0  0
   -0.7732   -2.2782    0.0000 H   0  0  0  0  0  0  0  0  0  0  0  0
   -2.7715    0.0000    0.0000 C   0  0  0  0  0  0  0  0  0  0  0  0
   -2.1591    1.4782    0.0000 H   0  0  0  0  0  0  0  0  0  0  0  0
   -3.3833    1.4782    0.0000 H   0  0  0  0  0  0  0  0  0  0  0  0
   -4.1568   -0.8000    0.0000 C   0  0  0  0  0  0  0  0  0  0  0  0
   -4.7692   -2.2782    0.0000 H   0  0  0  0  0  0  0  0  0  0  0  0
   -3.5444   -2.2782    0.0000 H   0  0  0  0  0  0  0  0  0  0  0  0
   -5.5427    0.0000    0.0000 C   0  0  0  0  0  0  0  0  0  0  0  0
   -4.9303    1.4782    0.0000 H   0  0  0  0  0  0  0  0  0  0  0  0
   -6.1551    1.4782    0.0000 H   0  0  0  0  0  0  0  0  0  0  0  0
   -6.9280   -0.8000    0.0000 C   0  0  0  0  0  0  0  0  0  0  0  0
   -7.5404   -2.2782    0.0000 H   0  0  0  0  0  0  0  0  0  0  0  0
   -6.3161   -2.2782    0.0000 H   0  0  0  0  0  0  0  0  0  0  0  0
   -8.3139    0.0000    0.0000 C   0  0  0  0  0  0  0  0  0  0  0  0
   -7.7015    1.4782    0.0000 H   0  0  0  0  0  0  0  0  0  0  0  0
   -8.9263    1.4782    0.0000 H   0  0  0  0  0  0  0  0  0  0  0  0
   -9.6997   -0.8000    0.0000 C   0  0  0  0  0  0  0  0  0  0  0  0
  -10.3116   -2.2782    0.0000 H   0  0  0  0  0  0  0  0  0  0  0  0
   -9.0873   -2.2782    0.0000 H   0  0  0  0  0  0  0  0  0  0  0  0
  -11.0851    0.0000    0.0000 C   0  0  0  0  0  0  0  0  0  0  0  0
  -10.4727    1.4782    0.0000 H   0  0  0  0  0  0  0  0  0  0  0  0
  -11.6975    1.4782    0.0000 H   0  0  0  0  0  0  0  0  0  0  0  0
  -12.4709   -0.8000    0.0000 C   0  0  0  0  0  0  0  0  0  0  0  0
  -13.0828   -2.2782    0.0000 H   0  0  0  0  0  0  0  0  0  0  0  0
  -11.8585   -2.2782    0.0000 H   0  0  0  0  0  0  0  0  0  0  0  0
  -13.8563    0.0000    0.0000 C   0  0  0  0  0  0  0  0  0  0  0  0
  -13.2439    1.4782    0.0000 H   0  0  0  0  0  0  0  0  0  0  0  0
  -14.4687    1.4782    0.0000 H   0  0  0  0  0  0  0  0  0  0  0  0
  -15.2421   -0.8000    0.0000 C   0  0  0  0  0  0  0  0  0  0  0  0
  -15.8545   -2.2782    0.0000 H   0  0  0  0  0  0  0  0  0  0  0  0
  -14.6297   -2.2782    0.0000 H   0  0  0  0  0  0  0  0  0  0  0  0
  -16.6275    0.0000    0.0000 C   0  0  0  0  0  0  0  0  0  0  0  0
  -18.0133    0.8000    0.0000 H   0  0  0  0  0  0  0  0  0  0  0  0
  -18.0133   -0.8000    0.0000 H   0  0  0  0  0  0  0  0  0  0  0  0
  -16.6275    1.6000    0.0000 H   0  0  0  0  0  0  0  0  0  0  0  0
  1  2  1  0  0  0  0
  1  3  1  0  0  0  0
  1  4  1  0  0  0  0
  4  5  1  0  0  0  0
  4  6  1  0  0  0  0
  4  7  1  0  0  0  0
  7  8  1  0  0  0  0
  7  9  1  0  0  0  0
  7 10  1  0  0  0  0
 10 11  1  0  0  0  0
 10 12  1  0  0  0  0
 10 13  1  0  0  0  0
 13 14  1  0  0  0  0
 13 15  1  0  0  0  0
 13 16  1  0  0  0  0
 16 17  1  0  0  0  0
 16 18  1  0  0  0  0
 16 19  1  0  0  0  0
 19 20  1  0  0  0  0
 19 21  1  0  0  0  0
 19 22  1  0  0  0  0
 22 23  1  0  0  0  0
 22 24  1  0  0  0  0
 22 25  1  0  0  0  0
 25 26  1  0  0  0  0
 25 27  1  0  0  0  0
 25 28  1  0  0  0  0
 28 29  1  0  0  0  0
 28 30  1  0  0  0  0
 28 31  1  0  0  0  0
 31 32  1  0  0  0  0
 31 33  1  0  0  0  0
 31 34  1  0  0  0  0
 34 35  1  0  0  0  0
 34 36  1  0  0  0  0
 34 37  1  0  0  0  0
 37 38  1  0  0  0  0
 37 39  1  0  0  0  0
 37 40  1  0  0  0  0
  1 41  1  0  0  0  0
 41 42  1  0  0  0  0
 41 43  1  0  0  0  0
 41 44  1  0  0  0  0
 44 45  1  0  0  0  0
 44 46  1  0  0  0  0
 44 47  1  0  0  0  0
 47 48  1  0  0  0  0
 47 49  1  0  0  0  0
 47 50  1  0  0  0  0
 50 51  1  0  0  0  0
 50 52  1  0  0  0  0
 50 53  1  0  0  0  0
 53 54  1  0  0  0  0
 53 55  1  0  0  0  0
 53 56  1  0  0  0  0
 56 57  1  0  0  0  0
 56 58  1  0  0  0  0
 56 59  1  0  0  0  0
 59 60  1  0  0  0  0
 59 61  1  0  0  0  0
 59 62  1  0  0  0  0
 62 63  1  0  0  0  0
 62 64  1  0  0  0  0
 62 65  1  0  0  0  0
 65 66  1  0  0  0  0
 65 67  1  0  0  0  0
 65 68  1  0  0  0  0
 68 69  1  0  0  0  0
 68 70  1  0  0  0  0
 68 71  1  0  0  0  0
 71 72  1  0  0  0  0
 71 73  1  0  0  0  0
 71 74  1  0  0  0  0
 74 75  1  0  0  0  0
 74 76  1  0  0  0  0
 74 77  1  0  0  0  0
M  END
> <ChemID>
100898

> <source_casrn>
629-99-2

> <CAS>
629-99-2

> <SMILES>
CCCCCCCCCCCCCCCCCCCCCCCCC

> <NAME>
Pentacosane

> <preferred_name>
Pentacosane

> <iupac>
PENTACOSANE

> <MPID>
100899

> <dsstox_substance_id>
DTXSID2060882

> <Canonical_QSARr>
CCCCCCCCCCCCCCCCCCCCCCCCC

> <InChI_Code_QSARr>
InChI=1S/C25H52/c1-3-5-7-9-11-13-15-17-19-21-23-25-24-22-20-18-16-14-12-10-8-6-4-2/h3-25H2,1-2H3

> <InChI Key_QSARr>
YKNWIILGEFFOPE-UHFFFAOYSA-N

> <Salt_Solvent>
?

> <Ready_Biodeg>
1.0

$$$$
100899
  -INDIGO-08031722522D

 80 79  0  0  0  0  0  0  0  0999 V2000
    0.0001    0.0000    0.0000 C   0  0  0  0  0  0  0  0  0  0  0  0
    0.6120    1.4782    0.0000 H   0  0  0  0  0  0  0  0  0  0  0  0
   -0.6125    1.4782    0.0000 H   0  0  0  0  0  0  0  0  0  0  0  0
    1.3856   -0.8000    0.0000 C   0  0  0  0  0  0  0  0  0  0  0  0
    0.7736   -2.2782    0.0000 H   0  0  0  0  0  0  0  0  0  0  0  0
    1.9981   -2.2782    0.0000 H   0  0  0  0  0  0  0  0  0  0  0  0
    2.7711    0.0000    0.0000 C   0  0  0  0  0  0  0  0  0  0  0  0
    3.3836    1.4782    0.0000 H   0  0  0  0  0  0  0  0  0  0  0  0
    2.1591    1.4782    0.0000 H   0  0  0  0  0  0  0  0  0  0  0  0
    4.1572   -0.8000    0.0000 C   0  0  0  0  0  0  0  0  0  0  0  0
    3.5446   -2.2782    0.0000 H   0  0  0  0  0  0  0  0  0  0  0  0
    4.7692   -2.2782    0.0000 H   0  0  0  0  0  0  0  0  0  0  0  0
    5.5427    0.0000    0.0000 C   0  0  0  0  0  0  0  0  0  0  0  0
    6.1547    1.4782    0.0000 H   0  0  0  0  0  0  0  0  0  0  0  0
    4.9301    1.4782    0.0000 H   0  0  0  0  0  0  0  0  0  0  0  0
    6.9282   -0.8000    0.0000 C   0  0  0  0  0  0  0  0  0  0  0  0
    6.3157   -2.2782    0.0000 H   0  0  0  0  0  0  0  0  0  0  0  0
    7.5408   -2.2782    0.0000 H   0  0  0  0  0  0  0  0  0  0  0  0
    8.3137    0.0000    0.0000 C   0  0  0  0  0  0  0  0  0  0  0  0
    8.9263    1.4782    0.0000 H   0  0  0  0  0  0  0  0  0  0  0  0
    7.7017    1.4782    0.0000 H   0  0  0  0  0  0  0  0  0  0  0  0
    9.6992   -0.8000    0.0000 C   0  0  0  0  0  0  0  0  0  0  0  0
    9.0873   -2.2782    0.0000 H   0  0  0  0  0  0  0  0  0  0  0  0
   10.3118   -2.2782    0.0000 H   0  0  0  0  0  0  0  0  0  0  0  0
   11.0853    0.0000    0.0000 C   0  0  0  0  0  0  0  0  0  0  0  0
   11.6973    1.4782    0.0000 H   0  0  0  0  0  0  0  0  0  0  0  0
   10.4728    1.4782    0.0000 H   0  0  0  0  0  0  0  0  0  0  0  0
   12.4708   -0.8000    0.0000 C   0  0  0  0  0  0  0  0  0  0  0  0
   11.8583   -2.2782    0.0000 H   0  0  0  0  0  0  0  0  0  0  0  0
   13.0828   -2.2782    0.0000 H   0  0  0  0  0  0  0  0  0  0  0  0
   13.8563    0.0000    0.0000 C   0  0  0  0  0  0  0  0  0  0  0  0
   14.4689    1.4782    0.0000 H   0  0  0  0  0  0  0  0  0  0  0  0
   13.2444    1.4782    0.0000 H   0  0  0  0  0  0  0  0  0  0  0  0
   15.2419   -0.8000    0.0000 C   0  0  0  0  0  0  0  0  0  0  0  0
   14.6299   -2.2782    0.0000 H   0  0  0  0  0  0  0  0  0  0  0  0
   15.8544   -2.2782    0.0000 H   0  0  0  0  0  0  0  0  0  0  0  0
   16.6279    0.0000    0.0000 C   0  0  0  0  0  0  0  0  0  0  0  0
   17.2399    1.4782    0.0000 H   0  0  0  0  0  0  0  0  0  0  0  0
   16.0154    1.4782    0.0000 H   0  0  0  0  0  0  0  0  0  0  0  0
   18.0135   -0.8000    0.0000 C   0  0  0  0  0  0  0  0  0  0  0  0
   19.3990   -1.6000    0.0000 H   0  0  0  0  0  0  0  0  0  0  0  0
   19.3990    0.0000    0.0000 H   0  0  0  0  0  0  0  0  0  0  0  0
   18.0135   -2.4000    0.0000 H   0  0  0  0  0  0  0  0  0  0  0  0
   -1.3854   -0.8000    0.0000 C   0  0  0  0  0  0  0  0  0  0  0  0
   -1.9980   -2.2782    0.0000 H   0  0  0  0  0  0  0  0  0  0  0  0
   -0.7735   -2.2782    0.0000 H   0  0  0  0  0  0  0  0  0  0  0  0
   -2.7715    0.0000    0.0000 C   0  0  0  0  0  0  0  0  0  0  0  0
   -2.1590    1.4782    0.0000 H   0  0  0  0  0  0  0  0  0  0  0  0
   -3.3835    1.4782    0.0000 H   0  0  0  0  0  0  0  0  0  0  0  0
   -4.1570   -0.8000    0.0000 C   0  0  0  0  0  0  0  0  0  0  0  0
   -4.7690   -2.2782    0.0000 H   0  0  0  0  0  0  0  0  0  0  0  0
   -3.5445   -2.2782    0.0000 H   0  0  0  0  0  0  0  0  0  0  0  0
   -5.5426    0.0000    0.0000 C   0  0  0  0  0  0  0  0  0  0  0  0
   -4.9300    1.4782    0.0000 H   0  0  0  0  0  0  0  0  0  0  0  0
   -6.1551    1.4782    0.0000 H   0  0  0  0  0  0  0  0  0  0  0  0
   -6.9281   -0.8000    0.0000 C   0  0  0  0  0  0  0  0  0  0  0  0
   -7.5406   -2.2782    0.0000 H   0  0  0  0  0  0  0  0  0  0  0  0
   -6.3161   -2.2782    0.0000 H   0  0  0  0  0  0  0  0  0  0  0  0
   -8.3136    0.0000    0.0000 C   0  0  0  0  0  0  0  0  0  0  0  0
   -7.7016    1.4782    0.0000 H   0  0  0  0  0  0  0  0  0  0  0  0
   -8.9261    1.4782    0.0000 H   0  0  0  0  0  0  0  0  0  0  0  0
   -9.6997   -0.8000    0.0000 C   0  0  0  0  0  0  0  0  0  0  0  0
  -10.3117   -2.2782    0.0000 H   0  0  0  0  0  0  0  0  0  0  0  0
   -9.0871   -2.2782    0.0000 H   0  0  0  0  0  0  0  0  0  0  0  0
  -11.0852    0.0000    0.0000 C   0  0  0  0  0  0  0  0  0  0  0  0
  -10.4726    1.4782    0.0000 H   0  0  0  0  0  0  0  0  0  0  0  0
  -11.6972    1.4782    0.0000 H   0  0  0  0  0  0  0  0  0  0  0  0
  -12.4707   -0.8000    0.0000 C   0  0  0  0  0  0  0  0  0  0  0  0
  -13.0833   -2.2782    0.0000 H   0  0  0  0  0  0  0  0  0  0  0  0
  -11.8587   -2.2782    0.0000 H   0  0  0  0  0  0  0  0  0  0  0  0
  -13.8562    0.0000    0.0000 C   0  0  0  0  0  0  0  0  0  0  0  0
  -13.2442    1.4782    0.0000 H   0  0  0  0  0  0  0  0  0  0  0  0
  -14.4688    1.4782    0.0000 H   0  0  0  0  0  0  0  0  0  0  0  0
  -15.2423   -0.8000    0.0000 C   0  0  0  0  0  0  0  0  0  0  0  0
  -15.8543   -2.2782    0.0000 H   0  0  0  0  0  0  0  0  0  0  0  0
  -14.6298   -2.2782    0.0000 H   0  0  0  0  0  0  0  0  0  0  0  0
  -16.6278    0.0000    0.0000 C   0  0  0  0  0  0  0  0  0  0  0  0
  -18.0133    0.8000    0.0000 H   0  0  0  0  0  0  0  0  0  0  0  0
  -18.0133   -0.8000    0.0000 H   0  0  0  0  0  0  0  0  0  0  0  0
  -16.6278    1.6000    0.0000 H   0  0  0  0  0  0  0  0  0  0  0  0
  1  2  1  0  0  0  0
  1  3  1  0  0  0  0
  1  4  1  0  0  0  0
  4  5  1  0  0  0  0
  4  6  1  0  0  0  0
  4  7  1  0  0  0  0
  7  8  1  0  0  0  0
  7  9  1  0  0  0  0
  7 10  1  0  0  0  0
 10 11  1  0  0  0  0
 10 12  1  0  0  0  0
 10 13  1  0  0  0  0
 13 14  1  0  0  0  0
 13 15  1  0  0  0  0
 13 16  1  0  0  0  0
 16 17  1  0  0  0  0
 16 18  1  0  0  0  0
 16 19  1  0  0  0  0
 19 20  1  0  0  0  0
 19 21  1  0  0  0  0
 19 22  1  0  0  0  0
 22 23  1  0  0  0  0
 22 24  1  0  0  0  0
 22 25  1  0  0  0  0
 25 26  1  0  0  0  0
 25 27  1  0  0  0  0
 25 28  1  0  0  0  0
 28 29  1  0  0  0  0
 28 30  1  0  0  0  0
 28 31  1  0  0  0  0
 31 32  1  0  0  0  0
 31 33  1  0  0  0  0
 31 34  1  0  0  0  0
 34 35  1  0  0  0  0
 34 36  1  0  0  0  0
 34 37  1  0  0  0  0
 37 38  1  0  0  0  0
 37 39  1  0  0  0  0
 37 40  1  0  0  0  0
 40 41  1  0  0  0  0
 40 42  1  0  0  0  0
 40 43  1  0  0  0  0
  1 44  1  0  0  0  0
 44 45  1  0  0  0  0
 44 46  1  0  0  0  0
 44 47  1  0  0  0  0
 47 48  1  0  0  0  0
 47 49  1  0  0  0  0
 47 50  1  0  0  0  0
 50 51  1  0  0  0  0
 50 52  1  0  0  0  0
 50 53  1  0  0  0  0
 53 54  1  0  0  0  0
 53 55  1  0  0  0  0
 53 56  1  0  0  0  0
 56 57  1  0  0  0  0
 56 58  1  0  0  0  0
 56 59  1  0  0  0  0
 59 60  1  0  0  0  0
 59 61  1  0  0  0  0
 59 62  1  0  0  0  0
 62 63  1  0  0  0  0
 62 64  1  0  0  0  0
 62 65  1  0  0  0  0
 65 66  1  0  0  0  0
 65 67  1  0  0  0  0
 65 68  1  0  0  0  0
 68 69  1  0  0  0  0
 68 70  1  0  0  0  0
 68 71  1  0  0  0  0
 71 72  1  0  0  0  0
 71 73  1  0  0  0  0
 71 74  1  0  0  0  0
 74 75  1  0  0  0  0
 74 76  1  0  0  0  0
 74 77  1  0  0  0  0
 77 78  1  0  0  0  0
 77 79  1  0  0  0  0
 77 80  1  0  0  0  0
M  END
> <ChemID>
100899

> <source_casrn>
630-01-3

> <CAS>
630-01-3

> <SMILES>
CCCCCCCCCCCCCCCCCCCCCCCCCC

> <NAME>
Hexacosane

> <preferred_name>
Hexacosane

> <iupac>
HEXACOSANE

> <MPID>
100900

> <dsstox_substance_id>
DTXSID7060883

> <Canonical_QSARr>
CCCCCCCCCCCCCCCCCCCCCCCCCC

> <InChI_Code_QSARr>
InChI=1S/C26H54/c1-3-5-7-9-11-13-15-17-19-21-23-25-26-24-22-20-18-16-14-12-10-8-6-4-2/h3-26H2,1-2H3

> <InChI Key_QSARr>
HMSWAIKSFDFLKN-UHFFFAOYSA-N

> <Salt_Solvent>
?

> <Ready_Biodeg>
1.0

$$$$
100900
  -INDIGO-08031722522D

 86 85  0  0  0  0  0  0  0  0999 V2000
    0.0003    0.0000    0.0000 C   0  0  0  0  0  0  0  0  0  0  0  0
    0.6122    1.4782    0.0000 H   0  0  0  0  0  0  0  0  0  0  0  0
   -0.6123    1.4782    0.0000 H   0  0  0  0  0  0  0  0  0  0  0  0
    1.3854   -0.8000    0.0000 C   0  0  0  0  0  0  0  0  0  0  0  0
    0.7735   -2.2782    0.0000 H   0  0  0  0  0  0  0  0  0  0  0  0
    1.9979   -2.2782    0.0000 H   0  0  0  0  0  0  0  0  0  0  0  0
    2.7711    0.0000    0.0000 C   0  0  0  0  0  0  0  0  0  0  0  0
    3.3837    1.4782    0.0000 H   0  0  0  0  0  0  0  0  0  0  0  0
    2.1592    1.4782    0.0000 H   0  0  0  0  0  0  0  0  0  0  0  0
    4.1569   -0.8000    0.0000 C   0  0  0  0  0  0  0  0  0  0  0  0
    3.5443   -2.2782    0.0000 H   0  0  0  0  0  0  0  0  0  0  0  0
    4.7694   -2.2782    0.0000 H   0  0  0  0  0  0  0  0  0  0  0  0
    5.5426    0.0000    0.0000 C   0  0  0  0  0  0  0  0  0  0  0  0
    6.1546    1.4782    0.0000 H   0  0  0  0  0  0  0  0  0  0  0  0
    4.9301    1.4782    0.0000 H   0  0  0  0  0  0  0  0  0  0  0  0
    6.9284   -0.8000    0.0000 C   0  0  0  0  0  0  0  0  0  0  0  0
    6.3158   -2.2782    0.0000 H   0  0  0  0  0  0  0  0  0  0  0  0
    7.5403   -2.2782    0.0000 H   0  0  0  0  0  0  0  0  0  0  0  0
    8.3141    0.0000    0.0000 C   0  0  0  0  0  0  0  0  0  0  0  0
    8.9261    1.4782    0.0000 H   0  0  0  0  0  0  0  0  0  0  0  0
    7.7016    1.4782    0.0000 H   0  0  0  0  0  0  0  0  0  0  0  0
    9.6993   -0.8000    0.0000 C   0  0  0  0  0  0  0  0  0  0  0  0
    9.0873   -2.2782    0.0000 H   0  0  0  0  0  0  0  0  0  0  0  0
   10.3118   -2.2782    0.0000 H   0  0  0  0  0  0  0  0  0  0  0  0
   11.0850    0.0000    0.0000 C   0  0  0  0  0  0  0  0  0  0  0  0
   11.6975    1.4782    0.0000 H   0  0  0  0  0  0  0  0  0  0  0  0
   10.4731    1.4782    0.0000 H   0  0  0  0  0  0  0  0  0  0  0  0
   12.4707   -0.8000    0.0000 C   0  0  0  0  0  0  0  0  0  0  0  0
   11.8582   -2.2782    0.0000 H   0  0  0  0  0  0  0  0  0  0  0  0
   13.0833   -2.2782    0.0000 H   0  0  0  0  0  0  0  0  0  0  0  0
   13.8565    0.0000    0.0000 C   0  0  0  0  0  0  0  0  0  0  0  0
   14.4684    1.4782    0.0000 H   0  0  0  0  0  0  0  0  0  0  0  0
   13.2439    1.4782    0.0000 H   0  0  0  0  0  0  0  0  0  0  0  0
   15.2422   -0.8000    0.0000 C   0  0  0  0  0  0  0  0  0  0  0  0
   14.6297   -2.2782    0.0000 H   0  0  0  0  0  0  0  0  0  0  0  0
   15.8542   -2.2782    0.0000 H   0  0  0  0  0  0  0  0  0  0  0  0
   16.6280    0.0000    0.0000 C   0  0  0  0  0  0  0  0  0  0  0  0
   17.2399    1.4782    0.0000 H   0  0  0  0  0  0  0  0  0  0  0  0
   16.0154    1.4782    0.0000 H   0  0  0  0  0  0  0  0  0  0  0  0
   18.0131   -0.8000    0.0000 C   0  0  0  0  0  0  0  0  0  0  0  0
   17.4012   -2.2782    0.0000 H   0  0  0  0  0  0  0  0  0  0  0  0
   18.6257   -2.2782    0.0000 H   0  0  0  0  0  0  0  0  0  0  0  0
   19.3989    0.0000    0.0000 C   0  0  0  0  0  0  0  0  0  0  0  0
   20.7846    0.8000    0.0000 H   0  0  0  0  0  0  0  0  0  0  0  0
   20.7846   -0.8000    0.0000 H   0  0  0  0  0  0  0  0  0  0  0  0
   19.3989    1.6000    0.0000 H   0  0  0  0  0  0  0  0  0  0  0  0
   -1.3855   -0.8000    0.0000 C   0  0  0  0  0  0  0  0  0  0  0  0
   -1.9980   -2.2782    0.0000 H   0  0  0  0  0  0  0  0  0  0  0  0
   -0.7736   -2.2782    0.0000 H   0  0  0  0  0  0  0  0  0  0  0  0
   -2.7712    0.0000    0.0000 C   0  0  0  0  0  0  0  0  0  0  0  0
   -2.1587    1.4782    0.0000 H   0  0  0  0  0  0  0  0  0  0  0  0
   -3.3838    1.4782    0.0000 H   0  0  0  0  0  0  0  0  0  0  0  0
   -4.1570   -0.8000    0.0000 C   0  0  0  0  0  0  0  0  0  0  0  0
   -4.7689   -2.2782    0.0000 H   0  0  0  0  0  0  0  0  0  0  0  0
   -3.5444   -2.2782    0.0000 H   0  0  0  0  0  0  0  0  0  0  0  0
   -5.5427    0.0000    0.0000 C   0  0  0  0  0  0  0  0  0  0  0  0
   -4.9302    1.4782    0.0000 H   0  0  0  0  0  0  0  0  0  0  0  0
   -6.1547    1.4782    0.0000 H   0  0  0  0  0  0  0  0  0  0  0  0
   -6.9285   -0.8000    0.0000 C   0  0  0  0  0  0  0  0  0  0  0  0
   -7.5404   -2.2782    0.0000 H   0  0  0  0  0  0  0  0  0  0  0  0
   -6.3159   -2.2782    0.0000 H   0  0  0  0  0  0  0  0  0  0  0  0
   -8.3136    0.0000    0.0000 C   0  0  0  0  0  0  0  0  0  0  0  0
   -7.7017    1.4782    0.0000 H   0  0  0  0  0  0  0  0  0  0  0  0
   -8.9262    1.4782    0.0000 H   0  0  0  0  0  0  0  0  0  0  0  0
   -9.6994   -0.8000    0.0000 C   0  0  0  0  0  0  0  0  0  0  0  0
  -10.3119   -2.2782    0.0000 H   0  0  0  0  0  0  0  0  0  0  0  0
   -9.0874   -2.2782    0.0000 H   0  0  0  0  0  0  0  0  0  0  0  0
  -11.0851    0.0000    0.0000 C   0  0  0  0  0  0  0  0  0  0  0  0
  -10.4726    1.4782    0.0000 H   0  0  0  0  0  0  0  0  0  0  0  0
  -11.6977    1.4782    0.0000 H   0  0  0  0  0  0  0  0  0  0  0  0
  -12.4708   -0.8000    0.0000 C   0  0  0  0  0  0  0  0  0  0  0  0
  -13.0828   -2.2782    0.0000 H   0  0  0  0  0  0  0  0  0  0  0  0
  -11.8583   -2.2782    0.0000 H   0  0  0  0  0  0  0  0  0  0  0  0
  -13.8566    0.0000    0.0000 C   0  0  0  0  0  0  0  0  0  0  0  0
  -13.2440    1.4782    0.0000 H   0  0  0  0  0  0  0  0  0  0  0  0
  -14.4685    1.4782    0.0000 H   0  0  0  0  0  0  0  0  0  0  0  0
  -15.2423   -0.8000    0.0000 C   0  0  0  0  0  0  0  0  0  0  0  0
  -15.8543   -2.2782    0.0000 H   0  0  0  0  0  0  0  0  0  0  0  0
  -14.6298   -2.2782    0.0000 H   0  0  0  0  0  0  0  0  0  0  0  0
  -16.6275    0.0000    0.0000 C   0  0  0  0  0  0  0  0  0  0  0  0
  -16.0155    1.4782    0.0000 H   0  0  0  0  0  0  0  0  0  0  0  0
  -17.2400    1.4782    0.0000 H   0  0  0  0  0  0  0  0  0  0  0  0
  -18.0132   -0.8000    0.0000 C   0  0  0  0  0  0  0  0  0  0  0  0
  -19.3990   -1.6000    0.0000 H   0  0  0  0  0  0  0  0  0  0  0  0
  -19.3990    0.0000    0.0000 H   0  0  0  0  0  0  0  0  0  0  0  0
  -18.0132   -2.4000    0.0000 H   0  0  0  0  0  0  0  0  0  0  0  0
  1  2  1  0  0  0  0
  1  3  1  0  0  0  0
  1  4  1  0  0  0  0
  4  5  1  0  0  0  0
  4  6  1  0  0  0  0
  4  7  1  0  0  0  0
  7  8  1  0  0  0  0
  7  9  1  0  0  0  0
  7 10  1  0  0  0  0
 10 11  1  0  0  0  0
 10 12  1  0  0  0  0
 10 13  1  0  0  0  0
 13 14  1  0  0  0  0
 13 15  1  0  0  0  0
 13 16  1  0  0  0  0
 16 17  1  0  0  0  0
 16 18  1  0  0  0  0
 16 19  1  0  0  0  0
 19 20  1  0  0  0  0
 19 21  1  0  0  0  0
 19 22  1  0  0  0  0
 22 23  1  0  0  0  0
 22 24  1  0  0  0  0
 22 25  1  0  0  0  0
 25 26  1  0  0  0  0
 25 27  1  0  0  0  0
 25 28  1  0  0  0  0
 28 29  1  0  0  0  0
 28 30  1  0  0  0  0
 28 31  1  0  0  0  0
 31 32  1  0  0  0  0
 31 33  1  0  0  0  0
 31 34  1  0  0  0  0
 34 35  1  0  0  0  0
 34 36  1  0  0  0  0
 34 37  1  0  0  0  0
 37 38  1  0  0  0  0
 37 39  1  0  0  0  0
 37 40  1  0  0  0  0
 40 41  1  0  0  0  0
 40 42  1  0  0  0  0
 40 43  1  0  0  0  0
 43 44  1  0  0  0  0
 43 45  1  0  0  0  0
 43 46  1  0  0  0  0
  1 47  1  0  0  0  0
 47 48  1  0  0  0  0
 47 49  1  0  0  0  0
 47 50  1  0  0  0  0
 50 51  1  0  0  0  0
 50 52  1  0  0  0  0
 50 53  1  0  0  0  0
 53 54  1  0  0  0  0
 53 55  1  0  0  0  0
 53 56  1  0  0  0  0
 56 57  1  0  0  0  0
 56 58  1  0  0  0  0
 56 59  1  0  0  0  0
 59 60  1  0  0  0  0
 59 61  1  0  0  0  0
 59 62  1  0  0  0  0
 62 63  1  0  0  0  0
 62 64  1  0  0  0  0
 62 65  1  0  0  0  0
 65 66  1  0  0  0  0
 65 67  1  0  0  0  0
 65 68  1  0  0  0  0
 68 69  1  0  0  0  0
 68 70  1  0  0  0  0
 68 71  1  0  0  0  0
 71 72  1  0  0  0  0
 71 73  1  0  0  0  0
 71 74  1  0  0  0  0
 74 75  1  0  0  0  0
 74 76  1  0  0  0  0
 74 77  1  0  0  0  0
 77 78  1  0  0  0  0
 77 79  1  0  0  0  0
 77 80  1  0  0  0  0
 80 81  1  0  0  0  0
 80 82  1  0  0  0  0
 80 83  1  0  0  0  0
 83 84  1  0  0  0  0
 83 85  1  0  0  0  0
 83 86  1  0  0  0  0
M  END
> <ChemID>
100900

> <source_casrn>
630-02-4

> <CAS>
630-02-4

> <SMILES>
CCCCCCCCCCCCCCCCCCCCCCCCCCCC

> <NAME>
Octacosane

> <preferred_name>
Octacosane

> <iupac>
Octacosane

> <MPID>
100901

> <dsstox_substance_id>
DTXSID6058639

> <Canonical_QSARr>
CCCCCCCCCCCCCCCCCCCCCCCCCCCC

> <InChI_Code_QSARr>
InChI=1S/C28H58/c1-3-5-7-9-11-13-15-17-19-21-23-25-27-28-26-24-22-20-18-16-14-12-10-8-6-4-2/h3-28H2,1-2H3

> <InChI Key_QSARr>
ZYURHZPYMFLWSH-UHFFFAOYSA-N

> <Salt_Solvent>
?

> <Ready_Biodeg>
1.0

$$$$
100902
  -INDIGO-08031722522D

110109  0  0  0  0  0  0  0  0999 V2000
    0.0001    0.0000    0.0000 C   0  0  0  0  0  0  0  0  0  0  0  0
    0.6126    1.4782    0.0000 H   0  0  0  0  0  0  0  0  0  0  0  0
   -0.6125    1.4782    0.0000 H   0  0  0  0  0  0  0  0  0  0  0  0
    1.3856   -0.8000    0.0000 C   0  0  0  0  0  0  0  0  0  0  0  0
    0.7730   -2.2782    0.0000 H   0  0  0  0  0  0  0  0  0  0  0  0
    1.9981   -2.2782    0.0000 H   0  0  0  0  0  0  0  0  0  0  0  0
    2.7710    0.0000    0.0000 C   0  0  0  0  0  0  0  0  0  0  0  0
    3.3836    1.4782    0.0000 H   0  0  0  0  0  0  0  0  0  0  0  0
    2.1593    1.4782    0.0000 H   0  0  0  0  0  0  0  0  0  0  0  0
    4.1573   -0.8000    0.0000 C   0  0  0  0  0  0  0  0  0  0  0  0
    3.5447   -2.2782    0.0000 H   0  0  0  0  0  0  0  0  0  0  0  0
    4.7690   -2.2782    0.0000 H   0  0  0  0  0  0  0  0  0  0  0  0
    5.5428    0.0000    0.0000 C   0  0  0  0  0  0  0  0  0  0  0  0
    6.1545    1.4782    0.0000 H   0  0  0  0  0  0  0  0  0  0  0  0
    4.9302    1.4782    0.0000 H   0  0  0  0  0  0  0  0  0  0  0  0
    6.9282   -0.8000    0.0000 C   0  0  0  0  0  0  0  0  0  0  0  0
    6.3157   -2.2782    0.0000 H   0  0  0  0  0  0  0  0  0  0  0  0
    7.5408   -2.2782    0.0000 H   0  0  0  0  0  0  0  0  0  0  0  0
    8.3137    0.0000    0.0000 C   0  0  0  0  0  0  0  0  0  0  0  0
    8.9262    1.4782    0.0000 H   0  0  0  0  0  0  0  0  0  0  0  0
    7.7019    1.4782    0.0000 H   0  0  0  0  0  0  0  0  0  0  0  0
    9.6992   -0.8000    0.0000 C   0  0  0  0  0  0  0  0  0  0  0  0
    9.0874   -2.2782    0.0000 H   0  0  0  0  0  0  0  0  0  0  0  0
   10.3117   -2.2782    0.0000 H   0  0  0  0  0  0  0  0  0  0  0  0
   11.0854    0.0000    0.0000 C   0  0  0  0  0  0  0  0  0  0  0  0
   11.6972    1.4782    0.0000 H   0  0  0  0  0  0  0  0  0  0  0  0
   10.4729    1.4782    0.0000 H   0  0  0  0  0  0  0  0  0  0  0  0
   12.4709   -0.8000    0.0000 C   0  0  0  0  0  0  0  0  0  0  0  0
   11.8583   -2.2782    0.0000 H   0  0  0  0  0  0  0  0  0  0  0  0
   13.0834   -2.2782    0.0000 H   0  0  0  0  0  0  0  0  0  0  0  0
   13.8564    0.0000    0.0000 C   0  0  0  0  0  0  0  0  0  0  0  0
   14.4689    1.4782    0.0000 H   0  0  0  0  0  0  0  0  0  0  0  0
   13.2438    1.4782    0.0000 H   0  0  0  0  0  0  0  0  0  0  0  0
   15.2418   -0.8000    0.0000 C   0  0  0  0  0  0  0  0  0  0  0  0
   14.6301   -2.2782    0.0000 H   0  0  0  0  0  0  0  0  0  0  0  0
   15.8544   -2.2782    0.0000 H   0  0  0  0  0  0  0  0  0  0  0  0
   16.6273    0.0000    0.0000 C   0  0  0  0  0  0  0  0  0  0  0  0
   17.2399    1.4782    0.0000 H   0  0  0  0  0  0  0  0  0  0  0  0
   16.0155    1.4782    0.0000 H   0  0  0  0  0  0  0  0  0  0  0  0
   18.0136   -0.8000    0.0000 C   0  0  0  0  0  0  0  0  0  0  0  0
   17.4010   -2.2782    0.0000 H   0  0  0  0  0  0  0  0  0  0  0  0
   18.6253   -2.2782    0.0000 H   0  0  0  0  0  0  0  0  0  0  0  0
   19.3990    0.0000    0.0000 C   0  0  0  0  0  0  0  0  0  0  0  0
   20.0116    1.4782    0.0000 H   0  0  0  0  0  0  0  0  0  0  0  0
   18.7865    1.4782    0.0000 H   0  0  0  0  0  0  0  0  0  0  0  0
   20.7845   -0.8000    0.0000 C   0  0  0  0  0  0  0  0  0  0  0  0
   20.1720   -2.2782    0.0000 H   0  0  0  0  0  0  0  0  0  0  0  0
   21.3971   -2.2782    0.0000 H   0  0  0  0  0  0  0  0  0  0  0  0
   22.1700    0.0000    0.0000 C   0  0  0  0  0  0  0  0  0  0  0  0
   22.7825    1.4782    0.0000 H   0  0  0  0  0  0  0  0  0  0  0  0
   21.5582    1.4782    0.0000 H   0  0  0  0  0  0  0  0  0  0  0  0
   23.5562   -0.8000    0.0000 C   0  0  0  0  0  0  0  0  0  0  0  0
   22.9437   -2.2782    0.0000 H   0  0  0  0  0  0  0  0  0  0  0  0
   24.1680   -2.2782    0.0000 H   0  0  0  0  0  0  0  0  0  0  0  0
   24.9417    0.0000    0.0000 C   0  0  0  0  0  0  0  0  0  0  0  0
   26.3272    0.8000    0.0000 H   0  0  0  0  0  0  0  0  0  0  0  0
   26.3272   -0.8000    0.0000 H   0  0  0  0  0  0  0  0  0  0  0  0
   24.9417    1.6000    0.0000 H   0  0  0  0  0  0  0  0  0  0  0  0
   -1.3854   -0.8000    0.0000 C   0  0  0  0  0  0  0  0  0  0  0  0
   -1.9979   -2.2782    0.0000 H   0  0  0  0  0  0  0  0  0  0  0  0
   -0.7736   -2.2782    0.0000 H   0  0  0  0  0  0  0  0  0  0  0  0
   -2.7716    0.0000    0.0000 C   0  0  0  0  0  0  0  0  0  0  0  0
   -2.1591    1.4782    0.0000 H   0  0  0  0  0  0  0  0  0  0  0  0
   -3.3834    1.4782    0.0000 H   0  0  0  0  0  0  0  0  0  0  0  0
   -4.1571   -0.8000    0.0000 C   0  0  0  0  0  0  0  0  0  0  0  0
   -4.7689   -2.2782    0.0000 H   0  0  0  0  0  0  0  0  0  0  0  0
   -3.5446   -2.2782    0.0000 H   0  0  0  0  0  0  0  0  0  0  0  0
   -5.5426    0.0000    0.0000 C   0  0  0  0  0  0  0  0  0  0  0  0
   -4.9300    1.4782    0.0000 H   0  0  0  0  0  0  0  0  0  0  0  0
   -6.1551    1.4782    0.0000 H   0  0  0  0  0  0  0  0  0  0  0  0
   -6.9281   -0.8000    0.0000 C   0  0  0  0  0  0  0  0  0  0  0  0
   -7.5406   -2.2782    0.0000 H   0  0  0  0  0  0  0  0  0  0  0  0
   -6.3163   -2.2782    0.0000 H   0  0  0  0  0  0  0  0  0  0  0  0
   -8.3135    0.0000    0.0000 C   0  0  0  0  0  0  0  0  0  0  0  0
   -7.7018    1.4782    0.0000 H   0  0  0  0  0  0  0  0  0  0  0  0
   -8.9261    1.4782    0.0000 H   0  0  0  0  0  0  0  0  0  0  0  0
   -9.6998   -0.8000    0.0000 C   0  0  0  0  0  0  0  0  0  0  0  0
  -10.3115   -2.2782    0.0000 H   0  0  0  0  0  0  0  0  0  0  0  0
   -9.0872   -2.2782    0.0000 H   0  0  0  0  0  0  0  0  0  0  0  0
  -11.0853    0.0000    0.0000 C   0  0  0  0  0  0  0  0  0  0  0  0
  -10.4727    1.4782    0.0000 H   0  0  0  0  0  0  0  0  0  0  0  0
  -11.6978    1.4782    0.0000 H   0  0  0  0  0  0  0  0  0  0  0  0
  -12.4707   -0.8000    0.0000 C   0  0  0  0  0  0  0  0  0  0  0  0
  -13.0833   -2.2782    0.0000 H   0  0  0  0  0  0  0  0  0  0  0  0
  -11.8582   -2.2782    0.0000 H   0  0  0  0  0  0  0  0  0  0  0  0
  -13.8562    0.0000    0.0000 C   0  0  0  0  0  0  0  0  0  0  0  0
  -13.2444    1.4782    0.0000 H   0  0  0  0  0  0  0  0  0  0  0  0
  -14.4687    1.4782    0.0000 H   0  0  0  0  0  0  0  0  0  0  0  0
  -15.2417   -0.8000    0.0000 C   0  0  0  0  0  0  0  0  0  0  0  0
  -15.8542   -2.2782    0.0000 H   0  0  0  0  0  0  0  0  0  0  0  0
  -14.6299   -2.2782    0.0000 H   0  0  0  0  0  0  0  0  0  0  0  0
  -16.6279    0.0000    0.0000 C   0  0  0  0  0  0  0  0  0  0  0  0
  -16.0154    1.4782    0.0000 H   0  0  0  0  0  0  0  0  0  0  0  0
  -17.2397    1.4782    0.0000 H   0  0  0  0  0  0  0  0  0  0  0  0
  -18.0134   -0.8000    0.0000 C   0  0  0  0  0  0  0  0  0  0  0  0
  -18.6259   -2.2782    0.0000 H   0  0  0  0  0  0  0  0  0  0  0  0
  -17.4008   -2.2782    0.0000 H   0  0  0  0  0  0  0  0  0  0  0  0
  -19.3989    0.0000    0.0000 C   0  0  0  0  0  0  0  0  0  0  0  0
  -18.7863    1.4782    0.0000 H   0  0  0  0  0  0  0  0  0  0  0  0
  -20.0114    1.4782    0.0000 H   0  0  0  0  0  0  0  0  0  0  0  0
  -20.7843   -0.8000    0.0000 C   0  0  0  0  0  0  0  0  0  0  0  0
  -21.3969   -2.2782    0.0000 H   0  0  0  0  0  0  0  0  0  0  0  0
  -20.1726   -2.2782    0.0000 H   0  0  0  0  0  0  0  0  0  0  0  0
  -22.1706    0.0000    0.0000 C   0  0  0  0  0  0  0  0  0  0  0  0
  -21.5580    1.4782    0.0000 H   0  0  0  0  0  0  0  0  0  0  0  0
  -22.7824    1.4782    0.0000 H   0  0  0  0  0  0  0  0  0  0  0  0
  -23.5561   -0.8000    0.0000 C   0  0  0  0  0  0  0  0  0  0  0  0
  -24.9415   -1.6000    0.0000 H   0  0  0  0  0  0  0  0  0  0  0  0
  -24.9415    0.0000    0.0000 H   0  0  0  0  0  0  0  0  0  0  0  0
  -23.5561   -2.4000    0.0000 H   0  0  0  0  0  0  0  0  0  0  0  0
  1  2  1  0  0  0  0
  1  3  1  0  0  0  0
  1  4  1  0  0  0  0
  4  5  1  0  0  0  0
  4  6  1  0  0  0  0
  4  7  1  0  0  0  0
  7  8  1  0  0  0  0
  7  9  1  0  0  0  0
  7 10  1  0  0  0  0
 10 11  1  0  0  0  0
 10 12  1  0  0  0  0
 10 13  1  0  0  0  0
 13 14  1  0  0  0  0
 13 15  1  0  0  0  0
 13 16  1  0  0  0  0
 16 17  1  0  0  0  0
 16 18  1  0  0  0  0
 16 19  1  0  0  0  0
 19 20  1  0  0  0  0
 19 21  1  0  0  0  0
 19 22  1  0  0  0  0
 22 23  1  0  0  0  0
 22 24  1  0  0  0  0
 22 25  1  0  0  0  0
 25 26  1  0  0  0  0
 25 27  1  0  0  0  0
 25 28  1  0  0  0  0
 28 29  1  0  0  0  0
 28 30  1  0  0  0  0
 28 31  1  0  0  0  0
 31 32  1  0  0  0  0
 31 33  1  0  0  0  0
 31 34  1  0  0  0  0
 34 35  1  0  0  0  0
 34 36  1  0  0  0  0
 34 37  1  0  0  0  0
 37 38  1  0  0  0  0
 37 39  1  0  0  0  0
 37 40  1  0  0  0  0
 40 41  1  0  0  0  0
 40 42  1  0  0  0  0
 40 43  1  0  0  0  0
 43 44  1  0  0  0  0
 43 45  1  0  0  0  0
 43 46  1  0  0  0  0
 46 47  1  0  0  0  0
 46 48  1  0  0  0  0
 46 49  1  0  0  0  0
 49 50  1  0  0  0  0
 49 51  1  0  0  0  0
 49 52  1  0  0  0  0
 52 53  1  0  0  0  0
 52 54  1  0  0  0  0
 52 55  1  0  0  0  0
 55 56  1  0  0  0  0
 55 57  1  0  0  0  0
 55 58  1  0  0  0  0
  1 59  1  0  0  0  0
 59 60  1  0  0  0  0
 59 61  1  0  0  0  0
 59 62  1  0  0  0  0
 62 63  1  0  0  0  0
 62 64  1  0  0  0  0
 62 65  1  0  0  0  0
 65 66  1  0  0  0  0
 65 67  1  0  0  0  0
 65 68  1  0  0  0  0
 68 69  1  0  0  0  0
 68 70  1  0  0  0  0
 68 71  1  0  0  0  0
 71 72  1  0  0  0  0
 71 73  1  0  0  0  0
 71 74  1  0  0  0  0
 74 75  1  0  0  0  0
 74 76  1  0  0  0  0
 74 77  1  0  0  0  0
 77 78  1  0  0  0  0
 77 79  1  0  0  0  0
 77 80  1  0  0  0  0
 80 81  1  0  0  0  0
 80 82  1  0  0  0  0
 80 83  1  0  0  0  0
 83 84  1  0  0  0  0
 83 85  1  0  0  0  0
 83 86  1  0  0  0  0
 86 87  1  0  0  0  0
 86 88  1  0  0  0  0
 86 89  1  0  0  0  0
 89 90  1  0  0  0  0
 89 91  1  0  0  0  0
 89 92  1  0  0  0  0
 92 93  1  0  0  0  0
 92 94  1  0  0  0  0
 92 95  1  0  0  0  0
 95 96  1  0  0  0  0
 95 97  1  0  0  0  0
 95 98  1  0  0  0  0
 98 99  1  0  0  0  0
 98100  1  0  0  0  0
 98101  1  0  0  0  0
101102  1  0  0  0  0
101103  1  0  0  0  0
101104  1  0  0  0  0
104105  1  0  0  0  0
104106  1  0  0  0  0
104107  1  0  0  0  0
107108  1  0  0  0  0
107109  1  0  0  0  0
107110  1  0  0  0  0
M  END
> <ChemID>
100902

> <source_casrn>
630-06-8

> <CAS>
630-06-8

> <SMILES>
CCCCCCCCCCCCCCCCCCCCCCCCCCCCCCCCCCCC

> <NAME>
Hexatriacontane

> <preferred_name>
Hexatriacontane

> <iupac>
HEXATRIACONTANE

> <MPID>
100903

> <dsstox_substance_id>
DTXSID7060885

> <Canonical_QSARr>
CCCCCCCCCCCCCCCCCCCCCCCCCCCCCCCCCCCC

> <InChI_Code_QSARr>
InChI=1S/C36H74/c1-3-5-7-9-11-13-15-17-19-21-23-25-27-29-31-33-35-36-34-32-30-28-26-24-22-20-18-16-14-12-10-8-6-4-2/h3-36H2,1-2H3

> <InChI Key_QSARr>
YDLYQMBWCWFRAI-UHFFFAOYSA-N

> <Salt_Solvent>
?

> <Ready_Biodeg>
1.0

$$$$
100903
  -INDIGO-08031722522D

107106  0  0  0  0  0  0  0  0999 V2000
    0.0004    0.0000    0.0000 C   0  0  0  0  0  0  0  0  0  0  0  0
    0.6124    1.4782    0.0000 H   0  0  0  0  0  0  0  0  0  0  0  0
   -0.6124    1.4782    0.0000 H   0  0  0  0  0  0  0  0  0  0  0  0
    1.3857   -0.8000    0.0000 C   0  0  0  0  0  0  0  0  0  0  0  0
    0.7737   -2.2782    0.0000 H   0  0  0  0  0  0  0  0  0  0  0  0
    1.9977   -2.2782    0.0000 H   0  0  0  0  0  0  0  0  0  0  0  0
    2.7710    0.0000    0.0000 C   0  0  0  0  0  0  0  0  0  0  0  0
    3.3838    1.4782    0.0000 H   0  0  0  0  0  0  0  0  0  0  0  0
    2.1590    1.4782    0.0000 H   0  0  0  0  0  0  0  0  0  0  0  0
    4.1571   -0.8000    0.0000 C   0  0  0  0  0  0  0  0  0  0  0  0
    3.5444   -2.2782    0.0000 H   0  0  0  0  0  0  0  0  0  0  0  0
    4.7691   -2.2782    0.0000 H   0  0  0  0  0  0  0  0  0  0  0  0
    5.5424    0.0000    0.0000 C   0  0  0  0  0  0  0  0  0  0  0  0
    6.1552    1.4782    0.0000 H   0  0  0  0  0  0  0  0  0  0  0  0
    4.9305    1.4782    0.0000 H   0  0  0  0  0  0  0  0  0  0  0  0
    6.9285   -0.8000    0.0000 C   0  0  0  0  0  0  0  0  0  0  0  0
    6.3158   -2.2782    0.0000 H   0  0  0  0  0  0  0  0  0  0  0  0
    7.5405   -2.2782    0.0000 H   0  0  0  0  0  0  0  0  0  0  0  0
    8.3138    0.0000    0.0000 C   0  0  0  0  0  0  0  0  0  0  0  0
    8.9258    1.4782    0.0000 H   0  0  0  0  0  0  0  0  0  0  0  0
    7.7019    1.4782    0.0000 H   0  0  0  0  0  0  0  0  0  0  0  0
    9.6992   -0.8000    0.0000 C   0  0  0  0  0  0  0  0  0  0  0  0
    9.0872   -2.2782    0.0000 H   0  0  0  0  0  0  0  0  0  0  0  0
   10.3119   -2.2782    0.0000 H   0  0  0  0  0  0  0  0  0  0  0  0
   11.0853    0.0000    0.0000 C   0  0  0  0  0  0  0  0  0  0  0  0
   11.6972    1.4782    0.0000 H   0  0  0  0  0  0  0  0  0  0  0  0
   10.4725    1.4782    0.0000 H   0  0  0  0  0  0  0  0  0  0  0  0
   12.4706   -0.8000    0.0000 C   0  0  0  0  0  0  0  0  0  0  0  0
   11.8586   -2.2782    0.0000 H   0  0  0  0  0  0  0  0  0  0  0  0
   13.0833   -2.2782    0.0000 H   0  0  0  0  0  0  0  0  0  0  0  0
   13.8567    0.0000    0.0000 C   0  0  0  0  0  0  0  0  0  0  0  0
   14.4686    1.4782    0.0000 H   0  0  0  0  0  0  0  0  0  0  0  0
   13.2439    1.4782    0.0000 H   0  0  0  0  0  0  0  0  0  0  0  0
   15.2420   -0.8000    0.0000 C   0  0  0  0  0  0  0  0  0  0  0  0
   14.6300   -2.2782    0.0000 H   0  0  0  0  0  0  0  0  0  0  0  0
   15.8540   -2.2782    0.0000 H   0  0  0  0  0  0  0  0  0  0  0  0
   16.6281    0.0000    0.0000 C   0  0  0  0  0  0  0  0  0  0  0  0
   17.2400    1.4782    0.0000 H   0  0  0  0  0  0  0  0  0  0  0  0
   16.0153    1.4782    0.0000 H   0  0  0  0  0  0  0  0  0  0  0  0
   18.0134   -0.8000    0.0000 C   0  0  0  0  0  0  0  0  0  0  0  0
   17.4014   -2.2782    0.0000 H   0  0  0  0  0  0  0  0  0  0  0  0
   18.6254   -2.2782    0.0000 H   0  0  0  0  0  0  0  0  0  0  0  0
   19.3987    0.0000    0.0000 C   0  0  0  0  0  0  0  0  0  0  0  0
   20.0115    1.4782    0.0000 H   0  0  0  0  0  0  0  0  0  0  0  0
   18.7867    1.4782    0.0000 H   0  0  0  0  0  0  0  0  0  0  0  0
   20.7848   -0.8000    0.0000 C   0  0  0  0  0  0  0  0  0  0  0  0
   20.1721   -2.2782    0.0000 H   0  0  0  0  0  0  0  0  0  0  0  0
   21.3968   -2.2782    0.0000 H   0  0  0  0  0  0  0  0  0  0  0  0
   22.1701    0.0000    0.0000 C   0  0  0  0  0  0  0  0  0  0  0  0
   22.7829    1.4782    0.0000 H   0  0  0  0  0  0  0  0  0  0  0  0
   21.5581    1.4782    0.0000 H   0  0  0  0  0  0  0  0  0  0  0  0
   23.5562   -0.8000    0.0000 C   0  0  0  0  0  0  0  0  0  0  0  0
   24.9415   -1.6000    0.0000 H   0  0  0  0  0  0  0  0  0  0  0  0
   24.9415    0.0000    0.0000 H   0  0  0  0  0  0  0  0  0  0  0  0
   23.5562   -2.4000    0.0000 H   0  0  0  0  0  0  0  0  0  0  0  0
   -1.3857   -0.8000    0.0000 C   0  0  0  0  0  0  0  0  0  0  0  0
   -1.9977   -2.2782    0.0000 H   0  0  0  0  0  0  0  0  0  0  0  0
   -0.7730   -2.2782    0.0000 H   0  0  0  0  0  0  0  0  0  0  0  0
   -2.7710    0.0000    0.0000 C   0  0  0  0  0  0  0  0  0  0  0  0
   -2.1590    1.4782    0.0000 H   0  0  0  0  0  0  0  0  0  0  0  0
   -3.3838    1.4782    0.0000 H   0  0  0  0  0  0  0  0  0  0  0  0
   -4.1571   -0.8000    0.0000 C   0  0  0  0  0  0  0  0  0  0  0  0
   -4.7691   -2.2782    0.0000 H   0  0  0  0  0  0  0  0  0  0  0  0
   -3.5444   -2.2782    0.0000 H   0  0  0  0  0  0  0  0  0  0  0  0
   -5.5424    0.0000    0.0000 C   0  0  0  0  0  0  0  0  0  0  0  0
   -4.9305    1.4782    0.0000 H   0  0  0  0  0  0  0  0  0  0  0  0
   -6.1552    1.4782    0.0000 H   0  0  0  0  0  0  0  0  0  0  0  0
   -6.9285   -0.8000    0.0000 C   0  0  0  0  0  0  0  0  0  0  0  0
   -7.5405   -2.2782    0.0000 H   0  0  0  0  0  0  0  0  0  0  0  0
   -6.3158   -2.2782    0.0000 H   0  0  0  0  0  0  0  0  0  0  0  0
   -8.3138    0.0000    0.0000 C   0  0  0  0  0  0  0  0  0  0  0  0
   -7.7019    1.4782    0.0000 H   0  0  0  0  0  0  0  0  0  0  0  0
   -8.9258    1.4782    0.0000 H   0  0  0  0  0  0  0  0  0  0  0  0
   -9.6992   -0.8000    0.0000 C   0  0  0  0  0  0  0  0  0  0  0  0
  -10.3119   -2.2782    0.0000 H   0  0  0  0  0  0  0  0  0  0  0  0
   -9.0872   -2.2782    0.0000 H   0  0  0  0  0  0  0  0  0  0  0  0
  -11.0853    0.0000    0.0000 C   0  0  0  0  0  0  0  0  0  0  0  0
  -10.4725    1.4782    0.0000 H   0  0  0  0  0  0  0  0  0  0  0  0
  -11.6972    1.4782    0.0000 H   0  0  0  0  0  0  0  0  0  0  0  0
  -12.4706   -0.8000    0.0000 C   0  0  0  0  0  0  0  0  0  0  0  0
  -13.0833   -2.2782    0.0000 H   0  0  0  0  0  0  0  0  0  0  0  0
  -11.8586   -2.2782    0.0000 H   0  0  0  0  0  0  0  0  0  0  0  0
  -13.8567    0.0000    0.0000 C   0  0  0  0  0  0  0  0  0  0  0  0
  -13.2439    1.4782    0.0000 H   0  0  0  0  0  0  0  0  0  0  0  0
  -14.4686    1.4782    0.0000 H   0  0  0  0  0  0  0  0  0  0  0  0
  -15.2420   -0.8000    0.0000 C   0  0  0  0  0  0  0  0  0  0  0  0
  -15.8540   -2.2782    0.0000 H   0  0  0  0  0  0  0  0  0  0  0  0
  -14.6300   -2.2782    0.0000 H   0  0  0  0  0  0  0  0  0  0  0  0
  -16.6281    0.0000    0.0000 C   0  0  0  0  0  0  0  0  0  0  0  0
  -16.0153    1.4782    0.0000 H   0  0  0  0  0  0  0  0  0  0  0  0
  -17.2400    1.4782    0.0000 H   0  0  0  0  0  0  0  0  0  0  0  0
  -18.0134   -0.8000    0.0000 C   0  0  0  0  0  0  0  0  0  0  0  0
  -18.6254   -2.2782    0.0000 H   0  0  0  0  0  0  0  0  0  0  0  0
  -17.4014   -2.2782    0.0000 H   0  0  0  0  0  0  0  0  0  0  0  0
  -19.3987    0.0000    0.0000 C   0  0  0  0  0  0  0  0  0  0  0  0
  -18.7867    1.4782    0.0000 H   0  0  0  0  0  0  0  0  0  0  0  0
  -20.0115    1.4782    0.0000 H   0  0  0  0  0  0  0  0  0  0  0  0
  -20.7848   -0.8000    0.0000 C   0  0  0  0  0  0  0  0  0  0  0  0
  -21.3968   -2.2782    0.0000 H   0  0  0  0  0  0  0  0  0  0  0  0
  -20.1721   -2.2782    0.0000 H   0  0  0  0  0  0  0  0  0  0  0  0
  -22.1701    0.0000    0.0000 C   0  0  0  0  0  0  0  0  0  0  0  0
  -21.5581    1.4782    0.0000 H   0  0  0  0  0  0  0  0  0  0  0  0
  -22.7829    1.4782    0.0000 H   0  0  0  0  0  0  0  0  0  0  0  0
  -23.5562   -0.8000    0.0000 C   0  0  0  0  0  0  0  0  0  0  0  0
  -24.9415   -1.6000    0.0000 H   0  0  0  0  0  0  0  0  0  0  0  0
  -24.9415    0.0000    0.0000 H   0  0  0  0  0  0  0  0  0  0  0  0
  -23.5562   -2.4000    0.0000 H   0  0  0  0  0  0  0  0  0  0  0  0
  1  2  1  0  0  0  0
  1  3  1  0  0  0  0
  1  4  1  0  0  0  0
  4  5  1  0  0  0  0
  4  6  1  0  0  0  0
  4  7  1  0  0  0  0
  7  8  1  0  0  0  0
  7  9  1  0  0  0  0
  7 10  1  0  0  0  0
 10 11  1  0  0  0  0
 10 12  1  0  0  0  0
 10 13  1  0  0  0  0
 13 14  1  0  0  0  0
 13 15  1  0  0  0  0
 13 16  1  0  0  0  0
 16 17  1  0  0  0  0
 16 18  1  0  0  0  0
 16 19  1  0  0  0  0
 19 20  1  0  0  0  0
 19 21  1  0  0  0  0
 19 22  1  0  0  0  0
 22 23  1  0  0  0  0
 22 24  1  0  0  0  0
 22 25  1  0  0  0  0
 25 26  1  0  0  0  0
 25 27  1  0  0  0  0
 25 28  1  0  0  0  0
 28 29  1  0  0  0  0
 28 30  1  0  0  0  0
 28 31  1  0  0  0  0
 31 32  1  0  0  0  0
 31 33  1  0  0  0  0
 31 34  1  0  0  0  0
 34 35  1  0  0  0  0
 34 36  1  0  0  0  0
 34 37  1  0  0  0  0
 37 38  1  0  0  0  0
 37 39  1  0  0  0  0
 37 40  1  0  0  0  0
 40 41  1  0  0  0  0
 40 42  1  0  0  0  0
 40 43  1  0  0  0  0
 43 44  1  0  0  0  0
 43 45  1  0  0  0  0
 43 46  1  0  0  0  0
 46 47  1  0  0  0  0
 46 48  1  0  0  0  0
 46 49  1  0  0  0  0
 49 50  1  0  0  0  0
 49 51  1  0  0  0  0
 49 52  1  0  0  0  0
 52 53  1  0  0  0  0
 52 54  1  0  0  0  0
 52 55  1  0  0  0  0
  1 56  1  0  0  0  0
 56 57  1  0  0  0  0
 56 58  1  0  0  0  0
 56 59  1  0  0  0  0
 59 60  1  0  0  0  0
 59 61  1  0  0  0  0
 59 62  1  0  0  0  0
 62 63  1  0  0  0  0
 62 64  1  0  0  0  0
 62 65  1  0  0  0  0
 65 66  1  0  0  0  0
 65 67  1  0  0  0  0
 65 68  1  0  0  0  0
 68 69  1  0  0  0  0
 68 70  1  0  0  0  0
 68 71  1  0  0  0  0
 71 72  1  0  0  0  0
 71 73  1  0  0  0  0
 71 74  1  0  0  0  0
 74 75  1  0  0  0  0
 74 76  1  0  0  0  0
 74 77  1  0  0  0  0
 77 78  1  0  0  0  0
 77 79  1  0  0  0  0
 77 80  1  0  0  0  0
 80 81  1  0  0  0  0
 80 82  1  0  0  0  0
 80 83  1  0  0  0  0
 83 84  1  0  0  0  0
 83 85  1  0  0  0  0
 83 86  1  0  0  0  0
 86 87  1  0  0  0  0
 86 88  1  0  0  0  0
 86 89  1  0  0  0  0
 89 90  1  0  0  0  0
 89 91  1  0  0  0  0
 89 92  1  0  0  0  0
 92 93  1  0  0  0  0
 92 94  1  0  0  0  0
 92 95  1  0  0  0  0
 95 96  1  0  0  0  0
 95 97  1  0  0  0  0
 95 98  1  0  0  0  0
 98 99  1  0  0  0  0
 98100  1  0  0  0  0
 98101  1  0  0  0  0
101102  1  0  0  0  0
101103  1  0  0  0  0
101104  1  0  0  0  0
104105  1  0  0  0  0
104106  1  0  0  0  0
104107  1  0  0  0  0
M  END
> <ChemID>
100903

> <source_casrn>
630-07-9

> <CAS>
630-07-9

> <SMILES>
CCCCCCCCCCCCCCCCCCCCCCCCCCCCCCCCCCC

> <NAME>
PENTATRIACONTANE

> <preferred_name>
Pentatriacontane

> <iupac>
Pentatriacontane

> <MPID>
100904

> <dsstox_substance_id>
DTXSID9074723

> <Canonical_QSARr>
CCCCCCCCCCCCCCCCCCCCCCCCCCCCCCCCCCC

> <InChI_Code_QSARr>
InChI=1S/C35H72/c1-3-5-7-9-11-13-15-17-19-21-23-25-27-29-31-33-35-34-32-30-28-26-24-22-20-18-16-14-12-10-8-6-4-2/h3-35H2,1-2H3

> <InChI Key_QSARr>
VHQQPFLOGSTQPC-UHFFFAOYSA-N

> <Salt_Solvent>
?

> <Ready_Biodeg>
1.0

$$$$
100904
  -INDIGO-08031722522D

 16 15  0  0  0  0  0  0  0  0999 V2000
    0.8000   -1.3856    0.0000 C   0  0  0  0  0  0  0  0  0  0  0  0
    1.6000   -2.7713    0.0000 H   0  0  0  0  0  0  0  0  0  0  0  0
   -0.0000   -2.7713    0.0000 H   0  0  0  0  0  0  0  0  0  0  0  0
    2.4000   -1.3856    0.0000 H   0  0  0  0  0  0  0  0  0  0  0  0
   -0.0000    0.0000    0.0000 C   0  0  0  0  0  0  0  0  0  0  0  0
   -0.8000    1.3856    0.0000 C   0  0  0  0  0  0  0  0  0  0  0  0
   -1.6000    2.7713    0.0000 H   0  0  0  0  0  0  0  0  0  0  0  0
   -2.4000    1.3856    0.0000 H   0  0  0  0  0  0  0  0  0  0  0  0
   -0.0000    2.7713    0.0000 H   0  0  0  0  0  0  0  0  0  0  0  0
    1.3856    0.8000    0.0000 C   0  0  0  0  0  0  0  0  0  0  0  0
    2.7713    1.6000    0.0000 H   0  0  0  0  0  0  0  0  0  0  0  0
    2.7713    0.0000    0.0000 H   0  0  0  0  0  0  0  0  0  0  0  0
    1.3856    2.4000    0.0000 H   0  0  0  0  0  0  0  0  0  0  0  0
   -1.3856   -0.8000    0.0000 C   0  0  0  0  0  0  0  0  0  0  0  0
   -1.3856   -2.4000    0.0000 H   0  0  0  0  0  0  0  0  0  0  0  0
   -2.7713    0.0000    0.0000 O   0  0  0  0  0  0  0  0  0  0  0  0
  1  2  1  0  0  0  0
  1  3  1  0  0  0  0
  1  4  1  0  0  0  0
  1  5  1  0  0  0  0
  5  6  1  0  0  0  0
  6  7  1  0  0  0  0
  6  8  1  0  0  0  0
  6  9  1  0  0  0  0
  5 10  1  0  0  0  0
 10 11  1  0  0  0  0
 10 12  1  0  0  0  0
 10 13  1  0  0  0  0
  5 14  1  0  0  0  0
 14 15  1  0  0  0  0
 14 16  2  0  0  0  0
M  END
> <ChemID>
100904

> <source_casrn>
630-19-3

> <CAS>
630-19-3

> <SMILES>
CC(C)(C)C=O

> <NAME>
Pivalaldehyde

> <preferred_name>
Propanal, 2,2-dimethyl-

> <iupac>
2,2-Dimethylpropanal

> <MPID>
100905

> <dsstox_substance_id>
DTXSID2060888

> <Canonical_QSARr>
CC(C)(C)C=O

> <InChI_Code_QSARr>
InChI=1S/C5H10O/c1-5(2,3)4-6/h4H,1-3H3

> <InChI Key_QSARr>
FJJYHTVHBVXEEQ-UHFFFAOYSA-N

> <Salt_Solvent>
?

> <Ready_Biodeg>
1.0

$$$$
100906
  -INDIGO-08031722522D

 12 12  0  0  0  0  0  0  0  0999 V2000
    0.8000    1.3856    0.0000 Cl  0  0  0  0  0  0  0  0  0  0  0  0
   -0.0000   -0.0000    0.0000 C   0  0  0  0  0  0  0  0  0  0  0  0
    0.8000   -1.3857    0.0000 C   0  0  0  0  0  0  0  0  0  0  0  0
    2.4000   -1.3857    0.0000 Cl  0  0  0  0  0  0  0  0  0  0  0  0
   -0.0000   -2.7713    0.0000 C   0  0  0  0  0  0  0  0  0  0  0  0
    0.8000   -4.1569    0.0000 H   0  0  0  0  0  0  0  0  0  0  0  0
   -1.6000   -2.7713    0.0000 C   0  0  0  0  0  0  0  0  0  0  0  0
   -2.4000   -4.1569    0.0000 H   0  0  0  0  0  0  0  0  0  0  0  0
   -2.4000   -1.3856    0.0000 C   0  0  0  0  0  0  0  0  0  0  0  0
   -4.0000   -1.3856    0.0000 Cl  0  0  0  0  0  0  0  0  0  0  0  0
   -1.6000   -0.0000    0.0000 C   0  0  0  0  0  0  0  0  0  0  0  0
   -2.4000    1.3856    0.0000 Cl  0  0  0  0  0  0  0  0  0  0  0  0
  1  2  1  0  0  0  0
  2  3  1  0  0  0  0
  3  4  1  0  0  0  0
  3  5  2  0  0  0  0
  5  6  1  0  0  0  0
  5  7  1  0  0  0  0
  7  8  1  0  0  0  0
  7  9  2  0  0  0  0
  9 10  1  0  0  0  0
  9 11  1  0  0  0  0
 11  2  2  0  0  0  0
 11 12  1  0  0  0  0
M  END
> <ChemID>
100906

> <source_casrn>
634-66-2

> <CAS>
634-66-2

> <SMILES>
Clc1ccc(Cl)c(Cl)c1Cl

> <NAME>
Benzene, 1,2,3,4-tetrachloro-

> <preferred_name>
1,2,3,4-Tetrachlorobenzene

> <iupac>
1,2,3,4-tetrachlorobenzene

> <MPID>
100907

> <dsstox_substance_id>
DTXSID6026088

> <Canonical_QSARr>
Clc1ccc(Cl)c(Cl)c1Cl

> <InChI_Code_QSARr>
InChI=1S/C6H2Cl4/c7-3-1-2-4(8)6(10)5(3)9/h1-2H

> <InChI Key_QSARr>
GBDZXPJXOMHESU-UHFFFAOYSA-N

> <Salt_Solvent>
?

> <Ready_Biodeg>
0.0

$$$$
100907
  -INDIGO-08031722522D

 14 14  0  0  0  0  0  0  0  0999 V2000
    1.6000   -0.0000    0.0000 N   0  0  0  0  0  0  0  0  0  0  0  0
    2.4000    1.3856    0.0000 H   0  0  0  0  0  0  0  0  0  0  0  0
    2.4000   -1.3856    0.0000 H   0  0  0  0  0  0  0  0  0  0  0  0
    0.0000   -0.0000    0.0000 C   0  0  0  0  0  0  0  0  0  0  0  0
   -0.8000    1.3856    0.0000 C   0  0  0  0  0  0  0  0  0  0  0  0
    0.0000    2.7713    0.0000 Cl  0  0  0  0  0  0  0  0  0  0  0  0
   -2.4000    1.3856    0.0000 C   0  0  0  0  0  0  0  0  0  0  0  0
   -3.2000    2.7713    0.0000 H   0  0  0  0  0  0  0  0  0  0  0  0
   -3.2000   -0.0000    0.0000 C   0  0  0  0  0  0  0  0  0  0  0  0
   -4.8000   -0.0000    0.0000 Cl  0  0  0  0  0  0  0  0  0  0  0  0
   -2.4000   -1.3856    0.0000 C   0  0  0  0  0  0  0  0  0  0  0  0
   -3.2000   -2.7713    0.0000 H   0  0  0  0  0  0  0  0  0  0  0  0
   -0.8000   -1.3856    0.0000 C   0  0  0  0  0  0  0  0  0  0  0  0
    0.0000   -2.7713    0.0000 Cl  0  0  0  0  0  0  0  0  0  0  0  0
  1  2  1  0  0  0  0
  1  3  1  0  0  0  0
  1  4  1  0  0  0  0
  4  5  1  0  0  0  0
  5  6  1  0  0  0  0
  5  7  2  0  0  0  0
  7  8  1  0  0  0  0
  7  9  1  0  0  0  0
  9 10  1  0  0  0  0
  9 11  2  0  0  0  0
 11 12  1  0  0  0  0
 11 13  1  0  0  0  0
 13  4  2  0  0  0  0
 13 14  1  0  0  0  0
M  END
> <ChemID>
100907

> <source_casrn>
634-93-5

> <CAS>
634-93-5

> <SMILES>
Nc1c(Cl)cc(Cl)cc1Cl

> <NAME>
Benzenamine, 2,4,6-trichloro-

> <preferred_name>
2,4,6-Trichloroaniline

> <iupac>
2,4,6-trichloroaniline

> <MPID>
100908

> <dsstox_substance_id>
DTXSID6021379

> <Canonical_QSARr>
Nc1c(Cl)cc(Cl)cc1Cl

> <InChI_Code_QSARr>
InChI=1S/C6H4Cl3N/c7-3-1-4(8)6(10)5(9)2-3/h1-2H,10H2

> <InChI Key_QSARr>
NATVSFWWYVJTAZ-UHFFFAOYSA-N

> <Salt_Solvent>
?

> <Ready_Biodeg>
0.0

$$$$
100908
  -INDIGO-08031722522D

 17 17  0  0  0  0  0  0  0  0999 V2000
    0.0000    0.0000    0.0000 C   0  0  0  0  0  0  0  0  0  0  0  0
    0.8000    1.3856    0.0000 C   0  0  0  0  0  0  0  0  0  0  0  0
    0.0000    2.7713    0.0000 N   0  0  0  0  0  0  0  0  0  0  0  0
    0.8000    4.1569    0.0000 H   0  0  0  0  0  0  0  0  0  0  0  0
   -1.6000    2.7713    0.0000 H   0  0  0  0  0  0  0  0  0  0  0  0
    2.4000    1.3856    0.0000 C   0  0  0  0  0  0  0  0  0  0  0  0
    3.2001    2.7713    0.0000 H   0  0  0  0  0  0  0  0  0  0  0  0
    3.2001    0.0000    0.0000 C   0  0  0  0  0  0  0  0  0  0  0  0
    4.8000    0.0000    0.0000 H   0  0  0  0  0  0  0  0  0  0  0  0
    2.4000   -1.3856    0.0000 C   0  0  0  0  0  0  0  0  0  0  0  0
    3.2001   -2.7713    0.0000 Cl  0  0  0  0  0  0  0  0  0  0  0  0
    0.8000   -1.3856    0.0000 C   0  0  0  0  0  0  0  0  0  0  0  0
    0.0000   -2.7713    0.0000 H   0  0  0  0  0  0  0  0  0  0  0  0
   -1.6000    0.0000    0.0000 C   0  0  0  0  0  0  0  0  0  0  0  0
   -2.4001   -1.3856    0.0000 O   0  0  0  0  0  0  0  0  0  0  0  0
   -4.0000   -1.3856    0.0000 H   0  0  0  0  0  0  0  0  0  0  0  0
   -2.4001    1.3856    0.0000 O   0  0  0  0  0  0  0  0  0  0  0  0
  1  2  1  0  0  0  0
  2  3  1  0  0  0  0
  3  4  1  0  0  0  0
  3  5  1  0  0  0  0
  2  6  2  0  0  0  0
  6  7  1  0  0  0  0
  6  8  1  0  0  0  0
  8  9  1  0  0  0  0
  8 10  2  0  0  0  0
 10 11  1  0  0  0  0
 10 12  1  0  0  0  0
 12  1  2  0  0  0  0
 12 13  1  0  0  0  0
  1 14  1  0  0  0  0
 14 15  1  0  0  0  0
 15 16  1  0  0  0  0
 14 17  2  0  0  0  0
M  END
> <ChemID>
100908

> <source_casrn>
635-21-2

> <CAS>
635-21-2

> <SMILES>
Nc1ccc(Cl)cc1C(O)=O

> <NAME>
2-Amino-5-chlorobenzoic acid

> <preferred_name>
Benzoic acid, 2-amino-5-chloro-

> <iupac>
2-AMINO-5-CHLOROBENZOIC ACID

> <MPID>
100909

> <dsstox_substance_id>
DTXSID8060901

> <Canonical_QSARr>
Nc1ccc(Cl)cc1C(O)=O

> <InChI_Code_QSARr>
InChI=1S/C7H6ClNO2/c8-4-1-2-6(9)5(3-4)7(10)11/h1-3H,9H2,(H,10,11)

> <InChI Key_QSARr>
IFXKXCLVKQVVDI-UHFFFAOYSA-N

> <Salt_Solvent>
?

> <Ready_Biodeg>
0.0

$$$$
100910
  -INDIGO-08031722522D

 20 19  0  0  0  0  0  0  0  0999 V2000
    2.7713    0.0000    0.0000 C   0  0  0  0  0  0  0  0  0  0  0  0
    4.1569    0.8000    0.0000 H   0  0  0  0  0  0  0  0  0  0  0  0
    4.1569   -0.8000    0.0000 H   0  0  0  0  0  0  0  0  0  0  0  0
    2.7713    1.6000    0.0000 H   0  0  0  0  0  0  0  0  0  0  0  0
    1.3857   -0.8000    0.0000 C   0  0  0  0  0  0  0  0  0  0  0  0
    0.7734   -2.2782    0.0000 H   0  0  0  0  0  0  0  0  0  0  0  0
    1.9980   -2.2782    0.0000 H   0  0  0  0  0  0  0  0  0  0  0  0
    0.0001    0.0000    0.0000 C   0  0  0  0  0  0  0  0  0  0  0  0
    0.6124    1.4782    0.0000 H   0  0  0  0  0  0  0  0  0  0  0  0
   -0.6122    1.4782    0.0000 H   0  0  0  0  0  0  0  0  0  0  0  0
   -1.3857   -0.8000    0.0000 C   0  0  0  0  0  0  0  0  0  0  0  0
   -1.9980   -2.2782    0.0000 H   0  0  0  0  0  0  0  0  0  0  0  0
   -0.7734   -2.2782    0.0000 H   0  0  0  0  0  0  0  0  0  0  0  0
   -2.7713    0.0000    0.0000 C   0  0  0  0  0  0  0  0  0  0  0  0
   -2.1590    1.4782    0.0000 H   0  0  0  0  0  0  0  0  0  0  0  0
   -3.3836    1.4782    0.0000 H   0  0  0  0  0  0  0  0  0  0  0  0
   -4.1569   -0.8000    0.0000 C   0  0  0  0  0  0  0  0  0  0  0  0
   -5.5426   -1.6000    0.0000 H   0  0  0  0  0  0  0  0  0  0  0  0
   -5.5426    0.0000    0.0000 H   0  0  0  0  0  0  0  0  0  0  0  0
   -4.1569   -2.4000    0.0000 I   0  0  0  0  0  0  0  0  0  0  0  0
  1  2  1  0  0  0  0
  1  3  1  0  0  0  0
  1  4  1  0  0  0  0
  1  5  1  0  0  0  0
  5  6  1  0  0  0  0
  5  7  1  0  0  0  0
  5  8  1  0  0  0  0
  8  9  1  0  0  0  0
  8 10  1  0  0  0  0
  8 11  1  0  0  0  0
 11 12  1  0  0  0  0
 11 13  1  0  0  0  0
 11 14  1  0  0  0  0
 14 15  1  0  0  0  0
 14 16  1  0  0  0  0
 14 17  1  0  0  0  0
 17 18  1  0  0  0  0
 17 19  1  0  0  0  0
 17 20  1  0  0  0  0
M  END
> <ChemID>
100910

> <source_casrn>
638-45-9

> <CAS>
638-45-9

> <SMILES>
CCCCCCI

> <NAME>
1-Iodohexane

> <preferred_name>
Hexane,1-iodo-

> <iupac>
1-iodohexane

> <MPID>
100911

> <dsstox_substance_id>
DTXSID2049341

> <Canonical_QSARr>
CCCCCCI

> <InChI_Code_QSARr>
InChI=1S/C6H13I/c1-2-3-4-5-6-7/h2-6H2,1H3

> <InChI Key_QSARr>
ANOOTOPTCJRUPK-UHFFFAOYSA-N

> <Salt_Solvent>
?

> <Ready_Biodeg>
1.0

$$$$
100911
  -INDIGO-08031722522D

 71 70  0  0  0  0  0  0  0  0999 V2000
    9.6993   -0.8000    0.0000 C   0  0  0  0  0  0  0  0  0  0  0  0
   11.0851   -1.6000    0.0000 H   0  0  0  0  0  0  0  0  0  0  0  0
   11.0851    0.0000    0.0000 H   0  0  0  0  0  0  0  0  0  0  0  0
    9.6993   -2.4000    0.0000 H   0  0  0  0  0  0  0  0  0  0  0  0
    8.3140    0.0000    0.0000 C   0  0  0  0  0  0  0  0  0  0  0  0
    8.9259    1.4782    0.0000 H   0  0  0  0  0  0  0  0  0  0  0  0
    7.7015    1.4782    0.0000 H   0  0  0  0  0  0  0  0  0  0  0  0
    6.9281   -0.8000    0.0000 C   0  0  0  0  0  0  0  0  0  0  0  0
    6.3162   -2.2782    0.0000 H   0  0  0  0  0  0  0  0  0  0  0  0
    7.5406   -2.2782    0.0000 H   0  0  0  0  0  0  0  0  0  0  0  0
    5.5428    0.0000    0.0000 C   0  0  0  0  0  0  0  0  0  0  0  0
    6.1548    1.4782    0.0000 H   0  0  0  0  0  0  0  0  0  0  0  0
    4.9303    1.4782    0.0000 H   0  0  0  0  0  0  0  0  0  0  0  0
    4.1570   -0.8000    0.0000 C   0  0  0  0  0  0  0  0  0  0  0  0
    3.5445   -2.2782    0.0000 H   0  0  0  0  0  0  0  0  0  0  0  0
    4.7695   -2.2782    0.0000 H   0  0  0  0  0  0  0  0  0  0  0  0
    2.7712    0.0000    0.0000 C   0  0  0  0  0  0  0  0  0  0  0  0
    3.3836    1.4782    0.0000 H   0  0  0  0  0  0  0  0  0  0  0  0
    2.1592    1.4782    0.0000 H   0  0  0  0  0  0  0  0  0  0  0  0
    1.3858   -0.8000    0.0000 C   0  0  0  0  0  0  0  0  0  0  0  0
    0.7733   -2.2782    0.0000 H   0  0  0  0  0  0  0  0  0  0  0  0
    1.9978   -2.2782    0.0000 H   0  0  0  0  0  0  0  0  0  0  0  0
    0.0000    0.0000    0.0000 C   0  0  0  0  0  0  0  0  0  0  0  0
    0.6125    1.4782    0.0000 H   0  0  0  0  0  0  0  0  0  0  0  0
   -0.6125    1.4782    0.0000 H   0  0  0  0  0  0  0  0  0  0  0  0
   -1.3858   -0.8000    0.0000 C   0  0  0  0  0  0  0  0  0  0  0  0
   -1.9978   -2.2782    0.0000 H   0  0  0  0  0  0  0  0  0  0  0  0
   -0.7733   -2.2782    0.0000 H   0  0  0  0  0  0  0  0  0  0  0  0
   -2.7712    0.0000    0.0000 C   0  0  0  0  0  0  0  0  0  0  0  0
   -2.1592    1.4782    0.0000 H   0  0  0  0  0  0  0  0  0  0  0  0
   -3.3836    1.4782    0.0000 H   0  0  0  0  0  0  0  0  0  0  0  0
   -4.1570   -0.8000    0.0000 C   0  0  0  0  0  0  0  0  0  0  0  0
   -4.7690   -2.2782    0.0000 H   0  0  0  0  0  0  0  0  0  0  0  0
   -3.5445   -2.2782    0.0000 H   0  0  0  0  0  0  0  0  0  0  0  0
   -5.5423    0.0000    0.0000 C   0  0  0  0  0  0  0  0  0  0  0  0
   -4.9303    1.4782    0.0000 H   0  0  0  0  0  0  0  0  0  0  0  0
   -6.1548    1.4782    0.0000 H   0  0  0  0  0  0  0  0  0  0  0  0
   -6.9281   -0.8000    0.0000 C   0  0  0  0  0  0  0  0  0  0  0  0
   -7.5406   -2.2782    0.0000 H   0  0  0  0  0  0  0  0  0  0  0  0
   -6.3162   -2.2782    0.0000 H   0  0  0  0  0  0  0  0  0  0  0  0
   -8.3140    0.0000    0.0000 C   0  0  0  0  0  0  0  0  0  0  0  0
   -7.7015    1.4782    0.0000 H   0  0  0  0  0  0  0  0  0  0  0  0
   -8.9259    1.4782    0.0000 H   0  0  0  0  0  0  0  0  0  0  0  0
   -9.6993   -0.8000    0.0000 C   0  0  0  0  0  0  0  0  0  0  0  0
  -10.3118   -2.2782    0.0000 H   0  0  0  0  0  0  0  0  0  0  0  0
   -9.0873   -2.2782    0.0000 H   0  0  0  0  0  0  0  0  0  0  0  0
  -11.0851    0.0000    0.0000 C   0  0  0  0  0  0  0  0  0  0  0  0
  -10.4726    1.4782    0.0000 H   0  0  0  0  0  0  0  0  0  0  0  0
  -11.6976    1.4782    0.0000 H   0  0  0  0  0  0  0  0  0  0  0  0
  -12.4710   -0.8000    0.0000 C   0  0  0  0  0  0  0  0  0  0  0  0
  -13.0829   -2.2782    0.0000 H   0  0  0  0  0  0  0  0  0  0  0  0
  -11.8585   -2.2782    0.0000 H   0  0  0  0  0  0  0  0  0  0  0  0
  -13.8563    0.0000    0.0000 C   0  0  0  0  0  0  0  0  0  0  0  0
  -13.2443    1.4782    0.0000 H   0  0  0  0  0  0  0  0  0  0  0  0
  -14.4688    1.4782    0.0000 H   0  0  0  0  0  0  0  0  0  0  0  0
  -15.2421   -0.8000    0.0000 C   0  0  0  0  0  0  0  0  0  0  0  0
  -15.8541   -2.2782    0.0000 H   0  0  0  0  0  0  0  0  0  0  0  0
  -14.6296   -2.2782    0.0000 H   0  0  0  0  0  0  0  0  0  0  0  0
  -16.6279    0.0000    0.0000 C   0  0  0  0  0  0  0  0  0  0  0  0
  -16.0155    1.4782    0.0000 H   0  0  0  0  0  0  0  0  0  0  0  0
  -17.2399    1.4782    0.0000 H   0  0  0  0  0  0  0  0  0  0  0  0
  -18.0133   -0.8000    0.0000 C   0  0  0  0  0  0  0  0  0  0  0  0
  -18.6258   -2.2782    0.0000 H   0  0  0  0  0  0  0  0  0  0  0  0
  -17.4013   -2.2782    0.0000 H   0  0  0  0  0  0  0  0  0  0  0  0
  -19.3991    0.0000    0.0000 C   0  0  0  0  0  0  0  0  0  0  0  0
  -18.7866    1.4782    0.0000 H   0  0  0  0  0  0  0  0  0  0  0  0
  -20.0111    1.4782    0.0000 H   0  0  0  0  0  0  0  0  0  0  0  0
  -20.7844   -0.8000    0.0000 C   0  0  0  0  0  0  0  0  0  0  0  0
  -22.1703   -1.6000    0.0000 H   0  0  0  0  0  0  0  0  0  0  0  0
  -22.1703    0.0000    0.0000 H   0  0  0  0  0  0  0  0  0  0  0  0
  -20.7844   -2.4000    0.0000 H   0  0  0  0  0  0  0  0  0  0  0  0
  1  2  1  0  0  0  0
  1  3  1  0  0  0  0
  1  4  1  0  0  0  0
  1  5  1  0  0  0  0
  5  6  1  0  0  0  0
  5  7  1  0  0  0  0
  5  8  1  0  0  0  0
  8  9  1  0  0  0  0
  8 10  1  0  0  0  0
  8 11  1  0  0  0  0
 11 12  1  0  0  0  0
 11 13  1  0  0  0  0
 11 14  1  0  0  0  0
 14 15  1  0  0  0  0
 14 16  1  0  0  0  0
 14 17  1  0  0  0  0
 17 18  1  0  0  0  0
 17 19  1  0  0  0  0
 17 20  1  0  0  0  0
 20 21  1  0  0  0  0
 20 22  1  0  0  0  0
 20 23  1  0  0  0  0
 23 24  1  0  0  0  0
 23 25  1  0  0  0  0
 23 26  1  0  0  0  0
 26 27  1  0  0  0  0
 26 28  1  0  0  0  0
 26 29  1  0  0  0  0
 29 30  1  0  0  0  0
 29 31  1  0  0  0  0
 29 32  1  0  0  0  0
 32 33  1  0  0  0  0
 32 34  1  0  0  0  0
 32 35  1  0  0  0  0
 35 36  1  0  0  0  0
 35 37  1  0  0  0  0
 35 38  1  0  0  0  0
 38 39  1  0  0  0  0
 38 40  1  0  0  0  0
 38 41  1  0  0  0  0
 41 42  1  0  0  0  0
 41 43  1  0  0  0  0
 41 44  1  0  0  0  0
 44 45  1  0  0  0  0
 44 46  1  0  0  0  0
 44 47  1  0  0  0  0
 47 48  1  0  0  0  0
 47 49  1  0  0  0  0
 47 50  1  0  0  0  0
 50 51  1  0  0  0  0
 50 52  1  0  0  0  0
 50 53  1  0  0  0  0
 53 54  1  0  0  0  0
 53 55  1  0  0  0  0
 53 56  1  0  0  0  0
 56 57  1  0  0  0  0
 56 58  1  0  0  0  0
 56 59  1  0  0  0  0
 59 60  1  0  0  0  0
 59 61  1  0  0  0  0
 59 62  1  0  0  0  0
 62 63  1  0  0  0  0
 62 64  1  0  0  0  0
 62 65  1  0  0  0  0
 65 66  1  0  0  0  0
 65 67  1  0  0  0  0
 65 68  1  0  0  0  0
 68 69  1  0  0  0  0
 68 70  1  0  0  0  0
 68 71  1  0  0  0  0
M  END
> <ChemID>
100911

> <source_casrn>
638-67-5

> <CAS>
638-67-5

> <SMILES>
CCCCCCCCCCCCCCCCCCCCCCC

> <NAME>
Tricosane

> <preferred_name>
Tricosane

> <iupac>
tricosane

> <MPID>
100912

> <dsstox_substance_id>
DTXSID7047699

> <Canonical_QSARr>
CCCCCCCCCCCCCCCCCCCCCCC

> <InChI_Code_QSARr>
InChI=1S/C23H48/c1-3-5-7-9-11-13-15-17-19-21-23-22-20-18-16-14-12-10-8-6-4-2/h3-23H2,1-2H3

> <InChI Key_QSARr>
FIGVVZUWCLSUEI-UHFFFAOYSA-N

> <Salt_Solvent>
?

> <Ready_Biodeg>
1.0

$$$$
100912
  -INDIGO-08031722522D

 92 91  0  0  0  0  0  0  0  0999 V2000
   -0.0003    0.0000    0.0000 C   0  0  0  0  0  0  0  0  0  0  0  0
    0.6125    1.4782    0.0000 H   0  0  0  0  0  0  0  0  0  0  0  0
   -0.6125    1.4782    0.0000 H   0  0  0  0  0  0  0  0  0  0  0  0
    1.3860   -0.8000    0.0000 C   0  0  0  0  0  0  0  0  0  0  0  0
    0.7731   -2.2782    0.0000 H   0  0  0  0  0  0  0  0  0  0  0  0
    1.9981   -2.2782    0.0000 H   0  0  0  0  0  0  0  0  0  0  0  0
    2.7716    0.0000    0.0000 C   0  0  0  0  0  0  0  0  0  0  0  0
    3.3838    1.4782    0.0000 H   0  0  0  0  0  0  0  0  0  0  0  0
    2.1587    1.4782    0.0000 H   0  0  0  0  0  0  0  0  0  0  0  0
    4.1572   -0.8000    0.0000 C   0  0  0  0  0  0  0  0  0  0  0  0
    3.5444   -2.2782    0.0000 H   0  0  0  0  0  0  0  0  0  0  0  0
    4.7694   -2.2782    0.0000 H   0  0  0  0  0  0  0  0  0  0  0  0
    5.5428    0.0000    0.0000 C   0  0  0  0  0  0  0  0  0  0  0  0
    6.1550    1.4782    0.0000 H   0  0  0  0  0  0  0  0  0  0  0  0
    4.9300    1.4782    0.0000 H   0  0  0  0  0  0  0  0  0  0  0  0
    6.9284   -0.8000    0.0000 C   0  0  0  0  0  0  0  0  0  0  0  0
    6.3156   -2.2782    0.0000 H   0  0  0  0  0  0  0  0  0  0  0  0
    7.5406   -2.2782    0.0000 H   0  0  0  0  0  0  0  0  0  0  0  0
    8.3141    0.0000    0.0000 C   0  0  0  0  0  0  0  0  0  0  0  0
    8.9262    1.4782    0.0000 H   0  0  0  0  0  0  0  0  0  0  0  0
    7.7019    1.4782    0.0000 H   0  0  0  0  0  0  0  0  0  0  0  0
    9.6997   -0.8000    0.0000 C   0  0  0  0  0  0  0  0  0  0  0  0
    9.0875   -2.2782    0.0000 H   0  0  0  0  0  0  0  0  0  0  0  0
   10.3119   -2.2782    0.0000 H   0  0  0  0  0  0  0  0  0  0  0  0
   11.0853    0.0000    0.0000 C   0  0  0  0  0  0  0  0  0  0  0  0
   11.6975    1.4782    0.0000 H   0  0  0  0  0  0  0  0  0  0  0  0
   10.4731    1.4782    0.0000 H   0  0  0  0  0  0  0  0  0  0  0  0
   12.4709   -0.8000    0.0000 C   0  0  0  0  0  0  0  0  0  0  0  0
   11.8587   -2.2782    0.0000 H   0  0  0  0  0  0  0  0  0  0  0  0
   13.0831   -2.2782    0.0000 H   0  0  0  0  0  0  0  0  0  0  0  0
   13.8565    0.0000    0.0000 C   0  0  0  0  0  0  0  0  0  0  0  0
   14.4687    1.4782    0.0000 H   0  0  0  0  0  0  0  0  0  0  0  0
   13.2443    1.4782    0.0000 H   0  0  0  0  0  0  0  0  0  0  0  0
   15.2422   -0.8000    0.0000 C   0  0  0  0  0  0  0  0  0  0  0  0
   14.6300   -2.2782    0.0000 H   0  0  0  0  0  0  0  0  0  0  0  0
   15.8543   -2.2782    0.0000 H   0  0  0  0  0  0  0  0  0  0  0  0
   16.6278    0.0000    0.0000 C   0  0  0  0  0  0  0  0  0  0  0  0
   17.2400    1.4782    0.0000 H   0  0  0  0  0  0  0  0  0  0  0  0
   16.0156    1.4782    0.0000 H   0  0  0  0  0  0  0  0  0  0  0  0
   18.0134   -0.8000    0.0000 C   0  0  0  0  0  0  0  0  0  0  0  0
   17.4012   -2.2782    0.0000 H   0  0  0  0  0  0  0  0  0  0  0  0
   18.6256   -2.2782    0.0000 H   0  0  0  0  0  0  0  0  0  0  0  0
   19.3990    0.0000    0.0000 C   0  0  0  0  0  0  0  0  0  0  0  0
   20.0112    1.4782    0.0000 H   0  0  0  0  0  0  0  0  0  0  0  0
   18.7868    1.4782    0.0000 H   0  0  0  0  0  0  0  0  0  0  0  0
   20.7846   -0.8000    0.0000 C   0  0  0  0  0  0  0  0  0  0  0  0
   22.1703   -1.6000    0.0000 H   0  0  0  0  0  0  0  0  0  0  0  0
   22.1703    0.0000    0.0000 H   0  0  0  0  0  0  0  0  0  0  0  0
   20.7846   -2.4000    0.0000 H   0  0  0  0  0  0  0  0  0  0  0  0
   -1.3859   -0.8000    0.0000 C   0  0  0  0  0  0  0  0  0  0  0  0
   -1.9981   -2.2782    0.0000 H   0  0  0  0  0  0  0  0  0  0  0  0
   -0.7731   -2.2782    0.0000 H   0  0  0  0  0  0  0  0  0  0  0  0
   -2.7716    0.0000    0.0000 C   0  0  0  0  0  0  0  0  0  0  0  0
   -2.1587    1.4782    0.0000 H   0  0  0  0  0  0  0  0  0  0  0  0
   -3.3837    1.4782    0.0000 H   0  0  0  0  0  0  0  0  0  0  0  0
   -4.1572   -0.8000    0.0000 C   0  0  0  0  0  0  0  0  0  0  0  0
   -4.7694   -2.2782    0.0000 H   0  0  0  0  0  0  0  0  0  0  0  0
   -3.5443   -2.2782    0.0000 H   0  0  0  0  0  0  0  0  0  0  0  0
   -5.5428    0.0000    0.0000 C   0  0  0  0  0  0  0  0  0  0  0  0
   -4.9299    1.4782    0.0000 H   0  0  0  0  0  0  0  0  0  0  0  0
   -6.1550    1.4782    0.0000 H   0  0  0  0  0  0  0  0  0  0  0  0
   -6.9284   -0.8000    0.0000 C   0  0  0  0  0  0  0  0  0  0  0  0
   -7.5406   -2.2782    0.0000 H   0  0  0  0  0  0  0  0  0  0  0  0
   -6.3162   -2.2782    0.0000 H   0  0  0  0  0  0  0  0  0  0  0  0
   -8.3140    0.0000    0.0000 C   0  0  0  0  0  0  0  0  0  0  0  0
   -7.7018    1.4782    0.0000 H   0  0  0  0  0  0  0  0  0  0  0  0
   -8.9262    1.4782    0.0000 H   0  0  0  0  0  0  0  0  0  0  0  0
   -9.6997   -0.8000    0.0000 C   0  0  0  0  0  0  0  0  0  0  0  0
  -10.3118   -2.2782    0.0000 H   0  0  0  0  0  0  0  0  0  0  0  0
   -9.0875   -2.2782    0.0000 H   0  0  0  0  0  0  0  0  0  0  0  0
  -11.0853    0.0000    0.0000 C   0  0  0  0  0  0  0  0  0  0  0  0
  -10.4731    1.4782    0.0000 H   0  0  0  0  0  0  0  0  0  0  0  0
  -11.6975    1.4782    0.0000 H   0  0  0  0  0  0  0  0  0  0  0  0
  -12.4709   -0.8000    0.0000 C   0  0  0  0  0  0  0  0  0  0  0  0
  -13.0831   -2.2782    0.0000 H   0  0  0  0  0  0  0  0  0  0  0  0
  -11.8587   -2.2782    0.0000 H   0  0  0  0  0  0  0  0  0  0  0  0
  -13.8565    0.0000    0.0000 C   0  0  0  0  0  0  0  0  0  0  0  0
  -13.2443    1.4782    0.0000 H   0  0  0  0  0  0  0  0  0  0  0  0
  -14.4687    1.4782    0.0000 H   0  0  0  0  0  0  0  0  0  0  0  0
  -15.2421   -0.8000    0.0000 C   0  0  0  0  0  0  0  0  0  0  0  0
  -15.8543   -2.2782    0.0000 H   0  0  0  0  0  0  0  0  0  0  0  0
  -14.6299   -2.2782    0.0000 H   0  0  0  0  0  0  0  0  0  0  0  0
  -16.6278    0.0000    0.0000 C   0  0  0  0  0  0  0  0  0  0  0  0
  -16.0156    1.4782    0.0000 H   0  0  0  0  0  0  0  0  0  0  0  0
  -17.2399    1.4782    0.0000 H   0  0  0  0  0  0  0  0  0  0  0  0
  -18.0134   -0.8000    0.0000 C   0  0  0  0  0  0  0  0  0  0  0  0
  -18.6256   -2.2782    0.0000 H   0  0  0  0  0  0  0  0  0  0  0  0
  -17.4012   -2.2782    0.0000 H   0  0  0  0  0  0  0  0  0  0  0  0
  -19.3990    0.0000    0.0000 C   0  0  0  0  0  0  0  0  0  0  0  0
  -20.7846    0.8000    0.0000 H   0  0  0  0  0  0  0  0  0  0  0  0
  -20.7846   -0.8000    0.0000 H   0  0  0  0  0  0  0  0  0  0  0  0
  -19.3990    1.6000    0.0000 H   0  0  0  0  0  0  0  0  0  0  0  0
  1  2  1  0  0  0  0
  1  3  1  0  0  0  0
  1  4  1  0  0  0  0
  4  5  1  0  0  0  0
  4  6  1  0  0  0  0
  4  7  1  0  0  0  0
  7  8  1  0  0  0  0
  7  9  1  0  0  0  0
  7 10  1  0  0  0  0
 10 11  1  0  0  0  0
 10 12  1  0  0  0  0
 10 13  1  0  0  0  0
 13 14  1  0  0  0  0
 13 15  1  0  0  0  0
 13 16  1  0  0  0  0
 16 17  1  0  0  0  0
 16 18  1  0  0  0  0
 16 19  1  0  0  0  0
 19 20  1  0  0  0  0
 19 21  1  0  0  0  0
 19 22  1  0  0  0  0
 22 23  1  0  0  0  0
 22 24  1  0  0  0  0
 22 25  1  0  0  0  0
 25 26  1  0  0  0  0
 25 27  1  0  0  0  0
 25 28  1  0  0  0  0
 28 29  1  0  0  0  0
 28 30  1  0  0  0  0
 28 31  1  0  0  0  0
 31 32  1  0  0  0  0
 31 33  1  0  0  0  0
 31 34  1  0  0  0  0
 34 35  1  0  0  0  0
 34 36  1  0  0  0  0
 34 37  1  0  0  0  0
 37 38  1  0  0  0  0
 37 39  1  0  0  0  0
 37 40  1  0  0  0  0
 40 41  1  0  0  0  0
 40 42  1  0  0  0  0
 40 43  1  0  0  0  0
 43 44  1  0  0  0  0
 43 45  1  0  0  0  0
 43 46  1  0  0  0  0
 46 47  1  0  0  0  0
 46 48  1  0  0  0  0
 46 49  1  0  0  0  0
  1 50  1  0  0  0  0
 50 51  1  0  0  0  0
 50 52  1  0  0  0  0
 50 53  1  0  0  0  0
 53 54  1  0  0  0  0
 53 55  1  0  0  0  0
 53 56  1  0  0  0  0
 56 57  1  0  0  0  0
 56 58  1  0  0  0  0
 56 59  1  0  0  0  0
 59 60  1  0  0  0  0
 59 61  1  0  0  0  0
 59 62  1  0  0  0  0
 62 63  1  0  0  0  0
 62 64  1  0  0  0  0
 62 65  1  0  0  0  0
 65 66  1  0  0  0  0
 65 67  1  0  0  0  0
 65 68  1  0  0  0  0
 68 69  1  0  0  0  0
 68 70  1  0  0  0  0
 68 71  1  0  0  0  0
 71 72  1  0  0  0  0
 71 73  1  0  0  0  0
 71 74  1  0  0  0  0
 74 75  1  0  0  0  0
 74 76  1  0  0  0  0
 74 77  1  0  0  0  0
 77 78  1  0  0  0  0
 77 79  1  0  0  0  0
 77 80  1  0  0  0  0
 80 81  1  0  0  0  0
 80 82  1  0  0  0  0
 80 83  1  0  0  0  0
 83 84  1  0  0  0  0
 83 85  1  0  0  0  0
 83 86  1  0  0  0  0
 86 87  1  0  0  0  0
 86 88  1  0  0  0  0
 86 89  1  0  0  0  0
 89 90  1  0  0  0  0
 89 91  1  0  0  0  0
 89 92  1  0  0  0  0
M  END
> <ChemID>
100912

> <source_casrn>
638-68-6

> <CAS>
638-68-6

> <SMILES>
CCCCCCCCCCCCCCCCCCCCCCCCCCCCCC

> <NAME>
Triacontane

> <preferred_name>
Triacontane

> <iupac>
TRIACONTANE

> <MPID>
100913

> <dsstox_substance_id>
DTXSID0060935

> <Canonical_QSARr>
CCCCCCCCCCCCCCCCCCCCCCCCCCCCCC

> <InChI_Code_QSARr>
InChI=1S/C30H62/c1-3-5-7-9-11-13-15-17-19-21-23-25-27-29-30-28-26-24-22-20-18-16-14-12-10-8-6-4-2/h3-30H2,1-2H3

> <InChI Key_QSARr>
JXTPJDDICSTXJX-UHFFFAOYSA-N

> <Salt_Solvent>
?

> <Ready_Biodeg>
1.0

$$$$
100914
  -INDIGO-08031722522D

 23 22  0  0  0  0  0  0  0  0999 V2000
    5.5425   -0.0000    0.0000 C   0  0  0  0  0  0  0  0  0  0  0  0
    6.9282    0.8000    0.0000 H   0  0  0  0  0  0  0  0  0  0  0  0
    6.9282   -0.8000    0.0000 H   0  0  0  0  0  0  0  0  0  0  0  0
    5.5425    1.6000    0.0000 H   0  0  0  0  0  0  0  0  0  0  0  0
    4.1569    0.8000    0.0000 C   0  0  0  0  0  0  0  0  0  0  0  0
    4.7692    2.2782    0.0000 H   0  0  0  0  0  0  0  0  0  0  0  0
    3.5446    2.2782    0.0000 H   0  0  0  0  0  0  0  0  0  0  0  0
    2.7712    0.0000    0.0000 C   0  0  0  0  0  0  0  0  0  0  0  0
    2.7712   -1.6000    0.0000 C   0  0  0  0  0  0  0  0  0  0  0  0
    4.1569   -2.4000    0.0000 H   0  0  0  0  0  0  0  0  0  0  0  0
    1.3856   -2.4000    0.0000 O   0  0  0  0  0  0  0  0  0  0  0  0
    1.3857    0.8000    0.0000 C   0  0  0  0  0  0  0  0  0  0  0  0
    1.3857    2.4000    0.0000 H   0  0  0  0  0  0  0  0  0  0  0  0
    0.0001    0.0000    0.0000 C   0  0  0  0  0  0  0  0  0  0  0  0
   -0.6123   -1.4782    0.0000 H   0  0  0  0  0  0  0  0  0  0  0  0
    0.6122   -1.4782    0.0000 H   0  0  0  0  0  0  0  0  0  0  0  0
   -1.3856    0.8000    0.0000 C   0  0  0  0  0  0  0  0  0  0  0  0
   -0.7733    2.2782    0.0000 H   0  0  0  0  0  0  0  0  0  0  0  0
   -1.9979    2.2782    0.0000 H   0  0  0  0  0  0  0  0  0  0  0  0
   -2.7713    0.0000    0.0000 C   0  0  0  0  0  0  0  0  0  0  0  0
   -4.1569   -0.8000    0.0000 H   0  0  0  0  0  0  0  0  0  0  0  0
   -4.1569    0.8000    0.0000 H   0  0  0  0  0  0  0  0  0  0  0  0
   -2.7713   -1.6000    0.0000 H   0  0  0  0  0  0  0  0  0  0  0  0
  1  2  1  0  0  0  0
  1  3  1  0  0  0  0
  1  4  1  0  0  0  0
  1  5  1  0  0  0  0
  5  6  1  0  0  0  0
  5  7  1  0  0  0  0
  5  8  1  0  0  0  0
  8  9  1  0  0  0  0
  9 10  1  0  0  0  0
  9 11  2  0  0  0  0
  8 12  2  0  0  0  0
 12 13  1  0  0  0  0
 12 14  1  0  0  0  0
 14 15  1  0  0  0  0
 14 16  1  0  0  0  0
 14 17  1  0  0  0  0
 17 18  1  0  0  0  0
 17 19  1  0  0  0  0
 17 20  1  0  0  0  0
 20 21  1  0  0  0  0
 20 22  1  0  0  0  0
 20 23  1  0  0  0  0
M  END
> <ChemID>
100914

> <source_casrn>
645-62-5

> <CAS>
645-62-5

> <SMILES>
CCCC=C(CC)C=O

> <NAME>
2-Hexenal, 2-ethyl-

> <preferred_name>
2-Ethyl-2-hexenal

> <iupac>
2-ethylhex-2-enal

> <MPID>
100915

> <dsstox_substance_id>
DTXSID4025296

> <Canonical_QSARr>
CCCC=C(CC)C=O

> <InChI_Code_QSARr>
InChI=1S/C8H14O/c1-3-5-6-8(4-2)7-9/h6-7H,3-5H2,1-2H3/b8-6-

> <InChI Key_QSARr>
PYLMCYQHBRSDND-VURMDHGXSA-N

> <Salt_Solvent>
?

> <Ready_Biodeg>
1.0

$$$$
100915
  -INDIGO-08031722522D

 74 73  0  0  0  0  0  0  0  0999 V2000
    0.0001    0.0000    0.0000 C   0  0  0  0  0  0  0  0  0  0  0  0
    0.6122    1.4782    0.0000 H   0  0  0  0  0  0  0  0  0  0  0  0
   -0.6125    1.4782    0.0000 H   0  0  0  0  0  0  0  0  0  0  0  0
    1.3855   -0.8000    0.0000 C   0  0  0  0  0  0  0  0  0  0  0  0
    0.7734   -2.2782    0.0000 H   0  0  0  0  0  0  0  0  0  0  0  0
    1.9982   -2.2782    0.0000 H   0  0  0  0  0  0  0  0  0  0  0  0
    2.7715    0.0000    0.0000 C   0  0  0  0  0  0  0  0  0  0  0  0
    3.3836    1.4782    0.0000 H   0  0  0  0  0  0  0  0  0  0  0  0
    2.1589    1.4782    0.0000 H   0  0  0  0  0  0  0  0  0  0  0  0
    4.1569   -0.8000    0.0000 C   0  0  0  0  0  0  0  0  0  0  0  0
    3.5448   -2.2782    0.0000 H   0  0  0  0  0  0  0  0  0  0  0  0
    4.7690   -2.2782    0.0000 H   0  0  0  0  0  0  0  0  0  0  0  0
    5.5424    0.0000    0.0000 C   0  0  0  0  0  0  0  0  0  0  0  0
    6.1550    1.4782    0.0000 H   0  0  0  0  0  0  0  0  0  0  0  0
    4.9302    1.4782    0.0000 H   0  0  0  0  0  0  0  0  0  0  0  0
    6.9283   -0.8000    0.0000 C   0  0  0  0  0  0  0  0  0  0  0  0
    6.3157   -2.2782    0.0000 H   0  0  0  0  0  0  0  0  0  0  0  0
    7.5404   -2.2782    0.0000 H   0  0  0  0  0  0  0  0  0  0  0  0
    8.3137    0.0000    0.0000 C   0  0  0  0  0  0  0  0  0  0  0  0
    8.9264    1.4782    0.0000 H   0  0  0  0  0  0  0  0  0  0  0  0
    7.7016    1.4782    0.0000 H   0  0  0  0  0  0  0  0  0  0  0  0
    9.6997   -0.8000    0.0000 C   0  0  0  0  0  0  0  0  0  0  0  0
    9.0871   -2.2782    0.0000 H   0  0  0  0  0  0  0  0  0  0  0  0
   10.3118   -2.2782    0.0000 H   0  0  0  0  0  0  0  0  0  0  0  0
   11.0851    0.0000    0.0000 C   0  0  0  0  0  0  0  0  0  0  0  0
   11.6972    1.4782    0.0000 H   0  0  0  0  0  0  0  0  0  0  0  0
   10.4730    1.4782    0.0000 H   0  0  0  0  0  0  0  0  0  0  0  0
   12.4706   -0.8000    0.0000 C   0  0  0  0  0  0  0  0  0  0  0  0
   11.8585   -2.2782    0.0000 H   0  0  0  0  0  0  0  0  0  0  0  0
   13.0832   -2.2782    0.0000 H   0  0  0  0  0  0  0  0  0  0  0  0
   13.8565    0.0000    0.0000 C   0  0  0  0  0  0  0  0  0  0  0  0
   14.4686    1.4782    0.0000 H   0  0  0  0  0  0  0  0  0  0  0  0
   13.2439    1.4782    0.0000 H   0  0  0  0  0  0  0  0  0  0  0  0
   15.2419   -0.8000    0.0000 C   0  0  0  0  0  0  0  0  0  0  0  0
   14.6298   -2.2782    0.0000 H   0  0  0  0  0  0  0  0  0  0  0  0
   15.8546   -2.2782    0.0000 H   0  0  0  0  0  0  0  0  0  0  0  0
   16.6279    0.0000    0.0000 C   0  0  0  0  0  0  0  0  0  0  0  0
   18.0133    0.8000    0.0000 H   0  0  0  0  0  0  0  0  0  0  0  0
   18.0133   -0.8000    0.0000 H   0  0  0  0  0  0  0  0  0  0  0  0
   16.6279    1.6000    0.0000 H   0  0  0  0  0  0  0  0  0  0  0  0
   -1.3859   -0.8000    0.0000 C   0  0  0  0  0  0  0  0  0  0  0  0
   -1.9980   -2.2782    0.0000 H   0  0  0  0  0  0  0  0  0  0  0  0
   -0.7732   -2.2782    0.0000 H   0  0  0  0  0  0  0  0  0  0  0  0
   -2.7713    0.0000    0.0000 C   0  0  0  0  0  0  0  0  0  0  0  0
   -2.1592    1.4782    0.0000 H   0  0  0  0  0  0  0  0  0  0  0  0
   -3.3834    1.4782    0.0000 H   0  0  0  0  0  0  0  0  0  0  0  0
   -4.1567   -0.8000    0.0000 C   0  0  0  0  0  0  0  0  0  0  0  0
   -4.7693   -2.2782    0.0000 H   0  0  0  0  0  0  0  0  0  0  0  0
   -3.5446   -2.2782    0.0000 H   0  0  0  0  0  0  0  0  0  0  0  0
   -5.5427    0.0000    0.0000 C   0  0  0  0  0  0  0  0  0  0  0  0
   -4.9300    1.4782    0.0000 H   0  0  0  0  0  0  0  0  0  0  0  0
   -6.1548    1.4782    0.0000 H   0  0  0  0  0  0  0  0  0  0  0  0
   -6.9281   -0.8000    0.0000 C   0  0  0  0  0  0  0  0  0  0  0  0
   -7.5407   -2.2782    0.0000 H   0  0  0  0  0  0  0  0  0  0  0  0
   -6.3160   -2.2782    0.0000 H   0  0  0  0  0  0  0  0  0  0  0  0
   -8.3141    0.0000    0.0000 C   0  0  0  0  0  0  0  0  0  0  0  0
   -7.7014    1.4782    0.0000 H   0  0  0  0  0  0  0  0  0  0  0  0
   -8.9262    1.4782    0.0000 H   0  0  0  0  0  0  0  0  0  0  0  0
   -9.6995   -0.8000    0.0000 C   0  0  0  0  0  0  0  0  0  0  0  0
  -10.3116   -2.2782    0.0000 H   0  0  0  0  0  0  0  0  0  0  0  0
   -9.0874   -2.2782    0.0000 H   0  0  0  0  0  0  0  0  0  0  0  0
  -11.0849    0.0000    0.0000 C   0  0  0  0  0  0  0  0  0  0  0  0
  -10.4728    1.4782    0.0000 H   0  0  0  0  0  0  0  0  0  0  0  0
  -11.6975    1.4782    0.0000 H   0  0  0  0  0  0  0  0  0  0  0  0
  -12.4709   -0.8000    0.0000 C   0  0  0  0  0  0  0  0  0  0  0  0
  -13.0830   -2.2782    0.0000 H   0  0  0  0  0  0  0  0  0  0  0  0
  -11.8582   -2.2782    0.0000 H   0  0  0  0  0  0  0  0  0  0  0  0
  -13.8563    0.0000    0.0000 C   0  0  0  0  0  0  0  0  0  0  0  0
  -13.2442    1.4782    0.0000 H   0  0  0  0  0  0  0  0  0  0  0  0
  -14.4689    1.4782    0.0000 H   0  0  0  0  0  0  0  0  0  0  0  0
  -15.2423   -0.8000    0.0000 C   0  0  0  0  0  0  0  0  0  0  0  0
  -16.6277   -1.6000    0.0000 H   0  0  0  0  0  0  0  0  0  0  0  0
  -16.6277    0.0000    0.0000 H   0  0  0  0  0  0  0  0  0  0  0  0
  -15.2423   -2.4000    0.0000 H   0  0  0  0  0  0  0  0  0  0  0  0
  1  2  1  0  0  0  0
  1  3  1  0  0  0  0
  1  4  1  0  0  0  0
  4  5  1  0  0  0  0
  4  6  1  0  0  0  0
  4  7  1  0  0  0  0
  7  8  1  0  0  0  0
  7  9  1  0  0  0  0
  7 10  1  0  0  0  0
 10 11  1  0  0  0  0
 10 12  1  0  0  0  0
 10 13  1  0  0  0  0
 13 14  1  0  0  0  0
 13 15  1  0  0  0  0
 13 16  1  0  0  0  0
 16 17  1  0  0  0  0
 16 18  1  0  0  0  0
 16 19  1  0  0  0  0
 19 20  1  0  0  0  0
 19 21  1  0  0  0  0
 19 22  1  0  0  0  0
 22 23  1  0  0  0  0
 22 24  1  0  0  0  0
 22 25  1  0  0  0  0
 25 26  1  0  0  0  0
 25 27  1  0  0  0  0
 25 28  1  0  0  0  0
 28 29  1  0  0  0  0
 28 30  1  0  0  0  0
 28 31  1  0  0  0  0
 31 32  1  0  0  0  0
 31 33  1  0  0  0  0
 31 34  1  0  0  0  0
 34 35  1  0  0  0  0
 34 36  1  0  0  0  0
 34 37  1  0  0  0  0
 37 38  1  0  0  0  0
 37 39  1  0  0  0  0
 37 40  1  0  0  0  0
  1 41  1  0  0  0  0
 41 42  1  0  0  0  0
 41 43  1  0  0  0  0
 41 44  1  0  0  0  0
 44 45  1  0  0  0  0
 44 46  1  0  0  0  0
 44 47  1  0  0  0  0
 47 48  1  0  0  0  0
 47 49  1  0  0  0  0
 47 50  1  0  0  0  0
 50 51  1  0  0  0  0
 50 52  1  0  0  0  0
 50 53  1  0  0  0  0
 53 54  1  0  0  0  0
 53 55  1  0  0  0  0
 53 56  1  0  0  0  0
 56 57  1  0  0  0  0
 56 58  1  0  0  0  0
 56 59  1  0  0  0  0
 59 60  1  0  0  0  0
 59 61  1  0  0  0  0
 59 62  1  0  0  0  0
 62 63  1  0  0  0  0
 62 64  1  0  0  0  0
 62 65  1  0  0  0  0
 65 66  1  0  0  0  0
 65 67  1  0  0  0  0
 65 68  1  0  0  0  0
 68 69  1  0  0  0  0
 68 70  1  0  0  0  0
 68 71  1  0  0  0  0
 71 72  1  0  0  0  0
 71 73  1  0  0  0  0
 71 74  1  0  0  0  0
M  END
> <ChemID>
100915

> <source_casrn>
646-31-1

> <CAS>
646-31-1

> <SMILES>
CCCCCCCCCCCCCCCCCCCCCCCC

> <NAME>
Tetracosane

> <preferred_name>
Tetracosane

> <iupac>
Tetracosane

> <MPID>
100916

> <dsstox_substance_id>
DTXSID8060955

> <Canonical_QSARr>
CCCCCCCCCCCCCCCCCCCCCCCC

> <InChI_Code_QSARr>
InChI=1S/C24H50/c1-3-5-7-9-11-13-15-17-19-21-23-24-22-20-18-16-14-12-10-8-6-4-2/h3-24H2,1-2H3

> <InChI Key_QSARr>
POOSGDOYLQNASK-UHFFFAOYSA-N

> <Salt_Solvent>
?

> <Ready_Biodeg>
1.0

$$$$
100916
  -INDIGO-08031722522D

 10 10  0  0  0  0  0  0  0  0999 V2000
   -0.5857    2.1856    0.0000 O   0  0  0  0  0  0  0  0  0  0  0  0
    0.8000    1.3857    0.0000 C   0  0  0  0  0  0  0  0  0  0  0  0
    2.3455    1.7998    0.0000 O   0  0  0  0  0  0  0  0  0  0  0  0
    0.0000   -0.0000    0.0000 C   0  0  0  0  0  0  0  0  0  0  0  0
    1.3857   -0.8000    0.0000 H   0  0  0  0  0  0  0  0  0  0  0  0
   -0.8000   -1.3856    0.0000 H   0  0  0  0  0  0  0  0  0  0  0  0
   -1.3857    0.8000    0.0000 C   0  0  0  0  0  0  0  0  0  0  0  0
   -2.9311    0.3859    0.0000 C   0  0  0  0  0  0  0  0  0  0  0  0
   -4.0625    1.5173    0.0000 H   0  0  0  0  0  0  0  0  0  0  0  0
   -3.3453   -1.1596    0.0000 H   0  0  0  0  0  0  0  0  0  0  0  0
  1  2  1  0  0  0  0
  2  3  2  0  0  0  0
  2  4  1  0  0  0  0
  4  5  1  0  0  0  0
  4  6  1  0  0  0  0
  4  7  1  0  0  0  0
  7  1  1  0  0  0  0
  7  8  2  0  0  0  0
  8  9  1  0  0  0  0
  8 10  1  0  0  0  0
M  END
> <ChemID>
100916

> <source_casrn>
674-82-8

> <CAS>
674-82-8

> <SMILES>
C=C1CC(=O)O1

> <NAME>
2-Oxetanone, 4-methylene-

> <preferred_name>
Diketene

> <iupac>
4-methylideneoxetan-2-one

> <MPID>
100917

> <dsstox_substance_id>
DTXSID9027289

> <Canonical_QSARr>
C=C1CC(=O)O1

> <InChI_Code_QSARr>
InChI=1S/C4H4O2/c1-3-2-4(5)6-3/h1-2H2

> <InChI Key_QSARr>
WASQWSOJHCZDFK-UHFFFAOYSA-N

> <Salt_Solvent>
?

> <Ready_Biodeg>
1.0

$$$$
100918
  -INDIGO-08031722522D

129128  0  0  0  0  0  0  0  0999 V2000
   12.4703   -0.8000    0.0000 C   0  0  0  0  0  0  0  0  0  0  0  0
   13.8563    0.0000    0.0000 C   0  0  0  0  0  0  0  0  0  0  0  0
   14.4690    1.4782    0.0000 H   0  0  0  0  0  0  0  0  0  0  0  0
   13.2445    1.4782    0.0000 H   0  0  0  0  0  0  0  0  0  0  0  0
   15.2422   -0.8000    0.0000 C   0  0  0  0  0  0  0  0  0  0  0  0
   14.6295   -2.2782    0.0000 H   0  0  0  0  0  0  0  0  0  0  0  0
   15.8540   -2.2782    0.0000 H   0  0  0  0  0  0  0  0  0  0  0  0
   16.6282    0.0000    0.0000 S   0  0  0  0  0  0  0  0  0  0  0  0
   18.0132   -0.8000    0.0000 C   0  0  0  0  0  0  0  0  0  0  0  0
   17.4014   -2.2782    0.0000 H   0  0  0  0  0  0  0  0  0  0  0  0
   18.6259   -2.2782    0.0000 H   0  0  0  0  0  0  0  0  0  0  0  0
   19.3991    0.0000    0.0000 C   0  0  0  0  0  0  0  0  0  0  0  0
   20.0109    1.4782    0.0000 H   0  0  0  0  0  0  0  0  0  0  0  0
   18.7864    1.4782    0.0000 H   0  0  0  0  0  0  0  0  0  0  0  0
   20.7851   -0.8000    0.0000 C   0  0  0  0  0  0  0  0  0  0  0  0
   22.1701    0.0000    0.0000 O   0  0  0  0  0  0  0  0  0  0  0  0
   23.5560   -0.8000    0.0000 C   0  0  0  0  0  0  0  0  0  0  0  0
   22.9433   -2.2782    0.0000 H   0  0  0  0  0  0  0  0  0  0  0  0
   24.1678   -2.2782    0.0000 H   0  0  0  0  0  0  0  0  0  0  0  0
   24.9420    0.0000    0.0000 C   0  0  0  0  0  0  0  0  0  0  0  0
   25.5537    1.4782    0.0000 H   0  0  0  0  0  0  0  0  0  0  0  0
   24.3292    1.4782    0.0000 H   0  0  0  0  0  0  0  0  0  0  0  0
   26.3270   -0.8000    0.0000 C   0  0  0  0  0  0  0  0  0  0  0  0
   25.7152   -2.2782    0.0000 H   0  0  0  0  0  0  0  0  0  0  0  0
   26.9397   -2.2782    0.0000 H   0  0  0  0  0  0  0  0  0  0  0  0
   27.7129    0.0000    0.0000 C   0  0  0  0  0  0  0  0  0  0  0  0
   28.3247    1.4782    0.0000 H   0  0  0  0  0  0  0  0  0  0  0  0
   27.1002    1.4782    0.0000 H   0  0  0  0  0  0  0  0  0  0  0  0
   29.0989   -0.8000    0.0000 C   0  0  0  0  0  0  0  0  0  0  0  0
   28.4861   -2.2782    0.0000 H   0  0  0  0  0  0  0  0  0  0  0  0
   29.7106   -2.2782    0.0000 H   0  0  0  0  0  0  0  0  0  0  0  0
   30.4839    0.0000    0.0000 C   0  0  0  0  0  0  0  0  0  0  0  0
   31.0966    1.4782    0.0000 H   0  0  0  0  0  0  0  0  0  0  0  0
   29.8721    1.4782    0.0000 H   0  0  0  0  0  0  0  0  0  0  0  0
   31.8698   -0.8000    0.0000 C   0  0  0  0  0  0  0  0  0  0  0  0
   31.2571   -2.2782    0.0000 H   0  0  0  0  0  0  0  0  0  0  0  0
   32.4816   -2.2782    0.0000 H   0  0  0  0  0  0  0  0  0  0  0  0
   33.2558    0.0000    0.0000 C   0  0  0  0  0  0  0  0  0  0  0  0
   33.8675    1.4782    0.0000 H   0  0  0  0  0  0  0  0  0  0  0  0
   32.6430    1.4782    0.0000 H   0  0  0  0  0  0  0  0  0  0  0  0
   34.6408   -0.8000    0.0000 C   0  0  0  0  0  0  0  0  0  0  0  0
   34.0290   -2.2782    0.0000 H   0  0  0  0  0  0  0  0  0  0  0  0
   35.2535   -2.2782    0.0000 H   0  0  0  0  0  0  0  0  0  0  0  0
   36.0267    0.0000    0.0000 C   0  0  0  0  0  0  0  0  0  0  0  0
   36.6385    1.4782    0.0000 H   0  0  0  0  0  0  0  0  0  0  0  0
   35.4140    1.4782    0.0000 H   0  0  0  0  0  0  0  0  0  0  0  0
   37.4127   -0.8000    0.0000 C   0  0  0  0  0  0  0  0  0  0  0  0
   36.7999   -2.2782    0.0000 H   0  0  0  0  0  0  0  0  0  0  0  0
   38.0244   -2.2782    0.0000 H   0  0  0  0  0  0  0  0  0  0  0  0
   38.7977    0.0000    0.0000 C   0  0  0  0  0  0  0  0  0  0  0  0
   39.4104    1.4782    0.0000 H   0  0  0  0  0  0  0  0  0  0  0  0
   38.1859    1.4782    0.0000 H   0  0  0  0  0  0  0  0  0  0  0  0
   40.1836   -0.8000    0.0000 C   0  0  0  0  0  0  0  0  0  0  0  0
   39.5709   -2.2782    0.0000 H   0  0  0  0  0  0  0  0  0  0  0  0
   40.7964   -2.2782    0.0000 H   0  0  0  0  0  0  0  0  0  0  0  0
   41.5696    0.0000    0.0000 C   0  0  0  0  0  0  0  0  0  0  0  0
   42.1814    1.4782    0.0000 H   0  0  0  0  0  0  0  0  0  0  0  0
   40.9568    1.4782    0.0000 H   0  0  0  0  0  0  0  0  0  0  0  0
   42.9546   -0.8000    0.0000 C   0  0  0  0  0  0  0  0  0  0  0  0
   42.3428   -2.2782    0.0000 H   0  0  0  0  0  0  0  0  0  0  0  0
   43.5673   -2.2782    0.0000 H   0  0  0  0  0  0  0  0  0  0  0  0
   44.3405    0.0000    0.0000 C   0  0  0  0  0  0  0  0  0  0  0  0
   44.9533    1.4782    0.0000 H   0  0  0  0  0  0  0  0  0  0  0  0
   43.7278    1.4782    0.0000 H   0  0  0  0  0  0  0  0  0  0  0  0
   45.7265   -0.8000    0.0000 C   0  0  0  0  0  0  0  0  0  0  0  0
   45.1137   -2.2782    0.0000 H   0  0  0  0  0  0  0  0  0  0  0  0
   46.3382   -2.2782    0.0000 H   0  0  0  0  0  0  0  0  0  0  0  0
   47.1115    0.0000    0.0000 C   0  0  0  0  0  0  0  0  0  0  0  0
   48.4974    0.8000    0.0000 H   0  0  0  0  0  0  0  0  0  0  0  0
   48.4974   -0.8000    0.0000 H   0  0  0  0  0  0  0  0  0  0  0  0
   47.1115    1.6000    0.0000 H   0  0  0  0  0  0  0  0  0  0  0  0
   20.7851   -2.4000    0.0000 O   0  0  0  0  0  0  0  0  0  0  0  0
   11.0853    0.0000    0.0000 O   0  0  0  0  0  0  0  0  0  0  0  0
    9.6994   -0.8000    0.0000 C   0  0  0  0  0  0  0  0  0  0  0  0
    9.0876   -2.2782    0.0000 H   0  0  0  0  0  0  0  0  0  0  0  0
   10.3121   -2.2782    0.0000 H   0  0  0  0  0  0  0  0  0  0  0  0
    8.3134    0.0000    0.0000 C   0  0  0  0  0  0  0  0  0  0  0  0
    8.9261    1.4782    0.0000 H   0  0  0  0  0  0  0  0  0  0  0  0
    7.7016    1.4782    0.0000 H   0  0  0  0  0  0  0  0  0  0  0  0
    6.9284   -0.8000    0.0000 C   0  0  0  0  0  0  0  0  0  0  0  0
    6.3157   -2.2782    0.0000 H   0  0  0  0  0  0  0  0  0  0  0  0
    7.5402   -2.2782    0.0000 H   0  0  0  0  0  0  0  0  0  0  0  0
    5.5425    0.0000    0.0000 C   0  0  0  0  0  0  0  0  0  0  0  0
    6.1552    1.4782    0.0000 H   0  0  0  0  0  0  0  0  0  0  0  0
    4.9307    1.4782    0.0000 H   0  0  0  0  0  0  0  0  0  0  0  0
    4.1565   -0.8000    0.0000 C   0  0  0  0  0  0  0  0  0  0  0  0
    3.5447   -2.2782    0.0000 H   0  0  0  0  0  0  0  0  0  0  0  0
    4.7692   -2.2782    0.0000 H   0  0  0  0  0  0  0  0  0  0  0  0
    2.7715    0.0000    0.0000 C   0  0  0  0  0  0  0  0  0  0  0  0
    3.3833    1.4782    0.0000 H   0  0  0  0  0  0  0  0  0  0  0  0
    2.1588    1.4782    0.0000 H   0  0  0  0  0  0  0  0  0  0  0  0
    1.3856   -0.8000    0.0000 C   0  0  0  0  0  0  0  0  0  0  0  0
    0.7738   -2.2782    0.0000 H   0  0  0  0  0  0  0  0  0  0  0  0
    1.9983   -2.2782    0.0000 H   0  0  0  0  0  0  0  0  0  0  0  0
   -0.0004    0.0000    0.0000 C   0  0  0  0  0  0  0  0  0  0  0  0
    0.6123    1.4782    0.0000 H   0  0  0  0  0  0  0  0  0  0  0  0
   -0.6122    1.4782    0.0000 H   0  0  0  0  0  0  0  0  0  0  0  0
   -1.3854   -0.8000    0.0000 C   0  0  0  0  0  0  0  0  0  0  0  0
   -1.9981   -2.2782    0.0000 H   0  0  0  0  0  0  0  0  0  0  0  0
   -0.7736   -2.2782    0.0000 H   0  0  0  0  0  0  0  0  0  0  0  0
   -2.7713    0.0000    0.0000 C   0  0  0  0  0  0  0  0  0  0  0  0
   -2.1586    1.4782    0.0000 H   0  0  0  0  0  0  0  0  0  0  0  0
   -3.3831    1.4782    0.0000 H   0  0  0  0  0  0  0  0  0  0  0  0
   -4.1573   -0.8000    0.0000 C   0  0  0  0  0  0  0  0  0  0  0  0
   -4.7691   -2.2782    0.0000 H   0  0  0  0  0  0  0  0  0  0  0  0
   -3.5446   -2.2782    0.0000 H   0  0  0  0  0  0  0  0  0  0  0  0
   -5.5423    0.0000    0.0000 C   0  0  0  0  0  0  0  0  0  0  0  0
   -4.9305    1.4782    0.0000 H   0  0  0  0  0  0  0  0  0  0  0  0
   -6.1550    1.4782    0.0000 H   0  0  0  0  0  0  0  0  0  0  0  0
   -6.9282   -0.8000    0.0000 C   0  0  0  0  0  0  0  0  0  0  0  0
   -7.5400   -2.2782    0.0000 H   0  0  0  0  0  0  0  0  0  0  0  0
   -6.3155   -2.2782    0.0000 H   0  0  0  0  0  0  0  0  0  0  0  0
   -8.3142    0.0000    0.0000 C   0  0  0  0  0  0  0  0  0  0  0  0
   -7.7015    1.4782    0.0000 H   0  0  0  0  0  0  0  0  0  0  0  0
   -8.9260    1.4782    0.0000 H   0  0  0  0  0  0  0  0  0  0  0  0
   -9.6992   -0.8000    0.0000 C   0  0  0  0  0  0  0  0  0  0  0  0
  -10.3119   -2.2782    0.0000 H   0  0  0  0  0  0  0  0  0  0  0  0
   -9.0874   -2.2782    0.0000 H   0  0  0  0  0  0  0  0  0  0  0  0
  -11.0851    0.0000    0.0000 C   0  0  0  0  0  0  0  0  0  0  0  0
  -10.4724    1.4782    0.0000 H   0  0  0  0  0  0  0  0  0  0  0  0
  -11.6979    1.4782    0.0000 H   0  0  0  0  0  0  0  0  0  0  0  0
  -12.4711   -0.8000    0.0000 C   0  0  0  0  0  0  0  0  0  0  0  0
  -13.0829   -2.2782    0.0000 H   0  0  0  0  0  0  0  0  0  0  0  0
  -11.8584   -2.2782    0.0000 H   0  0  0  0  0  0  0  0  0  0  0  0
  -13.8561    0.0000    0.0000 C   0  0  0  0  0  0  0  0  0  0  0  0
  -15.2420    0.8000    0.0000 H   0  0  0  0  0  0  0  0  0  0  0  0
  -15.2420   -0.8000    0.0000 H   0  0  0  0  0  0  0  0  0  0  0  0
  -13.8561    1.6000    0.0000 H   0  0  0  0  0  0  0  0  0  0  0  0
   12.4703   -2.4000    0.0000 O   0  0  0  0  0  0  0  0  0  0  0  0
  1  2  1  0  0  0  0
  2  3  1  0  0  0  0
  2  4  1  0  0  0  0
  2  5  1  0  0  0  0
  5  6  1  0  0  0  0
  5  7  1  0  0  0  0
  5  8  1  0  0  0  0
  8  9  1  0  0  0  0
  9 10  1  0  0  0  0
  9 11  1  0  0  0  0
  9 12  1  0  0  0  0
 12 13  1  0  0  0  0
 12 14  1  0  0  0  0
 12 15  1  0  0  0  0
 15 16  1  0  0  0  0
 16 17  1  0  0  0  0
 17 18  1  0  0  0  0
 17 19  1  0  0  0  0
 17 20  1  0  0  0  0
 20 21  1  0  0  0  0
 20 22  1  0  0  0  0
 20 23  1  0  0  0  0
 23 24  1  0  0  0  0
 23 25  1  0  0  0  0
 23 26  1  0  0  0  0
 26 27  1  0  0  0  0
 26 28  1  0  0  0  0
 26 29  1  0  0  0  0
 29 30  1  0  0  0  0
 29 31  1  0  0  0  0
 29 32  1  0  0  0  0
 32 33  1  0  0  0  0
 32 34  1  0  0  0  0
 32 35  1  0  0  0  0
 35 36  1  0  0  0  0
 35 37  1  0  0  0  0
 35 38  1  0  0  0  0
 38 39  1  0  0  0  0
 38 40  1  0  0  0  0
 38 41  1  0  0  0  0
 41 42  1  0  0  0  0
 41 43  1  0  0  0  0
 41 44  1  0  0  0  0
 44 45  1  0  0  0  0
 44 46  1  0  0  0  0
 44 47  1  0  0  0  0
 47 48  1  0  0  0  0
 47 49  1  0  0  0  0
 47 50  1  0  0  0  0
 50 51  1  0  0  0  0
 50 52  1  0  0  0  0
 50 53  1  0  0  0  0
 53 54  1  0  0  0  0
 53 55  1  0  0  0  0
 53 56  1  0  0  0  0
 56 57  1  0  0  0  0
 56 58  1  0  0  0  0
 56 59  1  0  0  0  0
 59 60  1  0  0  0  0
 59 61  1  0  0  0  0
 59 62  1  0  0  0  0
 62 63  1  0  0  0  0
 62 64  1  0  0  0  0
 62 65  1  0  0  0  0
 65 66  1  0  0  0  0
 65 67  1  0  0  0  0
 65 68  1  0  0  0  0
 68 69  1  0  0  0  0
 68 70  1  0  0  0  0
 68 71  1  0  0  0  0
 15 72  2  0  0  0  0
  1 73  1  0  0  0  0
 73 74  1  0  0  0  0
 74 75  1  0  0  0  0
 74 76  1  0  0  0  0
 74 77  1  0  0  0  0
 77 78  1  0  0  0  0
 77 79  1  0  0  0  0
 77 80  1  0  0  0  0
 80 81  1  0  0  0  0
 80 82  1  0  0  0  0
 80 83  1  0  0  0  0
 83 84  1  0  0  0  0
 83 85  1  0  0  0  0
 83 86  1  0  0  0  0
 86 87  1  0  0  0  0
 86 88  1  0  0  0  0
 86 89  1  0  0  0  0
 89 90  1  0  0  0  0
 89 91  1  0  0  0  0
 89 92  1  0  0  0  0
 92 93  1  0  0  0  0
 92 94  1  0  0  0  0
 92 95  1  0  0  0  0
 95 96  1  0  0  0  0
 95 97  1  0  0  0  0
 95 98  1  0  0  0  0
 98 99  1  0  0  0  0
 98100  1  0  0  0  0
 98101  1  0  0  0  0
101102  1  0  0  0  0
101103  1  0  0  0  0
101104  1  0  0  0  0
104105  1  0  0  0  0
104106  1  0  0  0  0
104107  1  0  0  0  0
107108  1  0  0  0  0
107109  1  0  0  0  0
107110  1  0  0  0  0
110111  1  0  0  0  0
110112  1  0  0  0  0
110113  1  0  0  0  0
113114  1  0  0  0  0
113115  1  0  0  0  0
113116  1  0  0  0  0
116117  1  0  0  0  0
116118  1  0  0  0  0
116119  1  0  0  0  0
119120  1  0  0  0  0
119121  1  0  0  0  0
119122  1  0  0  0  0
122123  1  0  0  0  0
122124  1  0  0  0  0
122125  1  0  0  0  0
125126  1  0  0  0  0
125127  1  0  0  0  0
125128  1  0  0  0  0
  1129  2  0  0  0  0
M  END
> <ChemID>
100918

> <source_casrn>
693-36-7

> <CAS>
693-36-7

> <SMILES>
CCCCCCCCCCCCCCCCCCOC(=O)CCSCCC(=O)OCCCCCCCCCCCCCCCCCC

> <NAME>
Propanoic acid, 3,3'-thiobis-, dioctadecyl ester

> <preferred_name>
Distearyl thiodipropionate

> <iupac>
dioctadecyl 3,3'-sulfanediyldipropanoate

> <MPID>
100919

> <dsstox_substance_id>
DTXSID3027299

> <Canonical_QSARr>
CCCCCCCCCCCCCCCCCCOC(=O)CCSCCC(=O)OCCCCCCCCCCCCCCCCCC

> <InChI_Code_QSARr>
InChI=1S/C42H82O4S/c1-3-5-7-9-11-13-15-17-19-21-23-25-27-29-31-33-37-45-41(43)35-39-47-40-36-42(44)46-38-34-32-30-28-26-24-22-20-18-16-14-12-10-8-6-4-2/h3-40H2,1-2H3

> <InChI Key_QSARr>
PWWSSIYVTQUJQQ-UHFFFAOYSA-N

> <Salt_Solvent>
?

> <Ready_Biodeg>
1.0

$$$$
100919
  -INDIGO-08031722522D

 31 30  0  0  0  0  0  0  0  0999 V2000
    6.9281    0.8000    0.0000 C   0  0  0  0  0  0  0  0  0  0  0  0
    8.3138    1.6000    0.0000 H   0  0  0  0  0  0  0  0  0  0  0  0
    8.3138    0.0000    0.0000 H   0  0  0  0  0  0  0  0  0  0  0  0
    6.9281    2.4000    0.0000 H   0  0  0  0  0  0  0  0  0  0  0  0
    5.5427    0.0000    0.0000 C   0  0  0  0  0  0  0  0  0  0  0  0
    5.5427   -1.6000    0.0000 O   0  0  0  0  0  0  0  0  0  0  0  0
    4.1570    0.8000    0.0000 C   0  0  0  0  0  0  0  0  0  0  0  0
    4.7691    2.2782    0.0000 H   0  0  0  0  0  0  0  0  0  0  0  0
    3.5446    2.2782    0.0000 H   0  0  0  0  0  0  0  0  0  0  0  0
    2.7713    0.0000    0.0000 C   0  0  0  0  0  0  0  0  0  0  0  0
    2.1589   -1.4782    0.0000 H   0  0  0  0  0  0  0  0  0  0  0  0
    3.3836   -1.4782    0.0000 H   0  0  0  0  0  0  0  0  0  0  0  0
    1.3856    0.8000    0.0000 C   0  0  0  0  0  0  0  0  0  0  0  0
    1.9979    2.2782    0.0000 H   0  0  0  0  0  0  0  0  0  0  0  0
    0.7734    2.2782    0.0000 H   0  0  0  0  0  0  0  0  0  0  0  0
    0.0001    0.0000    0.0000 C   0  0  0  0  0  0  0  0  0  0  0  0
   -0.6123   -1.4782    0.0000 H   0  0  0  0  0  0  0  0  0  0  0  0
    0.6122   -1.4782    0.0000 H   0  0  0  0  0  0  0  0  0  0  0  0
   -1.3856    0.8000    0.0000 C   0  0  0  0  0  0  0  0  0  0  0  0
   -0.7732    2.2782    0.0000 H   0  0  0  0  0  0  0  0  0  0  0  0
   -1.9980    2.2782    0.0000 H   0  0  0  0  0  0  0  0  0  0  0  0
   -2.7713    0.0000    0.0000 C   0  0  0  0  0  0  0  0  0  0  0  0
   -3.3835   -1.4782    0.0000 H   0  0  0  0  0  0  0  0  0  0  0  0
   -2.1589   -1.4782    0.0000 H   0  0  0  0  0  0  0  0  0  0  0  0
   -4.1570    0.8000    0.0000 C   0  0  0  0  0  0  0  0  0  0  0  0
   -3.5446    2.2782    0.0000 H   0  0  0  0  0  0  0  0  0  0  0  0
   -4.7692    2.2782    0.0000 H   0  0  0  0  0  0  0  0  0  0  0  0
   -5.5425    0.0000    0.0000 C   0  0  0  0  0  0  0  0  0  0  0  0
   -6.9282   -0.8000    0.0000 H   0  0  0  0  0  0  0  0  0  0  0  0
   -6.9282    0.8000    0.0000 H   0  0  0  0  0  0  0  0  0  0  0  0
   -5.5425   -1.6000    0.0000 H   0  0  0  0  0  0  0  0  0  0  0  0
  1  2  1  0  0  0  0
  1  3  1  0  0  0  0
  1  4  1  0  0  0  0
  1  5  1  0  0  0  0
  5  6  2  0  0  0  0
  5  7  1  0  0  0  0
  7  8  1  0  0  0  0
  7  9  1  0  0  0  0
  7 10  1  0  0  0  0
 10 11  1  0  0  0  0
 10 12  1  0  0  0  0
 10 13  1  0  0  0  0
 13 14  1  0  0  0  0
 13 15  1  0  0  0  0
 13 16  1  0  0  0  0
 16 17  1  0  0  0  0
 16 18  1  0  0  0  0
 16 19  1  0  0  0  0
 19 20  1  0  0  0  0
 19 21  1  0  0  0  0
 19 22  1  0  0  0  0
 22 23  1  0  0  0  0
 22 24  1  0  0  0  0
 22 25  1  0  0  0  0
 25 26  1  0  0  0  0
 25 27  1  0  0  0  0
 25 28  1  0  0  0  0
 28 29  1  0  0  0  0
 28 30  1  0  0  0  0
 28 31  1  0  0  0  0
M  END
> <ChemID>
100919

> <source_casrn>
693-54-9

> <CAS>
693-54-9

> <SMILES>
CCCCCCCCC(C)=O

> <NAME>
METHYL OCTYL KETONE

> <preferred_name>
2-Decanone

> <iupac>
decan-2-one

> <MPID>
100920

> <dsstox_substance_id>
DTXSID9022104

> <Canonical_QSARr>
CCCCCCCCC(C)=O

> <InChI_Code_QSARr>
InChI=1S/C10H20O/c1-3-4-5-6-7-8-9-10(2)11/h3-9H2,1-2H3

> <InChI Key_QSARr>
ZAJNGDIORYACQU-UHFFFAOYSA-N

> <Salt_Solvent>
?

> <Ready_Biodeg>
1.0

$$$$
100921
  -INDIGO-08031722522D

 20 20  0  0  0  0  0  0  0  0999 V2000
   -1.3857    0.8000    0.0000 N   0  0  0  0  0  0  0  0  0  0  0  0
   -1.3857    2.4000    0.0000 H   0  0  0  0  0  0  0  0  0  0  0  0
   -0.0001   -0.0000    0.0000 C   0  0  0  0  0  0  0  0  0  0  0  0
   -0.0001   -1.6000    0.0000 C   0  0  0  0  0  0  0  0  0  0  0  0
   -1.3857   -2.4000    0.0000 H   0  0  0  0  0  0  0  0  0  0  0  0
    1.3857   -2.4000    0.0000 C   0  0  0  0  0  0  0  0  0  0  0  0
    1.3857   -4.0000    0.0000 H   0  0  0  0  0  0  0  0  0  0  0  0
    2.7713   -1.6000    0.0000 C   0  0  0  0  0  0  0  0  0  0  0  0
    4.1569   -2.4000    0.0000 H   0  0  0  0  0  0  0  0  0  0  0  0
    2.7713   -0.0000    0.0000 C   0  0  0  0  0  0  0  0  0  0  0  0
    4.1569    0.8000    0.0000 C   0  0  0  0  0  0  0  0  0  0  0  0
    5.5426    1.6000    0.0000 H   0  0  0  0  0  0  0  0  0  0  0  0
    5.5426   -0.0000    0.0000 H   0  0  0  0  0  0  0  0  0  0  0  0
    4.1569    2.4000    0.0000 H   0  0  0  0  0  0  0  0  0  0  0  0
    1.3857    0.8000    0.0000 C   0  0  0  0  0  0  0  0  0  0  0  0
    1.3857    2.4000    0.0000 H   0  0  0  0  0  0  0  0  0  0  0  0
   -2.7713   -0.0000    0.0000 C   0  0  0  0  0  0  0  0  0  0  0  0
   -4.1569   -0.8000    0.0000 H   0  0  0  0  0  0  0  0  0  0  0  0
   -4.1569    0.8000    0.0000 H   0  0  0  0  0  0  0  0  0  0  0  0
   -2.7713   -1.6000    0.0000 H   0  0  0  0  0  0  0  0  0  0  0  0
  1  2  1  0  0  0  0
  1  3  1  0  0  0  0
  3  4  1  0  0  0  0
  4  5  1  0  0  0  0
  4  6  2  0  0  0  0
  6  7  1  0  0  0  0
  6  8  1  0  0  0  0
  8  9  1  0  0  0  0
  8 10  2  0  0  0  0
 10 11  1  0  0  0  0
 11 12  1  0  0  0  0
 11 13  1  0  0  0  0
 11 14  1  0  0  0  0
 10 15  1  0  0  0  0
 15  3  2  0  0  0  0
 15 16  1  0  0  0  0
  1 17  1  0  0  0  0
 17 18  1  0  0  0  0
 17 19  1  0  0  0  0
 17 20  1  0  0  0  0
M  END
> <ChemID>
100921

> <source_casrn>
696-44-6

> <CAS>
696-44-6

> <SMILES>
Cc1cccc(c1)NC

> <NAME>
Benzenamine, N,3-dimethyl-

> <preferred_name>
Benzenamine, N,3-dimethyl-

> <iupac>
N,3-Dimethylaniline

> <MPID>
100921

> <dsstox_substance_id>
DTXSID2061014

> <Canonical_QSARr>
Cc1cccc(c1)NC

> <InChI_Code_QSARr>
InChI=1S/C8H11N/c1-7-4-3-5-8(6-7)9-2/h3-6,9H,1-2H3

> <InChI Key_QSARr>
FBGJJTQNZVNEQU-UHFFFAOYSA-N

> <Salt_Solvent>
?

> <Ready_Biodeg>
0.0

$$$$
100923
  -INDIGO-08031722522D

 18 18  0  0  0  0  0  0  0  0999 V2000
   -4.1569    0.8000    0.0000 O   0  0  0  0  0  0  0  0  0  0  0  0
   -4.1569    2.4000    0.0000 H   0  0  0  0  0  0  0  0  0  0  0  0
   -2.7713   -0.0000    0.0000 C   0  0  0  0  0  0  0  0  0  0  0  0
   -2.7713   -1.6000    0.0000 C   0  0  0  0  0  0  0  0  0  0  0  0
   -4.1570   -2.4000    0.0000 N   0  0  0  0  0  0  0  0  0  0  0  0
   -4.1569   -4.0000    0.0000 O   0  0  0  0  0  0  0  0  0  0  0  0
   -5.5426   -1.6000    0.0000 O   0  0  0  0  0  0  0  0  0  0  0  0
   -1.3856   -2.4000    0.0000 C   0  0  0  0  0  0  0  0  0  0  0  0
   -1.3857   -4.0000    0.0000 H   0  0  0  0  0  0  0  0  0  0  0  0
    0.0000   -1.6000    0.0000 C   0  0  0  0  0  0  0  0  0  0  0  0
    1.3857   -2.4000    0.0000 H   0  0  0  0  0  0  0  0  0  0  0  0
    0.0000   -0.0000    0.0000 C   0  0  0  0  0  0  0  0  0  0  0  0
    1.3857    0.8000    0.0000 C   0  0  0  0  0  0  0  0  0  0  0  0
    2.7713    1.6000    0.0000 H   0  0  0  0  0  0  0  0  0  0  0  0
    2.7713   -0.0000    0.0000 H   0  0  0  0  0  0  0  0  0  0  0  0
    1.3857    2.4000    0.0000 H   0  0  0  0  0  0  0  0  0  0  0  0
   -1.3856    0.8000    0.0000 C   0  0  0  0  0  0  0  0  0  0  0  0
   -1.3857    2.4000    0.0000 H   0  0  0  0  0  0  0  0  0  0  0  0
  1  2  1  0  0  0  0
  1  3  1  0  0  0  0
  3  4  1  0  0  0  0
  4  5  1  0  0  0  0
  5  6  1  0  0  0  0
  5  7  2  0  0  0  0
  4  8  2  0  0  0  0
  8  9  1  0  0  0  0
  8 10  1  0  0  0  0
 10 11  1  0  0  0  0
 10 12  2  0  0  0  0
 12 13  1  0  0  0  0
 13 14  1  0  0  0  0
 13 15  1  0  0  0  0
 13 16  1  0  0  0  0
 12 17  1  0  0  0  0
 17  3  2  0  0  0  0
 17 18  1  0  0  0  0
M  CHG  2   5   1   6  -1
M  END
> <ChemID>
100923

> <source_casrn>
700-38-9

> <CAS>
700-38-9

> <SMILES>
Cc1ccc(c(O)c1)[N+]([O-])=O

> <NAME>
5-Methyl-2-nitrophenol

> <preferred_name>
6-Nitro-m-cresol

> <iupac>
5-METHYL-2-NITROPHENOL

> <MPID>
100923

> <dsstox_substance_id>
DTXSID00220261

> <Canonical_QSARr>
Cc1ccc(c(O)c1)[N+]([O-])=O

> <InChI_Code_QSARr>
InChI=1S/C7H7NO3/c1-5-2-3-6(8(10)11)7(9)4-5/h2-4,9H,1H3

> <InChI Key_QSARr>
NQXUSSVLFOBRSE-UHFFFAOYSA-N

> <Salt_Solvent>
?

> <Ready_Biodeg>
0.0

$$$$
100924
  -INDIGO-08031722522D

 21 22  0  0  0  0  0  0  0  0999 V2000
    0.0001    0.0000    0.0000 C   0  0  0  0  0  0  0  0  0  0  0  0
    1.6000    0.0000    0.0000 C   0  0  0  0  0  0  0  0  0  0  0  0
    2.4000    1.3856    0.0000 C   0  0  0  0  0  0  0  0  0  0  0  0
    4.0000    1.3856    0.0000 H   0  0  0  0  0  0  0  0  0  0  0  0
    1.6000    2.7713    0.0000 O   0  0  0  0  0  0  0  0  0  0  0  0
    2.4000   -1.3856    0.0000 C   0  0  0  0  0  0  0  0  0  0  0  0
    4.0000   -1.3856    0.0000 O   0  0  0  0  0  0  0  0  0  0  0  0
    4.8000   -2.7713    0.0000 H   0  0  0  0  0  0  0  0  0  0  0  0
    1.6000   -2.7713    0.0000 C   0  0  0  0  0  0  0  0  0  0  0  0
    2.4000   -4.1569    0.0000 H   0  0  0  0  0  0  0  0  0  0  0  0
    0.0001   -2.7713    0.0000 C   0  0  0  0  0  0  0  0  0  0  0  0
   -0.8000   -4.1569    0.0000 H   0  0  0  0  0  0  0  0  0  0  0  0
   -0.8000   -1.3856    0.0000 C   0  0  0  0  0  0  0  0  0  0  0  0
   -2.4000   -1.3856    0.0000 C   0  0  0  0  0  0  0  0  0  0  0  0
   -3.2001   -2.7713    0.0000 H   0  0  0  0  0  0  0  0  0  0  0  0
   -3.1999    0.0000    0.0000 C   0  0  0  0  0  0  0  0  0  0  0  0
   -4.8000    0.0000    0.0000 H   0  0  0  0  0  0  0  0  0  0  0  0
   -2.4000    1.3856    0.0000 C   0  0  0  0  0  0  0  0  0  0  0  0
   -3.2001    2.7713    0.0000 H   0  0  0  0  0  0  0  0  0  0  0  0
   -0.8000    1.3856    0.0000 C   0  0  0  0  0  0  0  0  0  0  0  0
   -0.0001    2.7713    0.0000 H   0  0  0  0  0  0  0  0  0  0  0  0
  1  2  1  0  0  0  0
  2  3  1  0  0  0  0
  3  4  1  0  0  0  0
  3  5  2  0  0  0  0
  2  6  2  0  0  0  0
  6  7  1  0  0  0  0
  7  8  1  0  0  0  0
  6  9  1  0  0  0  0
  9 10  1  0  0  0  0
  9 11  2  0  0  0  0
 11 12  1  0  0  0  0
 11 13  1  0  0  0  0
 13  1  1  0  0  0  0
 13 14  2  0  0  0  0
 14 15  1  0  0  0  0
 14 16  1  0  0  0  0
 16 17  1  0  0  0  0
 16 18  2  0  0  0  0
 18 19  1  0  0  0  0
 18 20  1  0  0  0  0
 20  1  2  0  0  0  0
 20 21  1  0  0  0  0
M  END
> <ChemID>
100924

> <source_casrn>
708-06-5

> <CAS>
708-06-5

> <SMILES>
Oc1ccc2ccccc2c1C=O

> <NAME>
1-Naphthalenecarboxaldehyde, 2-hydroxy-

> <preferred_name>
1-Naphthalenecarboxaldehyde, 2-hydroxy-

> <iupac>
2-hydroxynaphthalene-1-carbaldehyde

> <MPID>
100924

> <dsstox_substance_id>
DTXSID9061041

> <Canonical_QSARr>
Oc1ccc2ccccc2c1C=O

> <InChI_Code_QSARr>
InChI=1S/C11H8O2/c12-7-10-9-4-2-1-3-8(9)5-6-11(10)13/h1-7,13H

> <InChI Key_QSARr>
NTCCNERMXRIPTR-UHFFFAOYSA-N

> <Salt_Solvent>
?

> <Ready_Biodeg>
1.0

$$$$
100925
  -INDIGO-08031722522D

 22 22  0  0  0  0  0  0  0  0999 V2000
   -5.5425   -0.0000    0.0000 C   0  0  0  0  0  0  0  0  0  0  0  0
   -5.5425    1.6000    0.0000 H   0  0  0  0  0  0  0  0  0  0  0  0
   -6.9282   -0.8000    0.0000 C   0  0  0  0  0  0  0  0  0  0  0  0
   -8.3138   -0.0000    0.0000 Cl  0  0  0  0  0  0  0  0  0  0  0  0
   -6.9282   -2.4000    0.0000 C   0  0  0  0  0  0  0  0  0  0  0  0
   -8.3138   -3.2000    0.0000 Cl  0  0  0  0  0  0  0  0  0  0  0  0
   -5.5425   -3.2000    0.0000 C   0  0  0  0  0  0  0  0  0  0  0  0
   -5.5425   -4.8000    0.0000 H   0  0  0  0  0  0  0  0  0  0  0  0
   -4.1569   -2.4000    0.0000 C   0  0  0  0  0  0  0  0  0  0  0  0
   -2.7712   -3.2000    0.0000 H   0  0  0  0  0  0  0  0  0  0  0  0
   -4.1569   -0.8000    0.0000 C   0  0  0  0  0  0  0  0  0  0  0  0
   -2.7712   -0.0000    0.0000 N   0  0  0  0  0  0  0  0  0  0  0  0
   -2.7712    1.6000    0.0000 H   0  0  0  0  0  0  0  0  0  0  0  0
   -1.3857   -0.8000    0.0000 C   0  0  0  0  0  0  0  0  0  0  0  0
   -1.3857   -2.4000    0.0000 O   0  0  0  0  0  0  0  0  0  0  0  0
   -0.0000   -0.0000    0.0000 C   0  0  0  0  0  0  0  0  0  0  0  0
   -0.6124    1.4782    0.0000 H   0  0  0  0  0  0  0  0  0  0  0  0
    0.6123    1.4782    0.0000 H   0  0  0  0  0  0  0  0  0  0  0  0
    1.3856   -0.8000    0.0000 C   0  0  0  0  0  0  0  0  0  0  0  0
    2.7713   -1.6000    0.0000 H   0  0  0  0  0  0  0  0  0  0  0  0
    2.7713   -0.0000    0.0000 H   0  0  0  0  0  0  0  0  0  0  0  0
    1.3856   -2.4000    0.0000 H   0  0  0  0  0  0  0  0  0  0  0  0
  1  2  1  0  0  0  0
  1  3  1  0  0  0  0
  3  4  1  0  0  0  0
  3  5  2  0  0  0  0
  5  6  1  0  0  0  0
  5  7  1  0  0  0  0
  7  8  1  0  0  0  0
  7  9  2  0  0  0  0
  9 10  1  0  0  0  0
  9 11  1  0  0  0  0
 11  1  2  0  0  0  0
 11 12  1  0  0  0  0
 12 13  1  0  0  0  0
 12 14  1  0  0  0  0
 14 15  2  0  0  0  0
 14 16  1  0  0  0  0
 16 17  1  0  0  0  0
 16 18  1  0  0  0  0
 16 19  1  0  0  0  0
 19 20  1  0  0  0  0
 19 21  1  0  0  0  0
 19 22  1  0  0  0  0
M  END
> <ChemID>
100925

> <source_casrn>
709-98-8

> <CAS>
709-98-8

> <SMILES>
CCC(=O)Nc1ccc(Cl)c(Cl)c1

> <NAME>
N-(3,4-Dichlorophenyl) propanamide

> <preferred_name>
Propanil

> <iupac>
N-(3,4-dichlorophenyl)propanamide

> <MPID>
100925

> <dsstox_substance_id>
DTXSID8022111

> <Canonical_QSARr>
CCC(=O)Nc1cc(Cl)c(Cl)cc1

> <InChI_Code_QSARr>
InChI=1S/C9H9Cl2NO/c1-2-9(13)12-6-3-4-7(10)8(11)5-6/h3-5H,2H2,1H3,(H,12,13)

> <InChI Key_QSARr>
LFULEKSKNZEWOE-UHFFFAOYSA-N

> <Salt_Solvent>
?

> <Ready_Biodeg>
1.0

$$$$
100927
  -INDIGO-08031722522D

 12 11  0  0  0  0  0  0  0  0999 V2000
    2.7713    0.0000    0.0000 C   0  0  0  0  0  0  0  0  0  0  0  0
    4.1569    0.8000    0.0000 H   0  0  0  0  0  0  0  0  0  0  0  0
    2.7713   -1.6000    0.0000 H   0  0  0  0  0  0  0  0  0  0  0  0
    1.3856    0.8000    0.0000 C   0  0  0  0  0  0  0  0  0  0  0  0
    1.3856    2.4000    0.0000 H   0  0  0  0  0  0  0  0  0  0  0  0
    0.0000    0.0000    0.0000 C   0  0  0  0  0  0  0  0  0  0  0  0
   -0.6123   -1.4782    0.0000 H   0  0  0  0  0  0  0  0  0  0  0  0
    0.6123   -1.4782    0.0000 Cl  0  0  0  0  0  0  0  0  0  0  0  0
   -1.3856    0.8000    0.0000 C   0  0  0  0  0  0  0  0  0  0  0  0
   -2.7713    1.6000    0.0000 H   0  0  0  0  0  0  0  0  0  0  0  0
   -2.7713    0.0000    0.0000 H   0  0  0  0  0  0  0  0  0  0  0  0
   -1.3856    2.4000    0.0000 Cl  0  0  0  0  0  0  0  0  0  0  0  0
  1  2  1  0  0  0  0
  1  3  1  0  0  0  0
  1  4  2  0  0  0  0
  4  5  1  0  0  0  0
  4  6  1  0  0  0  0
  6  7  1  0  0  0  0
  6  8  1  0  0  0  0
  6  9  1  0  0  0  0
  9 10  1  0  0  0  0
  9 11  1  0  0  0  0
  9 12  1  0  0  0  0
M  END
> <ChemID>
100927

> <source_casrn>
760-23-6

> <CAS>
760-23-6

> <SMILES>
C=CC(Cl)CCl

> <NAME>
1-Butene, 3,4-dichloro-

> <preferred_name>
3,4-Dichloro-1-butene

> <iupac>
3,4-dichlorobut-1-ene

> <MPID>
100927

> <dsstox_substance_id>
DTXSID8022113

> <Canonical_QSARr>
C=CC(Cl)CCl

> <InChI_Code_QSARr>
InChI=1S/C4H6Cl2/c1-2-4(6)3-5/h2,4H,1,3H2

> <InChI Key_QSARr>
XVEASTGLHPVZNA-UHFFFAOYSA-N

> <Salt_Solvent>
?

> <Ready_Biodeg>
0.0

$$$$
100928
  -INDIGO-08031722522D

 14 14  0  0  0  0  0  0  0  0999 V2000
   -0.0000   -0.0000    0.0000 C   0  0  0  0  0  0  0  0  0  0  0  0
   -0.8000    1.3856    0.0000 C   0  0  0  0  0  0  0  0  0  0  0  0
   -0.0000    2.7713    0.0000 H   0  0  0  0  0  0  0  0  0  0  0  0
   -2.4000    1.3856    0.0000 C   0  0  0  0  0  0  0  0  0  0  0  0
   -3.2000    2.7713    0.0000 H   0  0  0  0  0  0  0  0  0  0  0  0
   -3.2000   -0.0000    0.0000 C   0  0  0  0  0  0  0  0  0  0  0  0
   -4.8000   -0.0000    0.0000 O   0  0  0  0  0  0  0  0  0  0  0  0
   -5.6000    1.3856    0.0000 H   0  0  0  0  0  0  0  0  0  0  0  0
   -2.4000   -1.3856    0.0000 C   0  0  0  0  0  0  0  0  0  0  0  0
   -3.2000   -2.7713    0.0000 H   0  0  0  0  0  0  0  0  0  0  0  0
   -0.8000   -1.3856    0.0000 C   0  0  0  0  0  0  0  0  0  0  0  0
   -0.0000   -2.7713    0.0000 H   0  0  0  0  0  0  0  0  0  0  0  0
    1.6001   -0.0000    0.0000 C   0  0  0  0  0  0  0  0  0  0  0  0
    3.2000   -0.0000    0.0000 N   0  0  0  0  0  0  0  0  0  0  0  0
  1  2  1  0  0  0  0
  2  3  1  0  0  0  0
  2  4  2  0  0  0  0
  4  5  1  0  0  0  0
  4  6  1  0  0  0  0
  6  7  1  0  0  0  0
  7  8  1  0  0  0  0
  6  9  2  0  0  0  0
  9 10  1  0  0  0  0
  9 11  1  0  0  0  0
 11  1  2  0  0  0  0
 11 12  1  0  0  0  0
  1 13  1  0  0  0  0
 13 14  3  0  0  0  0
M  END
> <ChemID>
100928

> <source_casrn>
767-00-0

> <CAS>
767-00-0

> <SMILES>
N#Cc1ccc(O)cc1

> <NAME>
P-CYANOPHENOL

> <preferred_name>
4-Hydroxybenzonitrile

> <iupac>
4-hydroxybenzonitrile

> <MPID>
100928

> <dsstox_substance_id>
DTXSID9052509

> <Canonical_QSARr>
N#Cc1ccc(O)cc1

> <InChI_Code_QSARr>
InChI=1S/C7H5NO/c8-5-6-1-3-7(9)4-2-6/h1-4,9H

> <InChI Key_QSARr>
CVNOWLNNPYYEOH-UHFFFAOYSA-N

> <Salt_Solvent>
?

> <Ready_Biodeg>
0.0

$$$$
100929
  -INDIGO-08031722522D

 26 26  0  0  0  0  0  0  0  0999 V2000
    0.0000    0.0000    0.0000 N   0  0  0  0  0  0  0  0  0  0  0  0
   -0.3327   -1.5650    0.0000 C   0  0  0  0  0  0  0  0  0  0  0  0
    1.2586   -1.7323    0.0000 H   0  0  0  0  0  0  0  0  0  0  0  0
   -0.3327   -3.1650    0.0000 H   0  0  0  0  0  0  0  0  0  0  0  0
   -1.9238   -1.7323    0.0000 C   0  0  0  0  0  0  0  0  0  0  0  0
   -1.5913   -3.2973    0.0000 H   0  0  0  0  0  0  0  0  0  0  0  0
   -3.4456   -2.2267    0.0000 H   0  0  0  0  0  0  0  0  0  0  0  0
   -2.5746   -0.2706    0.0000 C   0  0  0  0  0  0  0  0  0  0  0  0
   -3.9603   -1.0706    0.0000 H   0  0  0  0  0  0  0  0  0  0  0  0
   -3.5152    1.0238    0.0000 H   0  0  0  0  0  0  0  0  0  0  0  0
   -1.3857    0.8000    0.0000 C   0  0  0  0  0  0  0  0  0  0  0  0
   -2.5746    1.8706    0.0000 H   0  0  0  0  0  0  0  0  0  0  0  0
   -0.4451    2.0944    0.0000 H   0  0  0  0  0  0  0  0  0  0  0  0
    1.4617    0.6508    0.0000 C   0  0  0  0  0  0  0  0  0  0  0  0
    2.2251    2.0569    0.0000 H   0  0  0  0  0  0  0  0  0  0  0  0
    1.0073    2.1849    0.0000 H   0  0  0  0  0  0  0  0  0  0  0  0
    2.8998   -0.0506    0.0000 C   0  0  0  0  0  0  0  0  0  0  0  0
    2.3920   -1.5680    0.0000 H   0  0  0  0  0  0  0  0  0  0  0  0
    3.6136   -1.4825    0.0000 H   0  0  0  0  0  0  0  0  0  0  0  0
    4.2262    0.8441    0.0000 C   0  0  0  0  0  0  0  0  0  0  0  0
    4.7338    2.3614    0.0000 H   0  0  0  0  0  0  0  0  0  0  0  0
    3.5124    2.2760    0.0000 H   0  0  0  0  0  0  0  0  0  0  0  0
    5.6643    0.1427    0.0000 C   0  0  0  0  0  0  0  0  0  0  0  0
    7.1023   -0.5587    0.0000 H   0  0  0  0  0  0  0  0  0  0  0  0
    6.9908    1.0374    0.0000 H   0  0  0  0  0  0  0  0  0  0  0  0
    5.7759   -1.4534    0.0000 H   0  0  0  0  0  0  0  0  0  0  0  0
  1  2  1  0  0  0  0
  2  3  1  0  0  0  0
  2  4  1  0  0  0  0
  2  5  1  0  0  0  0
  5  6  1  0  0  0  0
  5  7  1  0  0  0  0
  5  8  1  0  0  0  0
  8  9  1  0  0  0  0
  8 10  1  0  0  0  0
  8 11  1  0  0  0  0
 11  1  1  0  0  0  0
 11 12  1  0  0  0  0
 11 13  1  0  0  0  0
  1 14  1  0  0  0  0
 14 15  1  0  0  0  0
 14 16  1  0  0  0  0
 14 17  1  0  0  0  0
 17 18  1  0  0  0  0
 17 19  1  0  0  0  0
 17 20  1  0  0  0  0
 20 21  1  0  0  0  0
 20 22  1  0  0  0  0
 20 23  1  0  0  0  0
 23 24  1  0  0  0  0
 23 25  1  0  0  0  0
 23 26  1  0  0  0  0
M  END
> <ChemID>
100929

> <source_casrn>
767-10-2

> <CAS>
767-10-2

> <SMILES>
CCCCN1CCCC1

> <NAME>
N-Butylpyrrolidine

> <preferred_name>
Pyrrolidine, 1-butyl-

> <iupac>
1-Butylpyrrolidine

> <MPID>
100929

> <dsstox_substance_id>
DTXSID20227494

> <Canonical_QSARr>
CCCCN1CCCC1

> <InChI_Code_QSARr>
InChI=1S/C8H17N/c1-2-3-6-9-7-4-5-8-9/h2-8H2,1H3

> <InChI Key_QSARr>
JSHASCFKOSDFHY-UHFFFAOYSA-N

> <Salt_Solvent>
?

> <Ready_Biodeg>
1.0

$$$$
100931
  -INDIGO-08031722522D

 16 15  0  0  0  0  0  0  0  0999 V2000
    5.5425    0.0000    0.0000 C   0  0  0  0  0  0  0  0  0  0  0  0
    6.9282    0.8000    0.0000 H   0  0  0  0  0  0  0  0  0  0  0  0
    5.5425   -1.6000    0.0000 H   0  0  0  0  0  0  0  0  0  0  0  0
    4.1569    0.8000    0.0000 C   0  0  0  0  0  0  0  0  0  0  0  0
    4.1569    2.4000    0.0000 H   0  0  0  0  0  0  0  0  0  0  0  0
    2.7712    0.0000    0.0000 C   0  0  0  0  0  0  0  0  0  0  0  0
    2.7712   -1.6000    0.0000 O   0  0  0  0  0  0  0  0  0  0  0  0
    1.3856    0.8000    0.0000 O   0  0  0  0  0  0  0  0  0  0  0  0
    0.0001    0.0000    0.0000 C   0  0  0  0  0  0  0  0  0  0  0  0
   -0.6123   -1.4782    0.0000 H   0  0  0  0  0  0  0  0  0  0  0  0
    0.6122   -1.4782    0.0000 H   0  0  0  0  0  0  0  0  0  0  0  0
   -1.3856    0.8000    0.0000 C   0  0  0  0  0  0  0  0  0  0  0  0
   -0.7733    2.2782    0.0000 H   0  0  0  0  0  0  0  0  0  0  0  0
   -1.9979    2.2782    0.0000 H   0  0  0  0  0  0  0  0  0  0  0  0
   -2.7713    0.0000    0.0000 O   0  0  0  0  0  0  0  0  0  0  0  0
   -4.1569    0.8000    0.0000 H   0  0  0  0  0  0  0  0  0  0  0  0
  1  2  1  0  0  0  0
  1  3  1  0  0  0  0
  1  4  2  0  0  0  0
  4  5  1  0  0  0  0
  4  6  1  0  0  0  0
  6  7  2  0  0  0  0
  6  8  1  0  0  0  0
  8  9  1  0  0  0  0
  9 10  1  0  0  0  0
  9 11  1  0  0  0  0
  9 12  1  0  0  0  0
 12 13  1  0  0  0  0
 12 14  1  0  0  0  0
 12 15  1  0  0  0  0
 15 16  1  0  0  0  0
M  END
> <ChemID>
100931

> <source_casrn>
818-61-1

> <CAS>
818-61-1

> <SMILES>
C=CC(=O)OCCO

> <NAME>
2-Propenoic acid, 2-hydroxyethyl ester

> <preferred_name>
2-Hydroxyethyl acrylate

> <iupac>
2-hydroxyethyl prop-2-enoate

> <MPID>
100931

> <dsstox_substance_id>
DTXSID2022123

> <Canonical_QSARr>
C=CC(=O)OCCO

> <InChI_Code_QSARr>
InChI=1S/C5H8O3/c1-2-5(7)8-4-3-6/h2,6H,1,3-4H2

> <InChI Key_QSARr>
OMIGHNLMNHATMP-UHFFFAOYSA-N

> <Salt_Solvent>
?

> <Ready_Biodeg>
1.0

$$$$
100932
  -INDIGO-08031722522D

 44 43  0  0  0  0  0  0  0  0999 V2000
   -8.3138    0.0000    0.0000 C   0  0  0  0  0  0  0  0  0  0  0  0
   -6.9282   -0.8000    0.0000 C   0  0  0  0  0  0  0  0  0  0  0  0
   -6.3161   -2.2782    0.0000 H   0  0  0  0  0  0  0  0  0  0  0  0
   -7.5403   -2.2782    0.0000 H   0  0  0  0  0  0  0  0  0  0  0  0
   -5.5426    0.0000    0.0000 C   0  0  0  0  0  0  0  0  0  0  0  0
   -6.1547    1.4782    0.0000 H   0  0  0  0  0  0  0  0  0  0  0  0
   -4.9304    1.4782    0.0000 H   0  0  0  0  0  0  0  0  0  0  0  0
   -4.1569   -0.8000    0.0000 C   0  0  0  0  0  0  0  0  0  0  0  0
   -3.5448   -2.2782    0.0000 H   0  0  0  0  0  0  0  0  0  0  0  0
   -4.7690   -2.2782    0.0000 H   0  0  0  0  0  0  0  0  0  0  0  0
   -2.7713    0.0000    0.0000 C   0  0  0  0  0  0  0  0  0  0  0  0
   -3.3834    1.4782    0.0000 H   0  0  0  0  0  0  0  0  0  0  0  0
   -2.1592    1.4782    0.0000 H   0  0  0  0  0  0  0  0  0  0  0  0
   -1.3856   -0.8000    0.0000 C   0  0  0  0  0  0  0  0  0  0  0  0
   -0.7735   -2.2782    0.0000 H   0  0  0  0  0  0  0  0  0  0  0  0
   -1.9978   -2.2782    0.0000 H   0  0  0  0  0  0  0  0  0  0  0  0
    0.0000    0.0000    0.0000 C   0  0  0  0  0  0  0  0  0  0  0  0
   -0.6121    1.4782    0.0000 H   0  0  0  0  0  0  0  0  0  0  0  0
    0.6121    1.4782    0.0000 H   0  0  0  0  0  0  0  0  0  0  0  0
    1.3856   -0.8000    0.0000 C   0  0  0  0  0  0  0  0  0  0  0  0
    1.9978   -2.2782    0.0000 H   0  0  0  0  0  0  0  0  0  0  0  0
    0.7735   -2.2782    0.0000 H   0  0  0  0  0  0  0  0  0  0  0  0
    2.7713    0.0000    0.0000 C   0  0  0  0  0  0  0  0  0  0  0  0
    2.1592    1.4782    0.0000 H   0  0  0  0  0  0  0  0  0  0  0  0
    3.3834    1.4782    0.0000 H   0  0  0  0  0  0  0  0  0  0  0  0
    4.1569   -0.8000    0.0000 C   0  0  0  0  0  0  0  0  0  0  0  0
    4.7690   -2.2782    0.0000 H   0  0  0  0  0  0  0  0  0  0  0  0
    3.5448   -2.2782    0.0000 H   0  0  0  0  0  0  0  0  0  0  0  0
    5.5426    0.0000    0.0000 C   0  0  0  0  0  0  0  0  0  0  0  0
    4.9304    1.4782    0.0000 H   0  0  0  0  0  0  0  0  0  0  0  0
    6.1547    1.4782    0.0000 H   0  0  0  0  0  0  0  0  0  0  0  0
    6.9282   -0.8000    0.0000 C   0  0  0  0  0  0  0  0  0  0  0  0
    7.5403   -2.2782    0.0000 H   0  0  0  0  0  0  0  0  0  0  0  0
    6.3161   -2.2782    0.0000 H   0  0  0  0  0  0  0  0  0  0  0  0
    8.3138    0.0000    0.0000 C   0  0  0  0  0  0  0  0  0  0  0  0
    7.7017    1.4782    0.0000 H   0  0  0  0  0  0  0  0  0  0  0  0
    8.9260    1.4782    0.0000 H   0  0  0  0  0  0  0  0  0  0  0  0
    9.6995   -0.8000    0.0000 C   0  0  0  0  0  0  0  0  0  0  0  0
   11.0851    0.0000    0.0000 O   0  0  0  0  0  0  0  0  0  0  0  0
   12.4708   -0.8000    0.0000 H   0  0  0  0  0  0  0  0  0  0  0  0
    9.6995   -2.4000    0.0000 O   0  0  0  0  0  0  0  0  0  0  0  0
   -9.6995   -0.8000    0.0000 O   0  0  0  0  0  0  0  0  0  0  0  0
  -11.0851    0.0000    0.0000 H   0  0  0  0  0  0  0  0  0  0  0  0
   -8.3138    1.6000    0.0000 O   0  0  0  0  0  0  0  0  0  0  0  0
  1  2  1  0  0  0  0
  2  3  1  0  0  0  0
  2  4  1  0  0  0  0
  2  5  1  0  0  0  0
  5  6  1  0  0  0  0
  5  7  1  0  0  0  0
  5  8  1  0  0  0  0
  8  9  1  0  0  0  0
  8 10  1  0  0  0  0
  8 11  1  0  0  0  0
 11 12  1  0  0  0  0
 11 13  1  0  0  0  0
 11 14  1  0  0  0  0
 14 15  1  0  0  0  0
 14 16  1  0  0  0  0
 14 17  1  0  0  0  0
 17 18  1  0  0  0  0
 17 19  1  0  0  0  0
 17 20  1  0  0  0  0
 20 21  1  0  0  0  0
 20 22  1  0  0  0  0
 20 23  1  0  0  0  0
 23 24  1  0  0  0  0
 23 25  1  0  0  0  0
 23 26  1  0  0  0  0
 26 27  1  0  0  0  0
 26 28  1  0  0  0  0
 26 29  1  0  0  0  0
 29 30  1  0  0  0  0
 29 31  1  0  0  0  0
 29 32  1  0  0  0  0
 32 33  1  0  0  0  0
 32 34  1  0  0  0  0
 32 35  1  0  0  0  0
 35 36  1  0  0  0  0
 35 37  1  0  0  0  0
 35 38  1  0  0  0  0
 38 39  1  0  0  0  0
 39 40  1  0  0  0  0
 38 41  2  0  0  0  0
  1 42  1  0  0  0  0
 42 43  1  0  0  0  0
  1 44  2  0  0  0  0
M  END
> <ChemID>
100932

> <source_casrn>
821-38-5

> <CAS>
821-38-5

> <SMILES>
OC(=O)CCCCCCCCCCCCC(O)=O

> <NAME>
Tetradecanedioic acid

> <preferred_name>
Tetradecanedioic acid

> <iupac>
Tetradecanedioic acid

> <MPID>
100932

> <dsstox_substance_id>
DTXSID5061166

> <Canonical_QSARr>
OC(=O)CCCCCCCCCCCCC(O)=O

> <InChI_Code_QSARr>
InChI=1S/C14H26O4/c15-13(16)11-9-7-5-3-1-2-4-6-8-10-12-14(17)18/h1-12H2,(H,15,16)(H,17,18)

> <InChI Key_QSARr>
HQHCYKULIHKCEB-UHFFFAOYSA-N

> <Salt_Solvent>
?

> <Ready_Biodeg>
1.0

$$$$
100933
  -INDIGO-08031722522D

 19 18  0  0  0  0  0  0  0  0999 V2000
    4.1569    0.8000    0.0000 O   0  0  0  0  0  0  0  0  0  0  0  0
    5.5426    0.0000    0.0000 H   0  0  0  0  0  0  0  0  0  0  0  0
    2.7712    0.0000    0.0000 C   0  0  0  0  0  0  0  0  0  0  0  0
    3.3836   -1.4782    0.0000 H   0  0  0  0  0  0  0  0  0  0  0  0
    2.1589   -1.4782    0.0000 H   0  0  0  0  0  0  0  0  0  0  0  0
    1.3856    0.8000    0.0000 C   0  0  0  0  0  0  0  0  0  0  0  0
    0.7734    2.2782    0.0000 H   0  0  0  0  0  0  0  0  0  0  0  0
    1.9979    2.2782    0.0000 H   0  0  0  0  0  0  0  0  0  0  0  0
    0.0001    0.0000    0.0000 C   0  0  0  0  0  0  0  0  0  0  0  0
    0.6122   -1.4782    0.0000 H   0  0  0  0  0  0  0  0  0  0  0  0
   -0.6122   -1.4782    0.0000 H   0  0  0  0  0  0  0  0  0  0  0  0
   -1.3856    0.8000    0.0000 C   0  0  0  0  0  0  0  0  0  0  0  0
   -1.9979    2.2782    0.0000 H   0  0  0  0  0  0  0  0  0  0  0  0
   -0.7734    2.2782    0.0000 H   0  0  0  0  0  0  0  0  0  0  0  0
   -2.7712    0.0000    0.0000 C   0  0  0  0  0  0  0  0  0  0  0  0
   -2.7712   -1.6000    0.0000 H   0  0  0  0  0  0  0  0  0  0  0  0
   -4.1569    0.8000    0.0000 C   0  0  0  0  0  0  0  0  0  0  0  0
   -5.5426    0.0000    0.0000 H   0  0  0  0  0  0  0  0  0  0  0  0
   -4.1569    2.4000    0.0000 H   0  0  0  0  0  0  0  0  0  0  0  0
  1  2  1  0  0  0  0
  1  3  1  0  0  0  0
  3  4  1  0  0  0  0
  3  5  1  0  0  0  0
  3  6  1  0  0  0  0
  6  7  1  0  0  0  0
  6  8  1  0  0  0  0
  6  9  1  0  0  0  0
  9 10  1  0  0  0  0
  9 11  1  0  0  0  0
  9 12  1  0  0  0  0
 12 13  1  0  0  0  0
 12 14  1  0  0  0  0
 12 15  1  0  0  0  0
 15 16  1  0  0  0  0
 15 17  2  0  0  0  0
 17 18  1  0  0  0  0
 17 19  1  0  0  0  0
M  END
> <ChemID>
100933

> <source_casrn>
821-41-0

> <CAS>
821-41-0

> <SMILES>
C=CCCCCO

> <NAME>
5-Hexene-1-ol

> <preferred_name>
5-Hexen-1-ol

> <iupac>
Hex-5-en-1-ol

> <MPID>
100933

> <dsstox_substance_id>
DTXSID2074950

> <Canonical_QSARr>
C=CCCCCO

> <InChI_Code_QSARr>
InChI=1S/C6H12O/c1-2-3-4-5-6-7/h2,7H,1,3-6H2

> <InChI Key_QSARr>
UIZVMOZAXAMASY-UHFFFAOYSA-N

> <Salt_Solvent>
?

> <Ready_Biodeg>
1.0

$$$$
100936
  -INDIGO-08031722522D

 33 33  0  0  0  0  0  0  0  0999 V2000
    3.2000    2.7713    0.0000 O   0  0  0  0  0  0  0  0  0  0  0  0
    4.8000    2.7713    0.0000 H   0  0  0  0  0  0  0  0  0  0  0  0
    2.4000    1.3857    0.0000 C   0  0  0  0  0  0  0  0  0  0  0  0
    2.6089   -0.2007    0.0000 H   0  0  0  0  0  0  0  0  0  0  0  0
    3.6693    0.4117    0.0000 H   0  0  0  0  0  0  0  0  0  0  0  0
    0.8000    1.3857    0.0000 C   0  0  0  0  0  0  0  0  0  0  0  0
    0.5911    2.9720    0.0000 H   0  0  0  0  0  0  0  0  0  0  0  0
   -0.4693    2.3597    0.0000 H   0  0  0  0  0  0  0  0  0  0  0  0
    0.0000   -0.0001    0.0000 N   0  0  0  0  0  0  0  0  0  0  0  0
    0.8000   -1.3857    0.0000 C   0  0  0  0  0  0  0  0  0  0  0  0
    2.4000   -1.3857    0.0000 O   0  0  0  0  0  0  0  0  0  0  0  0
    0.0000   -2.7713    0.0000 N   0  0  0  0  0  0  0  0  0  0  0  0
    0.8000   -4.1569    0.0000 C   0  0  0  0  0  0  0  0  0  0  0  0
    2.2782   -4.7692    0.0000 H   0  0  0  0  0  0  0  0  0  0  0  0
    2.2782   -3.5447    0.0000 H   0  0  0  0  0  0  0  0  0  0  0  0
    0.0000   -5.5426    0.0000 C   0  0  0  0  0  0  0  0  0  0  0  0
   -1.4782   -4.9303    0.0000 H   0  0  0  0  0  0  0  0  0  0  0  0
   -1.4782   -6.1548    0.0000 H   0  0  0  0  0  0  0  0  0  0  0  0
    0.8000   -6.9282    0.0000 O   0  0  0  0  0  0  0  0  0  0  0  0
    0.0000   -8.3138    0.0000 H   0  0  0  0  0  0  0  0  0  0  0  0
   -1.6000   -2.7713    0.0000 C   0  0  0  0  0  0  0  0  0  0  0  0
   -2.4000   -4.1569    0.0000 O   0  0  0  0  0  0  0  0  0  0  0  0
   -2.4000   -1.3857    0.0000 N   0  0  0  0  0  0  0  0  0  0  0  0
   -4.0000   -1.3857    0.0000 C   0  0  0  0  0  0  0  0  0  0  0  0
   -5.2693   -2.3597    0.0000 H   0  0  0  0  0  0  0  0  0  0  0  0
   -4.2089   -2.9719    0.0000 H   0  0  0  0  0  0  0  0  0  0  0  0
   -4.8000   -0.0001    0.0000 C   0  0  0  0  0  0  0  0  0  0  0  0
   -3.5307    0.9740    0.0000 H   0  0  0  0  0  0  0  0  0  0  0  0
   -4.5911    1.5863    0.0000 H   0  0  0  0  0  0  0  0  0  0  0  0
   -6.4000   -0.0001    0.0000 O   0  0  0  0  0  0  0  0  0  0  0  0
   -7.2000    1.3857    0.0000 H   0  0  0  0  0  0  0  0  0  0  0  0
   -1.6000   -0.0001    0.0000 C   0  0  0  0  0  0  0  0  0  0  0  0
   -2.4000    1.3857    0.0000 O   0  0  0  0  0  0  0  0  0  0  0  0
  1  2  1  0  0  0  0
  1  3  1  0  0  0  0
  3  4  1  0  0  0  0
  3  5  1  0  0  0  0
  3  6  1  0  0  0  0
  6  7  1  0  0  0  0
  6  8  1  0  0  0  0
  6  9  1  0  0  0  0
  9 10  1  0  0  0  0
 10 11  2  0  0  0  0
 10 12  1  0  0  0  0
 12 13  1  0  0  0  0
 13 14  1  0  0  0  0
 13 15  1  0  0  0  0
 13 16  1  0  0  0  0
 16 17  1  0  0  0  0
 16 18  1  0  0  0  0
 16 19  1  0  0  0  0
 19 20  1  0  0  0  0
 12 21  1  0  0  0  0
 21 22  2  0  0  0  0
 21 23  1  0  0  0  0
 23 24  1  0  0  0  0
 24 25  1  0  0  0  0
 24 26  1  0  0  0  0
 24 27  1  0  0  0  0
 27 28  1  0  0  0  0
 27 29  1  0  0  0  0
 27 30  1  0  0  0  0
 30 31  1  0  0  0  0
 23 32  1  0  0  0  0
 32  9  1  0  0  0  0
 32 33  2  0  0  0  0
M  END
> <ChemID>
100936

> <source_casrn>
839-90-7

> <CAS>
839-90-7

> <SMILES>
OCCN1C(=O)N(CCO)C(=O)N(CCO)C1=O

> <NAME>
1,3,5-Triazine-2,4,6(1H,3H,5H)-trione, 1,3,5-tris(2-hydroxyethyl)-

> <preferred_name>
Tris(2-hydroxyethyl) isocyanurate

> <iupac>
1,3,5-tris(2-hydroxyethyl)-1,3,5-triazinane-2,4,6-trione

> <MPID>
100935

> <dsstox_substance_id>
DTXSID4026266

> <Canonical_QSARr>
OCCN1C(=O)N(CCO)C(=O)N(CCO)C1=O

> <InChI_Code_QSARr>
InChI=1S/C9H15N3O6/c13-4-1-10-7(16)11(2-5-14)9(18)12(3-6-15)8(10)17/h13-15H,1-6H2

> <InChI Key_QSARr>
BPXVHIRIPLPOPT-UHFFFAOYSA-N

> <Salt_Solvent>
?

> <Ready_Biodeg>
0.0

$$$$
100938
  -INDIGO-08031722522D

 19 18  0  0  0  0  0  0  0  0999 V2000
    4.1569    2.4000    0.0000 C   0  0  0  0  0  0  0  0  0  0  0  0
    5.5425    3.2000    0.0000 H   0  0  0  0  0  0  0  0  0  0  0  0
    2.7712    3.2000    0.0000 H   0  0  0  0  0  0  0  0  0  0  0  0
    4.1569    0.8000    0.0000 C   0  0  0  0  0  0  0  0  0  0  0  0
    5.5425    0.0000    0.0000 C   0  0  0  0  0  0  0  0  0  0  0  0
    6.9282   -0.8000    0.0000 H   0  0  0  0  0  0  0  0  0  0  0  0
    6.9282    0.8000    0.0000 H   0  0  0  0  0  0  0  0  0  0  0  0
    5.5425   -1.6000    0.0000 H   0  0  0  0  0  0  0  0  0  0  0  0
    2.7712    0.0000    0.0000 C   0  0  0  0  0  0  0  0  0  0  0  0
    2.7712   -1.6000    0.0000 O   0  0  0  0  0  0  0  0  0  0  0  0
    1.3856    0.8000    0.0000 O   0  0  0  0  0  0  0  0  0  0  0  0
    0.0001    0.0000    0.0000 C   0  0  0  0  0  0  0  0  0  0  0  0
   -0.6123   -1.4782    0.0000 H   0  0  0  0  0  0  0  0  0  0  0  0
    0.6122   -1.4782    0.0000 H   0  0  0  0  0  0  0  0  0  0  0  0
   -1.3856    0.8000    0.0000 C   0  0  0  0  0  0  0  0  0  0  0  0
   -0.7733    2.2782    0.0000 H   0  0  0  0  0  0  0  0  0  0  0  0
   -1.9979    2.2782    0.0000 H   0  0  0  0  0  0  0  0  0  0  0  0
   -2.7713    0.0000    0.0000 O   0  0  0  0  0  0  0  0  0  0  0  0
   -4.1569    0.8000    0.0000 H   0  0  0  0  0  0  0  0  0  0  0  0
  1  2  1  0  0  0  0
  1  3  1  0  0  0  0
  1  4  2  0  0  0  0
  4  5  1  0  0  0  0
  5  6  1  0  0  0  0
  5  7  1  0  0  0  0
  5  8  1  0  0  0  0
  4  9  1  0  0  0  0
  9 10  2  0  0  0  0
  9 11  1  0  0  0  0
 11 12  1  0  0  0  0
 12 13  1  0  0  0  0
 12 14  1  0  0  0  0
 12 15  1  0  0  0  0
 15 16  1  0  0  0  0
 15 17  1  0  0  0  0
 15 18  1  0  0  0  0
 18 19  1  0  0  0  0
M  END
> <ChemID>
100938

> <source_casrn>
868-77-9

> <CAS>
868-77-9

> <SMILES>
CC(=C)C(=O)OCCO

> <NAME>
2-Propenoic acid, 2-methyl-, 2-hydroxyethyl ester

> <preferred_name>
2-Hydroxyethyl methacrylate

> <iupac>
2-hydroxyethyl 2-methylprop-2-enoate

> <MPID>
100936

> <dsstox_substance_id>
DTXSID7022128

> <Canonical_QSARr>
CC(=C)C(=O)OCCO

> <InChI_Code_QSARr>
InChI=1S/C6H10O3/c1-5(2)6(8)9-4-3-7/h7H,1,3-4H2,2H3

> <InChI Key_QSARr>
WOBHKFSMXKNTIM-UHFFFAOYSA-N

> <Salt_Solvent>
?

> <Ready_Biodeg>
1.0

$$$$
100939
  -INDIGO-08031722522D

 21 20  0  0  0  0  0  0  0  0999 V2000
   -0.0000    0.0000    0.0000 C   0  0  0  0  0  0  0  0  0  0  0  0
    0.8001   -1.3856    0.0000 H   0  0  0  0  0  0  0  0  0  0  0  0
   -1.6000    0.0000    0.0000 C   0  0  0  0  0  0  0  0  0  0  0  0
   -2.4001    1.3857    0.0000 H   0  0  0  0  0  0  0  0  0  0  0  0
   -2.3999   -1.3856    0.0000 C   0  0  0  0  0  0  0  0  0  0  0  0
   -4.0000   -1.3856    0.0000 H   0  0  0  0  0  0  0  0  0  0  0  0
   -1.6000   -2.7713    0.0000 H   0  0  0  0  0  0  0  0  0  0  0  0
    1.6000    0.0000    0.0000 O   0  0  0  0  0  0  0  0  0  0  0  0
    2.4000   -1.3856    0.0000 C   0  0  0  0  0  0  0  0  0  0  0  0
    1.6000   -2.7713    0.0000 O   0  0  0  0  0  0  0  0  0  0  0  0
    4.0001   -1.3857    0.0000 C   0  0  0  0  0  0  0  0  0  0  0  0
    5.6000   -1.3857    0.0000 H   0  0  0  0  0  0  0  0  0  0  0  0
    4.8000   -2.7713    0.0000 H   0  0  0  0  0  0  0  0  0  0  0  0
    4.8000    0.0000    0.0000 H   0  0  0  0  0  0  0  0  0  0  0  0
    0.8001    1.3857    0.0000 O   0  0  0  0  0  0  0  0  0  0  0  0
   -0.0000    2.7713    0.0000 C   0  0  0  0  0  0  0  0  0  0  0  0
   -1.6000    2.7713    0.0000 O   0  0  0  0  0  0  0  0  0  0  0  0
    0.8001    4.1570    0.0000 C   0  0  0  0  0  0  0  0  0  0  0  0
    1.6000    5.5426    0.0000 H   0  0  0  0  0  0  0  0  0  0  0  0
   -0.0000    5.5426    0.0000 H   0  0  0  0  0  0  0  0  0  0  0  0
    2.4000    4.1570    0.0000 H   0  0  0  0  0  0  0  0  0  0  0  0
  1  2  1  0  0  0  0
  1  3  1  0  0  0  0
  3  4  1  0  0  0  0
  3  5  2  0  0  0  0
  5  6  1  0  0  0  0
  5  7  1  0  0  0  0
  1  8  1  0  0  0  0
  8  9  1  0  0  0  0
  9 10  2  0  0  0  0
  9 11  1  0  0  0  0
 11 12  1  0  0  0  0
 11 13  1  0  0  0  0
 11 14  1  0  0  0  0
  1 15  1  0  0  0  0
 15 16  1  0  0  0  0
 16 17  2  0  0  0  0
 16 18  1  0  0  0  0
 18 19  1  0  0  0  0
 18 20  1  0  0  0  0
 18 21  1  0  0  0  0
M  END
> <ChemID>
100939

> <source_casrn>
869-29-4

> <CAS>
869-29-4

> <SMILES>
C=CC(OC(=O)C)OC(=O)C

> <NAME>
Allylidenediacetate

> <preferred_name>
2-Propene-1,1-diol diacetate

> <iupac>
prop-1-ene-3,3-diyl diacetate

> <MPID>
100937

> <dsstox_substance_id>
DTXSID8041450

> <Canonical_QSARr>
CC(=O)OC(C=C)OC(C)=O

> <InChI_Code_QSARr>
InChI=1S/C7H10O4/c1-4-7(10-5(2)8)11-6(3)9/h4,7H,1H2,2-3H3

> <InChI Key_QSARr>
TXECTBGVEUDNSL-UHFFFAOYSA-N

> <Salt_Solvent>
?

> <Ready_Biodeg>
1.0

$$$$
100941
  -INDIGO-08031722522D

 35 35  0  0  0  0  0  0  0  0999 V2000
   -0.7999   -1.3856    0.0000 C   0  0  0  0  0  0  0  0  0  0  0  0
    0.0000   -2.7712    0.0000 H   0  0  0  0  0  0  0  0  0  0  0  0
   -1.6001   -2.7712    0.0000 H   0  0  0  0  0  0  0  0  0  0  0  0
    0.7999   -1.3856    0.0000 H   0  0  0  0  0  0  0  0  0  0  0  0
    0.0000   -0.0000    0.0000 C   0  0  0  0  0  0  0  0  0  0  0  0
    1.5035   -0.5472    0.0000 C   0  0  0  0  0  0  0  0  0  0  0  0
    3.0070   -1.0944    0.0000 H   0  0  0  0  0  0  0  0  0  0  0  0
    2.7292    0.4812    0.0000 H   0  0  0  0  0  0  0  0  0  0  0  0
    1.7813   -2.1229    0.0000 H   0  0  0  0  0  0  0  0  0  0  0  0
    0.7999    1.3857    0.0000 C   0  0  0  0  0  0  0  0  0  0  0  0
    1.6001    2.7713    0.0000 H   0  0  0  0  0  0  0  0  0  0  0  0
    2.4000    1.3857    0.0000 H   0  0  0  0  0  0  0  0  0  0  0  0
    0.0000    2.7713    0.0000 H   0  0  0  0  0  0  0  0  0  0  0  0
   -1.3857    0.8000    0.0000 N   0  0  0  0  0  0  0  0  0  0  0  0
   -1.3857    2.4000    0.0000 H   0  0  0  0  0  0  0  0  0  0  0  0
   -2.7713   -0.0000    0.0000 C   0  0  0  0  0  0  0  0  0  0  0  0
   -4.1570    0.8000    0.0000 N   0  0  0  0  0  0  0  0  0  0  0  0
   -5.5427   -0.0000    0.0000 C   0  0  0  0  0  0  0  0  0  0  0  0
   -6.9281    0.8000    0.0000 N   0  0  0  0  0  0  0  0  0  0  0  0
   -6.9281    2.4000    0.0000 H   0  0  0  0  0  0  0  0  0  0  0  0
   -8.3138   -0.0000    0.0000 C   0  0  0  0  0  0  0  0  0  0  0  0
   -7.7016   -1.4781    0.0000 H   0  0  0  0  0  0  0  0  0  0  0  0
   -8.9262   -1.4781    0.0000 H   0  0  0  0  0  0  0  0  0  0  0  0
   -9.6995    0.8000    0.0000 C   0  0  0  0  0  0  0  0  0  0  0  0
  -11.0851    1.5999    0.0000 H   0  0  0  0  0  0  0  0  0  0  0  0
  -11.0851   -0.0000    0.0000 H   0  0  0  0  0  0  0  0  0  0  0  0
   -9.6995    2.4000    0.0000 H   0  0  0  0  0  0  0  0  0  0  0  0
   -5.5427   -1.6000    0.0000 N   0  0  0  0  0  0  0  0  0  0  0  0
   -4.1570   -2.4000    0.0000 C   0  0  0  0  0  0  0  0  0  0  0  0
   -4.1570   -3.9999    0.0000 S   0  0  0  0  0  0  0  0  0  0  0  0
   -5.5427   -4.8000    0.0000 C   0  0  0  0  0  0  0  0  0  0  0  0
   -5.5427   -6.4000    0.0000 H   0  0  0  0  0  0  0  0  0  0  0  0
   -6.9281   -5.5999    0.0000 H   0  0  0  0  0  0  0  0  0  0  0  0
   -6.9281   -3.9999    0.0000 H   0  0  0  0  0  0  0  0  0  0  0  0
   -2.7713   -1.6000    0.0000 N   0  0  0  0  0  0  0  0  0  0  0  0
  1  2  1  0  0  0  0
  1  3  1  0  0  0  0
  1  4  1  0  0  0  0
  1  5  1  0  0  0  0
  5  6  1  0  0  0  0
  6  7  1  0  0  0  0
  6  8  1  0  0  0  0
  6  9  1  0  0  0  0
  5 10  1  0  0  0  0
 10 11  1  0  0  0  0
 10 12  1  0  0  0  0
 10 13  1  0  0  0  0
  5 14  1  0  0  0  0
 14 15  1  0  0  0  0
 14 16  1  0  0  0  0
 16 17  1  0  0  0  0
 17 18  2  0  0  0  0
 18 19  1  0  0  0  0
 19 20  1  0  0  0  0
 19 21  1  0  0  0  0
 21 22  1  0  0  0  0
 21 23  1  0  0  0  0
 21 24  1  0  0  0  0
 24 25  1  0  0  0  0
 24 26  1  0  0  0  0
 24 27  1  0  0  0  0
 18 28  1  0  0  0  0
 28 29  2  0  0  0  0
 29 30  1  0  0  0  0
 30 31  1  0  0  0  0
 31 32  1  0  0  0  0
 31 33  1  0  0  0  0
 31 34  1  0  0  0  0
 29 35  1  0  0  0  0
 35 16  2  0  0  0  0
M  END
> <ChemID>
100941

> <source_casrn>
886-50-0

> <CAS>
886-50-0

> <SMILES>
CCNc1[n]c(NC(C)(C)C)[n]c([n]1)SC

> <NAME>
TERBUTRYN

> <preferred_name>
Terbutryn

> <iupac>
N-tert-butyl-N'-ethyl-6-(methylsulfanyl)-1,3,5-triazine-2,4-diamine

> <MPID>
100939

> <dsstox_substance_id>
DTXSID3024318

> <Canonical_QSARr>
CCNc1[n]c(NC(C)(C)C)[n]c([n]1)SC

> <InChI_Code_QSARr>
InChI=1S/C10H19N5S/c1-6-11-7-12-8(15-10(2,3)4)14-9(13-7)16-5/h6H2,1-5H3,(H2,11,12,13,14,15)

> <InChI Key_QSARr>
IROINLKCQGIITA-UHFFFAOYSA-N

> <Salt_Solvent>
?

> <Ready_Biodeg>
0.0

$$$$
100942
  -INDIGO-08031722522D

 12 11  0  0  0  0  0  0  0  0999 V2000
    1.6000    0.0000    0.0000 C   0  0  0  0  0  0  0  0  0  0  0  0
    3.2000    0.0000    0.0000 F   0  0  0  0  0  0  0  0  0  0  0  0
    2.4000   -1.3856    0.0000 F   0  0  0  0  0  0  0  0  0  0  0  0
    2.4000    1.3856    0.0000 F   0  0  0  0  0  0  0  0  0  0  0  0
    0.0000    0.0000    0.0000 C   0  0  0  0  0  0  0  0  0  0  0  0
    0.0000   -1.6000    0.0000 H   0  0  0  0  0  0  0  0  0  0  0  0
    0.0000    1.6000    0.0000 O   0  0  0  0  0  0  0  0  0  0  0  0
    1.3856    2.4000    0.0000 H   0  0  0  0  0  0  0  0  0  0  0  0
   -1.6000    0.0000    0.0000 C   0  0  0  0  0  0  0  0  0  0  0  0
   -3.2000    0.0000    0.0000 F   0  0  0  0  0  0  0  0  0  0  0  0
   -2.4000   -1.3856    0.0000 F   0  0  0  0  0  0  0  0  0  0  0  0
   -2.4000    1.3856    0.0000 F   0  0  0  0  0  0  0  0  0  0  0  0
  1  2  1  0  0  0  0
  1  3  1  0  0  0  0
  1  4  1  0  0  0  0
  1  5  1  0  0  0  0
  5  6  1  0  0  0  0
  5  7  1  0  0  0  0
  7  8  1  0  0  0  0
  5  9  1  0  0  0  0
  9 10  1  0  0  0  0
  9 11  1  0  0  0  0
  9 12  1  0  0  0  0
M  END
> <ChemID>
100942

> <source_casrn>
920-66-1

> <CAS>
920-66-1

> <SMILES>
OC(C(F)(F)F)C(F)(F)F

> <NAME>
2-Propanol, 1,1,1,3,3,3-hexafluoro-

> <preferred_name>
1,1,1,3,3,3-Hexafluoro-2-propanol

> <iupac>
1,1,1,3,3,3-hexafluoropropan-2-ol

> <MPID>
100940

> <dsstox_substance_id>
DTXSID1022134

> <Canonical_QSARr>
OC(C(F)(F)F)C(F)(F)F

> <InChI_Code_QSARr>
InChI=1S/C3H2F6O/c4-2(5,6)1(10)3(7,8)9/h1,10H

> <InChI Key_QSARr>
BYEAHWXPCBROCE-UHFFFAOYSA-N

> <Salt_Solvent>
?

> <Ready_Biodeg>
0.0

$$$$
100943
  -INDIGO-08031722522D

 34 33  0  0  0  0  0  0  0  0999 V2000
    1.3856    0.8000    0.0000 C   0  0  0  0  0  0  0  0  0  0  0  0
    1.9978    2.2782    0.0000 H   0  0  0  0  0  0  0  0  0  0  0  0
    0.7733    2.2782    0.0000 H   0  0  0  0  0  0  0  0  0  0  0  0
    2.7714    0.0000    0.0000 C   0  0  0  0  0  0  0  0  0  0  0  0
    4.1570    0.8000    0.0000 C   0  0  0  0  0  0  0  0  0  0  0  0
    4.7692    2.2782    0.0000 H   0  0  0  0  0  0  0  0  0  0  0  0
    3.5448    2.2782    0.0000 H   0  0  0  0  0  0  0  0  0  0  0  0
    5.5426    0.0000    0.0000 C   0  0  0  0  0  0  0  0  0  0  0  0
    4.9303   -1.4782    0.0000 H   0  0  0  0  0  0  0  0  0  0  0  0
    6.1548   -1.4782    0.0000 H   0  0  0  0  0  0  0  0  0  0  0  0
    6.9281    0.8000    0.0000 C   0  0  0  0  0  0  0  0  0  0  0  0
    7.5406    2.2782    0.0000 H   0  0  0  0  0  0  0  0  0  0  0  0
    6.3159    2.2782    0.0000 H   0  0  0  0  0  0  0  0  0  0  0  0
    8.3140    0.0000    0.0000 C   0  0  0  0  0  0  0  0  0  0  0  0
    7.7015   -1.4782    0.0000 H   0  0  0  0  0  0  0  0  0  0  0  0
    8.9262   -1.4782    0.0000 H   0  0  0  0  0  0  0  0  0  0  0  0
    9.6995    0.8000    0.0000 C   0  0  0  0  0  0  0  0  0  0  0  0
   11.0851    1.6000    0.0000 H   0  0  0  0  0  0  0  0  0  0  0  0
   11.0851    0.0000    0.0000 H   0  0  0  0  0  0  0  0  0  0  0  0
    9.6995    2.4000    0.0000 H   0  0  0  0  0  0  0  0  0  0  0  0
    2.7714   -1.6000    0.0000 O   0  0  0  0  0  0  0  0  0  0  0  0
    0.0000    0.0000    0.0000 C   0  0  0  0  0  0  0  0  0  0  0  0
   -0.6122   -1.4782    0.0000 H   0  0  0  0  0  0  0  0  0  0  0  0
    0.6122   -1.4782    0.0000 H   0  0  0  0  0  0  0  0  0  0  0  0
   -1.3856    0.8000    0.0000 C   0  0  0  0  0  0  0  0  0  0  0  0
   -0.7733    2.2782    0.0000 H   0  0  0  0  0  0  0  0  0  0  0  0
   -1.9978    2.2782    0.0000 H   0  0  0  0  0  0  0  0  0  0  0  0
   -2.7712    0.0000    0.0000 C   0  0  0  0  0  0  0  0  0  0  0  0
   -3.3836   -1.4782    0.0000 H   0  0  0  0  0  0  0  0  0  0  0  0
   -2.1589   -1.4782    0.0000 H   0  0  0  0  0  0  0  0  0  0  0  0
   -4.1570    0.8000    0.0000 C   0  0  0  0  0  0  0  0  0  0  0  0
   -5.5426    1.6000    0.0000 H   0  0  0  0  0  0  0  0  0  0  0  0
   -5.5426    0.0000    0.0000 H   0  0  0  0  0  0  0  0  0  0  0  0
   -4.1570    2.4000    0.0000 H   0  0  0  0  0  0  0  0  0  0  0  0
  1  2  1  0  0  0  0
  1  3  1  0  0  0  0
  1  4  1  0  0  0  0
  4  5  1  0  0  0  0
  5  6  1  0  0  0  0
  5  7  1  0  0  0  0
  5  8  1  0  0  0  0
  8  9  1  0  0  0  0
  8 10  1  0  0  0  0
  8 11  1  0  0  0  0
 11 12  1  0  0  0  0
 11 13  1  0  0  0  0
 11 14  1  0  0  0  0
 14 15  1  0  0  0  0
 14 16  1  0  0  0  0
 14 17  1  0  0  0  0
 17 18  1  0  0  0  0
 17 19  1  0  0  0  0
 17 20  1  0  0  0  0
  4 21  2  0  0  0  0
  1 22  1  0  0  0  0
 22 23  1  0  0  0  0
 22 24  1  0  0  0  0
 22 25  1  0  0  0  0
 25 26  1  0  0  0  0
 25 27  1  0  0  0  0
 25 28  1  0  0  0  0
 28 29  1  0  0  0  0
 28 30  1  0  0  0  0
 28 31  1  0  0  0  0
 31 32  1  0  0  0  0
 31 33  1  0  0  0  0
 31 34  1  0  0  0  0
M  END
> <ChemID>
100943

> <source_casrn>
927-49-1

> <CAS>
927-49-1

> <SMILES>
CCCCCC(=O)CCCCC

> <NAME>
6-Undecanone

> <preferred_name>
6-Undecanone

> <iupac>
undecan-6-one

> <MPID>
100941

> <dsstox_substance_id>
DTXSID5061295

> <Canonical_QSARr>
CCCCCC(=O)CCCCC

> <InChI_Code_QSARr>
InChI=1S/C11H22O/c1-3-5-7-9-11(12)10-8-6-4-2/h3-10H2,1-2H3

> <InChI Key_QSARr>
ZPQAKYPOZRXKFA-UHFFFAOYSA-N

> <Salt_Solvent>
?

> <Ready_Biodeg>
1.0

$$$$
100945
  -INDIGO-08031722522D

 37 37  0  0  0  0  0  0  0  0999 V2000
    4.1975    5.1410    0.0000 N   0  0  0  0  0  0  0  0  0  0  0  0
    5.3514    6.2494    0.0000 H   0  0  0  0  0  0  0  0  0  0  0  0
    2.8452    5.9963    0.0000 C   0  0  0  0  0  0  0  0  0  0  0  0
    3.3519    7.5138    0.0000 O   0  0  0  0  0  0  0  0  0  0  0  0
    1.2505    6.1250    0.0000 C   0  0  0  0  0  0  0  0  0  0  0  0
    1.9363    7.5705    0.0000 H   0  0  0  0  0  0  0  0  0  0  0  0
    0.3592    7.4539    0.0000 H   0  0  0  0  0  0  0  0  0  0  0  0
   -0.2215    5.4978    0.0000 C   0  0  0  0  0  0  0  0  0  0  0  0
   -0.5626    7.0610    0.0000 H   0  0  0  0  0  0  0  0  0  0  0  0
   -1.6281    6.2603    0.0000 H   0  0  0  0  0  0  0  0  0  0  0  0
   -1.2334    4.2585    0.0000 C   0  0  0  0  0  0  0  0  0  0  0  0
   -2.2619    5.4841    0.0000 H   0  0  0  0  0  0  0  0  0  0  0  0
   -2.8127    4.0017    0.0000 H   0  0  0  0  0  0  0  0  0  0  0  0
   -1.5534    2.6907    0.0000 C   0  0  0  0  0  0  0  0  0  0  0  0
   -3.1167    3.0318    0.0000 H   0  0  0  0  0  0  0  0  0  0  0  0
   -2.8326    1.7295    0.0000 H   0  0  0  0  0  0  0  0  0  0  0  0
   -1.1083    1.1540    0.0000 C   0  0  0  0  0  0  0  0  0  0  0  0
   -2.6510    0.7294    0.0000 H   0  0  0  0  0  0  0  0  0  0  0  0
   -1.7943   -0.2916    0.0000 H   0  0  0  0  0  0  0  0  0  0  0  0
    0.0001   -0.0000    0.0000 C   0  0  0  0  0  0  0  0  0  0  0  0
   -1.1687   -1.0928    0.0000 H   0  0  0  0  0  0  0  0  0  0  0  0
    0.0644   -1.5987    0.0000 H   0  0  0  0  0  0  0  0  0  0  0  0
    1.5177   -0.5067    0.0000 C   0  0  0  0  0  0  0  0  0  0  0  0
    0.9906   -2.0174    0.0000 H   0  0  0  0  0  0  0  0  0  0  0  0
    2.3177   -1.8923    0.0000 H   0  0  0  0  0  0  0  0  0  0  0  0
    3.0970   -0.2501    0.0000 C   0  0  0  0  0  0  0  0  0  0  0  0
    3.3324   -1.8326    0.0000 H   0  0  0  0  0  0  0  0  0  0  0  0
    4.4492   -1.1052    0.0000 H   0  0  0  0  0  0  0  0  0  0  0  0
    4.3760    0.7111    0.0000 C   0  0  0  0  0  0  0  0  0  0  0  0
    5.3200   -0.5807    0.0000 H   0  0  0  0  0  0  0  0  0  0  0  0
    5.9709    0.5824    0.0000 H   0  0  0  0  0  0  0  0  0  0  0  0
    5.0620    2.1567    0.0000 C   0  0  0  0  0  0  0  0  0  0  0  0
    6.4981    1.4514    0.0000 H   0  0  0  0  0  0  0  0  0  0  0  0
    6.5340    2.7838    0.0000 H   0  0  0  0  0  0  0  0  0  0  0  0
    4.9975    3.7554    0.0000 C   0  0  0  0  0  0  0  0  0  0  0  0
    6.5970    3.7984    0.0000 H   0  0  0  0  0  0  0  0  0  0  0  0
    6.0094    4.9948    0.0000 H   0  0  0  0  0  0  0  0  0  0  0  0
  1  2  1  0  0  0  0
  1  3  1  0  0  0  0
  3  4  2  0  0  0  0
  3  5  1  0  0  0  0
  5  6  1  0  0  0  0
  5  7  1  0  0  0  0
  5  8  1  0  0  0  0
  8  9  1  0  0  0  0
  8 10  1  0  0  0  0
  8 11  1  0  0  0  0
 11 12  1  0  0  0  0
 11 13  1  0  0  0  0
 11 14  1  0  0  0  0
 14 15  1  0  0  0  0
 14 16  1  0  0  0  0
 14 17  1  0  0  0  0
 17 18  1  0  0  0  0
 17 19  1  0  0  0  0
 17 20  1  0  0  0  0
 20 21  1  0  0  0  0
 20 22  1  0  0  0  0
 20 23  1  0  0  0  0
 23 24  1  0  0  0  0
 23 25  1  0  0  0  0
 23 26  1  0  0  0  0
 26 27  1  0  0  0  0
 26 28  1  0  0  0  0
 26 29  1  0  0  0  0
 29 30  1  0  0  0  0
 29 31  1  0  0  0  0
 29 32  1  0  0  0  0
 32 33  1  0  0  0  0
 32 34  1  0  0  0  0
 32 35  1  0  0  0  0
 35  1  1  0  0  0  0
 35 36  1  0  0  0  0
 35 37  1  0  0  0  0
M  END
> <ChemID>
100945

> <source_casrn>
947-04-6

> <CAS>
947-04-6

> <SMILES>
O=C1CCCCCCCCCCCN1

> <NAME>
Azacyclotridecan-2-one

> <preferred_name>
Azacyclotridecan-2-one

> <iupac>
azacyclotridecan-2-one

> <MPID>
100943

> <dsstox_substance_id>
DTXSID1027344

> <Canonical_QSARr>
O=C1CCCCCCCCCCCN1

> <InChI_Code_QSARr>
InChI=1S/C12H23NO/c14-12-10-8-6-4-2-1-3-5-7-9-11-13-12/h1-11H2,(H,13,14)

> <InChI Key_QSARr>
JHWNWJKBPDFINM-UHFFFAOYSA-N

> <Salt_Solvent>
?

> <Ready_Biodeg>
0.0

$$$$
100946
  -INDIGO-08031722522D

 28 28  0  0  0  0  0  0  0  0999 V2000
   -4.1569    2.4000    0.0000 Cl  0  0  0  0  0  0  0  0  0  0  0  0
   -2.7712    1.6000    0.0000 C   0  0  0  0  0  0  0  0  0  0  0  0
   -1.3857    2.4000    0.0000 C   0  0  0  0  0  0  0  0  0  0  0  0
   -1.3857    4.0000    0.0000 H   0  0  0  0  0  0  0  0  0  0  0  0
    0.0000    1.6000    0.0000 C   0  0  0  0  0  0  0  0  0  0  0  0
    1.3857    2.4000    0.0000 Cl  0  0  0  0  0  0  0  0  0  0  0  0
    0.0000    0.0000    0.0000 C   0  0  0  0  0  0  0  0  0  0  0  0
    1.3857   -0.8000    0.0000 C   0  0  0  0  0  0  0  0  0  0  0  0
    2.7712    0.0000    0.0000 O   0  0  0  0  0  0  0  0  0  0  0  0
    4.1569   -0.8000    0.0000 P   0  0  0  0  0  0  0  0  0  0  0  0
    4.1569   -2.4000    0.0000 O   0  0  0  0  0  0  0  0  0  0  0  0
    5.5426   -1.6000    0.0000 O   0  0  0  0  0  0  0  0  0  0  0  0
    6.9281   -0.8000    0.0000 C   0  0  0  0  0  0  0  0  0  0  0  0
    8.3138   -1.6000    0.0000 H   0  0  0  0  0  0  0  0  0  0  0  0
    8.3138    0.0000    0.0000 H   0  0  0  0  0  0  0  0  0  0  0  0
    6.9281   -2.4000    0.0000 H   0  0  0  0  0  0  0  0  0  0  0  0
    5.5426    0.0000    0.0000 O   0  0  0  0  0  0  0  0  0  0  0  0
    5.5426    1.6000    0.0000 C   0  0  0  0  0  0  0  0  0  0  0  0
    5.5426    3.2000    0.0000 H   0  0  0  0  0  0  0  0  0  0  0  0
    6.9281    2.4000    0.0000 H   0  0  0  0  0  0  0  0  0  0  0  0
    4.1569    2.4000    0.0000 H   0  0  0  0  0  0  0  0  0  0  0  0
    1.3857   -2.4000    0.0000 C   0  0  0  0  0  0  0  0  0  0  0  0
    2.7712   -3.2000    0.0000 H   0  0  0  0  0  0  0  0  0  0  0  0
    0.0000   -3.2000    0.0000 Cl  0  0  0  0  0  0  0  0  0  0  0  0
   -1.3857   -0.8000    0.0000 C   0  0  0  0  0  0  0  0  0  0  0  0
   -1.3857   -2.4000    0.0000 H   0  0  0  0  0  0  0  0  0  0  0  0
   -2.7712    0.0000    0.0000 C   0  0  0  0  0  0  0  0  0  0  0  0
   -4.1569   -0.8000    0.0000 Cl  0  0  0  0  0  0  0  0  0  0  0  0
  1  2  1  0  0  0  0
  2  3  1  0  0  0  0
  3  4  1  0  0  0  0
  3  5  2  0  0  0  0
  5  6  1  0  0  0  0
  5  7  1  0  0  0  0
  7  8  1  0  0  0  0
  8  9  1  0  0  0  0
  9 10  1  0  0  0  0
 10 11  2  0  0  0  0
 10 12  1  0  0  0  0
 12 13  1  0  0  0  0
 13 14  1  0  0  0  0
 13 15  1  0  0  0  0
 13 16  1  0  0  0  0
 10 17  1  0  0  0  0
 17 18  1  0  0  0  0
 18 19  1  0  0  0  0
 18 20  1  0  0  0  0
 18 21  1  0  0  0  0
  8 22  2  0  0  0  0
 22 23  1  0  0  0  0
 22 24  1  0  0  0  0
  7 25  2  0  0  0  0
 25 26  1  0  0  0  0
 25 27  1  0  0  0  0
 27  2  2  0  0  0  0
 27 28  1  0  0  0  0
M  END
> <ChemID>
100946

> <source_casrn>
961-11-5

> <CAS>
961-11-5

> <SMILES>
COP(=O)(OC(=CCl)c1cc(Cl)c(Cl)cc1Cl)OC

> <NAME>
Stirofos

> <preferred_name>
Tetrachlorovinphos

> <iupac>
C10H9Cl4O4P

> <MPID>
100944

> <dsstox_substance_id>
DTXSID1021320

> <Canonical_QSARr>
COP(=O)(OC(=CCl)c1cc(Cl)c(Cl)cc1Cl)OC

> <InChI_Code_QSARr>
InChI=1S/C10H9Cl4O4P/c1-16-19(15,17-2)18-10(5-11)6-3-8(13)9(14)4-7(6)12/h3-5H,1-2H3/b10-5+

> <InChI Key_QSARr>
UBCKGWBNUIFUST-BJMVGYQFSA-N

> <Salt_Solvent>
?

> <Ready_Biodeg>
0.0

$$$$
100948
  -INDIGO-08031722522D

 17 16  0  0  0  0  0  0  0  0999 V2000
    5.5425    1.6000    0.0000 C   0  0  0  0  0  0  0  0  0  0  0  0
    6.9282    0.8000    0.0000 H   0  0  0  0  0  0  0  0  0  0  0  0
    6.9282    2.4000    0.0000 H   0  0  0  0  0  0  0  0  0  0  0  0
    5.5425    0.0000    0.0000 H   0  0  0  0  0  0  0  0  0  0  0  0
    4.1569    2.4000    0.0000 C   0  0  0  0  0  0  0  0  0  0  0  0
    4.7692    3.8782    0.0000 H   0  0  0  0  0  0  0  0  0  0  0  0
    3.5446    3.8782    0.0000 H   0  0  0  0  0  0  0  0  0  0  0  0
    2.7712    1.6000    0.0000 C   0  0  0  0  0  0  0  0  0  0  0  0
    1.3856    0.8000    0.0000 C   0  0  0  0  0  0  0  0  0  0  0  0
    0.0001    0.0000    0.0000 C   0  0  0  0  0  0  0  0  0  0  0  0
   -0.6123   -1.4782    0.0000 H   0  0  0  0  0  0  0  0  0  0  0  0
    0.6122   -1.4782    0.0000 H   0  0  0  0  0  0  0  0  0  0  0  0
   -1.3856    0.8000    0.0000 C   0  0  0  0  0  0  0  0  0  0  0  0
   -0.7733    2.2782    0.0000 H   0  0  0  0  0  0  0  0  0  0  0  0
   -1.9979    2.2782    0.0000 H   0  0  0  0  0  0  0  0  0  0  0  0
   -2.7713    0.0000    0.0000 O   0  0  0  0  0  0  0  0  0  0  0  0
   -4.1569    0.8000    0.0000 H   0  0  0  0  0  0  0  0  0  0  0  0
  1  2  1  0  0  0  0
  1  3  1  0  0  0  0
  1  4  1  0  0  0  0
  1  5  1  0  0  0  0
  5  6  1  0  0  0  0
  5  7  1  0  0  0  0
  5  8  1  0  0  0  0
  8  9  3  0  0  0  0
  9 10  1  0  0  0  0
 10 11  1  0  0  0  0
 10 12  1  0  0  0  0
 10 13  1  0  0  0  0
 13 14  1  0  0  0  0
 13 15  1  0  0  0  0
 13 16  1  0  0  0  0
 16 17  1  0  0  0  0
M  END
> <ChemID>
100948

> <source_casrn>
1002-28-4

> <CAS>
1002-28-4

> <SMILES>
CCC#CCCO

> <NAME>
3-Hexyn-1-ol

> <preferred_name>
3-Hexyn-1-ol

> <iupac>
hex-3-yn-1-ol

> <MPID>
100946

> <dsstox_substance_id>
DTXSID4061385

> <Canonical_QSARr>
CCC#CCCO

> <InChI_Code_QSARr>
InChI=1S/C6H10O/c1-2-3-4-5-6-7/h7H,2,5-6H2,1H3

> <InChI Key_QSARr>
ODEHKVYXWLXRRR-UHFFFAOYSA-N

> <Salt_Solvent>
?

> <Ready_Biodeg>
1.0

$$$$
100951
  -INDIGO-08031722522D

 30 30  0  0  0  0  0  0  0  0999 V2000
   -4.1568   -0.8000    0.0000 C   0  0  0  0  0  0  0  0  0  0  0  0
   -2.7713   -0.0000    0.0000 C   0  0  0  0  0  0  0  0  0  0  0  0
   -2.1590    1.4782    0.0000 H   0  0  0  0  0  0  0  0  0  0  0  0
   -3.3836    1.4782    0.0000 H   0  0  0  0  0  0  0  0  0  0  0  0
   -1.3855   -0.8000    0.0000 C   0  0  0  0  0  0  0  0  0  0  0  0
   -1.9979   -2.2782    0.0000 H   0  0  0  0  0  0  0  0  0  0  0  0
   -0.7734   -2.2782    0.0000 H   0  0  0  0  0  0  0  0  0  0  0  0
    0.0000   -0.0000    0.0000 C   0  0  0  0  0  0  0  0  0  0  0  0
    0.6123    1.4782    0.0000 H   0  0  0  0  0  0  0  0  0  0  0  0
   -0.6123    1.4782    0.0000 H   0  0  0  0  0  0  0  0  0  0  0  0
    1.3857   -0.8000    0.0000 C   0  0  0  0  0  0  0  0  0  0  0  0
    0.7734   -2.2782    0.0000 H   0  0  0  0  0  0  0  0  0  0  0  0
    1.9979   -2.2782    0.0000 H   0  0  0  0  0  0  0  0  0  0  0  0
    2.7713   -0.0000    0.0000 C   0  0  0  0  0  0  0  0  0  0  0  0
    3.3836    1.4782    0.0000 H   0  0  0  0  0  0  0  0  0  0  0  0
    2.1590    1.4782    0.0000 H   0  0  0  0  0  0  0  0  0  0  0  0
    4.1570   -0.8000    0.0000 C   0  0  0  0  0  0  0  0  0  0  0  0
    5.5426   -1.6000    0.0000 H   0  0  0  0  0  0  0  0  0  0  0  0
    5.5426   -0.0000    0.0000 H   0  0  0  0  0  0  0  0  0  0  0  0
    4.1570   -2.4000    0.0000 H   0  0  0  0  0  0  0  0  0  0  0  0
   -4.1568   -2.4000    0.0000 C   0  0  0  0  0  0  0  0  0  0  0  0
   -2.7713   -3.2000    0.0000 H   0  0  0  0  0  0  0  0  0  0  0  0
   -5.5426   -3.2000    0.0000 C   0  0  0  0  0  0  0  0  0  0  0  0
   -5.5426   -4.8000    0.0000 H   0  0  0  0  0  0  0  0  0  0  0  0
   -6.9281   -2.4000    0.0000 C   0  0  0  0  0  0  0  0  0  0  0  0
   -8.3138   -3.2000    0.0000 H   0  0  0  0  0  0  0  0  0  0  0  0
   -6.9281   -0.8000    0.0000 C   0  0  0  0  0  0  0  0  0  0  0  0
   -8.3138   -0.0000    0.0000 H   0  0  0  0  0  0  0  0  0  0  0  0
   -5.5426   -0.0000    0.0000 C   0  0  0  0  0  0  0  0  0  0  0  0
   -5.5426    1.6000    0.0000 H   0  0  0  0  0  0  0  0  0  0  0  0
  1  2  1  0  0  0  0
  2  3  1  0  0  0  0
  2  4  1  0  0  0  0
  2  5  1  0  0  0  0
  5  6  1  0  0  0  0
  5  7  1  0  0  0  0
  5  8  1  0  0  0  0
  8  9  1  0  0  0  0
  8 10  1  0  0  0  0
  8 11  1  0  0  0  0
 11 12  1  0  0  0  0
 11 13  1  0  0  0  0
 11 14  1  0  0  0  0
 14 15  1  0  0  0  0
 14 16  1  0  0  0  0
 14 17  1  0  0  0  0
 17 18  1  0  0  0  0
 17 19  1  0  0  0  0
 17 20  1  0  0  0  0
  1 21  1  0  0  0  0
 21 22  1  0  0  0  0
 21 23  2  0  0  0  0
 23 24  1  0  0  0  0
 23 25  1  0  0  0  0
 25 26  1  0  0  0  0
 25 27  2  0  0  0  0
 27 28  1  0  0  0  0
 27 29  1  0  0  0  0
 29  1  2  0  0  0  0
 29 30  1  0  0  0  0
M  END
> <ChemID>
100951

> <source_casrn>
1077-16-3

> <CAS>
1077-16-3

> <SMILES>
CCCCCCc1ccccc1

> <NAME>
n-Hexylbenzene

> <preferred_name>
Benzene, hexyl-

> <iupac>
Hexylbenzene

> <MPID>
100948

> <dsstox_substance_id>
DTXSID8061476

> <Canonical_QSARr>
CCCCCCc1ccccc1

> <InChI_Code_QSARr>
InChI=1S/C12H18/c1-2-3-4-6-9-12-10-7-5-8-11-12/h5,7-8,10-11H,2-4,6,9H2,1H3

> <InChI Key_QSARr>
LTEQMZWBSYACLV-UHFFFAOYSA-N

> <Salt_Solvent>
?

> <Ready_Biodeg>
1.0

$$$$
100952
  -INDIGO-08031722522D

 34 33  0  0  0  0  0  0  0  0999 V2000
   -1.6000   -2.7713    0.0000 O   0  0  0  0  0  0  0  0  0  0  0  0
   -2.4000   -1.3857    0.0000 C   0  0  0  0  0  0  0  0  0  0  0  0
   -1.6000   -0.0000    0.0000 N   0  0  0  0  0  0  0  0  0  0  0  0
    0.0000   -0.0000    0.0000 C   0  0  0  0  0  0  0  0  0  0  0  0
    1.2694    0.9740    0.0000 H   0  0  0  0  0  0  0  0  0  0  0  0
    0.2088    1.5863    0.0000 H   0  0  0  0  0  0  0  0  0  0  0  0
    0.8000   -1.3857    0.0000 C   0  0  0  0  0  0  0  0  0  0  0  0
   -0.4694   -2.3597    0.0000 H   0  0  0  0  0  0  0  0  0  0  0  0
    0.5912   -2.9719    0.0000 H   0  0  0  0  0  0  0  0  0  0  0  0
    2.4000   -1.3857    0.0000 C   0  0  0  0  0  0  0  0  0  0  0  0
    3.6694   -0.4116    0.0000 H   0  0  0  0  0  0  0  0  0  0  0  0
    2.6088    0.2007    0.0000 H   0  0  0  0  0  0  0  0  0  0  0  0
    3.2000   -2.7713    0.0000 C   0  0  0  0  0  0  0  0  0  0  0  0
    4.0000   -4.1569    0.0000 H   0  0  0  0  0  0  0  0  0  0  0  0
    4.8000   -2.7713    0.0000 H   0  0  0  0  0  0  0  0  0  0  0  0
    2.4000   -4.1569    0.0000 H   0  0  0  0  0  0  0  0  0  0  0  0
   -2.4000    1.3856    0.0000 C   0  0  0  0  0  0  0  0  0  0  0  0
   -1.1306    2.3596    0.0000 H   0  0  0  0  0  0  0  0  0  0  0  0
   -2.1912    2.9720    0.0000 H   0  0  0  0  0  0  0  0  0  0  0  0
   -4.0000    1.3856    0.0000 C   0  0  0  0  0  0  0  0  0  0  0  0
   -4.8000    2.7712    0.0000 H   0  0  0  0  0  0  0  0  0  0  0  0
   -5.6000    1.3856    0.0000 H   0  0  0  0  0  0  0  0  0  0  0  0
   -3.2000    2.7712    0.0000 H   0  0  0  0  0  0  0  0  0  0  0  0
   -4.0000   -1.3857    0.0000 S   0  0  0  0  0  0  0  0  0  0  0  0
   -4.8000   -2.7713    0.0000 C   0  0  0  0  0  0  0  0  0  0  0  0
   -4.5912   -4.3575    0.0000 H   0  0  0  0  0  0  0  0  0  0  0  0
   -3.5306   -3.7453    0.0000 H   0  0  0  0  0  0  0  0  0  0  0  0
   -6.4000   -2.7713    0.0000 C   0  0  0  0  0  0  0  0  0  0  0  0
   -6.6088   -1.1849    0.0000 H   0  0  0  0  0  0  0  0  0  0  0  0
   -7.6694   -1.7973    0.0000 H   0  0  0  0  0  0  0  0  0  0  0  0
   -7.2000   -4.1569    0.0000 C   0  0  0  0  0  0  0  0  0  0  0  0
   -8.0000   -5.5426    0.0000 H   0  0  0  0  0  0  0  0  0  0  0  0
   -8.8000   -4.1569    0.0000 H   0  0  0  0  0  0  0  0  0  0  0  0
   -6.4000   -5.5426    0.0000 H   0  0  0  0  0  0  0  0  0  0  0  0
  1  2  2  0  0  0  0
  2  3  1  0  0  0  0
  3  4  1  0  0  0  0
  4  5  1  0  0  0  0
  4  6  1  0  0  0  0
  4  7  1  0  0  0  0
  7  8  1  0  0  0  0
  7  9  1  0  0  0  0
  7 10  1  0  0  0  0
 10 11  1  0  0  0  0
 10 12  1  0  0  0  0
 10 13  1  0  0  0  0
 13 14  1  0  0  0  0
 13 15  1  0  0  0  0
 13 16  1  0  0  0  0
  3 17  1  0  0  0  0
 17 18  1  0  0  0  0
 17 19  1  0  0  0  0
 17 20  1  0  0  0  0
 20 21  1  0  0  0  0
 20 22  1  0  0  0  0
 20 23  1  0  0  0  0
  2 24  1  0  0  0  0
 24 25  1  0  0  0  0
 25 26  1  0  0  0  0
 25 27  1  0  0  0  0
 25 28  1  0  0  0  0
 28 29  1  0  0  0  0
 28 30  1  0  0  0  0
 28 31  1  0  0  0  0
 31 32  1  0  0  0  0
 31 33  1  0  0  0  0
 31 34  1  0  0  0  0
M  END
> <ChemID>
100952

> <source_casrn>
1114-71-2

> <CAS>
1114-71-2

> <SMILES>
CCN(CCCC)C(=O)SCCC

> <NAME>
PEBULATE

> <preferred_name>
Pebulate

> <iupac>
S-propyl butyl(ethyl)carbamothioate

> <MPID>
100949

> <dsstox_substance_id>
DTXSID8021199

> <Canonical_QSARr>
CCN(CCCC)C(=O)SCCC

> <InChI_Code_QSARr>
InChI=1S/C10H21NOS/c1-4-7-8-11(6-3)10(12)13-9-5-2/h4-9H2,1-3H3

> <InChI Key_QSARr>
SGEJQUSYQTVSIU-UHFFFAOYSA-N

> <Salt_Solvent>
?

> <Ready_Biodeg>
1.0

$$$$
100953
  -INDIGO-08031722522D

 19 18  0  0  0  0  0  0  0  0999 V2000
    2.7712    3.2000    0.0000 O   0  0  0  0  0  0  0  0  0  0  0  0
    1.3856    2.4000    0.0000 N   0  0  0  0  0  0  0  0  0  0  0  0
    1.3856    0.8000    0.0000 N   0  0  0  0  0  0  0  0  0  0  0  0
    2.7712    0.0000    0.0000 C   0  0  0  0  0  0  0  0  0  0  0  0
    3.3835   -1.4782    0.0000 H   0  0  0  0  0  0  0  0  0  0  0  0
    2.1591   -1.4782    0.0000 H   0  0  0  0  0  0  0  0  0  0  0  0
    4.1569    0.8000    0.0000 C   0  0  0  0  0  0  0  0  0  0  0  0
    3.5446    2.2782    0.0000 H   0  0  0  0  0  0  0  0  0  0  0  0
    4.7692    2.2782    0.0000 H   0  0  0  0  0  0  0  0  0  0  0  0
    5.5425    0.0000    0.0000 O   0  0  0  0  0  0  0  0  0  0  0  0
    6.9282    0.8000    0.0000 H   0  0  0  0  0  0  0  0  0  0  0  0
    0.0001    0.0000    0.0000 C   0  0  0  0  0  0  0  0  0  0  0  0
    0.6122   -1.4782    0.0000 H   0  0  0  0  0  0  0  0  0  0  0  0
   -0.6123   -1.4782    0.0000 H   0  0  0  0  0  0  0  0  0  0  0  0
   -1.3856    0.8000    0.0000 C   0  0  0  0  0  0  0  0  0  0  0  0
   -1.9979    2.2782    0.0000 H   0  0  0  0  0  0  0  0  0  0  0  0
   -0.7733    2.2782    0.0000 H   0  0  0  0  0  0  0  0  0  0  0  0
   -2.7713    0.0000    0.0000 O   0  0  0  0  0  0  0  0  0  0  0  0
   -4.1569    0.8000    0.0000 H   0  0  0  0  0  0  0  0  0  0  0  0
  1  2  2  0  0  0  0
  2  3  1  0  0  0  0
  3  4  1  0  0  0  0
  4  5  1  0  0  0  0
  4  6  1  0  0  0  0
  4  7  1  0  0  0  0
  7  8  1  0  0  0  0
  7  9  1  0  0  0  0
  7 10  1  0  0  0  0
 10 11  1  0  0  0  0
  3 12  1  0  0  0  0
 12 13  1  0  0  0  0
 12 14  1  0  0  0  0
 12 15  1  0  0  0  0
 15 16  1  0  0  0  0
 15 17  1  0  0  0  0
 15 18  1  0  0  0  0
 18 19  1  0  0  0  0
M  END
> <ChemID>
100953

> <source_casrn>
1116-54-7

> <CAS>
1116-54-7

> <SMILES>
OCCN(CCO)N=O

> <NAME>
N-NITROSODIETHANOLAMINE

> <preferred_name>
N-Nitrosodiethanolamine

> <iupac>
2,2'-(nitrosoimino)diethanol

> <MPID>
100950

> <dsstox_substance_id>
DTXSID7021027

> <Canonical_QSARr>
OCCN(CCO)N=O

> <InChI_Code_QSARr>
InChI=1S/C4H10N2O3/c7-3-1-6(5-9)2-4-8/h7-8H,1-4H2

> <InChI Key_QSARr>
YFCDLVPYFMHRQZ-UHFFFAOYSA-N

> <Salt_Solvent>
?

> <Ready_Biodeg>
1.0

$$$$
100955
  -INDIGO-08031722522D

 61 60  0  0  0  0  0  0  0  0999 V2000
   13.8563   -1.6000    0.0000 O   0  0  0  0  0  0  0  0  0  0  0  0
   15.2420   -0.8000    0.0000 H   0  0  0  0  0  0  0  0  0  0  0  0
   12.4706   -0.8000    0.0000 S   0  0  0  0  0  0  0  0  0  0  0  0
   11.0849    0.0000    0.0000 O   0  0  0  0  0  0  0  0  0  0  0  0
    9.6997   -0.8000    0.0000 C   0  0  0  0  0  0  0  0  0  0  0  0
    9.0871   -2.2782    0.0000 H   0  0  0  0  0  0  0  0  0  0  0  0
   10.3118   -2.2782    0.0000 H   0  0  0  0  0  0  0  0  0  0  0  0
    8.3140    0.0000    0.0000 C   0  0  0  0  0  0  0  0  0  0  0  0
    8.9261    1.4782    0.0000 H   0  0  0  0  0  0  0  0  0  0  0  0
    7.7014    1.4782    0.0000 H   0  0  0  0  0  0  0  0  0  0  0  0
    6.9283   -0.8000    0.0000 C   0  0  0  0  0  0  0  0  0  0  0  0
    6.3161   -2.2782    0.0000 H   0  0  0  0  0  0  0  0  0  0  0  0
    7.5404   -2.2782    0.0000 H   0  0  0  0  0  0  0  0  0  0  0  0
    5.5426    0.0000    0.0000 C   0  0  0  0  0  0  0  0  0  0  0  0
    6.1547    1.4782    0.0000 H   0  0  0  0  0  0  0  0  0  0  0  0
    4.9304    1.4782    0.0000 H   0  0  0  0  0  0  0  0  0  0  0  0
    4.1569   -0.8000    0.0000 C   0  0  0  0  0  0  0  0  0  0  0  0
    3.5447   -2.2782    0.0000 H   0  0  0  0  0  0  0  0  0  0  0  0
    4.7690   -2.2782    0.0000 H   0  0  0  0  0  0  0  0  0  0  0  0
    2.7712    0.0000    0.0000 C   0  0  0  0  0  0  0  0  0  0  0  0
    3.3838    1.4782    0.0000 H   0  0  0  0  0  0  0  0  0  0  0  0
    2.1590    1.4782    0.0000 H   0  0  0  0  0  0  0  0  0  0  0  0
    1.3855   -0.8000    0.0000 C   0  0  0  0  0  0  0  0  0  0  0  0
    0.7733   -2.2782    0.0000 H   0  0  0  0  0  0  0  0  0  0  0  0
    1.9981   -2.2782    0.0000 H   0  0  0  0  0  0  0  0  0  0  0  0
    0.0002    0.0000    0.0000 C   0  0  0  0  0  0  0  0  0  0  0  0
    0.6124    1.4782    0.0000 H   0  0  0  0  0  0  0  0  0  0  0  0
   -0.6124    1.4782    0.0000 H   0  0  0  0  0  0  0  0  0  0  0  0
   -1.3855   -0.8000    0.0000 C   0  0  0  0  0  0  0  0  0  0  0  0
   -1.9981   -2.2782    0.0000 H   0  0  0  0  0  0  0  0  0  0  0  0
   -0.7733   -2.2782    0.0000 H   0  0  0  0  0  0  0  0  0  0  0  0
   -2.7712    0.0000    0.0000 C   0  0  0  0  0  0  0  0  0  0  0  0
   -2.1590    1.4782    0.0000 H   0  0  0  0  0  0  0  0  0  0  0  0
   -3.3838    1.4782    0.0000 H   0  0  0  0  0  0  0  0  0  0  0  0
   -4.1569   -0.8000    0.0000 C   0  0  0  0  0  0  0  0  0  0  0  0
   -4.7690   -2.2782    0.0000 H   0  0  0  0  0  0  0  0  0  0  0  0
   -3.5447   -2.2782    0.0000 H   0  0  0  0  0  0  0  0  0  0  0  0
   -5.5426    0.0000    0.0000 C   0  0  0  0  0  0  0  0  0  0  0  0
   -4.9304    1.4782    0.0000 H   0  0  0  0  0  0  0  0  0  0  0  0
   -6.1547    1.4782    0.0000 H   0  0  0  0  0  0  0  0  0  0  0  0
   -6.9283   -0.8000    0.0000 C   0  0  0  0  0  0  0  0  0  0  0  0
   -7.5404   -2.2782    0.0000 H   0  0  0  0  0  0  0  0  0  0  0  0
   -6.3161   -2.2782    0.0000 H   0  0  0  0  0  0  0  0  0  0  0  0
   -8.3140    0.0000    0.0000 C   0  0  0  0  0  0  0  0  0  0  0  0
   -7.7014    1.4782    0.0000 H   0  0  0  0  0  0  0  0  0  0  0  0
   -8.9261    1.4782    0.0000 H   0  0  0  0  0  0  0  0  0  0  0  0
   -9.6997   -0.8000    0.0000 C   0  0  0  0  0  0  0  0  0  0  0  0
  -10.3118   -2.2782    0.0000 H   0  0  0  0  0  0  0  0  0  0  0  0
   -9.0871   -2.2782    0.0000 H   0  0  0  0  0  0  0  0  0  0  0  0
  -11.0849    0.0000    0.0000 C   0  0  0  0  0  0  0  0  0  0  0  0
  -10.4728    1.4782    0.0000 H   0  0  0  0  0  0  0  0  0  0  0  0
  -11.6975    1.4782    0.0000 H   0  0  0  0  0  0  0  0  0  0  0  0
  -12.4706   -0.8000    0.0000 C   0  0  0  0  0  0  0  0  0  0  0  0
  -13.0833   -2.2782    0.0000 H   0  0  0  0  0  0  0  0  0  0  0  0
  -11.8585   -2.2782    0.0000 H   0  0  0  0  0  0  0  0  0  0  0  0
  -13.8563    0.0000    0.0000 C   0  0  0  0  0  0  0  0  0  0  0  0
  -15.2420    0.8000    0.0000 H   0  0  0  0  0  0  0  0  0  0  0  0
  -15.2420   -0.8000    0.0000 H   0  0  0  0  0  0  0  0  0  0  0  0
  -13.8563    1.6000    0.0000 H   0  0  0  0  0  0  0  0  0  0  0  0
   13.2707    0.5856    0.0000 O   0  0  0  0  0  0  0  0  0  0  0  0
   11.6706   -2.1857    0.0000 O   0  0  0  0  0  0  0  0  0  0  0  0
  1  2  1  0  0  0  0
  1  3  1  0  0  0  0
  3  4  1  0  0  0  0
  4  5  1  0  0  0  0
  5  6  1  0  0  0  0
  5  7  1  0  0  0  0
  5  8  1  0  0  0  0
  8  9  1  0  0  0  0
  8 10  1  0  0  0  0
  8 11  1  0  0  0  0
 11 12  1  0  0  0  0
 11 13  1  0  0  0  0
 11 14  1  0  0  0  0
 14 15  1  0  0  0  0
 14 16  1  0  0  0  0
 14 17  1  0  0  0  0
 17 18  1  0  0  0  0
 17 19  1  0  0  0  0
 17 20  1  0  0  0  0
 20 21  1  0  0  0  0
 20 22  1  0  0  0  0
 20 23  1  0  0  0  0
 23 24  1  0  0  0  0
 23 25  1  0  0  0  0
 23 26  1  0  0  0  0
 26 27  1  0  0  0  0
 26 28  1  0  0  0  0
 26 29  1  0  0  0  0
 29 30  1  0  0  0  0
 29 31  1  0  0  0  0
 29 32  1  0  0  0  0
 32 33  1  0  0  0  0
 32 34  1  0  0  0  0
 32 35  1  0  0  0  0
 35 36  1  0  0  0  0
 35 37  1  0  0  0  0
 35 38  1  0  0  0  0
 38 39  1  0  0  0  0
 38 40  1  0  0  0  0
 38 41  1  0  0  0  0
 41 42  1  0  0  0  0
 41 43  1  0  0  0  0
 41 44  1  0  0  0  0
 44 45  1  0  0  0  0
 44 46  1  0  0  0  0
 44 47  1  0  0  0  0
 47 48  1  0  0  0  0
 47 49  1  0  0  0  0
 47 50  1  0  0  0  0
 50 51  1  0  0  0  0
 50 52  1  0  0  0  0
 50 53  1  0  0  0  0
 53 54  1  0  0  0  0
 53 55  1  0  0  0  0
 53 56  1  0  0  0  0
 56 57  1  0  0  0  0
 56 58  1  0  0  0  0
 56 59  1  0  0  0  0
  3 60  2  0  0  0  0
  3 61  2  0  0  0  0
M  END
> <ChemID>
100955

> <source_casrn>
1120-04-3

> <CAS>
1120-04-3

> <SMILES>
S(=O)(=O)(O[Na])OCCCCCCCCCCCCCCCCCC

> <NAME>
Sodium C18 sulfate

> <preferred_name>
Octadecyl sulfate sodium salt

> <iupac>
sodium octadecyl sulfate

> <MPID>
100952

> <dsstox_substance_id>
DTXSID6047103

> <Canonical_QSARr>
CCCCCCCCCCCCCCCCCCOS(O)(=O)=O

> <InChI_Code_QSARr>
InChI=1S/C18H38O4S/c1-2-3-4-5-6-7-8-9-10-11-12-13-14-15-16-17-18-22-23(19,20)21/h2-18H2,1H3,(H,19,20,21)

> <InChI Key_QSARr>
HVWGGPRWKSHASF-UHFFFAOYSA-N

> <Salt_Solvent>
[Na+]

> <Ready_Biodeg>
1.0

$$$$
100956
  -INDIGO-08031722522D

 35 34  0  0  0  0  0  0  0  0999 V2000
    6.9283    0.8000    0.0000 C   0  0  0  0  0  0  0  0  0  0  0  0
    8.3138    1.6000    0.0000 H   0  0  0  0  0  0  0  0  0  0  0  0
    8.3138    0.0000    0.0000 H   0  0  0  0  0  0  0  0  0  0  0  0
    6.9283    2.4000    0.0000 H   0  0  0  0  0  0  0  0  0  0  0  0
    5.5427    0.0000    0.0000 C   0  0  0  0  0  0  0  0  0  0  0  0
    6.1549   -1.4782    0.0000 H   0  0  0  0  0  0  0  0  0  0  0  0
    4.9302   -1.4782    0.0000 H   0  0  0  0  0  0  0  0  0  0  0  0
    4.1569    0.8000    0.0000 C   0  0  0  0  0  0  0  0  0  0  0  0
    3.5446    2.2782    0.0000 H   0  0  0  0  0  0  0  0  0  0  0  0
    4.7691    2.2782    0.0000 H   0  0  0  0  0  0  0  0  0  0  0  0
    2.7713    0.0000    0.0000 C   0  0  0  0  0  0  0  0  0  0  0  0
    3.3835   -1.4782    0.0000 H   0  0  0  0  0  0  0  0  0  0  0  0
    2.1590   -1.4782    0.0000 H   0  0  0  0  0  0  0  0  0  0  0  0
    1.3857    0.8000    0.0000 C   0  0  0  0  0  0  0  0  0  0  0  0
    0.7735    2.2782    0.0000 H   0  0  0  0  0  0  0  0  0  0  0  0
    1.9979    2.2782    0.0000 H   0  0  0  0  0  0  0  0  0  0  0  0
    0.0001    0.0000    0.0000 C   0  0  0  0  0  0  0  0  0  0  0  0
    0.6124   -1.4782    0.0000 H   0  0  0  0  0  0  0  0  0  0  0  0
   -0.6124   -1.4782    0.0000 H   0  0  0  0  0  0  0  0  0  0  0  0
   -1.3857    0.8000    0.0000 C   0  0  0  0  0  0  0  0  0  0  0  0
   -1.9979    2.2782    0.0000 H   0  0  0  0  0  0  0  0  0  0  0  0
   -0.7735    2.2782    0.0000 H   0  0  0  0  0  0  0  0  0  0  0  0
   -2.7713    0.0000    0.0000 C   0  0  0  0  0  0  0  0  0  0  0  0
   -2.1590   -1.4782    0.0000 H   0  0  0  0  0  0  0  0  0  0  0  0
   -3.3835   -1.4782    0.0000 H   0  0  0  0  0  0  0  0  0  0  0  0
   -4.1569    0.8000    0.0000 C   0  0  0  0  0  0  0  0  0  0  0  0
   -4.7691    2.2782    0.0000 H   0  0  0  0  0  0  0  0  0  0  0  0
   -3.5446    2.2782    0.0000 H   0  0  0  0  0  0  0  0  0  0  0  0
   -5.5427    0.0000    0.0000 C   0  0  0  0  0  0  0  0  0  0  0  0
   -4.9302   -1.4782    0.0000 H   0  0  0  0  0  0  0  0  0  0  0  0
   -6.1549   -1.4782    0.0000 H   0  0  0  0  0  0  0  0  0  0  0  0
   -6.9283    0.8000    0.0000 C   0  0  0  0  0  0  0  0  0  0  0  0
   -8.3138    1.6000    0.0000 H   0  0  0  0  0  0  0  0  0  0  0  0
   -8.3138    0.0000    0.0000 H   0  0  0  0  0  0  0  0  0  0  0  0
   -6.9283    2.4000    0.0000 H   0  0  0  0  0  0  0  0  0  0  0  0
  1  2  1  0  0  0  0
  1  3  1  0  0  0  0
  1  4  1  0  0  0  0
  1  5  1  0  0  0  0
  5  6  1  0  0  0  0
  5  7  1  0  0  0  0
  5  8  1  0  0  0  0
  8  9  1  0  0  0  0
  8 10  1  0  0  0  0
  8 11  1  0  0  0  0
 11 12  1  0  0  0  0
 11 13  1  0  0  0  0
 11 14  1  0  0  0  0
 14 15  1  0  0  0  0
 14 16  1  0  0  0  0
 14 17  1  0  0  0  0
 17 18  1  0  0  0  0
 17 19  1  0  0  0  0
 17 20  1  0  0  0  0
 20 21  1  0  0  0  0
 20 22  1  0  0  0  0
 20 23  1  0  0  0  0
 23 24  1  0  0  0  0
 23 25  1  0  0  0  0
 23 26  1  0  0  0  0
 26 27  1  0  0  0  0
 26 28  1  0  0  0  0
 26 29  1  0  0  0  0
 29 30  1  0  0  0  0
 29 31  1  0  0  0  0
 29 32  1  0  0  0  0
 32 33  1  0  0  0  0
 32 34  1  0  0  0  0
 32 35  1  0  0  0  0
M  END
> <ChemID>
100956

> <source_casrn>
1120-21-4

> <CAS>
1120-21-4

> <SMILES>
CCCCCCCCCCC

> <NAME>
n-Undecane

> <preferred_name>
Undecane

> <iupac>
C11H24

> <MPID>
100953

> <dsstox_substance_id>
DTXSID9021689

> <Canonical_QSARr>
CCCCCCCCCCC

> <InChI_Code_QSARr>
InChI=1S/C11H24/c1-3-5-7-9-11-10-8-6-4-2/h3-11H2,1-2H3

> <InChI Key_QSARr>
RSJKGSCJYJTIGS-UHFFFAOYSA-N

> <Salt_Solvent>
?

> <Ready_Biodeg>
1.0

$$$$
100957
  -INDIGO-08031722522D

 23 23  0  0  0  0  0  0  0  0999 V2000
    1.3856    0.8000    0.0000 C   0  0  0  0  0  0  0  0  0  0  0  0
    2.7713    1.6000    0.0000 H   0  0  0  0  0  0  0  0  0  0  0  0
    2.7713   -0.0000    0.0000 H   0  0  0  0  0  0  0  0  0  0  0  0
    1.3856    2.4000    0.0000 H   0  0  0  0  0  0  0  0  0  0  0  0
    0.0001   -0.0000    0.0000 C   0  0  0  0  0  0  0  0  0  0  0  0
    0.0001   -1.6000    0.0000 C   0  0  0  0  0  0  0  0  0  0  0  0
    1.3856   -2.4000    0.0000 H   0  0  0  0  0  0  0  0  0  0  0  0
   -1.3856   -2.4000    0.0000 C   0  0  0  0  0  0  0  0  0  0  0  0
   -1.3856   -4.0000    0.0000 H   0  0  0  0  0  0  0  0  0  0  0  0
   -2.7713   -1.6000    0.0000 C   0  0  0  0  0  0  0  0  0  0  0  0
   -4.1569   -2.4000    0.0000 H   0  0  0  0  0  0  0  0  0  0  0  0
   -2.7713   -0.0000    0.0000 C   0  0  0  0  0  0  0  0  0  0  0  0
   -4.1569    0.8000    0.0000 O   0  0  0  0  0  0  0  0  0  0  0  0
   -5.5426   -0.0000    0.0000 C   0  0  0  0  0  0  0  0  0  0  0  0
   -6.9283    0.8000    0.0000 N   0  0  0  0  0  0  0  0  0  0  0  0
   -8.3138   -0.0000    0.0000 C   0  0  0  0  0  0  0  0  0  0  0  0
   -9.6995    0.8000    0.0000 H   0  0  0  0  0  0  0  0  0  0  0  0
   -9.6995   -0.8000    0.0000 H   0  0  0  0  0  0  0  0  0  0  0  0
   -8.3138    1.6000    0.0000 H   0  0  0  0  0  0  0  0  0  0  0  0
   -5.5426   -1.6000    0.0000 O   0  0  0  0  0  0  0  0  0  0  0  0
   -6.9283   -2.4000    0.0000 H   0  0  0  0  0  0  0  0  0  0  0  0
   -1.3856    0.8000    0.0000 C   0  0  0  0  0  0  0  0  0  0  0  0
   -1.3856    2.4000    0.0000 H   0  0  0  0  0  0  0  0  0  0  0  0
  1  2  1  0  0  0  0
  1  3  1  0  0  0  0
  1  4  1  0  0  0  0
  1  5  1  0  0  0  0
  5  6  1  0  0  0  0
  6  7  1  0  0  0  0
  6  8  2  0  0  0  0
  8  9  1  0  0  0  0
  8 10  1  0  0  0  0
 10 11  1  0  0  0  0
 10 12  2  0  0  0  0
 12 13  1  0  0  0  0
 13 14  1  0  0  0  0
 14 15  2  0  0  0  0
 15 16  1  0  0  0  0
 16 17  1  0  0  0  0
 16 18  1  0  0  0  0
 16 19  1  0  0  0  0
 14 20  1  0  0  0  0
 20 21  1  0  0  0  0
 12 22  1  0  0  0  0
 22  5  2  0  0  0  0
 22 23  1  0  0  0  0
M  END
> <ChemID>
100957

> <source_casrn>
1129-41-5

> <CAS>
1129-41-5

> <SMILES>
Cc1cc(ccc1)OC(O)=NC

> <NAME>
Carbamic acid, methyl-, 3-methylphenyl ester

> <preferred_name>
Metolcarb

> <iupac>
3-methylphenyl methylcarbamate

> <MPID>
100954

> <dsstox_substance_id>
DTXSID8057938

> <Canonical_QSARr>
Cc1cc(ccc1)OC(O)=NC

> <InChI_Code_QSARr>
InChI=1S/C9H11NO2/c1-7-4-3-5-8(6-7)12-9(11)10-2/h3-6H,1-2H3,(H,10,11)

> <InChI Key_QSARr>
VOEYXMAFNDNNED-UHFFFAOYSA-N

> <Salt_Solvent>
?

> <Ready_Biodeg>
0.0

$$$$
100958
  -INDIGO-08031722522D

 35 35  0  0  0  0  0  0  0  0999 V2000
   -2.6284   -1.2257    0.0000 C   0  0  0  0  0  0  0  0  0  0  0  0
   -2.0812   -2.7291    0.0000 O   0  0  0  0  0  0  0  0  0  0  0  0
   -4.2041   -0.9478    0.0000 S   0  0  0  0  0  0  0  0  0  0  0  0
   -5.2327   -2.1735    0.0000 C   0  0  0  0  0  0  0  0  0  0  0  0
   -4.1516   -3.3532    0.0000 H   0  0  0  0  0  0  0  0  0  0  0  0
   -5.3024   -3.7720    0.0000 H   0  0  0  0  0  0  0  0  0  0  0  0
   -6.8083   -1.8957    0.0000 C   0  0  0  0  0  0  0  0  0  0  0  0
   -8.3840   -1.6179    0.0000 H   0  0  0  0  0  0  0  0  0  0  0  0
   -7.8368   -3.1213    0.0000 H   0  0  0  0  0  0  0  0  0  0  0  0
   -7.3556   -0.3921    0.0000 H   0  0  0  0  0  0  0  0  0  0  0  0
   -1.6000    0.0000    0.0000 N   0  0  0  0  0  0  0  0  0  0  0  0
   -0.0000    0.0000    0.0000 C   0  0  0  0  0  0  0  0  0  0  0  0
   -0.5473    1.5035    0.0000 H   0  0  0  0  0  0  0  0  0  0  0  0
   -0.0000   -1.5999    0.0000 C   0  0  0  0  0  0  0  0  0  0  0  0
   -1.5757   -1.3222    0.0000 H   0  0  0  0  0  0  0  0  0  0  0  0
   -0.5473   -3.1035    0.0000 H   0  0  0  0  0  0  0  0  0  0  0  0
    1.3856   -2.4000    0.0000 C   0  0  0  0  0  0  0  0  0  0  0  0
    0.3572   -3.6257    0.0000 H   0  0  0  0  0  0  0  0  0  0  0  0
    2.4141   -3.6257    0.0000 H   0  0  0  0  0  0  0  0  0  0  0  0
    2.7713   -1.5999    0.0000 C   0  0  0  0  0  0  0  0  0  0  0  0
    3.3186   -3.1035    0.0000 H   0  0  0  0  0  0  0  0  0  0  0  0
    4.3470   -1.3222    0.0000 H   0  0  0  0  0  0  0  0  0  0  0  0
    2.7713    0.0000    0.0000 C   0  0  0  0  0  0  0  0  0  0  0  0
    4.3470   -0.2778    0.0000 H   0  0  0  0  0  0  0  0  0  0  0  0
    3.3186    1.5035    0.0000 H   0  0  0  0  0  0  0  0  0  0  0  0
    1.3856    0.8000    0.0000 C   0  0  0  0  0  0  0  0  0  0  0  0
    2.4141    2.0256    0.0000 H   0  0  0  0  0  0  0  0  0  0  0  0
    0.3572    2.0256    0.0000 H   0  0  0  0  0  0  0  0  0  0  0  0
   -2.3999    1.3857    0.0000 C   0  0  0  0  0  0  0  0  0  0  0  0
   -2.1911    2.9720    0.0000 H   0  0  0  0  0  0  0  0  0  0  0  0
   -1.1306    2.3597    0.0000 H   0  0  0  0  0  0  0  0  0  0  0  0
   -4.0001    1.3857    0.0000 C   0  0  0  0  0  0  0  0  0  0  0  0
   -4.8001    2.7713    0.0000 H   0  0  0  0  0  0  0  0  0  0  0  0
   -5.6000    1.3857    0.0000 H   0  0  0  0  0  0  0  0  0  0  0  0
   -3.1999    2.7713    0.0000 H   0  0  0  0  0  0  0  0  0  0  0  0
  1  2  2  0  0  0  0
  1  3  1  0  0  0  0
  3  4  1  0  0  0  0
  4  5  1  0  0  0  0
  4  6  1  0  0  0  0
  4  7  1  0  0  0  0
  7  8  1  0  0  0  0
  7  9  1  0  0  0  0
  7 10  1  0  0  0  0
  1 11  1  0  0  0  0
 11 12  1  0  0  0  0
 12 13  1  0  0  0  0
 12 14  1  0  0  0  0
 14 15  1  0  0  0  0
 14 16  1  0  0  0  0
 14 17  1  0  0  0  0
 17 18  1  0  0  0  0
 17 19  1  0  0  0  0
 17 20  1  0  0  0  0
 20 21  1  0  0  0  0
 20 22  1  0  0  0  0
 20 23  1  0  0  0  0
 23 24  1  0  0  0  0
 23 25  1  0  0  0  0
 23 26  1  0  0  0  0
 26 12  1  0  0  0  0
 26 27  1  0  0  0  0
 26 28  1  0  0  0  0
 11 29  1  0  0  0  0
 29 30  1  0  0  0  0
 29 31  1  0  0  0  0
 29 32  1  0  0  0  0
 32 33  1  0  0  0  0
 32 34  1  0  0  0  0
 32 35  1  0  0  0  0
M  END
> <ChemID>
100958

> <source_casrn>
1134-23-2

> <CAS>
1134-23-2

> <SMILES>
CCN(C1CCCCC1)C(=O)SCC

> <NAME>
Cycloate

> <preferred_name>
Cycloate

> <iupac>
S-ethyl cyclohexyl(ethyl)carbamothioate

> <MPID>
100955

> <dsstox_substance_id>
DTXSID6032356

> <Canonical_QSARr>
CCN(C1CCCCC1)C(=O)SCC

> <InChI_Code_QSARr>
InChI=1S/C11H21NOS/c1-3-12(11(13)14-4-2)10-8-6-5-7-9-10/h10H,3-9H2,1-2H3

> <InChI Key_QSARr>
DFCAFRGABIXSDS-UHFFFAOYSA-N

> <Salt_Solvent>
?

> <Ready_Biodeg>
0.0

$$$$
100960
  -INDIGO-08031722522D

 24 25  0  0  0  0  0  0  0  0999 V2000
   -0.0001   -0.0000    0.0000 C   0  0  0  0  0  0  0  0  0  0  0  0
    1.3856    0.8000    0.0000 C   0  0  0  0  0  0  0  0  0  0  0  0
    1.3856    2.4000    0.0000 H   0  0  0  0  0  0  0  0  0  0  0  0
    2.7714   -0.0000    0.0000 C   0  0  0  0  0  0  0  0  0  0  0  0
    4.1569    0.8000    0.0000 H   0  0  0  0  0  0  0  0  0  0  0  0
    2.7714   -1.6000    0.0000 C   0  0  0  0  0  0  0  0  0  0  0  0
    4.1569   -2.4000    0.0000 C   0  0  0  0  0  0  0  0  0  0  0  0
    4.1569   -4.0000    0.0000 O   0  0  0  0  0  0  0  0  0  0  0  0
    5.5427   -1.6000    0.0000 O   0  0  0  0  0  0  0  0  0  0  0  0
    6.9282   -2.4000    0.0000 H   0  0  0  0  0  0  0  0  0  0  0  0
    1.3856   -2.4000    0.0000 C   0  0  0  0  0  0  0  0  0  0  0  0
    1.3856   -4.0000    0.0000 H   0  0  0  0  0  0  0  0  0  0  0  0
    0.0001   -1.6000    0.0000 C   0  0  0  0  0  0  0  0  0  0  0  0
   -1.3856   -2.4000    0.0000 C   0  0  0  0  0  0  0  0  0  0  0  0
   -1.3856   -4.0000    0.0000 H   0  0  0  0  0  0  0  0  0  0  0  0
   -2.7714   -1.6000    0.0000 C   0  0  0  0  0  0  0  0  0  0  0  0
   -4.1569   -2.4000    0.0000 H   0  0  0  0  0  0  0  0  0  0  0  0
   -2.7714   -0.0000    0.0000 C   0  0  0  0  0  0  0  0  0  0  0  0
   -4.1569    0.8000    0.0000 C   0  0  0  0  0  0  0  0  0  0  0  0
   -4.1569    2.4000    0.0000 O   0  0  0  0  0  0  0  0  0  0  0  0
   -5.5427   -0.0000    0.0000 O   0  0  0  0  0  0  0  0  0  0  0  0
   -6.9282    0.8000    0.0000 H   0  0  0  0  0  0  0  0  0  0  0  0
   -1.3856    0.8000    0.0000 C   0  0  0  0  0  0  0  0  0  0  0  0
   -1.3856    2.4000    0.0000 H   0  0  0  0  0  0  0  0  0  0  0  0
  1  2  1  0  0  0  0
  2  3  1  0  0  0  0
  2  4  2  0  0  0  0
  4  5  1  0  0  0  0
  4  6  1  0  0  0  0
  6  7  1  0  0  0  0
  7  8  2  0  0  0  0
  7  9  1  0  0  0  0
  9 10  1  0  0  0  0
  6 11  2  0  0  0  0
 11 12  1  0  0  0  0
 11 13  1  0  0  0  0
 13  1  1  0  0  0  0
 13 14  2  0  0  0  0
 14 15  1  0  0  0  0
 14 16  1  0  0  0  0
 16 17  1  0  0  0  0
 16 18  2  0  0  0  0
 18 19  1  0  0  0  0
 19 20  2  0  0  0  0
 19 21  1  0  0  0  0
 21 22  1  0  0  0  0
 18 23  1  0  0  0  0
 23  1  2  0  0  0  0
 23 24  1  0  0  0  0
M  END
> <ChemID>
100960

> <source_casrn>
1141-38-4

> <CAS>
1141-38-4

> <SMILES>
OC(=O)c1cc2ccc(cc2cc1)C(O)=O

> <NAME>
2,6-Naphthalenedicarboxylic acid

> <preferred_name>
2,6-Naphthalenedicarboxylic acid

> <iupac>
naphthalene-2,6-dicarboxylic acid

> <MPID>
100957

> <dsstox_substance_id>
DTXSID5029211

> <Canonical_QSARr>
OC(=O)c1cc2ccc(cc2cc1)C(O)=O

> <InChI_Code_QSARr>
InChI=1S/C12H8O4/c13-11(14)9-3-1-7-5-10(12(15)16)4-2-8(7)6-9/h1-6H,(H,13,14)(H,15,16)

> <InChI Key_QSARr>
RXOHFPCZGPKIRD-UHFFFAOYSA-N

> <Salt_Solvent>
?

> <Ready_Biodeg>
0.0

$$$$
100961
  -INDIGO-08031722522D

 23 24  0  0  0  0  0  0  0  0999 V2000
   -0.4813    2.7292    0.0000 Br  0  0  0  0  0  0  0  0  0  0  0  0
   -1.0284    1.2257    0.0000 C   0  0  0  0  0  0  0  0  0  0  0  0
    0.0000    0.0000    0.0000 C   0  0  0  0  0  0  0  0  0  0  0  0
    1.5756    0.2779    0.0000 O   0  0  0  0  0  0  0  0  0  0  0  0
    2.9614   -0.5221    0.0000 C   0  0  0  0  0  0  0  0  0  0  0  0
    2.9614   -2.1222    0.0000 C   0  0  0  0  0  0  0  0  0  0  0  0
    1.5756   -2.9222    0.0000 Br  0  0  0  0  0  0  0  0  0  0  0  0
    4.3470   -2.9222    0.0000 C   0  0  0  0  0  0  0  0  0  0  0  0
    4.3470   -4.5222    0.0000 Br  0  0  0  0  0  0  0  0  0  0  0  0
    5.7326   -2.1222    0.0000 C   0  0  0  0  0  0  0  0  0  0  0  0
    7.1183   -2.9222    0.0000 Br  0  0  0  0  0  0  0  0  0  0  0  0
    5.7326   -0.5221    0.0000 C   0  0  0  0  0  0  0  0  0  0  0  0
    7.1183    0.2779    0.0000 Br  0  0  0  0  0  0  0  0  0  0  0  0
    4.3470    0.2779    0.0000 C   0  0  0  0  0  0  0  0  0  0  0  0
    4.3470    1.8779    0.0000 Br  0  0  0  0  0  0  0  0  0  0  0  0
   -0.5473   -1.5035    0.0000 C   0  0  0  0  0  0  0  0  0  0  0  0
    0.4812   -2.7292    0.0000 Br  0  0  0  0  0  0  0  0  0  0  0  0
   -2.1229   -1.7813    0.0000 C   0  0  0  0  0  0  0  0  0  0  0  0
   -2.6702   -3.2849    0.0000 Br  0  0  0  0  0  0  0  0  0  0  0  0
   -3.1513   -0.5556    0.0000 C   0  0  0  0  0  0  0  0  0  0  0  0
   -4.7271   -0.8335    0.0000 Br  0  0  0  0  0  0  0  0  0  0  0  0
   -2.6042    0.9479    0.0000 C   0  0  0  0  0  0  0  0  0  0  0  0
   -3.6326    2.1735    0.0000 Br  0  0  0  0  0  0  0  0  0  0  0  0
  1  2  1  0  0  0  0
  2  3  1  0  0  0  0
  3  4  1  0  0  0  0
  4  5  1  0  0  0  0
  5  6  1  0  0  0  0
  6  7  1  0  0  0  0
  6  8  2  0  0  0  0
  8  9  1  0  0  0  0
  8 10  1  0  0  0  0
 10 11  1  0  0  0  0
 10 12  2  0  0  0  0
 12 13  1  0  0  0  0
 12 14  1  0  0  0  0
 14  5  2  0  0  0  0
 14 15  1  0  0  0  0
  3 16  2  0  0  0  0
 16 17  1  0  0  0  0
 16 18  1  0  0  0  0
 18 19  1  0  0  0  0
 18 20  2  0  0  0  0
 20 21  1  0  0  0  0
 20 22  1  0  0  0  0
 22  2  2  0  0  0  0
 22 23  1  0  0  0  0
M  END
> <ChemID>
100961

> <source_casrn>
1163-19-5

> <CAS>
1163-19-5

> <SMILES>
O(c(c(c(c(c1Br)Br)Br)Br)c1Br)c(c(c(c(c2Br)Br)Br)Br)c2Br

> <NAME>
Benzene, 1,1'-oxybis 2,3,4,5,6-pentabromo-

> <preferred_name>
Decabromodiphenyl oxide

> <iupac>
bis(pentabromophenyl) ether

> <MPID>
100958

> <dsstox_substance_id>
DTXSID9020376

> <Canonical_QSARr>
Brc1c(Oc2c(Br)c(Br)c(Br)c(Br)c2Br)c(Br)c(Br)c(Br)c1Br

> <InChI_Code_QSARr>
InChI=1S/C12Br10O/c13-1-3(15)7(19)11(8(20)4(1)16)23-12-9(21)5(17)2(14)6(18)10(12)22

> <InChI Key_QSARr>
WHHGLZMJPXIBIX-UHFFFAOYSA-N

> <Salt_Solvent>
?

> <Ready_Biodeg>
0.0

$$$$
100962
  -INDIGO-08031722522D

 40 41  0  0  0  0  0  0  0  0999 V2000
    2.7714   -1.6000    0.0000 S   0  0  0  0  0  0  0  0  0  0  0  0
    2.7714   -0.0000    0.0000 C   0  0  0  0  0  0  0  0  0  0  0  0
    4.1569    0.8000    0.0000 N   0  0  0  0  0  0  0  0  0  0  0  0
    3.8790    2.3757    0.0000 H   0  0  0  0  0  0  0  0  0  0  0  0
    5.5426    0.0000    0.0000 C   0  0  0  0  0  0  0  0  0  0  0  0
    4.3170   -1.0285    0.0000 H   0  0  0  0  0  0  0  0  0  0  0  0
    6.3425   -1.3857    0.0000 C   0  0  0  0  0  0  0  0  0  0  0  0
    4.8391   -1.9329    0.0000 H   0  0  0  0  0  0  0  0  0  0  0  0
    6.6203   -2.9613    0.0000 H   0  0  0  0  0  0  0  0  0  0  0  0
    7.9425   -1.3857    0.0000 C   0  0  0  0  0  0  0  0  0  0  0  0
    7.6647   -2.9613    0.0000 H   0  0  0  0  0  0  0  0  0  0  0  0
    9.4462   -1.9329    0.0000 H   0  0  0  0  0  0  0  0  0  0  0  0
    8.7427    0.0000    0.0000 C   0  0  0  0  0  0  0  0  0  0  0  0
    9.9682   -1.0284    0.0000 H   0  0  0  0  0  0  0  0  0  0  0  0
    9.9682    1.0285    0.0000 H   0  0  0  0  0  0  0  0  0  0  0  0
    7.9425    1.3857    0.0000 C   0  0  0  0  0  0  0  0  0  0  0  0
    9.4462    1.9329    0.0000 H   0  0  0  0  0  0  0  0  0  0  0  0
    7.6647    2.9613    0.0000 H   0  0  0  0  0  0  0  0  0  0  0  0
    6.3425    1.3857    0.0000 C   0  0  0  0  0  0  0  0  0  0  0  0
    6.6203    2.9613    0.0000 H   0  0  0  0  0  0  0  0  0  0  0  0
    4.8391    1.9329    0.0000 H   0  0  0  0  0  0  0  0  0  0  0  0
    1.3857    0.8000    0.0000 N   0  0  0  0  0  0  0  0  0  0  0  0
    1.6635    2.3757    0.0000 H   0  0  0  0  0  0  0  0  0  0  0  0
    0.0000   -0.0000    0.0000 C   0  0  0  0  0  0  0  0  0  0  0  0
    1.2256   -1.0285    0.0000 H   0  0  0  0  0  0  0  0  0  0  0  0
   -0.7999    1.3857    0.0000 C   0  0  0  0  0  0  0  0  0  0  0  0
    0.7035    1.9329    0.0000 H   0  0  0  0  0  0  0  0  0  0  0  0
   -1.0777    2.9613    0.0000 H   0  0  0  0  0  0  0  0  0  0  0  0
   -2.4000    1.3857    0.0000 C   0  0  0  0  0  0  0  0  0  0  0  0
   -2.1221    2.9613    0.0000 H   0  0  0  0  0  0  0  0  0  0  0  0
   -3.9036    1.9329    0.0000 H   0  0  0  0  0  0  0  0  0  0  0  0
   -3.2001   -0.0000    0.0000 C   0  0  0  0  0  0  0  0  0  0  0  0
   -4.4257    1.0285    0.0000 H   0  0  0  0  0  0  0  0  0  0  0  0
   -4.4257   -1.0285    0.0000 H   0  0  0  0  0  0  0  0  0  0  0  0
   -2.4000   -1.3857    0.0000 C   0  0  0  0  0  0  0  0  0  0  0  0
   -3.9036   -1.9329    0.0000 H   0  0  0  0  0  0  0  0  0  0  0  0
   -2.1221   -2.9613    0.0000 H   0  0  0  0  0  0  0  0  0  0  0  0
   -0.7999   -1.3857    0.0000 C   0  0  0  0  0  0  0  0  0  0  0  0
   -1.0777   -2.9613    0.0000 H   0  0  0  0  0  0  0  0  0  0  0  0
    0.7035   -1.9329    0.0000 H   0  0  0  0  0  0  0  0  0  0  0  0
  1  2  2  0  0  0  0
  2  3  1  0  0  0  0
  3  4  1  0  0  0  0
  3  5  1  0  0  0  0
  5  6  1  0  0  0  0
  5  7  1  0  0  0  0
  7  8  1  0  0  0  0
  7  9  1  0  0  0  0
  7 10  1  0  0  0  0
 10 11  1  0  0  0  0
 10 12  1  0  0  0  0
 10 13  1  0  0  0  0
 13 14  1  0  0  0  0
 13 15  1  0  0  0  0
 13 16  1  0  0  0  0
 16 17  1  0  0  0  0
 16 18  1  0  0  0  0
 16 19  1  0  0  0  0
 19  5  1  0  0  0  0
 19 20  1  0  0  0  0
 19 21  1  0  0  0  0
  2 22  1  0  0  0  0
 22 23  1  0  0  0  0
 22 24  1  0  0  0  0
 24 25  1  0  0  0  0
 24 26  1  0  0  0  0
 26 27  1  0  0  0  0
 26 28  1  0  0  0  0
 26 29  1  0  0  0  0
 29 30  1  0  0  0  0
 29 31  1  0  0  0  0
 29 32  1  0  0  0  0
 32 33  1  0  0  0  0
 32 34  1  0  0  0  0
 32 35  1  0  0  0  0
 35 36  1  0  0  0  0
 35 37  1  0  0  0  0
 35 38  1  0  0  0  0
 38 24  1  0  0  0  0
 38 39  1  0  0  0  0
 38 40  1  0  0  0  0
M  END
> <ChemID>
100962

> <source_casrn>
1212-29-9

> <CAS>
1212-29-9

> <SMILES>
S=C(NC1CCCCC1)NC1CCCCC1

> <NAME>
Thiourea, N,N'-dicyclohexyl-

> <preferred_name>
N,N'-Dicyclohexylthiourea

> <iupac>
1,3-dicyclohexylthiourea

> <MPID>
100959

> <dsstox_substance_id>
DTXSID9020451

> <Canonical_QSARr>
S=C(NC1CCCCC1)NC1CCCCC1

> <InChI_Code_QSARr>
InChI=1S/C13H24N2S/c16-13(14-11-7-3-1-4-8-11)15-12-9-5-2-6-10-12/h11-12H,1-10H2,(H2,14,15,16)

> <InChI Key_QSARr>
KAJICSGLHKRDLN-UHFFFAOYSA-N

> <Salt_Solvent>
?

> <Ready_Biodeg>
0.0

$$$$
100967
  -INDIGO-08031722522D

 74 74  0  0  0  0  0  0  0  0999 V2000
    0.0001   -0.0001    0.0000 C   0  0  0  0  0  0  0  0  0  0  0  0
    0.6506    1.4617    0.0000 H   0  0  0  0  0  0  0  0  0  0  0  0
   -0.3325   -1.5651    0.0000 O   0  0  0  0  0  0  0  0  0  0  0  0
   -1.9239   -1.7323    0.0000 C   0  0  0  0  0  0  0  0  0  0  0  0
   -1.5913   -3.2973    0.0000 H   0  0  0  0  0  0  0  0  0  0  0  0
   -3.4453   -2.2268    0.0000 H   0  0  0  0  0  0  0  0  0  0  0  0
   -2.5749   -0.2705    0.0000 C   0  0  0  0  0  0  0  0  0  0  0  0
   -3.5152    1.0238    0.0000 H   0  0  0  0  0  0  0  0  0  0  0  0
   -3.9604   -1.0706    0.0000 O   0  0  0  0  0  0  0  0  0  0  0  0
   -5.3460   -0.2705    0.0000 H   0  0  0  0  0  0  0  0  0  0  0  0
   -1.3855    0.8000    0.0000 C   0  0  0  0  0  0  0  0  0  0  0  0
   -0.4452    2.0944    0.0000 H   0  0  0  0  0  0  0  0  0  0  0  0
   -2.5749    1.8705    0.0000 O   0  0  0  0  0  0  0  0  0  0  0  0
   -2.2418    3.4357    0.0000 H   0  0  0  0  0  0  0  0  0  0  0  0
    1.5215   -0.4944    0.0000 C   0  0  0  0  0  0  0  0  0  0  0  0
    1.0270   -2.0161    0.0000 H   0  0  0  0  0  0  0  0  0  0  0  0
    2.0161    1.0272    0.0000 O   0  0  0  0  0  0  0  0  0  0  0  0
    3.5814    1.3598    0.0000 H   0  0  0  0  0  0  0  0  0  0  0  0
    3.0436   -0.9888    0.0000 C   0  0  0  0  0  0  0  0  0  0  0  0
    2.7516   -2.5620    0.0000 H   0  0  0  0  0  0  0  0  0  0  0  0
    3.9497   -2.3075    0.0000 H   0  0  0  0  0  0  0  0  0  0  0  0
    4.2325    0.0817    0.0000 O   0  0  0  0  0  0  0  0  0  0  0  0
    5.7539   -0.4128    0.0000 C   0  0  0  0  0  0  0  0  0  0  0  0
    6.9434    0.6579    0.0000 C   0  0  0  0  0  0  0  0  0  0  0  0
    7.2348    2.2312    0.0000 H   0  0  0  0  0  0  0  0  0  0  0  0
    6.0367    1.9766    0.0000 H   0  0  0  0  0  0  0  0  0  0  0  0
    8.4649    0.1635    0.0000 C   0  0  0  0  0  0  0  0  0  0  0  0
    8.1735   -1.4097    0.0000 H   0  0  0  0  0  0  0  0  0  0  0  0
    9.3710   -1.1551    0.0000 H   0  0  0  0  0  0  0  0  0  0  0  0
    9.6538    1.2342    0.0000 C   0  0  0  0  0  0  0  0  0  0  0  0
    9.9452    2.8074    0.0000 H   0  0  0  0  0  0  0  0  0  0  0  0
    8.7476    2.5527    0.0000 H   0  0  0  0  0  0  0  0  0  0  0  0
   11.1758    0.7397    0.0000 C   0  0  0  0  0  0  0  0  0  0  0  0
   10.8838   -0.8335    0.0000 H   0  0  0  0  0  0  0  0  0  0  0  0
   12.0819   -0.5789    0.0000 H   0  0  0  0  0  0  0  0  0  0  0  0
   12.3647    1.8103    0.0000 C   0  0  0  0  0  0  0  0  0  0  0  0
   12.6561    3.3835    0.0000 H   0  0  0  0  0  0  0  0  0  0  0  0
   11.4585    3.1289    0.0000 H   0  0  0  0  0  0  0  0  0  0  0  0
   13.8862    1.3158    0.0000 C   0  0  0  0  0  0  0  0  0  0  0  0
   13.5948   -0.2574    0.0000 H   0  0  0  0  0  0  0  0  0  0  0  0
   14.7923   -0.0027    0.0000 H   0  0  0  0  0  0  0  0  0  0  0  0
   15.0751    2.3865    0.0000 C   0  0  0  0  0  0  0  0  0  0  0  0
   15.3670    3.9597    0.0000 H   0  0  0  0  0  0  0  0  0  0  0  0
   14.1689    3.7051    0.0000 H   0  0  0  0  0  0  0  0  0  0  0  0
   16.5971    1.8920    0.0000 C   0  0  0  0  0  0  0  0  0  0  0  0
   16.9297    0.3270    0.0000 H   0  0  0  0  0  0  0  0  0  0  0  0
   17.7860    2.9626    0.0000 C   0  0  0  0  0  0  0  0  0  0  0  0
   17.4534    4.5277    0.0000 H   0  0  0  0  0  0  0  0  0  0  0  0
   19.3075    2.4683    0.0000 C   0  0  0  0  0  0  0  0  0  0  0  0
   19.0161    0.8951    0.0000 H   0  0  0  0  0  0  0  0  0  0  0  0
   20.2142    1.1496    0.0000 H   0  0  0  0  0  0  0  0  0  0  0  0
   20.4969    3.5388    0.0000 C   0  0  0  0  0  0  0  0  0  0  0  0
   20.7883    5.1120    0.0000 H   0  0  0  0  0  0  0  0  0  0  0  0
   19.5907    4.8574    0.0000 H   0  0  0  0  0  0  0  0  0  0  0  0
   22.0184    3.0443    0.0000 C   0  0  0  0  0  0  0  0  0  0  0  0
   21.7270    1.4711    0.0000 H   0  0  0  0  0  0  0  0  0  0  0  0
   22.9246    1.7257    0.0000 H   0  0  0  0  0  0  0  0  0  0  0  0
   23.2073    4.1150    0.0000 C   0  0  0  0  0  0  0  0  0  0  0  0
   23.4992    5.6882    0.0000 H   0  0  0  0  0  0  0  0  0  0  0  0
   22.3011    5.4335    0.0000 H   0  0  0  0  0  0  0  0  0  0  0  0
   24.7293    3.6206    0.0000 C   0  0  0  0  0  0  0  0  0  0  0  0
   24.4374    2.0474    0.0000 H   0  0  0  0  0  0  0  0  0  0  0  0
   25.6355    2.3019    0.0000 H   0  0  0  0  0  0  0  0  0  0  0  0
   25.9182    4.6911    0.0000 C   0  0  0  0  0  0  0  0  0  0  0  0
   26.2096    6.2643    0.0000 H   0  0  0  0  0  0  0  0  0  0  0  0
   25.0121    6.0097    0.0000 H   0  0  0  0  0  0  0  0  0  0  0  0
   27.4397    4.1967    0.0000 C   0  0  0  0  0  0  0  0  0  0  0  0
   27.1483    2.6234    0.0000 H   0  0  0  0  0  0  0  0  0  0  0  0
   28.3464    2.8782    0.0000 H   0  0  0  0  0  0  0  0  0  0  0  0
   28.6291    5.2674    0.0000 C   0  0  0  0  0  0  0  0  0  0  0  0
   29.8180    6.3379    0.0000 H   0  0  0  0  0  0  0  0  0  0  0  0
   30.1506    4.7729    0.0000 H   0  0  0  0  0  0  0  0  0  0  0  0
   28.2960    6.8324    0.0000 H   0  0  0  0  0  0  0  0  0  0  0  0
    6.0865   -1.9778    0.0000 O   0  0  0  0  0  0  0  0  0  0  0  0
  1  2  1  0  0  0  0
  1  3  1  0  0  0  0
  3  4  1  0  0  0  0
  4  5  1  0  0  0  0
  4  6  1  0  0  0  0
  4  7  1  0  0  0  0
  7  8  1  0  0  0  0
  7  9  1  0  0  0  0
  9 10  1  0  0  0  0
  7 11  1  0  0  0  0
 11  1  1  0  0  0  0
 11 12  1  0  0  0  0
 11 13  1  0  0  0  0
 13 14  1  0  0  0  0
  1 15  1  0  0  0  0
 15 16  1  0  0  0  0
 15 17  1  0  0  0  0
 17 18  1  0  0  0  0
 15 19  1  0  0  0  0
 19 20  1  0  0  0  0
 19 21  1  0  0  0  0
 19 22  1  0  0  0  0
 22 23  1  0  0  0  0
 23 24  1  0  0  0  0
 24 25  1  0  0  0  0
 24 26  1  0  0  0  0
 24 27  1  0  0  0  0
 27 28  1  0  0  0  0
 27 29  1  0  0  0  0
 27 30  1  0  0  0  0
 30 31  1  0  0  0  0
 30 32  1  0  0  0  0
 30 33  1  0  0  0  0
 33 34  1  0  0  0  0
 33 35  1  0  0  0  0
 33 36  1  0  0  0  0
 36 37  1  0  0  0  0
 36 38  1  0  0  0  0
 36 39  1  0  0  0  0
 39 40  1  0  0  0  0
 39 41  1  0  0  0  0
 39 42  1  0  0  0  0
 42 43  1  0  0  0  0
 42 44  1  0  0  0  0
 42 45  1  0  0  0  0
 45 46  1  0  0  0  0
 45 47  2  0  0  0  0
 47 48  1  0  0  0  0
 47 49  1  0  0  0  0
 49 50  1  0  0  0  0
 49 51  1  0  0  0  0
 49 52  1  0  0  0  0
 52 53  1  0  0  0  0
 52 54  1  0  0  0  0
 52 55  1  0  0  0  0
 55 56  1  0  0  0  0
 55 57  1  0  0  0  0
 55 58  1  0  0  0  0
 58 59  1  0  0  0  0
 58 60  1  0  0  0  0
 58 61  1  0  0  0  0
 61 62  1  0  0  0  0
 61 63  1  0  0  0  0
 61 64  1  0  0  0  0
 64 65  1  0  0  0  0
 64 66  1  0  0  0  0
 64 67  1  0  0  0  0
 67 68  1  0  0  0  0
 67 69  1  0  0  0  0
 67 70  1  0  0  0  0
 70 71  1  0  0  0  0
 70 72  1  0  0  0  0
 70 73  1  0  0  0  0
 23 74  2  0  0  0  0
M  END
> <ChemID>
100967

> <source_casrn>
1338-43-8

> <CAS>
1338-43-8

> <SMILES>
O(CC1O)C(C1O)C(O)COC(=O)CCCCCCCC=CCCCCCCCC

> <NAME>
(Z)-Sorbitan, Mono-9-octadecenoate

> <preferred_name>
Sorbitan, mono-(9Z)-9-octadecenoate

> <iupac>
1,4-anhydro-6-O-[(9Z)-octadec-9-enoyl]-D-glucitol

> <MPID>
100961

> <dsstox_substance_id>
DTXSID6027397

> <Canonical_QSARr>
CCCCCCCCC=CCCCCCCCC(=O)OCC(O)C1OCC(O)C1O

> <InChI_Code_QSARr>
InChI=1S/C24H44O6/c1-2-3-4-5-6-7-8-9-10-11-12-13-14-15-16-17-22(27)29-19-21(26)24-23(28)20(25)18-30-24/h9-10,20-21,23-26,28H,2-8,11-19H2,1H3/b10-9+

> <InChI Key_QSARr>
NWGKJDSIEKMTRX-MDZDMXLPSA-N

> <Salt_Solvent>
?

> <Ready_Biodeg>
1.0

$$$$
100968
  -INDIGO-08031722522D

 54 53  0  0  0  0  0  0  0  0999 V2000
    8.3140    0.0000    0.0000 C   0  0  0  0  0  0  0  0  0  0  0  0
    8.9262    1.4782    0.0000 H   0  0  0  0  0  0  0  0  0  0  0  0
    7.7014    1.4782    0.0000 H   0  0  0  0  0  0  0  0  0  0  0  0
    6.9281   -0.8000    0.0000 C   0  0  0  0  0  0  0  0  0  0  0  0
    6.3158   -2.2782    0.0000 H   0  0  0  0  0  0  0  0  0  0  0  0
    7.5407   -2.2782    0.0000 H   0  0  0  0  0  0  0  0  0  0  0  0
    5.5425    0.0000    0.0000 C   0  0  0  0  0  0  0  0  0  0  0  0
    6.1547    1.4782    0.0000 H   0  0  0  0  0  0  0  0  0  0  0  0
    4.9303    1.4782    0.0000 H   0  0  0  0  0  0  0  0  0  0  0  0
    4.1569   -0.8000    0.0000 C   0  0  0  0  0  0  0  0  0  0  0  0
    3.5447   -2.2782    0.0000 H   0  0  0  0  0  0  0  0  0  0  0  0
    4.7692   -2.2782    0.0000 H   0  0  0  0  0  0  0  0  0  0  0  0
    2.7714    0.0000    0.0000 C   0  0  0  0  0  0  0  0  0  0  0  0
    3.3836    1.4782    0.0000 H   0  0  0  0  0  0  0  0  0  0  0  0
    2.1592    1.4782    0.0000 H   0  0  0  0  0  0  0  0  0  0  0  0
    1.3858   -0.8000    0.0000 C   0  0  0  0  0  0  0  0  0  0  0  0
    0.7732   -2.2782    0.0000 H   0  0  0  0  0  0  0  0  0  0  0  0
    1.9981   -2.2782    0.0000 H   0  0  0  0  0  0  0  0  0  0  0  0
   -0.0001    0.0000    0.0000 C   0  0  0  0  0  0  0  0  0  0  0  0
    0.6121    1.4782    0.0000 H   0  0  0  0  0  0  0  0  0  0  0  0
   -0.6124    1.4782    0.0000 H   0  0  0  0  0  0  0  0  0  0  0  0
   -1.3857   -0.8000    0.0000 C   0  0  0  0  0  0  0  0  0  0  0  0
   -1.9979   -2.2782    0.0000 H   0  0  0  0  0  0  0  0  0  0  0  0
   -0.7734   -2.2782    0.0000 H   0  0  0  0  0  0  0  0  0  0  0  0
   -2.7712    0.0000    0.0000 C   0  0  0  0  0  0  0  0  0  0  0  0
   -2.1590    1.4782    0.0000 H   0  0  0  0  0  0  0  0  0  0  0  0
   -3.3835    1.4782    0.0000 H   0  0  0  0  0  0  0  0  0  0  0  0
   -4.1568   -0.8000    0.0000 C   0  0  0  0  0  0  0  0  0  0  0  0
   -4.7690   -2.2782    0.0000 H   0  0  0  0  0  0  0  0  0  0  0  0
   -3.5446   -2.2782    0.0000 H   0  0  0  0  0  0  0  0  0  0  0  0
   -5.5428    0.0000    0.0000 C   0  0  0  0  0  0  0  0  0  0  0  0
   -4.9301    1.4782    0.0000 H   0  0  0  0  0  0  0  0  0  0  0  0
   -6.1550    1.4782    0.0000 H   0  0  0  0  0  0  0  0  0  0  0  0
   -6.9283   -0.8000    0.0000 C   0  0  0  0  0  0  0  0  0  0  0  0
   -7.5405   -2.2782    0.0000 H   0  0  0  0  0  0  0  0  0  0  0  0
   -6.3161   -2.2782    0.0000 H   0  0  0  0  0  0  0  0  0  0  0  0
   -8.3139    0.0000    0.0000 C   0  0  0  0  0  0  0  0  0  0  0  0
   -7.7016    1.4782    0.0000 H   0  0  0  0  0  0  0  0  0  0  0  0
   -8.9261    1.4782    0.0000 H   0  0  0  0  0  0  0  0  0  0  0  0
   -9.6994   -0.8000    0.0000 C   0  0  0  0  0  0  0  0  0  0  0  0
  -10.3117   -2.2782    0.0000 H   0  0  0  0  0  0  0  0  0  0  0  0
   -9.0872   -2.2782    0.0000 H   0  0  0  0  0  0  0  0  0  0  0  0
  -11.0850    0.0000    0.0000 C   0  0  0  0  0  0  0  0  0  0  0  0
  -10.4727    1.4782    0.0000 H   0  0  0  0  0  0  0  0  0  0  0  0
  -11.6976    1.4782    0.0000 H   0  0  0  0  0  0  0  0  0  0  0  0
  -12.4709   -0.8000    0.0000 C   0  0  0  0  0  0  0  0  0  0  0  0
  -13.0832   -2.2782    0.0000 H   0  0  0  0  0  0  0  0  0  0  0  0
  -11.8583   -2.2782    0.0000 H   0  0  0  0  0  0  0  0  0  0  0  0
  -13.8565    0.0000    0.0000 O   0  0  0  0  0  0  0  0  0  0  0  0
  -15.2420   -0.8000    0.0000 H   0  0  0  0  0  0  0  0  0  0  0  0
    9.6996   -0.8000    0.0000 C   0  0  0  0  0  0  0  0  0  0  0  0
   11.0851   -1.6000    0.0000 H   0  0  0  0  0  0  0  0  0  0  0  0
   11.0851    0.0000    0.0000 H   0  0  0  0  0  0  0  0  0  0  0  0
    9.6996   -2.4000    0.0000 H   0  0  0  0  0  0  0  0  0  0  0  0
  1  2  1  0  0  0  0
  1  3  1  0  0  0  0
  1  4  1  0  0  0  0
  4  5  1  0  0  0  0
  4  6  1  0  0  0  0
  4  7  1  0  0  0  0
  7  8  1  0  0  0  0
  7  9  1  0  0  0  0
  7 10  1  0  0  0  0
 10 11  1  0  0  0  0
 10 12  1  0  0  0  0
 10 13  1  0  0  0  0
 13 14  1  0  0  0  0
 13 15  1  0  0  0  0
 13 16  1  0  0  0  0
 16 17  1  0  0  0  0
 16 18  1  0  0  0  0
 16 19  1  0  0  0  0
 19 20  1  0  0  0  0
 19 21  1  0  0  0  0
 19 22  1  0  0  0  0
 22 23  1  0  0  0  0
 22 24  1  0  0  0  0
 22 25  1  0  0  0  0
 25 26  1  0  0  0  0
 25 27  1  0  0  0  0
 25 28  1  0  0  0  0
 28 29  1  0  0  0  0
 28 30  1  0  0  0  0
 28 31  1  0  0  0  0
 31 32  1  0  0  0  0
 31 33  1  0  0  0  0
 31 34  1  0  0  0  0
 34 35  1  0  0  0  0
 34 36  1  0  0  0  0
 34 37  1  0  0  0  0
 37 38  1  0  0  0  0
 37 39  1  0  0  0  0
 37 40  1  0  0  0  0
 40 41  1  0  0  0  0
 40 42  1  0  0  0  0
 40 43  1  0  0  0  0
 43 44  1  0  0  0  0
 43 45  1  0  0  0  0
 43 46  1  0  0  0  0
 46 47  1  0  0  0  0
 46 48  1  0  0  0  0
 46 49  1  0  0  0  0
 49 50  1  0  0  0  0
  1 51  1  0  0  0  0
 51 52  1  0  0  0  0
 51 53  1  0  0  0  0
 51 54  1  0  0  0  0
M  END
> <ChemID>
100968

> <source_casrn>
1454-85-9

> <CAS>
1454-85-9

> <SMILES>
CCCCCCCCCCCCCCCCCO

> <NAME>
1-Heptadecanol

> <preferred_name>
Heptadecan-1-ol

> <iupac>
heptadecan-1-ol

> <MPID>
100962

> <dsstox_substance_id>
DTXSID3051460

> <Canonical_QSARr>
CCCCCCCCCCCCCCCCCO

> <InChI_Code_QSARr>
InChI=1S/C17H36O/c1-2-3-4-5-6-7-8-9-10-11-12-13-14-15-16-17-18/h18H,2-17H2,1H3

> <InChI Key_QSARr>
GOQYKNQRPGWPLP-UHFFFAOYSA-N

> <Salt_Solvent>
?

> <Ready_Biodeg>
1.0

$$$$
100969
  -INDIGO-08031722522D

 24 24  0  0  0  0  0  0  0  0999 V2000
    0.0000   -0.0000    0.0000 C   0  0  0  0  0  0  0  0  0  0  0  0
    0.0000   -1.6000    0.0000 C   0  0  0  0  0  0  0  0  0  0  0  0
    1.3857   -2.4000    0.0000 H   0  0  0  0  0  0  0  0  0  0  0  0
   -1.3855   -2.4000    0.0000 C   0  0  0  0  0  0  0  0  0  0  0  0
   -1.3855   -4.0000    0.0000 H   0  0  0  0  0  0  0  0  0  0  0  0
   -2.7713   -1.6000    0.0000 C   0  0  0  0  0  0  0  0  0  0  0  0
   -4.1568   -2.4000    0.0000 H   0  0  0  0  0  0  0  0  0  0  0  0
   -2.7713   -0.0000    0.0000 C   0  0  0  0  0  0  0  0  0  0  0  0
   -4.1568    0.8000    0.0000 C   0  0  0  0  0  0  0  0  0  0  0  0
   -4.1568    2.4000    0.0000 O   0  0  0  0  0  0  0  0  0  0  0  0
   -5.5426   -0.0000    0.0000 O   0  0  0  0  0  0  0  0  0  0  0  0
   -6.9281    0.8000    0.0000 C   0  0  0  0  0  0  0  0  0  0  0  0
   -8.3138    1.6000    0.0000 H   0  0  0  0  0  0  0  0  0  0  0  0
   -8.3138   -0.0000    0.0000 H   0  0  0  0  0  0  0  0  0  0  0  0
   -6.9281    2.4000    0.0000 H   0  0  0  0  0  0  0  0  0  0  0  0
   -1.3855    0.8000    0.0000 C   0  0  0  0  0  0  0  0  0  0  0  0
   -1.3855    2.4000    0.0000 H   0  0  0  0  0  0  0  0  0  0  0  0
    1.3857    0.8000    0.0000 C   0  0  0  0  0  0  0  0  0  0  0  0
    1.3857    2.4000    0.0000 O   0  0  0  0  0  0  0  0  0  0  0  0
    2.7713   -0.0000    0.0000 O   0  0  0  0  0  0  0  0  0  0  0  0
    4.1570    0.8000    0.0000 C   0  0  0  0  0  0  0  0  0  0  0  0
    5.5426    1.6000    0.0000 H   0  0  0  0  0  0  0  0  0  0  0  0
    5.5426   -0.0000    0.0000 H   0  0  0  0  0  0  0  0  0  0  0  0
    4.1570    2.4000    0.0000 H   0  0  0  0  0  0  0  0  0  0  0  0
  1  2  1  0  0  0  0
  2  3  1  0  0  0  0
  2  4  2  0  0  0  0
  4  5  1  0  0  0  0
  4  6  1  0  0  0  0
  6  7  1  0  0  0  0
  6  8  2  0  0  0  0
  8  9  1  0  0  0  0
  9 10  2  0  0  0  0
  9 11  1  0  0  0  0
 11 12  1  0  0  0  0
 12 13  1  0  0  0  0
 12 14  1  0  0  0  0
 12 15  1  0  0  0  0
  8 16  1  0  0  0  0
 16  1  2  0  0  0  0
 16 17  1  0  0  0  0
  1 18  1  0  0  0  0
 18 19  2  0  0  0  0
 18 20  1  0  0  0  0
 20 21  1  0  0  0  0
 21 22  1  0  0  0  0
 21 23  1  0  0  0  0
 21 24  1  0  0  0  0
M  END
> <ChemID>
100969

> <source_casrn>
1459-93-4

> <CAS>
1459-93-4

> <SMILES>
COC(=O)c1cc(ccc1)C(=O)OC

> <NAME>
1,3-Benzenedicarboxylic acid, dimethyl ester

> <preferred_name>
Dimethyl isophthalate

> <iupac>
dimethyl benzene-1,3-dicarboxylate

> <MPID>
100963

> <dsstox_substance_id>
DTXSID8027402

> <Canonical_QSARr>
COC(=O)c1cc(ccc1)C(=O)OC

> <InChI_Code_QSARr>
InChI=1S/C10H10O4/c1-13-9(11)7-4-3-5-8(6-7)10(12)14-2/h3-6H,1-2H3

> <InChI Key_QSARr>
VNGOYPQMJFJDLV-UHFFFAOYSA-N

> <Salt_Solvent>
?

> <Ready_Biodeg>
1.0

$$$$
100972
  -INDIGO-08031722522D

 22 22  0  0  0  0  0  0  0  0999 V2000
   -0.0001   -0.0000    0.0000 C   0  0  0  0  0  0  0  0  0  0  0  0
   -0.0001   -1.6000    0.0000 C   0  0  0  0  0  0  0  0  0  0  0  0
    1.3856   -2.4000    0.0000 H   0  0  0  0  0  0  0  0  0  0  0  0
   -1.3856   -2.4000    0.0000 C   0  0  0  0  0  0  0  0  0  0  0  0
   -1.3856   -4.0000    0.0000 H   0  0  0  0  0  0  0  0  0  0  0  0
   -2.7712   -1.6000    0.0000 C   0  0  0  0  0  0  0  0  0  0  0  0
   -4.1569   -2.4000    0.0000 H   0  0  0  0  0  0  0  0  0  0  0  0
   -2.7712   -0.0000    0.0000 C   0  0  0  0  0  0  0  0  0  0  0  0
   -4.1569    0.8000    0.0000 C   0  0  0  0  0  0  0  0  0  0  0  0
   -3.5446    2.2782    0.0000 H   0  0  0  0  0  0  0  0  0  0  0  0
   -4.7692    2.2782    0.0000 H   0  0  0  0  0  0  0  0  0  0  0  0
   -5.5425   -0.0000    0.0000 N   0  0  0  0  0  0  0  0  0  0  0  0
   -6.9282    0.8000    0.0000 H   0  0  0  0  0  0  0  0  0  0  0  0
   -5.5425   -1.6000    0.0000 H   0  0  0  0  0  0  0  0  0  0  0  0
   -1.3856    0.8000    0.0000 C   0  0  0  0  0  0  0  0  0  0  0  0
   -1.3856    2.4000    0.0000 H   0  0  0  0  0  0  0  0  0  0  0  0
    1.3856    0.8000    0.0000 C   0  0  0  0  0  0  0  0  0  0  0  0
    1.9979    2.2782    0.0000 H   0  0  0  0  0  0  0  0  0  0  0  0
    0.7733    2.2782    0.0000 H   0  0  0  0  0  0  0  0  0  0  0  0
    2.7713   -0.0000    0.0000 N   0  0  0  0  0  0  0  0  0  0  0  0
    4.1569    0.8000    0.0000 H   0  0  0  0  0  0  0  0  0  0  0  0
    2.7713   -1.6000    0.0000 H   0  0  0  0  0  0  0  0  0  0  0  0
  1  2  1  0  0  0  0
  2  3  1  0  0  0  0
  2  4  2  0  0  0  0
  4  5  1  0  0  0  0
  4  6  1  0  0  0  0
  6  7  1  0  0  0  0
  6  8  2  0  0  0  0
  8  9  1  0  0  0  0
  9 10  1  0  0  0  0
  9 11  1  0  0  0  0
  9 12  1  0  0  0  0
 12 13  1  0  0  0  0
 12 14  1  0  0  0  0
  8 15  1  0  0  0  0
 15  1  2  0  0  0  0
 15 16  1  0  0  0  0
  1 17  1  0  0  0  0
 17 18  1  0  0  0  0
 17 19  1  0  0  0  0
 17 20  1  0  0  0  0
 20 21  1  0  0  0  0
 20 22  1  0  0  0  0
M  END
> <ChemID>
100972

> <source_casrn>
1477-55-0

> <CAS>
1477-55-0

> <SMILES>
NCc1cc(CN)ccc1

> <NAME>
1,3-Benzenedimethanamine

> <preferred_name>
1,3-Benzenedimethanamine

> <iupac>
benzene-1,3-diyldimethanamine

> <MPID>
100965

> <dsstox_substance_id>
DTXSID9029649

> <Canonical_QSARr>
NCc1cc(CN)ccc1

> <InChI_Code_QSARr>
InChI=1S/C8H12N2/c9-5-7-2-1-3-8(4-7)6-10/h1-4H,5-6,9-10H2

> <InChI Key_QSARr>
FDLQZKYLHJJBHD-UHFFFAOYSA-N

> <Salt_Solvent>
?

> <Ready_Biodeg>
0.0

$$$$
100973
  -INDIGO-08031722522D

 31 31  0  0  0  0  0  0  0  0999 V2000
   -1.0779    2.9613    0.0000 O   0  0  0  0  0  0  0  0  0  0  0  0
    0.1478    3.9898    0.0000 H   0  0  0  0  0  0  0  0  0  0  0  0
   -0.8000    1.3857    0.0000 C   0  0  0  0  0  0  0  0  0  0  0  0
    0.7036    1.9329    0.0000 H   0  0  0  0  0  0  0  0  0  0  0  0
   -2.4000    1.3857    0.0000 C   0  0  0  0  0  0  0  0  0  0  0  0
   -2.1221    2.9613    0.0000 H   0  0  0  0  0  0  0  0  0  0  0  0
   -3.9036    1.9329    0.0000 H   0  0  0  0  0  0  0  0  0  0  0  0
   -3.2001    0.0000    0.0000 C   0  0  0  0  0  0  0  0  0  0  0  0
   -4.4257    1.0285    0.0000 H   0  0  0  0  0  0  0  0  0  0  0  0
   -4.5856   -0.8001    0.0000 C   0  0  0  0  0  0  0  0  0  0  0  0
   -5.9713   -1.6000    0.0000 H   0  0  0  0  0  0  0  0  0  0  0  0
   -4.5856   -2.4000    0.0000 H   0  0  0  0  0  0  0  0  0  0  0  0
   -5.9713    0.0000    0.0000 H   0  0  0  0  0  0  0  0  0  0  0  0
   -2.4000   -1.3857    0.0000 C   0  0  0  0  0  0  0  0  0  0  0  0
   -3.9036   -1.9329    0.0000 H   0  0  0  0  0  0  0  0  0  0  0  0
   -2.1221   -2.9613    0.0000 H   0  0  0  0  0  0  0  0  0  0  0  0
   -0.8000   -1.3857    0.0000 C   0  0  0  0  0  0  0  0  0  0  0  0
   -1.0779   -2.9613    0.0000 H   0  0  0  0  0  0  0  0  0  0  0  0
   -0.0001   -2.0569    0.0000 H   0  0  0  0  0  0  0  0  0  0  0  0
    0.0001    0.0000    0.0000 C   0  0  0  0  0  0  0  0  0  0  0  0
    1.2257    1.0285    0.0000 H   0  0  0  0  0  0  0  0  0  0  0  0
    1.2257   -1.0285    0.0000 C   0  0  0  0  0  0  0  0  0  0  0  0
    0.7036   -1.9329    0.0000 H   0  0  0  0  0  0  0  0  0  0  0  0
    2.0257   -2.4141    0.0000 C   0  0  0  0  0  0  0  0  0  0  0  0
    2.8257   -3.7997    0.0000 H   0  0  0  0  0  0  0  0  0  0  0  0
    3.6257   -2.4141    0.0000 H   0  0  0  0  0  0  0  0  0  0  0  0
    1.2257   -3.7997    0.0000 H   0  0  0  0  0  0  0  0  0  0  0  0
    2.6113   -0.2285    0.0000 C   0  0  0  0  0  0  0  0  0  0  0  0
    3.9970    0.5716    0.0000 H   0  0  0  0  0  0  0  0  0  0  0  0
    2.6113    1.3715    0.0000 H   0  0  0  0  0  0  0  0  0  0  0  0
    3.9970   -1.0285    0.0000 H   0  0  0  0  0  0  0  0  0  0  0  0
  1  2  1  0  0  0  0
  1  3  1  0  0  0  0
  3  4  1  0  0  0  0
  3  5  1  0  0  0  0
  5  6  1  0  0  0  0
  5  7  1  0  0  0  0
  5  8  1  0  0  0  0
  8  9  1  0  0  0  0
  8 10  1  0  0  0  0
 10 11  1  0  0  0  0
 10 12  1  0  0  0  0
 10 13  1  0  0  0  0
  8 14  1  0  0  0  0
 14 15  1  0  0  0  0
 14 16  1  0  0  0  0
 14 17  1  0  0  0  0
 17 18  1  0  0  0  0
 17 19  1  0  0  0  0
 17 20  1  0  0  0  0
 20  3  1  0  0  0  0
 20 21  1  0  0  0  0
 20 22  1  0  0  0  0
 22 23  1  0  0  0  0
 22 24  1  0  0  0  0
 24 25  1  0  0  0  0
 24 26  1  0  0  0  0
 24 27  1  0  0  0  0
 22 28  1  0  0  0  0
 28 29  1  0  0  0  0
 28 30  1  0  0  0  0
 28 31  1  0  0  0  0
M  END
> <ChemID>
100973

> <source_casrn>
1490-04-6|2216-51-5

> <CAS>
1490-04-6|2216-51-5

> <SMILES>
CC(C)C1CCC(C)CC1O

> <NAME>
Cyclohexanol, 5-methyl-2-(1-methylethyl)-, Cyclohexanol, 5-methyl-2-(1-methylethyl)-,  1R-(1.alpha.,2.beta.,5.al

> <preferred_name>
Menthol

> <iupac>
5-methyl-2-(propan-2-yl)cyclohexanol

> <MPID>
100966|101012

> <dsstox_substance_id>
DTXSID8029650|DTXSID1022180

> <Canonical_QSARr>
CC(C)C1CCC(C)CC1O

> <InChI_Code_QSARr>
InChI=1S/C10H20O/c1-7(2)9-5-4-8(3)6-10(9)11/h7-11H,4-6H2,1-3H3

> <InChI Key_QSARr>
NOOLISFMXDJSKH-UHFFFAOYSA-N

> <Salt_Solvent>
?

> <Ready_Biodeg>
0.0

$$$$
100974
  -INDIGO-08031722522D

 31 32  0  0  0  0  0  0  0  0999 V2000
   -0.8000    1.3856    0.0000 C   0  0  0  0  0  0  0  0  0  0  0  0
    0.0000   -0.0000    0.0000 C   0  0  0  0  0  0  0  0  0  0  0  0
    1.2257   -1.0285    0.0000 H   0  0  0  0  0  0  0  0  0  0  0  0
    1.5758    0.2778    0.0000 C   0  0  0  0  0  0  0  0  0  0  0  0
    2.6041   -0.9478    0.0000 C   0  0  0  0  0  0  0  0  0  0  0  0
    2.0569   -2.4513    0.0000 H   0  0  0  0  0  0  0  0  0  0  0  0
    4.1798   -0.6700    0.0000 C   0  0  0  0  0  0  0  0  0  0  0  0
    4.1798   -2.2700    0.0000 H   0  0  0  0  0  0  0  0  0  0  0  0
    5.7556   -0.9478    0.0000 H   0  0  0  0  0  0  0  0  0  0  0  0
    4.7271    0.8335    0.0000 C   0  0  0  0  0  0  0  0  0  0  0  0
    6.1127    0.0335    0.0000 H   0  0  0  0  0  0  0  0  0  0  0  0
    5.7556    2.0592    0.0000 H   0  0  0  0  0  0  0  0  0  0  0  0
    3.6985    2.0592    0.0000 C   0  0  0  0  0  0  0  0  0  0  0  0
    5.0842    2.8592    0.0000 H   0  0  0  0  0  0  0  0  0  0  0  0
    3.1513    3.5627    0.0000 H   0  0  0  0  0  0  0  0  0  0  0  0
    2.1230    1.7813    0.0000 C   0  0  0  0  0  0  0  0  0  0  0  0
    2.1230    3.3813    0.0000 H   0  0  0  0  0  0  0  0  0  0  0  0
    0.5472    2.0592    0.0000 H   0  0  0  0  0  0  0  0  0  0  0  0
   -0.8000   -1.3857    0.0000 C   0  0  0  0  0  0  0  0  0  0  0  0
    0.7035   -1.9329    0.0000 H   0  0  0  0  0  0  0  0  0  0  0  0
   -1.0779   -2.9613    0.0000 H   0  0  0  0  0  0  0  0  0  0  0  0
   -2.4000   -1.3857    0.0000 C   0  0  0  0  0  0  0  0  0  0  0  0
   -2.1221   -2.9613    0.0000 H   0  0  0  0  0  0  0  0  0  0  0  0
   -3.9035   -1.9329    0.0000 H   0  0  0  0  0  0  0  0  0  0  0  0
   -3.2000   -0.0000    0.0000 C   0  0  0  0  0  0  0  0  0  0  0  0
   -4.4257   -1.0285    0.0000 H   0  0  0  0  0  0  0  0  0  0  0  0
   -4.4257    1.0284    0.0000 H   0  0  0  0  0  0  0  0  0  0  0  0
   -2.4000    1.3856    0.0000 C   0  0  0  0  0  0  0  0  0  0  0  0
   -3.9035    1.9329    0.0000 H   0  0  0  0  0  0  0  0  0  0  0  0
   -2.1221    2.9613    0.0000 H   0  0  0  0  0  0  0  0  0  0  0  0
   -0.2528    2.8891    0.0000 O   0  0  0  0  0  0  0  0  0  0  0  0
  1  2  1  0  0  0  0
  2  3  1  0  0  0  0
  2  4  1  0  0  0  0
  4  5  2  0  0  0  0
  5  6  1  0  0  0  0
  5  7  1  0  0  0  0
  7  8  1  0  0  0  0
  7  9  1  0  0  0  0
  7 10  1  0  0  0  0
 10 11  1  0  0  0  0
 10 12  1  0  0  0  0
 10 13  1  0  0  0  0
 13 14  1  0  0  0  0
 13 15  1  0  0  0  0
 13 16  1  0  0  0  0
 16  4  1  0  0  0  0
 16 17  1  0  0  0  0
 16 18  1  0  0  0  0
  2 19  1  0  0  0  0
 19 20  1  0  0  0  0
 19 21  1  0  0  0  0
 19 22  1  0  0  0  0
 22 23  1  0  0  0  0
 22 24  1  0  0  0  0
 22 25  1  0  0  0  0
 25 26  1  0  0  0  0
 25 27  1  0  0  0  0
 25 28  1  0  0  0  0
 28  1  1  0  0  0  0
 28 29  1  0  0  0  0
 28 30  1  0  0  0  0
  1 31  2  0  0  0  0
M  END
> <ChemID>
100974

> <source_casrn>
1502-22-3

> <CAS>
NOCAS_870879

> <SMILES>
O=C(C(C(=CCCC1)C1)CCC2)C2

> <NAME>
Cyclohexanone, 2-(1-cyclohexen-1-yl)-

> <preferred_name>


> <iupac>


> <MPID>
100967

> <dsstox_substance_id>
DTXSID30870879

> <Canonical_QSARr>
O=C1CCCCC1C1CCCCC=1

> <InChI_Code_QSARr>
InChI=1S/C12H18O/c13-12-9-5-4-8-11(12)10-6-2-1-3-7-10/h6,11H,1-5,7-9H2

> <InChI Key_QSARr>
GVNVAWHJIKLAGL-UHFFFAOYSA-N

> <Salt_Solvent>
?

> <Ready_Biodeg>
0.0

$$$$
100976
  -INDIGO-08031722522D

 16 16  0  0  0  0  0  0  0  0999 V2000
    0.0000   -0.0000    0.0000 C   0  0  0  0  0  0  0  0  0  0  0  0
    0.0000   -1.6000    0.0000 C   0  0  0  0  0  0  0  0  0  0  0  0
    1.3856   -2.4000    0.0000 O   0  0  0  0  0  0  0  0  0  0  0  0
    1.3856   -4.0000    0.0000 H   0  0  0  0  0  0  0  0  0  0  0  0
   -1.3856   -2.4000    0.0000 C   0  0  0  0  0  0  0  0  0  0  0  0
   -1.3856   -4.0000    0.0000 H   0  0  0  0  0  0  0  0  0  0  0  0
   -2.7713   -1.6000    0.0000 C   0  0  0  0  0  0  0  0  0  0  0  0
   -4.1569   -2.4000    0.0000 H   0  0  0  0  0  0  0  0  0  0  0  0
   -2.7713   -0.0000    0.0000 C   0  0  0  0  0  0  0  0  0  0  0  0
   -4.1569    0.8000    0.0000 Cl  0  0  0  0  0  0  0  0  0  0  0  0
   -1.3856    0.8000    0.0000 C   0  0  0  0  0  0  0  0  0  0  0  0
   -1.3856    2.4000    0.0000 H   0  0  0  0  0  0  0  0  0  0  0  0
    1.3856    0.8000    0.0000 C   0  0  0  0  0  0  0  0  0  0  0  0
    2.7713    1.6000    0.0000 H   0  0  0  0  0  0  0  0  0  0  0  0
    1.3856    2.4000    0.0000 H   0  0  0  0  0  0  0  0  0  0  0  0
    2.7713   -0.0000    0.0000 H   0  0  0  0  0  0  0  0  0  0  0  0
  1  2  1  0  0  0  0
  2  3  1  0  0  0  0
  3  4  1  0  0  0  0
  2  5  2  0  0  0  0
  5  6  1  0  0  0  0
  5  7  1  0  0  0  0
  7  8  1  0  0  0  0
  7  9  2  0  0  0  0
  9 10  1  0  0  0  0
  9 11  1  0  0  0  0
 11  1  2  0  0  0  0
 11 12  1  0  0  0  0
  1 13  1  0  0  0  0
 13 14  1  0  0  0  0
 13 15  1  0  0  0  0
 13 16  1  0  0  0  0
M  END
> <ChemID>
100976

> <source_casrn>
1570-64-5

> <CAS>
1570-64-5

> <SMILES>
Cc1cc(Cl)ccc1O

> <NAME>
Phenol, 4-chloro-2-methyl-

> <preferred_name>
4-Chloro-2-methylphenol

> <iupac>
4-chloro-2-methylphenol

> <MPID>
100969

> <dsstox_substance_id>
DTXSID5022510

> <Canonical_QSARr>
Cc1cc(Cl)ccc1O

> <InChI_Code_QSARr>
InChI=1S/C7H7ClO/c1-5-4-6(8)2-3-7(5)9/h2-4,9H,1H3

> <InChI Key_QSARr>
RHPUJHQBPORFGV-UHFFFAOYSA-N

> <Salt_Solvent>
?

> <Ready_Biodeg>
0.0

$$$$
100977
  -INDIGO-08031722522D

 16 17  0  0  0  0  0  0  0  0999 V2000
    2.0161    2.0161    0.0000 O   0  0  0  0  0  0  0  0  0  0  0  0
    1.5217    0.4944    0.0000 C   0  0  0  0  0  0  0  0  0  0  0  0
    2.4621   -0.8000    0.0000 N   0  0  0  0  0  0  0  0  0  0  0  0
    4.0621   -0.8000    0.0000 H   0  0  0  0  0  0  0  0  0  0  0  0
    1.5217   -2.0944    0.0000 C   0  0  0  0  0  0  0  0  0  0  0  0
    2.0161   -3.6161    0.0000 O   0  0  0  0  0  0  0  0  0  0  0  0
   -0.0000   -1.6000    0.0000 C   0  0  0  0  0  0  0  0  0  0  0  0
   -1.3856   -2.4000    0.0000 C   0  0  0  0  0  0  0  0  0  0  0  0
   -2.7713   -1.6000    0.0000 C   0  0  0  0  0  0  0  0  0  0  0  0
   -2.7713   -0.0000    0.0000 C   0  0  0  0  0  0  0  0  0  0  0  0
   -1.3856    0.8000    0.0000 C   0  0  0  0  0  0  0  0  0  0  0  0
   -1.3856    2.4000    0.0000 Cl  0  0  0  0  0  0  0  0  0  0  0  0
   -0.0000   -0.0000    0.0000 C   0  0  0  0  0  0  0  0  0  0  0  0
   -4.1569    0.8000    0.0000 Cl  0  0  0  0  0  0  0  0  0  0  0  0
   -4.1569   -2.4000    0.0000 Cl  0  0  0  0  0  0  0  0  0  0  0  0
   -1.3856   -4.0000    0.0000 Cl  0  0  0  0  0  0  0  0  0  0  0  0
  1  2  2  0  0  0  0
  2  3  1  0  0  0  0
  3  4  1  0  0  0  0
  3  5  1  0  0  0  0
  5  6  2  0  0  0  0
  5  7  1  0  0  0  0
  7  8  1  0  0  0  0
  8  9  2  0  0  0  0
  9 10  1  0  0  0  0
 10 11  2  0  0  0  0
 11 12  1  0  0  0  0
 11 13  1  0  0  0  0
 13  2  1  0  0  0  0
 13  7  2  0  0  0  0
 10 14  1  0  0  0  0
  9 15  1  0  0  0  0
  8 16  1  0  0  0  0
M  END
> <ChemID>
100977

> <source_casrn>
1571-13-7

> <CAS>
1571-13-7

> <SMILES>
O=C1NC(=O)c2c1c(Cl)c(Cl)c(Cl)c2Cl

> <NAME>
1H-Isoindole-1,3(2H)-dione, 4,5,6,7-tetrachloro-

> <preferred_name>
1H-Isoindole-1,3(2H)-dione, 4,5,6,7-tetrachloro-

> <iupac>
4,5,6,7-tetrachloroisoindole-1,3-dione

> <MPID>
100970

> <dsstox_substance_id>
DTXSID0061791

> <Canonical_QSARr>
O=C1NC(=O)c2c1c(Cl)c(Cl)c(Cl)c2Cl

> <InChI_Code_QSARr>
InChI=1S/C8HCl4NO2/c9-3-1-2(8(15)13-7(1)14)4(10)6(12)5(3)11/h(H,13,14,15)

> <InChI Key_QSARr>
LPUUYZVKCMCHLO-UHFFFAOYSA-N

> <Salt_Solvent>
?

> <Ready_Biodeg>
0.0

$$$$
100978
  -INDIGO-08031722522D

 16 15  0  0  0  0  0  0  0  0999 V2000
   -0.0000    0.0000    0.0000 C   0  0  0  0  0  0  0  0  0  0  0  0
    1.3856    0.8000    0.0000 C   0  0  0  0  0  0  0  0  0  0  0  0
    2.7713    0.0000    0.0000 O   0  0  0  0  0  0  0  0  0  0  0  0
    4.1570    0.8000    0.0000 C   0  0  0  0  0  0  0  0  0  0  0  0
    5.5426    0.0000    0.0000 C   0  0  0  0  0  0  0  0  0  0  0  0
    6.9282    0.8000    0.0000 F   0  0  0  0  0  0  0  0  0  0  0  0
    5.5426   -1.6000    0.0000 F   0  0  0  0  0  0  0  0  0  0  0  0
    4.1570    2.4000    0.0000 F   0  0  0  0  0  0  0  0  0  0  0  0
    0.7733    2.2782    0.0000 F   0  0  0  0  0  0  0  0  0  0  0  0
    1.9979    2.2782    0.0000 F   0  0  0  0  0  0  0  0  0  0  0  0
   -1.3857    0.8000    0.0000 C   0  0  0  0  0  0  0  0  0  0  0  0
   -2.7713    1.6000    0.0000 F   0  0  0  0  0  0  0  0  0  0  0  0
   -2.7713    0.0000    0.0000 F   0  0  0  0  0  0  0  0  0  0  0  0
   -1.3857    2.4000    0.0000 F   0  0  0  0  0  0  0  0  0  0  0  0
    0.6123   -1.4782    0.0000 F   0  0  0  0  0  0  0  0  0  0  0  0
   -0.6123   -1.4782    0.0000 F   0  0  0  0  0  0  0  0  0  0  0  0
  1  2  1  0  0  0  0
  2  3  1  0  0  0  0
  3  4  1  0  0  0  0
  4  5  2  0  0  0  0
  5  6  1  0  0  0  0
  5  7  1  0  0  0  0
  4  8  1  0  0  0  0
  2  9  1  0  0  0  0
  2 10  1  0  0  0  0
  1 11  1  0  0  0  0
 11 12  1  0  0  0  0
 11 13  1  0  0  0  0
 11 14  1  0  0  0  0
  1 15  1  0  0  0  0
  1 16  1  0  0  0  0
M  END
> <ChemID>
100978

> <source_casrn>
1623-05-8

> <CAS>
1623-05-8

> <SMILES>
FC(F)(F)C(F)(F)C(F)(F)OC(F)=C(F)F

> <NAME>
Propane, 1,1,1,2,2,3,3-heptafluoro-3- (trifluoroethenyl)oxy -

> <preferred_name>
Propane, 1,1,1,2,2,3,3-heptafluoro-3-[(trifluoroethenyl)oxy]-

> <iupac>
1,1,1,2,2,3,3-heptafluoro-3-(1,2,2-trifluoroethenoxy)propane

> <MPID>
100971

> <dsstox_substance_id>
DTXSID0061826

> <Canonical_QSARr>
FC(F)(F)C(F)(F)C(F)(F)OC(F)=C(F)F

> <InChI_Code_QSARr>
InChI=1S/C5F10O/c6-1(7)2(8)16-5(14,15)3(9,10)4(11,12)13

> <InChI Key_QSARr>
KHXKESCWFMPTFT-UHFFFAOYSA-N

> <Salt_Solvent>
?

> <Ready_Biodeg>
0.0

$$$$
100980
  -INDIGO-08031722522D

 47 46  0  0  0  0  0  0  0  0999 V2000
   13.6459   -2.4062    0.0000 C   0  0  0  0  0  0  0  0  0  0  0  0
   13.9922   -3.9682    0.0000 H   0  0  0  0  0  0  0  0  0  0  0  0
   12.7863   -3.7556    0.0000 H   0  0  0  0  0  0  0  0  0  0  0  0
   12.4202   -1.3777    0.0000 C   0  0  0  0  0  0  0  0  0  0  0  0
   12.0739    0.1844    0.0000 H   0  0  0  0  0  0  0  0  0  0  0  0
   13.2801   -0.0283    0.0000 H   0  0  0  0  0  0  0  0  0  0  0  0
   10.9168   -1.9249    0.0000 C   0  0  0  0  0  0  0  0  0  0  0  0
   11.2631   -3.4870    0.0000 H   0  0  0  0  0  0  0  0  0  0  0  0
   10.0569   -3.2744    0.0000 H   0  0  0  0  0  0  0  0  0  0  0  0
    9.6911   -0.8965    0.0000 C   0  0  0  0  0  0  0  0  0  0  0  0
    9.3448    0.6656    0.0000 H   0  0  0  0  0  0  0  0  0  0  0  0
   10.5507    0.4530    0.0000 H   0  0  0  0  0  0  0  0  0  0  0  0
    8.1875   -1.4437    0.0000 C   0  0  0  0  0  0  0  0  0  0  0  0
    8.5338   -3.0057    0.0000 H   0  0  0  0  0  0  0  0  0  0  0  0
    7.3279   -2.7931    0.0000 H   0  0  0  0  0  0  0  0  0  0  0  0
    6.9617   -0.4152    0.0000 C   0  0  0  0  0  0  0  0  0  0  0  0
    6.6155    1.1468    0.0000 H   0  0  0  0  0  0  0  0  0  0  0  0
    7.8216    0.9342    0.0000 H   0  0  0  0  0  0  0  0  0  0  0  0
    5.4584   -0.9624    0.0000 C   0  0  0  0  0  0  0  0  0  0  0  0
    5.8047   -2.5245    0.0000 H   0  0  0  0  0  0  0  0  0  0  0  0
    4.5988   -2.3119    0.0000 H   0  0  0  0  0  0  0  0  0  0  0  0
    4.2327    0.0660    0.0000 C   0  0  0  0  0  0  0  0  0  0  0  0
    3.8864    1.6281    0.0000 H   0  0  0  0  0  0  0  0  0  0  0  0
    5.0923    1.4155    0.0000 H   0  0  0  0  0  0  0  0  0  0  0  0
    2.7290   -0.4812    0.0000 C   0  0  0  0  0  0  0  0  0  0  0  0
    3.0753   -2.0433    0.0000 H   0  0  0  0  0  0  0  0  0  0  0  0
    1.8695   -1.8306    0.0000 H   0  0  0  0  0  0  0  0  0  0  0  0
    1.5036    0.5473    0.0000 C   0  0  0  0  0  0  0  0  0  0  0  0
    1.1573    2.1093    0.0000 H   0  0  0  0  0  0  0  0  0  0  0  0
    2.3632    1.8967    0.0000 H   0  0  0  0  0  0  0  0  0  0  0  0
    0.0000   -0.0000    0.0000 N   0  0  0  0  0  0  0  0  0  0  0  0
   -1.3855   -0.8000    0.0000 C   0  0  0  0  0  0  0  0  0  0  0  0
   -2.7713   -1.6000    0.0000 H   0  0  0  0  0  0  0  0  0  0  0  0
   -1.3855   -2.4000    0.0000 H   0  0  0  0  0  0  0  0  0  0  0  0
   -2.7713   -0.0000    0.0000 H   0  0  0  0  0  0  0  0  0  0  0  0
   -0.8000    1.3857    0.0000 C   0  0  0  0  0  0  0  0  0  0  0  0
   -1.6001    2.7713    0.0000 H   0  0  0  0  0  0  0  0  0  0  0  0
    0.0000    2.7713    0.0000 H   0  0  0  0  0  0  0  0  0  0  0  0
   -2.4001    1.3857    0.0000 H   0  0  0  0  0  0  0  0  0  0  0  0
    0.8000   -1.3856    0.0000 O   0  0  0  0  0  0  0  0  0  0  0  0
   15.1495   -1.8589    0.0000 C   0  0  0  0  0  0  0  0  0  0  0  0
   14.8032   -0.2969    0.0000 H   0  0  0  0  0  0  0  0  0  0  0  0
   16.0091   -0.5095    0.0000 H   0  0  0  0  0  0  0  0  0  0  0  0
   16.3749   -2.8874    0.0000 C   0  0  0  0  0  0  0  0  0  0  0  0
   17.6007   -3.9159    0.0000 H   0  0  0  0  0  0  0  0  0  0  0  0
   17.8786   -2.3402    0.0000 H   0  0  0  0  0  0  0  0  0  0  0  0
   16.0973   -4.4631    0.0000 H   0  0  0  0  0  0  0  0  0  0  0  0
  1  2  1  0  0  0  0
  1  3  1  0  0  0  0
  1  4  1  0  0  0  0
  4  5  1  0  0  0  0
  4  6  1  0  0  0  0
  4  7  1  0  0  0  0
  7  8  1  0  0  0  0
  7  9  1  0  0  0  0
  7 10  1  0  0  0  0
 10 11  1  0  0  0  0
 10 12  1  0  0  0  0
 10 13  1  0  0  0  0
 13 14  1  0  0  0  0
 13 15  1  0  0  0  0
 13 16  1  0  0  0  0
 16 17  1  0  0  0  0
 16 18  1  0  0  0  0
 16 19  1  0  0  0  0
 19 20  1  0  0  0  0
 19 21  1  0  0  0  0
 19 22  1  0  0  0  0
 22 23  1  0  0  0  0
 22 24  1  0  0  0  0
 22 25  1  0  0  0  0
 25 26  1  0  0  0  0
 25 27  1  0  0  0  0
 25 28  1  0  0  0  0
 28 29  1  0  0  0  0
 28 30  1  0  0  0  0
 28 31  1  0  0  0  0
 31 32  1  0  0  0  0
 32 33  1  0  0  0  0
 32 34  1  0  0  0  0
 32 35  1  0  0  0  0
 31 36  1  0  0  0  0
 36 37  1  0  0  0  0
 36 38  1  0  0  0  0
 36 39  1  0  0  0  0
 31 40  1  0  0  0  0
  1 41  1  0  0  0  0
 41 42  1  0  0  0  0
 41 43  1  0  0  0  0
 41 44  1  0  0  0  0
 44 45  1  0  0  0  0
 44 46  1  0  0  0  0
 44 47  1  0  0  0  0
M  CHG  2  31   1  40  -1
M  END
> <ChemID>
100980

> <source_casrn>
1643-20-5

> <CAS>
1643-20-5

> <SMILES>
CCCCCCCCCCCC[N+](C)(C)[O-]

> <NAME>
N-DODECYLDIMETHYLAMINE OXIDE

> <preferred_name>
N,N-Dimethyldodecylamine-N-oxide

> <iupac>
dodecyl(dimethyl)amine oxide

> <MPID>
100973

> <dsstox_substance_id>
DTXSID1020514

> <Canonical_QSARr>
CCCCCCCCCCCC[N+](C)(C)[O-]

> <InChI_Code_QSARr>
InChI=1S/C14H31NO/c1-4-5-6-7-8-9-10-11-12-13-14-15(2,3)16/h4-14H2,1-3H3

> <InChI Key_QSARr>
SYELZBGXAIXKHU-UHFFFAOYSA-N

> <Salt_Solvent>
?

> <Ready_Biodeg>
1.0

$$$$
100981
  -INDIGO-08031722522D

 17 16  0  0  0  0  0  0  0  0999 V2000
   -2.7713    0.0000    0.0000 C   0  0  0  0  0  0  0  0  0  0  0  0
   -1.3856    0.8000    0.0000 C   0  0  0  0  0  0  0  0  0  0  0  0
   -0.7733    2.2782    0.0000 H   0  0  0  0  0  0  0  0  0  0  0  0
   -1.9979    2.2782    0.0000 H   0  0  0  0  0  0  0  0  0  0  0  0
    0.0001    0.0000    0.0000 C   0  0  0  0  0  0  0  0  0  0  0  0
   -0.6123   -1.4782    0.0000 H   0  0  0  0  0  0  0  0  0  0  0  0
    0.6122   -1.4782    0.0000 H   0  0  0  0  0  0  0  0  0  0  0  0
    1.3856    0.8000    0.0000 O   0  0  0  0  0  0  0  0  0  0  0  0
    2.7712    0.0000    0.0000 C   0  0  0  0  0  0  0  0  0  0  0  0
    2.1591   -1.4782    0.0000 H   0  0  0  0  0  0  0  0  0  0  0  0
    3.3835   -1.4782    0.0000 H   0  0  0  0  0  0  0  0  0  0  0  0
    4.1569    0.8000    0.0000 C   0  0  0  0  0  0  0  0  0  0  0  0
    4.7692    2.2782    0.0000 H   0  0  0  0  0  0  0  0  0  0  0  0
    3.5446    2.2782    0.0000 H   0  0  0  0  0  0  0  0  0  0  0  0
    5.5425    0.0000    0.0000 C   0  0  0  0  0  0  0  0  0  0  0  0
    6.9282   -0.8000    0.0000 N   0  0  0  0  0  0  0  0  0  0  0  0
   -4.1569   -0.8000    0.0000 N   0  0  0  0  0  0  0  0  0  0  0  0
  1  2  1  0  0  0  0
  2  3  1  0  0  0  0
  2  4  1  0  0  0  0
  2  5  1  0  0  0  0
  5  6  1  0  0  0  0
  5  7  1  0  0  0  0
  5  8  1  0  0  0  0
  8  9  1  0  0  0  0
  9 10  1  0  0  0  0
  9 11  1  0  0  0  0
  9 12  1  0  0  0  0
 12 13  1  0  0  0  0
 12 14  1  0  0  0  0
 12 15  1  0  0  0  0
 15 16  3  0  0  0  0
  1 17  3  0  0  0  0
M  END
> <ChemID>
100981

> <source_casrn>
1656-48-0

> <CAS>
1656-48-0

> <SMILES>
N#CCCOCCC#N

> <NAME>
Di-2-cyanoethyl ether

> <preferred_name>
3,3'-Oxydipropionitrile

> <iupac>
3,3'-oxydipropanenitrile

> <MPID>
100974

> <dsstox_substance_id>
DTXSID5044154

> <Canonical_QSARr>
N#CCCOCCC#N

> <InChI_Code_QSARr>
InChI=1S/C6H8N2O/c7-3-1-5-9-6-2-4-8/h1-2,5-6H2

> <InChI Key_QSARr>
BCGCCTGNWPKXJL-UHFFFAOYSA-N

> <Salt_Solvent>
?

> <Ready_Biodeg>
1.0

$$$$
100982
  -INDIGO-08031722522D

115114  0  0  0  0  0  0  0  0999 V2000
    7.9998    5.5426    0.0000 P   0  0  0  0  0  0  0  0  0  0  0  0
    9.6002    5.5426    0.0000 S   0  0  0  0  0  0  0  0  0  0  0  0
   10.4002    4.1569    0.0000 C   0  0  0  0  0  0  0  0  0  0  0  0
   10.1913    2.5707    0.0000 H   0  0  0  0  0  0  0  0  0  0  0  0
    9.1304    3.1829    0.0000 H   0  0  0  0  0  0  0  0  0  0  0  0
   12.0001    4.1569    0.0000 C   0  0  0  0  0  0  0  0  0  0  0  0
   12.2090    5.7431    0.0000 H   0  0  0  0  0  0  0  0  0  0  0  0
   13.2693    5.1309    0.0000 H   0  0  0  0  0  0  0  0  0  0  0  0
   12.8001    2.7712    0.0000 C   0  0  0  0  0  0  0  0  0  0  0  0
   12.5911    1.1850    0.0000 H   0  0  0  0  0  0  0  0  0  0  0  0
   11.5308    1.7972    0.0000 H   0  0  0  0  0  0  0  0  0  0  0  0
   14.4000    2.7712    0.0000 C   0  0  0  0  0  0  0  0  0  0  0  0
   14.6089    4.3574    0.0000 H   0  0  0  0  0  0  0  0  0  0  0  0
   15.6692    3.7452    0.0000 H   0  0  0  0  0  0  0  0  0  0  0  0
   15.2000    1.3855    0.0000 C   0  0  0  0  0  0  0  0  0  0  0  0
   14.9910   -0.2007    0.0000 H   0  0  0  0  0  0  0  0  0  0  0  0
   13.9307    0.4115    0.0000 H   0  0  0  0  0  0  0  0  0  0  0  0
   16.7999    1.3855    0.0000 C   0  0  0  0  0  0  0  0  0  0  0  0
   17.0088    2.9721    0.0000 H   0  0  0  0  0  0  0  0  0  0  0  0
   18.0691    2.3595    0.0000 H   0  0  0  0  0  0  0  0  0  0  0  0
   17.5998   -0.0002    0.0000 C   0  0  0  0  0  0  0  0  0  0  0  0
   17.3909   -1.5864    0.0000 H   0  0  0  0  0  0  0  0  0  0  0  0
   16.3306   -0.9743    0.0000 H   0  0  0  0  0  0  0  0  0  0  0  0
   19.1998   -0.0002    0.0000 C   0  0  0  0  0  0  0  0  0  0  0  0
   19.4087    1.5864    0.0000 H   0  0  0  0  0  0  0  0  0  0  0  0
   20.4695    0.9738    0.0000 H   0  0  0  0  0  0  0  0  0  0  0  0
   20.0003   -1.3854    0.0000 C   0  0  0  0  0  0  0  0  0  0  0  0
   19.7913   -2.9721    0.0000 H   0  0  0  0  0  0  0  0  0  0  0  0
   18.7305   -2.3595    0.0000 H   0  0  0  0  0  0  0  0  0  0  0  0
   21.6002   -1.3854    0.0000 C   0  0  0  0  0  0  0  0  0  0  0  0
   21.8091    0.2007    0.0000 H   0  0  0  0  0  0  0  0  0  0  0  0
   22.8694   -0.4114    0.0000 H   0  0  0  0  0  0  0  0  0  0  0  0
   22.4001   -2.7712    0.0000 C   0  0  0  0  0  0  0  0  0  0  0  0
   22.1912   -4.3578    0.0000 H   0  0  0  0  0  0  0  0  0  0  0  0
   21.1304   -3.7452    0.0000 H   0  0  0  0  0  0  0  0  0  0  0  0
   24.0001   -2.7712    0.0000 C   0  0  0  0  0  0  0  0  0  0  0  0
   25.6000   -2.7712    0.0000 H   0  0  0  0  0  0  0  0  0  0  0  0
   24.8000   -4.1569    0.0000 H   0  0  0  0  0  0  0  0  0  0  0  0
   24.8000   -1.3854    0.0000 H   0  0  0  0  0  0  0  0  0  0  0  0
    7.1998    6.9283    0.0000 S   0  0  0  0  0  0  0  0  0  0  0  0
    7.9998    8.3140    0.0000 C   0  0  0  0  0  0  0  0  0  0  0  0
    9.4784    7.7014    0.0000 H   0  0  0  0  0  0  0  0  0  0  0  0
    9.4784    8.9262    0.0000 H   0  0  0  0  0  0  0  0  0  0  0  0
    7.1998    9.6993    0.0000 C   0  0  0  0  0  0  0  0  0  0  0  0
    5.7216   10.3119    0.0000 H   0  0  0  0  0  0  0  0  0  0  0  0
    5.7216    9.0871    0.0000 H   0  0  0  0  0  0  0  0  0  0  0  0
    7.9998   11.0850    0.0000 C   0  0  0  0  0  0  0  0  0  0  0  0
    9.4784   10.4728    0.0000 H   0  0  0  0  0  0  0  0  0  0  0  0
    9.4784   11.6976    0.0000 H   0  0  0  0  0  0  0  0  0  0  0  0
    7.1998   12.4707    0.0000 C   0  0  0  0  0  0  0  0  0  0  0  0
    5.7216   13.0833    0.0000 H   0  0  0  0  0  0  0  0  0  0  0  0
    5.7216   11.8585    0.0000 H   0  0  0  0  0  0  0  0  0  0  0  0
    7.9998   13.8564    0.0000 C   0  0  0  0  0  0  0  0  0  0  0  0
    9.4784   13.2442    0.0000 H   0  0  0  0  0  0  0  0  0  0  0  0
    9.4784   14.4685    0.0000 H   0  0  0  0  0  0  0  0  0  0  0  0
    7.1998   15.2421    0.0000 C   0  0  0  0  0  0  0  0  0  0  0  0
    5.7216   15.8542    0.0000 H   0  0  0  0  0  0  0  0  0  0  0  0
    5.7216   14.6299    0.0000 H   0  0  0  0  0  0  0  0  0  0  0  0
    7.9998   16.6278    0.0000 C   0  0  0  0  0  0  0  0  0  0  0  0
    9.4784   16.0156    0.0000 H   0  0  0  0  0  0  0  0  0  0  0  0
    9.4784   17.2399    0.0000 H   0  0  0  0  0  0  0  0  0  0  0  0
    7.1998   18.0135    0.0000 C   0  0  0  0  0  0  0  0  0  0  0  0
    5.7216   18.6256    0.0000 H   0  0  0  0  0  0  0  0  0  0  0  0
    5.7216   17.4009    0.0000 H   0  0  0  0  0  0  0  0  0  0  0  0
    7.9998   19.3992    0.0000 C   0  0  0  0  0  0  0  0  0  0  0  0
    9.4784   18.7866    0.0000 H   0  0  0  0  0  0  0  0  0  0  0  0
    9.4784   20.0113    0.0000 H   0  0  0  0  0  0  0  0  0  0  0  0
    7.1998   20.7844    0.0000 C   0  0  0  0  0  0  0  0  0  0  0  0
    5.7216   21.3970    0.0000 H   0  0  0  0  0  0  0  0  0  0  0  0
    5.7216   20.1723    0.0000 H   0  0  0  0  0  0  0  0  0  0  0  0
    7.9998   22.1701    0.0000 C   0  0  0  0  0  0  0  0  0  0  0  0
    9.4784   21.5580    0.0000 H   0  0  0  0  0  0  0  0  0  0  0  0
    9.4784   22.7827    0.0000 H   0  0  0  0  0  0  0  0  0  0  0  0
    7.1998   23.5558    0.0000 C   0  0  0  0  0  0  0  0  0  0  0  0
    6.3998   24.9415    0.0000 H   0  0  0  0  0  0  0  0  0  0  0  0
    7.9998   24.9415    0.0000 H   0  0  0  0  0  0  0  0  0  0  0  0
    5.5999   23.5558    0.0000 H   0  0  0  0  0  0  0  0  0  0  0  0
    7.1998    4.1569    0.0000 S   0  0  0  0  0  0  0  0  0  0  0  0
    5.5999    4.1569    0.0000 C   0  0  0  0  0  0  0  0  0  0  0  0
    5.3910    5.7431    0.0000 H   0  0  0  0  0  0  0  0  0  0  0  0
    4.3306    5.1309    0.0000 H   0  0  0  0  0  0  0  0  0  0  0  0
    4.7999    2.7712    0.0000 C   0  0  0  0  0  0  0  0  0  0  0  0
    5.0088    1.1850    0.0000 H   0  0  0  0  0  0  0  0  0  0  0  0
    6.0691    1.7972    0.0000 H   0  0  0  0  0  0  0  0  0  0  0  0
    3.2000    2.7712    0.0000 C   0  0  0  0  0  0  0  0  0  0  0  0
    2.9911    4.3574    0.0000 H   0  0  0  0  0  0  0  0  0  0  0  0
    1.9307    3.7452    0.0000 H   0  0  0  0  0  0  0  0  0  0  0  0
    2.4000    1.3855    0.0000 C   0  0  0  0  0  0  0  0  0  0  0  0
    2.6089   -0.2007    0.0000 H   0  0  0  0  0  0  0  0  0  0  0  0
    3.6692    0.4115    0.0000 H   0  0  0  0  0  0  0  0  0  0  0  0
    0.8001    1.3855    0.0000 C   0  0  0  0  0  0  0  0  0  0  0  0
    0.5912    2.9721    0.0000 H   0  0  0  0  0  0  0  0  0  0  0  0
   -0.4691    2.3595    0.0000 H   0  0  0  0  0  0  0  0  0  0  0  0
    0.0001   -0.0002    0.0000 C   0  0  0  0  0  0  0  0  0  0  0  0
    0.2090   -1.5864    0.0000 H   0  0  0  0  0  0  0  0  0  0  0  0
    1.2694   -0.9738    0.0000 H   0  0  0  0  0  0  0  0  0  0  0  0
   -1.5998   -0.0002    0.0000 C   0  0  0  0  0  0  0  0  0  0  0  0
   -1.8087    1.5864    0.0000 H   0  0  0  0  0  0  0  0  0  0  0  0
   -2.8696    0.9738    0.0000 H   0  0  0  0  0  0  0  0  0  0  0  0
   -2.3998   -1.3854    0.0000 C   0  0  0  0  0  0  0  0  0  0  0  0
   -2.1914   -2.9721    0.0000 H   0  0  0  0  0  0  0  0  0  0  0  0
   -1.1305   -2.3595    0.0000 H   0  0  0  0  0  0  0  0  0  0  0  0
   -4.0002   -1.3854    0.0000 C   0  0  0  0  0  0  0  0  0  0  0  0
   -4.2086    0.2007    0.0000 H   0  0  0  0  0  0  0  0  0  0  0  0
   -5.2695   -0.4114    0.0000 H   0  0  0  0  0  0  0  0  0  0  0  0
   -4.8002   -2.7712    0.0000 C   0  0  0  0  0  0  0  0  0  0  0  0
   -4.5913   -4.3578    0.0000 H   0  0  0  0  0  0  0  0  0  0  0  0
   -3.5304   -3.7452    0.0000 H   0  0  0  0  0  0  0  0  0  0  0  0
   -6.4001   -2.7712    0.0000 C   0  0  0  0  0  0  0  0  0  0  0  0
   -6.6090   -1.1850    0.0000 H   0  0  0  0  0  0  0  0  0  0  0  0
   -7.6693   -1.7971    0.0000 H   0  0  0  0  0  0  0  0  0  0  0  0
   -7.2001   -4.1569    0.0000 C   0  0  0  0  0  0  0  0  0  0  0  0
   -8.0000   -5.5426    0.0000 H   0  0  0  0  0  0  0  0  0  0  0  0
   -8.8000   -4.1569    0.0000 H   0  0  0  0  0  0  0  0  0  0  0  0
   -6.4001   -5.5426    0.0000 H   0  0  0  0  0  0  0  0  0  0  0  0
  1  2  1  0  0  0  0
  2  3  1  0  0  0  0
  3  4  1  0  0  0  0
  3  5  1  0  0  0  0
  3  6  1  0  0  0  0
  6  7  1  0  0  0  0
  6  8  1  0  0  0  0
  6  9  1  0  0  0  0
  9 10  1  0  0  0  0
  9 11  1  0  0  0  0
  9 12  1  0  0  0  0
 12 13  1  0  0  0  0
 12 14  1  0  0  0  0
 12 15  1  0  0  0  0
 15 16  1  0  0  0  0
 15 17  1  0  0  0  0
 15 18  1  0  0  0  0
 18 19  1  0  0  0  0
 18 20  1  0  0  0  0
 18 21  1  0  0  0  0
 21 22  1  0  0  0  0
 21 23  1  0  0  0  0
 21 24  1  0  0  0  0
 24 25  1  0  0  0  0
 24 26  1  0  0  0  0
 24 27  1  0  0  0  0
 27 28  1  0  0  0  0
 27 29  1  0  0  0  0
 27 30  1  0  0  0  0
 30 31  1  0  0  0  0
 30 32  1  0  0  0  0
 30 33  1  0  0  0  0
 33 34  1  0  0  0  0
 33 35  1  0  0  0  0
 33 36  1  0  0  0  0
 36 37  1  0  0  0  0
 36 38  1  0  0  0  0
 36 39  1  0  0  0  0
  1 40  1  0  0  0  0
 40 41  1  0  0  0  0
 41 42  1  0  0  0  0
 41 43  1  0  0  0  0
 41 44  1  0  0  0  0
 44 45  1  0  0  0  0
 44 46  1  0  0  0  0
 44 47  1  0  0  0  0
 47 48  1  0  0  0  0
 47 49  1  0  0  0  0
 47 50  1  0  0  0  0
 50 51  1  0  0  0  0
 50 52  1  0  0  0  0
 50 53  1  0  0  0  0
 53 54  1  0  0  0  0
 53 55  1  0  0  0  0
 53 56  1  0  0  0  0
 56 57  1  0  0  0  0
 56 58  1  0  0  0  0
 56 59  1  0  0  0  0
 59 60  1  0  0  0  0
 59 61  1  0  0  0  0
 59 62  1  0  0  0  0
 62 63  1  0  0  0  0
 62 64  1  0  0  0  0
 62 65  1  0  0  0  0
 65 66  1  0  0  0  0
 65 67  1  0  0  0  0
 65 68  1  0  0  0  0
 68 69  1  0  0  0  0
 68 70  1  0  0  0  0
 68 71  1  0  0  0  0
 71 72  1  0  0  0  0
 71 73  1  0  0  0  0
 71 74  1  0  0  0  0
 74 75  1  0  0  0  0
 74 76  1  0  0  0  0
 74 77  1  0  0  0  0
  1 78  1  0  0  0  0
 78 79  1  0  0  0  0
 79 80  1  0  0  0  0
 79 81  1  0  0  0  0
 79 82  1  0  0  0  0
 82 83  1  0  0  0  0
 82 84  1  0  0  0  0
 82 85  1  0  0  0  0
 85 86  1  0  0  0  0
 85 87  1  0  0  0  0
 85 88  1  0  0  0  0
 88 89  1  0  0  0  0
 88 90  1  0  0  0  0
 88 91  1  0  0  0  0
 91 92  1  0  0  0  0
 91 93  1  0  0  0  0
 91 94  1  0  0  0  0
 94 95  1  0  0  0  0
 94 96  1  0  0  0  0
 94 97  1  0  0  0  0
 97 98  1  0  0  0  0
 97 99  1  0  0  0  0
 97100  1  0  0  0  0
100101  1  0  0  0  0
100102  1  0  0  0  0
100103  1  0  0  0  0
103104  1  0  0  0  0
103105  1  0  0  0  0
103106  1  0  0  0  0
106107  1  0  0  0  0
106108  1  0  0  0  0
106109  1  0  0  0  0
109110  1  0  0  0  0
109111  1  0  0  0  0
109112  1  0  0  0  0
112113  1  0  0  0  0
112114  1  0  0  0  0
112115  1  0  0  0  0
M  END
> <ChemID>
100982

> <source_casrn>
1656-63-9

> <CAS>
1656-63-9

> <SMILES>
CCCCCCCCCCCCSP(SCCCCCCCCCCCC)SCCCCCCCCCCCC

> <NAME>
Phosphorotrithious acid, tridodecyl ester

> <preferred_name>
Phosphorotrithious acid, tridodecyl ester

> <iupac>
tris(dodecylsulfanyl)phosphane

> <MPID>
100975

> <dsstox_substance_id>
DTXSID7061855

> <Canonical_QSARr>
CCCCCCCCCCCCSP(SCCCCCCCCCCCC)SCCCCCCCCCCCC

> <InChI_Code_QSARr>
InChI=1S/C36H75PS3/c1-4-7-10-13-16-19-22-25-28-31-34-38-37(39-35-32-29-26-23-20-17-14-11-8-5-2)40-36-33-30-27-24-21-18-15-12-9-6-3/h4-36H2,1-3H3

> <InChI Key_QSARr>
JZNDMMGBXUYFNQ-UHFFFAOYSA-N

> <Salt_Solvent>
?

> <Ready_Biodeg>
0.0

$$$$
100984
  -INDIGO-08031722522D

 14 14  0  0  0  0  0  0  0  0999 V2000
   -0.8000    1.3856    0.0000 C   0  0  0  0  0  0  0  0  0  0  0  0
   -0.0000    2.7713    0.0000 H   0  0  0  0  0  0  0  0  0  0  0  0
   -2.4000    1.3856    0.0000 C   0  0  0  0  0  0  0  0  0  0  0  0
   -3.2000    2.7713    0.0000 Br  0  0  0  0  0  0  0  0  0  0  0  0
   -3.2000   -0.0000    0.0000 C   0  0  0  0  0  0  0  0  0  0  0  0
   -4.8000    0.0000    0.0000 O   0  0  0  0  0  0  0  0  0  0  0  0
   -5.6000   -1.3856    0.0000 H   0  0  0  0  0  0  0  0  0  0  0  0
   -2.4000   -1.3856    0.0000 C   0  0  0  0  0  0  0  0  0  0  0  0
   -3.2000   -2.7713    0.0000 Br  0  0  0  0  0  0  0  0  0  0  0  0
   -0.8000   -1.3856    0.0000 C   0  0  0  0  0  0  0  0  0  0  0  0
   -0.0000   -2.7713    0.0000 H   0  0  0  0  0  0  0  0  0  0  0  0
   -0.0000   -0.0000    0.0000 C   0  0  0  0  0  0  0  0  0  0  0  0
    1.6001    0.0000    0.0000 C   0  0  0  0  0  0  0  0  0  0  0  0
    3.2000    0.0000    0.0000 N   0  0  0  0  0  0  0  0  0  0  0  0
  1  2  1  0  0  0  0
  1  3  1  0  0  0  0
  3  4  1  0  0  0  0
  3  5  2  0  0  0  0
  5  6  1  0  0  0  0
  6  7  1  0  0  0  0
  5  8  1  0  0  0  0
  8  9  1  0  0  0  0
  8 10  2  0  0  0  0
 10 11  1  0  0  0  0
 10 12  1  0  0  0  0
 12  1  2  0  0  0  0
 12 13  1  0  0  0  0
 13 14  3  0  0  0  0
M  END
> <ChemID>
100984

> <source_casrn>
1689-84-5

> <CAS>
1689-84-5

> <SMILES>
N#Cc1cc(Br)c(O)c(Br)c1

> <NAME>
BROMOXYNIL

> <preferred_name>
Bromoxynil

> <iupac>
3,5-dibromo-4-hydroxybenzonitrile

> <MPID>
100977

> <dsstox_substance_id>
DTXSID3022162

> <Canonical_QSARr>
N#Cc1cc(Br)c(O)c(Br)c1

> <InChI_Code_QSARr>
InChI=1S/C7H3Br2NO/c8-5-1-4(3-10)2-6(9)7(5)11/h1-2,11H

> <InChI Key_QSARr>
UPMXNNIRAGDFEH-UHFFFAOYSA-N

> <Salt_Solvent>
?

> <Ready_Biodeg>
1.0

$$$$
100985
  -INDIGO-08031722522D

 37 37  0  0  0  0  0  0  0  0999 V2000
    5.5427   -0.0000    0.0000 C   0  0  0  0  0  0  0  0  0  0  0  0
    5.5427   -1.6000    0.0000 O   0  0  0  0  0  0  0  0  0  0  0  0
    6.9283    0.8000    0.0000 O   0  0  0  0  0  0  0  0  0  0  0  0
    8.3139   -0.0000    0.0000 C   0  0  0  0  0  0  0  0  0  0  0  0
    8.3139   -1.6000    0.0000 C   0  0  0  0  0  0  0  0  0  0  0  0
    6.9283   -2.4000    0.0000 Br  0  0  0  0  0  0  0  0  0  0  0  0
    9.6995   -2.4000    0.0000 C   0  0  0  0  0  0  0  0  0  0  0  0
    9.6995   -4.0000    0.0000 H   0  0  0  0  0  0  0  0  0  0  0  0
   11.0852   -1.6000    0.0000 C   0  0  0  0  0  0  0  0  0  0  0  0
   12.4708   -2.4000    0.0000 C   0  0  0  0  0  0  0  0  0  0  0  0
   13.8564   -3.2000    0.0000 N   0  0  0  0  0  0  0  0  0  0  0  0
   11.0852   -0.0000    0.0000 C   0  0  0  0  0  0  0  0  0  0  0  0
   12.4708    0.8000    0.0000 H   0  0  0  0  0  0  0  0  0  0  0  0
    9.6995    0.8000    0.0000 C   0  0  0  0  0  0  0  0  0  0  0  0
    9.6995    2.4000    0.0000 Br  0  0  0  0  0  0  0  0  0  0  0  0
    4.1571    0.8000    0.0000 C   0  0  0  0  0  0  0  0  0  0  0  0
    3.5446    2.2782    0.0000 H   0  0  0  0  0  0  0  0  0  0  0  0
    4.7692    2.2782    0.0000 H   0  0  0  0  0  0  0  0  0  0  0  0
    2.7712   -0.0000    0.0000 C   0  0  0  0  0  0  0  0  0  0  0  0
    3.3836   -1.4782    0.0000 H   0  0  0  0  0  0  0  0  0  0  0  0
    2.1590   -1.4782    0.0000 H   0  0  0  0  0  0  0  0  0  0  0  0
    1.3855    0.8000    0.0000 C   0  0  0  0  0  0  0  0  0  0  0  0
    0.7734    2.2782    0.0000 H   0  0  0  0  0  0  0  0  0  0  0  0
    1.9980    2.2782    0.0000 H   0  0  0  0  0  0  0  0  0  0  0  0
   -0.0001   -0.0000    0.0000 C   0  0  0  0  0  0  0  0  0  0  0  0
    0.6124   -1.4782    0.0000 H   0  0  0  0  0  0  0  0  0  0  0  0
   -0.6122   -1.4782    0.0000 H   0  0  0  0  0  0  0  0  0  0  0  0
   -1.3857    0.8000    0.0000 C   0  0  0  0  0  0  0  0  0  0  0  0
   -1.9979    2.2782    0.0000 H   0  0  0  0  0  0  0  0  0  0  0  0
   -0.7733    2.2782    0.0000 H   0  0  0  0  0  0  0  0  0  0  0  0
   -2.7713   -0.0000    0.0000 C   0  0  0  0  0  0  0  0  0  0  0  0
   -2.1589   -1.4782    0.0000 H   0  0  0  0  0  0  0  0  0  0  0  0
   -3.3835   -1.4782    0.0000 H   0  0  0  0  0  0  0  0  0  0  0  0
   -4.1569    0.8000    0.0000 C   0  0  0  0  0  0  0  0  0  0  0  0
   -5.5426    1.6000    0.0000 H   0  0  0  0  0  0  0  0  0  0  0  0
   -5.5426   -0.0000    0.0000 H   0  0  0  0  0  0  0  0  0  0  0  0
   -4.1569    2.4000    0.0000 H   0  0  0  0  0  0  0  0  0  0  0  0
  1  2  2  0  0  0  0
  1  3  1  0  0  0  0
  3  4  1  0  0  0  0
  4  5  1  0  0  0  0
  5  6  1  0  0  0  0
  5  7  2  0  0  0  0
  7  8  1  0  0  0  0
  7  9  1  0  0  0  0
  9 10  1  0  0  0  0
 10 11  3  0  0  0  0
  9 12  2  0  0  0  0
 12 13  1  0  0  0  0
 12 14  1  0  0  0  0
 14  4  2  0  0  0  0
 14 15  1  0  0  0  0
  1 16  1  0  0  0  0
 16 17  1  0  0  0  0
 16 18  1  0  0  0  0
 16 19  1  0  0  0  0
 19 20  1  0  0  0  0
 19 21  1  0  0  0  0
 19 22  1  0  0  0  0
 22 23  1  0  0  0  0
 22 24  1  0  0  0  0
 22 25  1  0  0  0  0
 25 26  1  0  0  0  0
 25 27  1  0  0  0  0
 25 28  1  0  0  0  0
 28 29  1  0  0  0  0
 28 30  1  0  0  0  0
 28 31  1  0  0  0  0
 31 32  1  0  0  0  0
 31 33  1  0  0  0  0
 31 34  1  0  0  0  0
 34 35  1  0  0  0  0
 34 36  1  0  0  0  0
 34 37  1  0  0  0  0
M  END
> <ChemID>
100985

> <source_casrn>
1689-99-2

> <CAS>
1689-99-2

> <SMILES>
CCCCCCCC(=O)Oc1c(Br)cc(cc1Br)C#N

> <NAME>
2,6-DIBROMO-4-CYANOPHENYL OCTANOATE

> <preferred_name>
Bromoxynil octanoate

> <iupac>
2,6-dibromo-4-cyanophenyl octanoate

> <MPID>
100978

> <dsstox_substance_id>
DTXSID7023932

> <Canonical_QSARr>
CCCCCCCC(=O)Oc1c(Br)cc(cc1Br)C#N

> <InChI_Code_QSARr>
InChI=1S/C15H17Br2NO2/c1-2-3-4-5-6-7-14(19)20-15-12(16)8-11(10-18)9-13(15)17/h8-9H,2-7H2,1H3

> <InChI Key_QSARr>
DQKWXTIYGWPGOO-UHFFFAOYSA-N

> <Salt_Solvent>
?

> <Ready_Biodeg>
1.0

$$$$
100986
  -INDIGO-08031722522D

 19 19  0  0  0  0  0  0  0  0999 V2000
   -4.8000   -0.0000    0.0000 Cl  0  0  0  0  0  0  0  0  0  0  0  0
   -3.2001   -0.0000    0.0000 C   0  0  0  0  0  0  0  0  0  0  0  0
   -2.4000    1.3856    0.0000 C   0  0  0  0  0  0  0  0  0  0  0  0
   -3.2001    2.7713    0.0000 H   0  0  0  0  0  0  0  0  0  0  0  0
   -0.8000    1.3856    0.0000 C   0  0  0  0  0  0  0  0  0  0  0  0
   -0.0000    2.7713    0.0000 H   0  0  0  0  0  0  0  0  0  0  0  0
   -0.0000    0.0000    0.0000 C   0  0  0  0  0  0  0  0  0  0  0  0
    1.6000   -0.0000    0.0000 C   0  0  0  0  0  0  0  0  0  0  0  0
    2.4001    1.3856    0.0000 C   0  0  0  0  0  0  0  0  0  0  0  0
    3.2000    2.7713    0.0000 H   0  0  0  0  0  0  0  0  0  0  0  0
    4.0000    1.3856    0.0000 H   0  0  0  0  0  0  0  0  0  0  0  0
    1.6000    2.7713    0.0000 H   0  0  0  0  0  0  0  0  0  0  0  0
    2.4001   -1.3856    0.0000 C   0  0  0  0  0  0  0  0  0  0  0  0
    4.0000   -1.3856    0.0000 H   0  0  0  0  0  0  0  0  0  0  0  0
    1.6000   -2.7713    0.0000 H   0  0  0  0  0  0  0  0  0  0  0  0
   -0.8000   -1.3856    0.0000 C   0  0  0  0  0  0  0  0  0  0  0  0
   -0.0000   -2.7713    0.0000 H   0  0  0  0  0  0  0  0  0  0  0  0
   -2.4000   -1.3856    0.0000 C   0  0  0  0  0  0  0  0  0  0  0  0
   -3.2001   -2.7713    0.0000 H   0  0  0  0  0  0  0  0  0  0  0  0
  1  2  1  0  0  0  0
  2  3  1  0  0  0  0
  3  4  1  0  0  0  0
  3  5  2  0  0  0  0
  5  6  1  0  0  0  0
  5  7  1  0  0  0  0
  7  8  1  0  0  0  0
  8  9  1  0  0  0  0
  9 10  1  0  0  0  0
  9 11  1  0  0  0  0
  9 12  1  0  0  0  0
  8 13  2  0  0  0  0
 13 14  1  0  0  0  0
 13 15  1  0  0  0  0
  7 16  2  0  0  0  0
 16 17  1  0  0  0  0
 16 18  1  0  0  0  0
 18  2  2  0  0  0  0
 18 19  1  0  0  0  0
M  END
> <ChemID>
100986

> <source_casrn>
1712-70-5

> <CAS>
1712-70-5

> <SMILES>
CC(=C)c1ccc(Cl)cc1

> <NAME>
4-Isopropenyl-chlorobenzene

> <preferred_name>
4-Chloro-alpha-methylstyrene

> <iupac>
1-chloro-4-prop-1-en-2-ylbenzene

> <MPID>
100979

> <dsstox_substance_id>
DTXSID40169024

> <Canonical_QSARr>
CC(=C)c1ccc(Cl)cc1

> <InChI_Code_QSARr>
InChI=1S/C9H9Cl/c1-7(2)8-3-5-9(10)6-4-8/h3-6H,1H2,2H3

> <InChI Key_QSARr>
WQDGTJOEMPEHHL-UHFFFAOYSA-N

> <Salt_Solvent>
?

> <Ready_Biodeg>
0.0

$$$$
100988
  -INDIGO-08031722522D

 16 16  0  0  0  0  0  0  0  0999 V2000
    1.6000   -0.0000    0.0000 C   0  0  0  0  0  0  0  0  0  0  0  0
    1.8088    1.5863    0.0000 H   0  0  0  0  0  0  0  0  0  0  0  0
    2.8694    0.9740    0.0000 H   0  0  0  0  0  0  0  0  0  0  0  0
   -0.0000   -0.0000    0.0000 C   0  0  0  0  0  0  0  0  0  0  0  0
   -0.8000    1.3856    0.0000 C   0  0  0  0  0  0  0  0  0  0  0  0
   -0.0000    2.7713    0.0000 Cl  0  0  0  0  0  0  0  0  0  0  0  0
   -2.4000    1.3856    0.0000 C   0  0  0  0  0  0  0  0  0  0  0  0
   -3.2001    2.7713    0.0000 H   0  0  0  0  0  0  0  0  0  0  0  0
   -3.2001   -0.0000    0.0000 C   0  0  0  0  0  0  0  0  0  0  0  0
   -4.8000   -0.0000    0.0000 Cl  0  0  0  0  0  0  0  0  0  0  0  0
   -2.4000   -1.3856    0.0000 C   0  0  0  0  0  0  0  0  0  0  0  0
   -3.2001   -2.7713    0.0000 H   0  0  0  0  0  0  0  0  0  0  0  0
   -0.8000   -1.3856    0.0000 C   0  0  0  0  0  0  0  0  0  0  0  0
   -0.0000   -2.7713    0.0000 H   0  0  0  0  0  0  0  0  0  0  0  0
    2.4001   -1.3856    0.0000 O   0  0  0  0  0  0  0  0  0  0  0  0
    4.0000   -1.3856    0.0000 H   0  0  0  0  0  0  0  0  0  0  0  0
  1  2  1  0  0  0  0
  1  3  1  0  0  0  0
  1  4  1  0  0  0  0
  4  5  1  0  0  0  0
  5  6  1  0  0  0  0
  5  7  2  0  0  0  0
  7  8  1  0  0  0  0
  7  9  1  0  0  0  0
  9 10  1  0  0  0  0
  9 11  2  0  0  0  0
 11 12  1  0  0  0  0
 11 13  1  0  0  0  0
 13  4  2  0  0  0  0
 13 14  1  0  0  0  0
  1 15  1  0  0  0  0
 15 16  1  0  0  0  0
M  END
> <ChemID>
100988

> <source_casrn>
1777-82-8

> <CAS>
1777-82-8

> <SMILES>
OCc1ccc(Cl)cc1Cl

> <NAME>
BENZENEMETHANOL, 2,4-DICHLORO-

> <preferred_name>
2,4-Dichlorobenzyl alcohol

> <iupac>
(2,4-dichlorophenyl)methanol

> <MPID>
100981

> <dsstox_substance_id>
DTXSID9041362

> <Canonical_QSARr>
OCc1ccc(Cl)cc1Cl

> <InChI_Code_QSARr>
InChI=1S/C7H6Cl2O/c8-6-2-1-5(4-10)7(9)3-6/h1-3,10H,4H2

> <InChI Key_QSARr>
DBHODFSFBXJZNY-UHFFFAOYSA-N

> <Salt_Solvent>
?

> <Ready_Biodeg>
1.0

$$$$
100990
  -INDIGO-08031722522D

 37 37  0  0  0  0  0  0  0  0999 V2000
   -8.3139    1.6000    0.0000 C   0  0  0  0  0  0  0  0  0  0  0  0
   -6.9283    2.4000    0.0000 C   0  0  0  0  0  0  0  0  0  0  0  0
   -6.9283    4.0000    0.0000 H   0  0  0  0  0  0  0  0  0  0  0  0
   -5.5425    1.6000    0.0000 C   0  0  0  0  0  0  0  0  0  0  0  0
   -4.1569    2.4000    0.0000 H   0  0  0  0  0  0  0  0  0  0  0  0
   -5.5425    0.0000    0.0000 C   0  0  0  0  0  0  0  0  0  0  0  0
   -4.1569   -0.8000    0.0000 C   0  0  0  0  0  0  0  0  0  0  0  0
   -4.7693   -2.2782    0.0000 H   0  0  0  0  0  0  0  0  0  0  0  0
   -3.5447   -2.2782    0.0000 H   0  0  0  0  0  0  0  0  0  0  0  0
   -2.7713    0.0000    0.0000 C   0  0  0  0  0  0  0  0  0  0  0  0
   -2.1589    1.4782    0.0000 H   0  0  0  0  0  0  0  0  0  0  0  0
   -3.3837    1.4782    0.0000 H   0  0  0  0  0  0  0  0  0  0  0  0
   -1.3857   -0.8000    0.0000 C   0  0  0  0  0  0  0  0  0  0  0  0
   -1.9981   -2.2782    0.0000 H   0  0  0  0  0  0  0  0  0  0  0  0
   -0.7733   -2.2782    0.0000 H   0  0  0  0  0  0  0  0  0  0  0  0
   -0.0001    0.0000    0.0000 C   0  0  0  0  0  0  0  0  0  0  0  0
    0.6123    1.4782    0.0000 H   0  0  0  0  0  0  0  0  0  0  0  0
   -0.6122    1.4782    0.0000 H   0  0  0  0  0  0  0  0  0  0  0  0
    1.3855   -0.8000    0.0000 C   0  0  0  0  0  0  0  0  0  0  0  0
    0.7734   -2.2782    0.0000 H   0  0  0  0  0  0  0  0  0  0  0  0
    1.9979   -2.2782    0.0000 H   0  0  0  0  0  0  0  0  0  0  0  0
    2.7714    0.0000    0.0000 C   0  0  0  0  0  0  0  0  0  0  0  0
    3.3835    1.4782    0.0000 H   0  0  0  0  0  0  0  0  0  0  0  0
    2.1590    1.4782    0.0000 H   0  0  0  0  0  0  0  0  0  0  0  0
    4.1570   -0.8000    0.0000 C   0  0  0  0  0  0  0  0  0  0  0  0
    3.5446   -2.2782    0.0000 H   0  0  0  0  0  0  0  0  0  0  0  0
    4.7691   -2.2782    0.0000 H   0  0  0  0  0  0  0  0  0  0  0  0
    5.5426    0.0000    0.0000 C   0  0  0  0  0  0  0  0  0  0  0  0
    6.9282    0.8000    0.0000 H   0  0  0  0  0  0  0  0  0  0  0  0
    6.9282   -0.8000    0.0000 H   0  0  0  0  0  0  0  0  0  0  0  0
    5.5426    1.6000    0.0000 H   0  0  0  0  0  0  0  0  0  0  0  0
   -6.9283   -0.8000    0.0000 C   0  0  0  0  0  0  0  0  0  0  0  0
   -6.9283   -2.4000    0.0000 H   0  0  0  0  0  0  0  0  0  0  0  0
   -8.3139    0.0000    0.0000 C   0  0  0  0  0  0  0  0  0  0  0  0
   -9.6995   -0.8000    0.0000 H   0  0  0  0  0  0  0  0  0  0  0  0
   -9.6995    2.4000    0.0000 O   0  0  0  0  0  0  0  0  0  0  0  0
  -11.0851    1.6000    0.0000 H   0  0  0  0  0  0  0  0  0  0  0  0
  1  2  1  0  0  0  0
  2  3  1  0  0  0  0
  2  4  2  0  0  0  0
  4  5  1  0  0  0  0
  4  6  1  0  0  0  0
  6  7  1  0  0  0  0
  7  8  1  0  0  0  0
  7  9  1  0  0  0  0
  7 10  1  0  0  0  0
 10 11  1  0  0  0  0
 10 12  1  0  0  0  0
 10 13  1  0  0  0  0
 13 14  1  0  0  0  0
 13 15  1  0  0  0  0
 13 16  1  0  0  0  0
 16 17  1  0  0  0  0
 16 18  1  0  0  0  0
 16 19  1  0  0  0  0
 19 20  1  0  0  0  0
 19 21  1  0  0  0  0
 19 22  1  0  0  0  0
 22 23  1  0  0  0  0
 22 24  1  0  0  0  0
 22 25  1  0  0  0  0
 25 26  1  0  0  0  0
 25 27  1  0  0  0  0
 25 28  1  0  0  0  0
 28 29  1  0  0  0  0
 28 30  1  0  0  0  0
 28 31  1  0  0  0  0
  6 32  2  0  0  0  0
 32 33  1  0  0  0  0
 32 34  1  0  0  0  0
 34  1  2  0  0  0  0
 34 35  1  0  0  0  0
  1 36  1  0  0  0  0
 36 37  1  0  0  0  0
M  END
> <ChemID>
100990

> <source_casrn>
1806-26-4

> <CAS>
1806-26-4

> <SMILES>
CCCCCCCCc1ccc(O)cc1

> <NAME>
Phenol, 4-octyl-

> <preferred_name>
4-Octylphenol

> <iupac>
4-octylphenol

> <MPID>
100982

> <dsstox_substance_id>
DTXSID9022312

> <Canonical_QSARr>
CCCCCCCCc1ccc(O)cc1

> <InChI_Code_QSARr>
InChI=1S/C14H22O/c1-2-3-4-5-6-7-8-13-9-11-14(15)12-10-13/h9-12,15H,2-8H2,1H3

> <InChI Key_QSARr>
NTDQQZYCCIDJRK-UHFFFAOYSA-N

> <Salt_Solvent>
?

> <Ready_Biodeg>
0.0

$$$$
100991
  -INDIGO-08031722522D

 30 30  0  0  0  0  0  0  0  0999 V2000
   -9.6995    2.4000    0.0000 Cl  0  0  0  0  0  0  0  0  0  0  0  0
   -8.3137    1.6000    0.0000 C   0  0  0  0  0  0  0  0  0  0  0  0
   -6.9282    2.4000    0.0000 N   0  0  0  0  0  0  0  0  0  0  0  0
   -5.5425    1.6000    0.0000 N   0  0  0  0  0  0  0  0  0  0  0  0
   -5.5425    0.0000    0.0000 C   0  0  0  0  0  0  0  0  0  0  0  0
   -4.1569   -0.8000    0.0000 S   0  0  0  0  0  0  0  0  0  0  0  0
   -2.7712    0.0000    0.0000 C   0  0  0  0  0  0  0  0  0  0  0  0
   -2.1591    1.4782    0.0000 H   0  0  0  0  0  0  0  0  0  0  0  0
   -3.3835    1.4782    0.0000 H   0  0  0  0  0  0  0  0  0  0  0  0
   -1.3856   -0.8000    0.0000 C   0  0  0  0  0  0  0  0  0  0  0  0
   -1.3856   -2.4000    0.0000 O   0  0  0  0  0  0  0  0  0  0  0  0
    0.0001    0.0000    0.0000 N   0  0  0  0  0  0  0  0  0  0  0  0
    1.3856   -0.8000    0.0000 C   0  0  0  0  0  0  0  0  0  0  0  0
    0.7733   -2.2782    0.0000 H   0  0  0  0  0  0  0  0  0  0  0  0
    1.9980   -2.2782    0.0000 H   0  0  0  0  0  0  0  0  0  0  0  0
    2.7714    0.0000    0.0000 C   0  0  0  0  0  0  0  0  0  0  0  0
    4.1569   -0.8000    0.0000 H   0  0  0  0  0  0  0  0  0  0  0  0
    4.1569    0.8000    0.0000 H   0  0  0  0  0  0  0  0  0  0  0  0
    2.7714   -1.6000    0.0000 H   0  0  0  0  0  0  0  0  0  0  0  0
    0.0001    1.6000    0.0000 C   0  0  0  0  0  0  0  0  0  0  0  0
    0.9740    2.8693    0.0000 H   0  0  0  0  0  0  0  0  0  0  0  0
    1.5863    1.8089    0.0000 H   0  0  0  0  0  0  0  0  0  0  0  0
   -1.3856    2.4000    0.0000 C   0  0  0  0  0  0  0  0  0  0  0  0
   -1.3856    4.0000    0.0000 H   0  0  0  0  0  0  0  0  0  0  0  0
   -2.7712    3.2000    0.0000 H   0  0  0  0  0  0  0  0  0  0  0  0
    0.0001    3.2000    0.0000 H   0  0  0  0  0  0  0  0  0  0  0  0
   -6.9282   -0.8000    0.0000 C   0  0  0  0  0  0  0  0  0  0  0  0
   -6.9282   -2.4000    0.0000 H   0  0  0  0  0  0  0  0  0  0  0  0
   -8.3137    0.0000    0.0000 C   0  0  0  0  0  0  0  0  0  0  0  0
   -9.6995   -0.8000    0.0000 H   0  0  0  0  0  0  0  0  0  0  0  0
  1  2  1  0  0  0  0
  2  3  1  0  0  0  0
  3  4  2  0  0  0  0
  4  5  1  0  0  0  0
  5  6  1  0  0  0  0
  6  7  1  0  0  0  0
  7  8  1  0  0  0  0
  7  9  1  0  0  0  0
  7 10  1  0  0  0  0
 10 11  2  0  0  0  0
 10 12  1  0  0  0  0
 12 13  1  0  0  0  0
 13 14  1  0  0  0  0
 13 15  1  0  0  0  0
 13 16  1  0  0  0  0
 16 17  1  0  0  0  0
 16 18  1  0  0  0  0
 16 19  1  0  0  0  0
 12 20  1  0  0  0  0
 20 21  1  0  0  0  0
 20 22  1  0  0  0  0
 20 23  1  0  0  0  0
 23 24  1  0  0  0  0
 23 25  1  0  0  0  0
 23 26  1  0  0  0  0
  5 27  2  0  0  0  0
 27 28  1  0  0  0  0
 27 29  1  0  0  0  0
 29  2  2  0  0  0  0
 29 30  1  0  0  0  0
M  END
> <ChemID>
100991

> <source_casrn>
1830-32-6

> <CAS>
1830-32-6

> <SMILES>
CCN(CC)C(=O)CSc1ccc(Cl)[n][n]1

> <NAME>
Azintamide

> <preferred_name>
Azintamide

> <iupac>
2-(6-chloropyridazin-3-yl)sulfanyl-N,N-diethylacetamide

> <MPID>
100983

> <dsstox_substance_id>
DTXSID50171370

> <Canonical_QSARr>
CCN(CC)C(=O)CSc1ccc(Cl)[n][n]1

> <InChI_Code_QSARr>
InChI=1S/C10H14ClN3OS/c1-3-14(4-2)10(15)7-16-9-6-5-8(11)12-13-9/h5-6H,3-4,7H2,1-2H3

> <InChI Key_QSARr>
SSLKKMZJCJBOML-UHFFFAOYSA-N

> <Salt_Solvent>
?

> <Ready_Biodeg>
0.0

$$$$
100993
  -INDIGO-08031722522D

 25 26  0  0  0  0  0  0  0  0999 V2000
    3.5086    0.9813    0.0000 C   0  0  0  0  0  0  0  0  0  0  0  0
    5.0842    1.2591    0.0000 C   0  0  0  0  0  0  0  0  0  0  0  0
    5.6315    2.7627    0.0000 H   0  0  0  0  0  0  0  0  0  0  0  0
    6.1126    0.0335    0.0000 C   0  0  0  0  0  0  0  0  0  0  0  0
    7.6884    0.3113    0.0000 Cl  0  0  0  0  0  0  0  0  0  0  0  0
    5.5655   -1.4700    0.0000 C   0  0  0  0  0  0  0  0  0  0  0  0
    6.5940   -2.6957    0.0000 H   0  0  0  0  0  0  0  0  0  0  0  0
    3.9898   -1.7479    0.0000 C   0  0  0  0  0  0  0  0  0  0  0  0
    3.4426   -3.2513    0.0000 Cl  0  0  0  0  0  0  0  0  0  0  0  0
    2.9613   -0.5222    0.0000 C   0  0  0  0  0  0  0  0  0  0  0  0
    1.3856   -0.8000    0.0000 O   0  0  0  0  0  0  0  0  0  0  0  0
   -0.0000   -0.0001    0.0000 C   0  0  0  0  0  0  0  0  0  0  0  0
   -0.0000    1.6000    0.0000 C   0  0  0  0  0  0  0  0  0  0  0  0
    1.3856    2.4000    0.0000 H   0  0  0  0  0  0  0  0  0  0  0  0
   -1.3856    2.4000    0.0000 C   0  0  0  0  0  0  0  0  0  0  0  0
   -1.3856    4.0000    0.0000 H   0  0  0  0  0  0  0  0  0  0  0  0
   -2.7712    1.6000    0.0000 C   0  0  0  0  0  0  0  0  0  0  0  0
   -4.1570    2.4000    0.0000 N   0  0  0  0  0  0  0  0  0  0  0  0
   -5.5426    1.6000    0.0000 O   0  0  0  0  0  0  0  0  0  0  0  0
   -4.1570    4.0000    0.0000 O   0  0  0  0  0  0  0  0  0  0  0  0
   -2.7712   -0.0001    0.0000 C   0  0  0  0  0  0  0  0  0  0  0  0
   -4.1570   -0.8000    0.0000 H   0  0  0  0  0  0  0  0  0  0  0  0
   -1.3856   -0.8000    0.0000 C   0  0  0  0  0  0  0  0  0  0  0  0
   -1.3856   -2.4000    0.0000 H   0  0  0  0  0  0  0  0  0  0  0  0
    2.4800    2.2071    0.0000 Cl  0  0  0  0  0  0  0  0  0  0  0  0
  1  2  1  0  0  0  0
  2  3  1  0  0  0  0
  2  4  2  0  0  0  0
  4  5  1  0  0  0  0
  4  6  1  0  0  0  0
  6  7  1  0  0  0  0
  6  8  2  0  0  0  0
  8  9  1  0  0  0  0
  8 10  1  0  0  0  0
 10  1  2  0  0  0  0
 10 11  1  0  0  0  0
 11 12  1  0  0  0  0
 12 13  1  0  0  0  0
 13 14  1  0  0  0  0
 13 15  2  0  0  0  0
 15 16  1  0  0  0  0
 15 17  1  0  0  0  0
 17 18  1  0  0  0  0
 18 19  1  0  0  0  0
 18 20  2  0  0  0  0
 17 21  2  0  0  0  0
 21 22  1  0  0  0  0
 21 23  1  0  0  0  0
 23 12  2  0  0  0  0
 23 24  1  0  0  0  0
  1 25  1  0  0  0  0
M  CHG  2  18   1  19  -1
M  END
> <ChemID>
100993

> <source_casrn>
1836-77-7

> <CAS>
1836-77-7

> <SMILES>
[O-][N+](=O)c1ccc(cc1)Oc1c(Cl)cc(Cl)cc1Cl

> <NAME>
Chlornitrofen

> <preferred_name>
Chlornitrofen

> <iupac>
4-nitrophenyl 2,4,6-trichlorophenyl ether

> <MPID>
100985

> <dsstox_substance_id>
DTXSID0041775

> <Canonical_QSARr>
[O-][N+](=O)c1ccc(cc1)Oc1c(Cl)cc(Cl)cc1Cl

> <InChI_Code_QSARr>
InChI=1S/C12H6Cl3NO3/c13-7-5-10(14)12(11(15)6-7)19-9-3-1-8(2-4-9)16(17)18/h1-6H

> <InChI Key_QSARr>
XQNAUQUKWRBODG-UHFFFAOYSA-N

> <Salt_Solvent>
?

> <Ready_Biodeg>
0.0

$$$$
100994
  -INDIGO-08031722522D

 50 51  0  0  0  0  0  0  0  0999 V2000
   11.0850   -3.2000    0.0000 C   0  0  0  0  0  0  0  0  0  0  0  0
   12.3108   -2.1715    0.0000 O   0  0  0  0  0  0  0  0  0  0  0  0
    9.6995   -2.4000    0.0000 C   0  0  0  0  0  0  0  0  0  0  0  0
    9.6995   -0.7999    0.0000 C   0  0  0  0  0  0  0  0  0  0  0  0
   11.0850    0.0000    0.0000 O   0  0  0  0  0  0  0  0  0  0  0  0
   11.0850    1.6000    0.0000 H   0  0  0  0  0  0  0  0  0  0  0  0
    8.3137    0.0000    0.0000 C   0  0  0  0  0  0  0  0  0  0  0  0
    8.3137    1.6000    0.0000 H   0  0  0  0  0  0  0  0  0  0  0  0
    6.9283   -0.7999    0.0000 C   0  0  0  0  0  0  0  0  0  0  0  0
    5.5425    0.0000    0.0000 O   0  0  0  0  0  0  0  0  0  0  0  0
    4.1571   -0.7999    0.0000 C   0  0  0  0  0  0  0  0  0  0  0  0
    4.7691   -2.2783    0.0000 H   0  0  0  0  0  0  0  0  0  0  0  0
    3.5447   -2.2783    0.0000 H   0  0  0  0  0  0  0  0  0  0  0  0
    2.7713    0.0000    0.0000 C   0  0  0  0  0  0  0  0  0  0  0  0
    2.1589    1.4782    0.0000 H   0  0  0  0  0  0  0  0  0  0  0  0
    3.3837    1.4782    0.0000 H   0  0  0  0  0  0  0  0  0  0  0  0
    1.3855   -0.7999    0.0000 C   0  0  0  0  0  0  0  0  0  0  0  0
    1.9979   -2.2783    0.0000 H   0  0  0  0  0  0  0  0  0  0  0  0
    0.7734   -2.2783    0.0000 H   0  0  0  0  0  0  0  0  0  0  0  0
    0.0000    0.0000    0.0000 C   0  0  0  0  0  0  0  0  0  0  0  0
   -0.6124    1.4782    0.0000 H   0  0  0  0  0  0  0  0  0  0  0  0
    0.6124    1.4782    0.0000 H   0  0  0  0  0  0  0  0  0  0  0  0
   -1.3857   -0.7999    0.0000 C   0  0  0  0  0  0  0  0  0  0  0  0
   -0.7733   -2.2783    0.0000 H   0  0  0  0  0  0  0  0  0  0  0  0
   -1.9978   -2.2783    0.0000 H   0  0  0  0  0  0  0  0  0  0  0  0
   -2.7712    0.0000    0.0000 C   0  0  0  0  0  0  0  0  0  0  0  0
   -3.3836    1.4782    0.0000 H   0  0  0  0  0  0  0  0  0  0  0  0
   -2.1591    1.4782    0.0000 H   0  0  0  0  0  0  0  0  0  0  0  0
   -4.1570   -0.7999    0.0000 C   0  0  0  0  0  0  0  0  0  0  0  0
   -3.5446   -2.2783    0.0000 H   0  0  0  0  0  0  0  0  0  0  0  0
   -4.7694   -2.2783    0.0000 H   0  0  0  0  0  0  0  0  0  0  0  0
   -5.5424    0.0000    0.0000 C   0  0  0  0  0  0  0  0  0  0  0  0
   -6.9282    0.8000    0.0000 H   0  0  0  0  0  0  0  0  0  0  0  0
   -6.9282   -0.7999    0.0000 H   0  0  0  0  0  0  0  0  0  0  0  0
   -5.5424    1.6000    0.0000 H   0  0  0  0  0  0  0  0  0  0  0  0
    6.9283   -2.4000    0.0000 C   0  0  0  0  0  0  0  0  0  0  0  0
    5.5425   -3.2000    0.0000 H   0  0  0  0  0  0  0  0  0  0  0  0
    8.3137   -3.2000    0.0000 C   0  0  0  0  0  0  0  0  0  0  0  0
    8.3137   -4.8000    0.0000 H   0  0  0  0  0  0  0  0  0  0  0  0
   11.6325   -4.7034    0.0000 C   0  0  0  0  0  0  0  0  0  0  0  0
   10.6040   -5.9291    0.0000 C   0  0  0  0  0  0  0  0  0  0  0  0
    9.0284   -5.6513    0.0000 H   0  0  0  0  0  0  0  0  0  0  0  0
   11.1512   -7.4327    0.0000 C   0  0  0  0  0  0  0  0  0  0  0  0
   10.1227   -8.6584    0.0000 H   0  0  0  0  0  0  0  0  0  0  0  0
   12.7269   -7.7104    0.0000 C   0  0  0  0  0  0  0  0  0  0  0  0
   13.2740   -9.2140    0.0000 H   0  0  0  0  0  0  0  0  0  0  0  0
   13.7553   -6.4849    0.0000 C   0  0  0  0  0  0  0  0  0  0  0  0
   15.3310   -6.7626    0.0000 H   0  0  0  0  0  0  0  0  0  0  0  0
   13.2081   -4.9813    0.0000 C   0  0  0  0  0  0  0  0  0  0  0  0
   14.2366   -3.7556    0.0000 H   0  0  0  0  0  0  0  0  0  0  0  0
  1  2  2  0  0  0  0
  1  3  1  0  0  0  0
  3  4  1  0  0  0  0
  4  5  1  0  0  0  0
  5  6  1  0  0  0  0
  4  7  2  0  0  0  0
  7  8  1  0  0  0  0
  7  9  1  0  0  0  0
  9 10  1  0  0  0  0
 10 11  1  0  0  0  0
 11 12  1  0  0  0  0
 11 13  1  0  0  0  0
 11 14  1  0  0  0  0
 14 15  1  0  0  0  0
 14 16  1  0  0  0  0
 14 17  1  0  0  0  0
 17 18  1  0  0  0  0
 17 19  1  0  0  0  0
 17 20  1  0  0  0  0
 20 21  1  0  0  0  0
 20 22  1  0  0  0  0
 20 23  1  0  0  0  0
 23 24  1  0  0  0  0
 23 25  1  0  0  0  0
 23 26  1  0  0  0  0
 26 27  1  0  0  0  0
 26 28  1  0  0  0  0
 26 29  1  0  0  0  0
 29 30  1  0  0  0  0
 29 31  1  0  0  0  0
 29 32  1  0  0  0  0
 32 33  1  0  0  0  0
 32 34  1  0  0  0  0
 32 35  1  0  0  0  0
  9 36  2  0  0  0  0
 36 37  1  0  0  0  0
 36 38  1  0  0  0  0
 38  3  2  0  0  0  0
 38 39  1  0  0  0  0
  1 40  1  0  0  0  0
 40 41  1  0  0  0  0
 41 42  1  0  0  0  0
 41 43  2  0  0  0  0
 43 44  1  0  0  0  0
 43 45  1  0  0  0  0
 45 46  1  0  0  0  0
 45 47  2  0  0  0  0
 47 48  1  0  0  0  0
 47 49  1  0  0  0  0
 49 40  2  0  0  0  0
 49 50  1  0  0  0  0
M  END
> <ChemID>
100994

> <source_casrn>
1843-05-6

> <CAS>
1843-05-6

> <SMILES>
O=C(c(cccc1)c1)c(c(O)cc(OCCCCCCCC)c2)c2

> <NAME>
Methanone,  2-hydroxy-4-(octyloxy)phenyl phenyl-

> <preferred_name>
Octabenzone

> <iupac>
[2-hydroxy-4-(octyloxy)phenyl](phenyl)methanone

> <MPID>
100986

> <dsstox_substance_id>
DTXSID9027441

> <Canonical_QSARr>
CCCCCCCCOc1cc(O)c(cc1)C(=O)c1ccccc1

> <InChI_Code_QSARr>
InChI=1S/C21H26O3/c1-2-3-4-5-6-10-15-24-18-13-14-19(20(22)16-18)21(23)17-11-8-7-9-12-17/h7-9,11-14,16,22H,2-6,10,15H2,1H3

> <InChI Key_QSARr>
QUAMTGJKVDWJEQ-UHFFFAOYSA-N

> <Salt_Solvent>
?

> <Ready_Biodeg>
0.0

$$$$
100995
  -INDIGO-08031722522D

 24 24  0  0  0  0  0  0  0  0999 V2000
   -0.0000    0.0000    0.0000 C   0  0  0  0  0  0  0  0  0  0  0  0
   -0.8001    1.3856    0.0000 C   0  0  0  0  0  0  0  0  0  0  0  0
   -0.0000    2.7713    0.0000 Cl  0  0  0  0  0  0  0  0  0  0  0  0
   -2.3999    1.3856    0.0000 C   0  0  0  0  0  0  0  0  0  0  0  0
   -3.2000    2.7713    0.0000 Cl  0  0  0  0  0  0  0  0  0  0  0  0
   -3.2000    0.0000    0.0000 C   0  0  0  0  0  0  0  0  0  0  0  0
   -4.8000   -0.0000    0.0000 C   0  0  0  0  0  0  0  0  0  0  0  0
   -5.6001   -1.3856    0.0000 O   0  0  0  0  0  0  0  0  0  0  0  0
   -5.6001    1.3856    0.0000 O   0  0  0  0  0  0  0  0  0  0  0  0
   -7.1999    1.3856    0.0000 C   0  0  0  0  0  0  0  0  0  0  0  0
   -8.8000    1.3856    0.0000 H   0  0  0  0  0  0  0  0  0  0  0  0
   -8.0000    2.7713    0.0000 H   0  0  0  0  0  0  0  0  0  0  0  0
   -8.0000   -0.0000    0.0000 H   0  0  0  0  0  0  0  0  0  0  0  0
   -2.3999   -1.3856    0.0000 C   0  0  0  0  0  0  0  0  0  0  0  0
   -3.2000   -2.7713    0.0000 Cl  0  0  0  0  0  0  0  0  0  0  0  0
   -0.8001   -1.3856    0.0000 C   0  0  0  0  0  0  0  0  0  0  0  0
   -0.0000   -2.7713    0.0000 Cl  0  0  0  0  0  0  0  0  0  0  0  0
    1.6000   -0.0000    0.0000 C   0  0  0  0  0  0  0  0  0  0  0  0
    2.4001    1.3856    0.0000 O   0  0  0  0  0  0  0  0  0  0  0  0
    2.4001   -1.3856    0.0000 O   0  0  0  0  0  0  0  0  0  0  0  0
    3.9999   -1.3856    0.0000 C   0  0  0  0  0  0  0  0  0  0  0  0
    5.6000   -1.3856    0.0000 H   0  0  0  0  0  0  0  0  0  0  0  0
    4.8000   -2.7713    0.0000 H   0  0  0  0  0  0  0  0  0  0  0  0
    4.8000   -0.0000    0.0000 H   0  0  0  0  0  0  0  0  0  0  0  0
  1  2  1  0  0  0  0
  2  3  1  0  0  0  0
  2  4  2  0  0  0  0
  4  5  1  0  0  0  0
  4  6  1  0  0  0  0
  6  7  1  0  0  0  0
  7  8  2  0  0  0  0
  7  9  1  0  0  0  0
  9 10  1  0  0  0  0
 10 11  1  0  0  0  0
 10 12  1  0  0  0  0
 10 13  1  0  0  0  0
  6 14  2  0  0  0  0
 14 15  1  0  0  0  0
 14 16  1  0  0  0  0
 16  1  2  0  0  0  0
 16 17  1  0  0  0  0
  1 18  1  0  0  0  0
 18 19  2  0  0  0  0
 18 20  1  0  0  0  0
 20 21  1  0  0  0  0
 21 22  1  0  0  0  0
 21 23  1  0  0  0  0
 21 24  1  0  0  0  0
M  END
> <ChemID>
100995

> <source_casrn>
1861-32-1

> <CAS>
1861-32-1

> <SMILES>
COC(=O)c1c(Cl)c(Cl)c(c(Cl)c1Cl)C(=O)OC

> <NAME>
Dacthal

> <preferred_name>
Chlorthal-dimethyl

> <iupac>
dimethyl 2,3,5,6-tetrachlorobenzene-1,4-dicarboxylate

> <MPID>
100987

> <dsstox_substance_id>
DTXSID0024000

> <Canonical_QSARr>
COC(=O)c1c(Cl)c(Cl)c(c(Cl)c1Cl)C(=O)OC

> <InChI_Code_QSARr>
InChI=1S/C10H6Cl4O4/c1-17-9(15)3-5(11)7(13)4(10(16)18-2)8(14)6(3)12/h1-2H3

> <InChI Key_QSARr>
NPOJQCVWMSKXDN-UHFFFAOYSA-N

> <Salt_Solvent>
?

> <Ready_Biodeg>
0.0

$$$$
100997
  -INDIGO-08031722522D

 52 52  0  0  0  0  0  0  0  0999 V2000
   -9.6996   -0.8000    0.0000 S   0  0  0  0  0  0  0  0  0  0  0  0
   -8.3139    0.0000    0.0000 O   0  0  0  0  0  0  0  0  0  0  0  0
   -6.9282   -0.8000    0.0000 C   0  0  0  0  0  0  0  0  0  0  0  0
   -7.5406   -2.2782    0.0000 H   0  0  0  0  0  0  0  0  0  0  0  0
   -6.3158   -2.2782    0.0000 H   0  0  0  0  0  0  0  0  0  0  0  0
   -5.5425    0.0000    0.0000 C   0  0  0  0  0  0  0  0  0  0  0  0
   -4.9301    1.4782    0.0000 H   0  0  0  0  0  0  0  0  0  0  0  0
   -6.1549    1.4782    0.0000 H   0  0  0  0  0  0  0  0  0  0  0  0
   -4.1568   -0.8000    0.0000 C   0  0  0  0  0  0  0  0  0  0  0  0
   -4.7692   -2.2782    0.0000 H   0  0  0  0  0  0  0  0  0  0  0  0
   -3.5448   -2.2782    0.0000 H   0  0  0  0  0  0  0  0  0  0  0  0
   -2.7711    0.0000    0.0000 C   0  0  0  0  0  0  0  0  0  0  0  0
   -2.1591    1.4782    0.0000 H   0  0  0  0  0  0  0  0  0  0  0  0
   -3.3834    1.4782    0.0000 H   0  0  0  0  0  0  0  0  0  0  0  0
   -1.3858   -0.8000    0.0000 C   0  0  0  0  0  0  0  0  0  0  0  0
   -1.9977   -2.2782    0.0000 H   0  0  0  0  0  0  0  0  0  0  0  0
   -0.7734   -2.2782    0.0000 H   0  0  0  0  0  0  0  0  0  0  0  0
   -0.0001    0.0000    0.0000 C   0  0  0  0  0  0  0  0  0  0  0  0
    0.6123    1.4782    0.0000 H   0  0  0  0  0  0  0  0  0  0  0  0
   -0.6124    1.4782    0.0000 H   0  0  0  0  0  0  0  0  0  0  0  0
    1.3856   -0.8000    0.0000 C   0  0  0  0  0  0  0  0  0  0  0  0
    0.7733   -2.2782    0.0000 H   0  0  0  0  0  0  0  0  0  0  0  0
    1.9980   -2.2782    0.0000 H   0  0  0  0  0  0  0  0  0  0  0  0
    2.7713    0.0000    0.0000 C   0  0  0  0  0  0  0  0  0  0  0  0
    3.3837    1.4782    0.0000 H   0  0  0  0  0  0  0  0  0  0  0  0
    2.1590    1.4782    0.0000 H   0  0  0  0  0  0  0  0  0  0  0  0
    4.1570   -0.8000    0.0000 C   0  0  0  0  0  0  0  0  0  0  0  0
    3.5447   -2.2782    0.0000 H   0  0  0  0  0  0  0  0  0  0  0  0
    4.7690   -2.2782    0.0000 H   0  0  0  0  0  0  0  0  0  0  0  0
    5.5428    0.0000    0.0000 C   0  0  0  0  0  0  0  0  0  0  0  0
    6.1547    1.4782    0.0000 H   0  0  0  0  0  0  0  0  0  0  0  0
    4.9304    1.4782    0.0000 H   0  0  0  0  0  0  0  0  0  0  0  0
    6.9281   -0.8000    0.0000 C   0  0  0  0  0  0  0  0  0  0  0  0
    6.3161   -2.2782    0.0000 H   0  0  0  0  0  0  0  0  0  0  0  0
    7.5404   -2.2782    0.0000 H   0  0  0  0  0  0  0  0  0  0  0  0
    8.3138    0.0000    0.0000 C   0  0  0  0  0  0  0  0  0  0  0  0
    9.6995    0.8000    0.0000 H   0  0  0  0  0  0  0  0  0  0  0  0
    9.6995   -0.8000    0.0000 H   0  0  0  0  0  0  0  0  0  0  0  0
    8.3138    1.6000    0.0000 H   0  0  0  0  0  0  0  0  0  0  0  0
   -8.8996   -2.1856    0.0000 O   0  0  0  0  0  0  0  0  0  0  0  0
  -10.4996    0.5856    0.0000 O   0  0  0  0  0  0  0  0  0  0  0  0
  -11.0853   -1.6000    0.0000 C   0  0  0  0  0  0  0  0  0  0  0  0
  -11.0849   -3.2000    0.0000 C   0  0  0  0  0  0  0  0  0  0  0  0
   -9.6996   -4.0000    0.0000 H   0  0  0  0  0  0  0  0  0  0  0  0
  -12.4706   -4.0000    0.0000 C   0  0  0  0  0  0  0  0  0  0  0  0
  -12.4706   -5.6000    0.0000 H   0  0  0  0  0  0  0  0  0  0  0  0
  -13.8563   -3.2000    0.0000 C   0  0  0  0  0  0  0  0  0  0  0  0
  -15.2420   -4.0000    0.0000 H   0  0  0  0  0  0  0  0  0  0  0  0
  -13.8563   -1.6000    0.0000 C   0  0  0  0  0  0  0  0  0  0  0  0
  -15.2420   -0.8000    0.0000 H   0  0  0  0  0  0  0  0  0  0  0  0
  -12.4706   -0.8000    0.0000 C   0  0  0  0  0  0  0  0  0  0  0  0
  -12.4706    0.8000    0.0000 H   0  0  0  0  0  0  0  0  0  0  0  0
  1  2  1  0  0  0  0
  2  3  1  0  0  0  0
  3  4  1  0  0  0  0
  3  5  1  0  0  0  0
  3  6  1  0  0  0  0
  6  7  1  0  0  0  0
  6  8  1  0  0  0  0
  6  9  1  0  0  0  0
  9 10  1  0  0  0  0
  9 11  1  0  0  0  0
  9 12  1  0  0  0  0
 12 13  1  0  0  0  0
 12 14  1  0  0  0  0
 12 15  1  0  0  0  0
 15 16  1  0  0  0  0
 15 17  1  0  0  0  0
 15 18  1  0  0  0  0
 18 19  1  0  0  0  0
 18 20  1  0  0  0  0
 18 21  1  0  0  0  0
 21 22  1  0  0  0  0
 21 23  1  0  0  0  0
 21 24  1  0  0  0  0
 24 25  1  0  0  0  0
 24 26  1  0  0  0  0
 24 27  1  0  0  0  0
 27 28  1  0  0  0  0
 27 29  1  0  0  0  0
 27 30  1  0  0  0  0
 30 31  1  0  0  0  0
 30 32  1  0  0  0  0
 30 33  1  0  0  0  0
 33 34  1  0  0  0  0
 33 35  1  0  0  0  0
 33 36  1  0  0  0  0
 36 37  1  0  0  0  0
 36 38  1  0  0  0  0
 36 39  1  0  0  0  0
  1 40  2  0  0  0  0
  1 41  2  0  0  0  0
  1 42  1  0  0  0  0
 42 43  1  0  0  0  0
 43 44  1  0  0  0  0
 43 45  2  0  0  0  0
 45 46  1  0  0  0  0
 45 47  1  0  0  0  0
 47 48  1  0  0  0  0
 47 49  2  0  0  0  0
 49 50  1  0  0  0  0
 49 51  1  0  0  0  0
 51 42  2  0  0  0  0
 51 52  1  0  0  0  0
M  END
> <ChemID>
100997

> <source_casrn>
1886-81-3

> <CAS>
121734-15-4

> <SMILES>
O=S(=O)(OCCCCCCCCCCCC)c(cccc1)c1

> <NAME>
DODECYL BENZENESULFONATE

> <preferred_name>
Dodecyl benzenesulfonate

> <iupac>
DODECYL BENZENESULFONATE

> <MPID>
100989

> <dsstox_substance_id>
DTXSID30153351

> <Canonical_QSARr>
CCCCCCCCCCCCOS(=O)(=O)c1ccccc1

> <InChI_Code_QSARr>
InChI=1S/C18H30O3S/c1-2-3-4-5-6-7-8-9-10-14-17-21-22(19,20)18-15-12-11-13-16-18/h11-13,15-16H,2-10,14,17H2,1H3

> <InChI Key_QSARr>
YRIUSKIDOIARQF-UHFFFAOYSA-N

> <Salt_Solvent>
?

> <Ready_Biodeg>
1.0

$$$$
100998
  -INDIGO-08031722522D

 14 14  0  0  0  0  0  0  0  0999 V2000
    1.3856    2.4000    0.0000 Cl  0  0  0  0  0  0  0  0  0  0  0  0
    1.3856    0.8000    0.0000 C   0  0  0  0  0  0  0  0  0  0  0  0
    2.7713   -0.0000    0.0000 C   0  0  0  0  0  0  0  0  0  0  0  0
    4.1570    0.8000    0.0000 C   0  0  0  0  0  0  0  0  0  0  0  0
    5.5426    1.6000    0.0000 N   0  0  0  0  0  0  0  0  0  0  0  0
    2.7713   -1.6000    0.0000 C   0  0  0  0  0  0  0  0  0  0  0  0
    4.1569   -2.4000    0.0000 Cl  0  0  0  0  0  0  0  0  0  0  0  0
    1.3856   -2.4000    0.0000 C   0  0  0  0  0  0  0  0  0  0  0  0
    1.3856   -4.0000    0.0000 Cl  0  0  0  0  0  0  0  0  0  0  0  0
    0.0000   -1.6000    0.0000 C   0  0  0  0  0  0  0  0  0  0  0  0
   -1.3857   -2.4000    0.0000 Cl  0  0  0  0  0  0  0  0  0  0  0  0
    0.0000   -0.0000    0.0000 C   0  0  0  0  0  0  0  0  0  0  0  0
   -1.3857    0.8000    0.0000 C   0  0  0  0  0  0  0  0  0  0  0  0
   -2.7713    1.6000    0.0000 N   0  0  0  0  0  0  0  0  0  0  0  0
  1  2  1  0  0  0  0
  2  3  1  0  0  0  0
  3  4  1  0  0  0  0
  4  5  3  0  0  0  0
  3  6  2  0  0  0  0
  6  7  1  0  0  0  0
  6  8  1  0  0  0  0
  8  9  1  0  0  0  0
  8 10  2  0  0  0  0
 10 11  1  0  0  0  0
 10 12  1  0  0  0  0
 12  2  2  0  0  0  0
 12 13  1  0  0  0  0
 13 14  3  0  0  0  0
M  END
> <ChemID>
100998

> <source_casrn>
1897-45-6

> <CAS>
1897-45-6

> <SMILES>
N#Cc1c(Cl)c(Cl)c(Cl)c(C#N)c1Cl

> <NAME>
Chlorothalonil

> <preferred_name>
Chlorothalonil

> <iupac>
2,4,5,6-tetrachlorobenzene-1,3-dicarbonitrile

> <MPID>
100990

> <dsstox_substance_id>
DTXSID0020319

> <Canonical_QSARr>
N#Cc1c(Cl)c(Cl)c(Cl)c(C#N)c1Cl

> <InChI_Code_QSARr>
InChI=1S/C8Cl4N2/c9-5-3(1-13)6(10)8(12)7(11)4(5)2-14

> <InChI Key_QSARr>
CRQQGFGUEAVUIL-UHFFFAOYSA-N

> <Salt_Solvent>
?

> <Ready_Biodeg>
1.0

$$$$
100999
  -INDIGO-08031722522D

 28 28  0  0  0  0  0  0  0  0999 V2000
    4.1568    4.0000    0.0000 Cl  0  0  0  0  0  0  0  0  0  0  0  0
    4.1570    2.4000    0.0000 C   0  0  0  0  0  0  0  0  0  0  0  0
    5.5426    1.6000    0.0000 N   0  0  0  0  0  0  0  0  0  0  0  0
    5.5426   -0.0001    0.0000 C   0  0  0  0  0  0  0  0  0  0  0  0
    6.9283   -0.8000    0.0000 N   0  0  0  0  0  0  0  0  0  0  0  0
    6.9283   -2.4000    0.0000 H   0  0  0  0  0  0  0  0  0  0  0  0
    8.3138    0.0001    0.0000 C   0  0  0  0  0  0  0  0  0  0  0  0
    8.9262    1.4782    0.0000 H   0  0  0  0  0  0  0  0  0  0  0  0
    7.7015    1.4782    0.0000 H   0  0  0  0  0  0  0  0  0  0  0  0
    9.6996   -0.8000    0.0000 C   0  0  0  0  0  0  0  0  0  0  0  0
   11.0851   -1.6000    0.0000 H   0  0  0  0  0  0  0  0  0  0  0  0
   11.0851    0.0001    0.0000 H   0  0  0  0  0  0  0  0  0  0  0  0
    9.6996   -2.4000    0.0000 H   0  0  0  0  0  0  0  0  0  0  0  0
    4.1570   -0.8000    0.0000 N   0  0  0  0  0  0  0  0  0  0  0  0
    2.7713   -0.0001    0.0000 C   0  0  0  0  0  0  0  0  0  0  0  0
    1.3857   -0.8000    0.0000 N   0  0  0  0  0  0  0  0  0  0  0  0
    1.3857   -2.4000    0.0000 H   0  0  0  0  0  0  0  0  0  0  0  0
    0.0000   -0.0001    0.0000 C   0  0  0  0  0  0  0  0  0  0  0  0
    0.8001    1.3856    0.0000 H   0  0  0  0  0  0  0  0  0  0  0  0
   -1.3855    0.8000    0.0000 C   0  0  0  0  0  0  0  0  0  0  0  0
   -2.7713    1.6000    0.0000 H   0  0  0  0  0  0  0  0  0  0  0  0
   -2.7713   -0.0001    0.0000 H   0  0  0  0  0  0  0  0  0  0  0  0
   -1.3855    2.4000    0.0000 H   0  0  0  0  0  0  0  0  0  0  0  0
   -0.8001   -1.3856    0.0000 C   0  0  0  0  0  0  0  0  0  0  0  0
   -1.5999   -2.7713    0.0000 H   0  0  0  0  0  0  0  0  0  0  0  0
   -2.4000   -1.3856    0.0000 H   0  0  0  0  0  0  0  0  0  0  0  0
    0.0000   -2.7713    0.0000 H   0  0  0  0  0  0  0  0  0  0  0  0
    2.7713    1.6000    0.0000 N   0  0  0  0  0  0  0  0  0  0  0  0
  1  2  1  0  0  0  0
  2  3  1  0  0  0  0
  3  4  2  0  0  0  0
  4  5  1  0  0  0  0
  5  6  1  0  0  0  0
  5  7  1  0  0  0  0
  7  8  1  0  0  0  0
  7  9  1  0  0  0  0
  7 10  1  0  0  0  0
 10 11  1  0  0  0  0
 10 12  1  0  0  0  0
 10 13  1  0  0  0  0
  4 14  1  0  0  0  0
 14 15  2  0  0  0  0
 15 16  1  0  0  0  0
 16 17  1  0  0  0  0
 16 18  1  0  0  0  0
 18 19  1  0  0  0  0
 18 20  1  0  0  0  0
 20 21  1  0  0  0  0
 20 22  1  0  0  0  0
 20 23  1  0  0  0  0
 18 24  1  0  0  0  0
 24 25  1  0  0  0  0
 24 26  1  0  0  0  0
 24 27  1  0  0  0  0
 15 28  1  0  0  0  0
 28  2  2  0  0  0  0
M  END
> <ChemID>
100999

> <source_casrn>
1912-24-9

> <CAS>
1912-24-9

> <SMILES>
CCNc1[n]c(Cl)[n]c(NC(C)C)[n]1

> <NAME>
Atrazine

> <preferred_name>
Atrazine

> <iupac>
6-chloro-N-ethyl-N'-(propan-2-yl)-1,3,5-triazine-2,4-diamine

> <MPID>
100991

> <dsstox_substance_id>
DTXSID9020112

> <Canonical_QSARr>
CCNc1[n]c(Cl)[n]c(NC(C)C)[n]1

> <InChI_Code_QSARr>
InChI=1S/C8H14ClN5/c1-4-10-7-12-6(9)13-8(14-7)11-5(2)3/h5H,4H2,1-3H3,(H2,10,11,12,13,14)

> <InChI Key_QSARr>
MXWJVTOOROXGIU-UHFFFAOYSA-N

> <Salt_Solvent>
?

> <Ready_Biodeg>
0.0

$$$$
101001
  -INDIGO-08031722522D

 47 47  0  0  0  0  0  0  0  0999 V2000
    1.3856    2.4000    0.0000 C   0  0  0  0  0  0  0  0  0  0  0  0
    2.7714    3.2000    0.0000 C   0  0  0  0  0  0  0  0  0  0  0  0
    3.0491    4.7757    0.0000 C   0  0  0  0  0  0  0  0  0  0  0  0
    3.3270    6.3514    0.0000 C   0  0  0  0  0  0  0  0  0  0  0  0
    3.6047    7.9271    0.0000 H   0  0  0  0  0  0  0  0  0  0  0  0
    4.7126    7.1514    0.0000 H   0  0  0  0  0  0  0  0  0  0  0  0
    2.2985    7.5770    0.0000 H   0  0  0  0  0  0  0  0  0  0  0  0
    4.6248    4.4979    0.0000 C   0  0  0  0  0  0  0  0  0  0  0  0
    6.2005    4.2200    0.0000 H   0  0  0  0  0  0  0  0  0  0  0  0
    5.6533    5.7236    0.0000 H   0  0  0  0  0  0  0  0  0  0  0  0
    4.3470    6.0736    0.0000 H   0  0  0  0  0  0  0  0  0  0  0  0
    1.4734    5.0535    0.0000 C   0  0  0  0  0  0  0  0  0  0  0  0
    0.9262    6.5570    0.0000 H   0  0  0  0  0  0  0  0  0  0  0  0
    2.2734    6.4392    0.0000 H   0  0  0  0  0  0  0  0  0  0  0  0
    1.7513    3.4778    0.0000 H   0  0  0  0  0  0  0  0  0  0  0  0
    4.1570    2.4000    0.0000 C   0  0  0  0  0  0  0  0  0  0  0  0
    5.5426    3.2000    0.0000 H   0  0  0  0  0  0  0  0  0  0  0  0
    4.1570    0.7999    0.0000 C   0  0  0  0  0  0  0  0  0  0  0  0
    5.5426   -0.0000    0.0000 C   0  0  0  0  0  0  0  0  0  0  0  0
    6.9282   -0.8000    0.0000 H   0  0  0  0  0  0  0  0  0  0  0  0
    5.5426   -1.6000    0.0000 H   0  0  0  0  0  0  0  0  0  0  0  0
    6.9282    0.7999    0.0000 H   0  0  0  0  0  0  0  0  0  0  0  0
    2.7714   -0.0000    0.0000 C   0  0  0  0  0  0  0  0  0  0  0  0
    2.7714   -1.6000    0.0000 H   0  0  0  0  0  0  0  0  0  0  0  0
    1.3856    0.7999    0.0000 C   0  0  0  0  0  0  0  0  0  0  0  0
   -0.0001   -0.0000    0.0000 C   0  0  0  0  0  0  0  0  0  0  0  0
   -1.3857   -0.8000    0.0000 C   0  0  0  0  0  0  0  0  0  0  0  0
   -2.7713   -1.6000    0.0000 H   0  0  0  0  0  0  0  0  0  0  0  0
   -1.6634   -2.3757    0.0000 H   0  0  0  0  0  0  0  0  0  0  0  0
   -2.8891   -0.2527    0.0000 H   0  0  0  0  0  0  0  0  0  0  0  0
    0.7999   -1.3856    0.0000 C   0  0  0  0  0  0  0  0  0  0  0  0
    1.8284   -2.6114    0.0000 H   0  0  0  0  0  0  0  0  0  0  0  0
    0.2527   -2.8891    0.0000 H   0  0  0  0  0  0  0  0  0  0  0  0
   -0.7758   -1.6635    0.0000 H   0  0  0  0  0  0  0  0  0  0  0  0
   -0.8000    1.3857    0.0000 C   0  0  0  0  0  0  0  0  0  0  0  0
   -2.4000    1.3857    0.0000 H   0  0  0  0  0  0  0  0  0  0  0  0
   -1.6000    2.7712    0.0000 H   0  0  0  0  0  0  0  0  0  0  0  0
   -1.8285    0.1599    0.0000 H   0  0  0  0  0  0  0  0  0  0  0  0
   -0.1179    2.9472    0.0000 O   0  0  0  0  0  0  0  0  0  0  0  0
   -0.6651    4.4507    0.0000 C   0  0  0  0  0  0  0  0  0  0  0  0
    0.3634    5.6764    0.0000 O   0  0  0  0  0  0  0  0  0  0  0  0
   -2.2408    4.7285    0.0000 N   0  0  0  0  0  0  0  0  0  0  0  0
   -2.7880    6.2321    0.0000 H   0  0  0  0  0  0  0  0  0  0  0  0
   -3.2693    3.5029    0.0000 C   0  0  0  0  0  0  0  0  0  0  0  0
   -4.8449    3.7808    0.0000 H   0  0  0  0  0  0  0  0  0  0  0  0
   -4.2977    2.2773    0.0000 H   0  0  0  0  0  0  0  0  0  0  0  0
   -3.8165    5.0064    0.0000 H   0  0  0  0  0  0  0  0  0  0  0  0
  1  2  1  0  0  0  0
  2  3  1  0  0  0  0
  3  4  1  0  0  0  0
  4  5  1  0  0  0  0
  4  6  1  0  0  0  0
  4  7  1  0  0  0  0
  3  8  1  0  0  0  0
  8  9  1  0  0  0  0
  8 10  1  0  0  0  0
  8 11  1  0  0  0  0
  3 12  1  0  0  0  0
 12 13  1  0  0  0  0
 12 14  1  0  0  0  0
 12 15  1  0  0  0  0
  2 16  2  0  0  0  0
 16 17  1  0  0  0  0
 16 18  1  0  0  0  0
 18 19  1  0  0  0  0
 19 20  1  0  0  0  0
 19 21  1  0  0  0  0
 19 22  1  0  0  0  0
 18 23  2  0  0  0  0
 23 24  1  0  0  0  0
 23 25  1  0  0  0  0
 25  1  2  0  0  0  0
 25 26  1  0  0  0  0
 26 27  1  0  0  0  0
 27 28  1  0  0  0  0
 27 29  1  0  0  0  0
 27 30  1  0  0  0  0
 26 31  1  0  0  0  0
 31 32  1  0  0  0  0
 31 33  1  0  0  0  0
 31 34  1  0  0  0  0
 26 35  1  0  0  0  0
 35 36  1  0  0  0  0
 35 37  1  0  0  0  0
 35 38  1  0  0  0  0
  1 39  1  0  0  0  0
 39 40  1  0  0  0  0
 40 41  2  0  0  0  0
 40 42  1  0  0  0  0
 42 43  1  0  0  0  0
 42 44  1  0  0  0  0
 44 45  1  0  0  0  0
 44 46  1  0  0  0  0
 44 47  1  0  0  0  0
M  END
> <ChemID>
101001

> <source_casrn>
1918-11-2

> <CAS>
1918-11-2

> <SMILES>
Cc1cc(c(OC(=O)NC)c(c1)C(C)(C)C)C(C)(C)C

> <NAME>
Terbutol

> <preferred_name>
Terbucarb

> <iupac>
2,6-di-tert-butyl-4-methylphenyl methylcarbamate

> <MPID>
100993

> <dsstox_substance_id>
DTXSID1042441

> <Canonical_QSARr>
Cc1cc(c(OC(=O)NC)c(c1)C(C)(C)C)C(C)(C)C

> <InChI_Code_QSARr>
InChI=1S/C17H27NO2/c1-11-9-12(16(2,3)4)14(20-15(19)18-8)13(10-11)17(5,6)7/h9-10H,1-8H3,(H,18,19)

> <InChI Key_QSARr>
PNRAZZZISDRWMV-UHFFFAOYSA-N

> <Salt_Solvent>
?

> <Ready_Biodeg>
0.0

$$$$
101002
  -INDIGO-08031722522D

 18 18  0  0  0  0  0  0  0  0999 V2000
   -0.5856   -2.1856    0.0000 O   0  0  0  0  0  0  0  0  0  0  0  0
    0.8000   -1.3856    0.0000 S   0  0  0  0  0  0  0  0  0  0  0  0
    1.6000   -2.7713    0.0000 O   0  0  0  0  0  0  0  0  0  0  0  0
    0.0000   -0.0000    0.0000 C   0  0  0  0  0  0  0  0  0  0  0  0
    0.2089    1.5863    0.0000 H   0  0  0  0  0  0  0  0  0  0  0  0
    1.2694    0.9740    0.0000 H   0  0  0  0  0  0  0  0  0  0  0  0
   -1.6000   -0.0000    0.0000 C   0  0  0  0  0  0  0  0  0  0  0  0
   -2.4000    1.3856    0.0000 C   0  0  0  0  0  0  0  0  0  0  0  0
   -1.6000    2.7713    0.0000 H   0  0  0  0  0  0  0  0  0  0  0  0
   -4.0001    1.3856    0.0000 C   0  0  0  0  0  0  0  0  0  0  0  0
   -4.8000    2.7713    0.0000 H   0  0  0  0  0  0  0  0  0  0  0  0
   -4.8000   -0.0000    0.0000 C   0  0  0  0  0  0  0  0  0  0  0  0
   -6.4000   -0.0000    0.0000 H   0  0  0  0  0  0  0  0  0  0  0  0
   -4.0001   -1.3856    0.0000 C   0  0  0  0  0  0  0  0  0  0  0  0
   -4.8000   -2.7713    0.0000 H   0  0  0  0  0  0  0  0  0  0  0  0
   -2.4000   -1.3856    0.0000 C   0  0  0  0  0  0  0  0  0  0  0  0
   -1.6000   -2.7713    0.0000 H   0  0  0  0  0  0  0  0  0  0  0  0
    2.1856   -0.5856    0.0000 Cl  0  0  0  0  0  0  0  0  0  0  0  0
  1  2  2  0  0  0  0
  2  3  2  0  0  0  0
  2  4  1  0  0  0  0
  4  5  1  0  0  0  0
  4  6  1  0  0  0  0
  4  7  1  0  0  0  0
  7  8  1  0  0  0  0
  8  9  1  0  0  0  0
  8 10  2  0  0  0  0
 10 11  1  0  0  0  0
 10 12  1  0  0  0  0
 12 13  1  0  0  0  0
 12 14  2  0  0  0  0
 14 15  1  0  0  0  0
 14 16  1  0  0  0  0
 16  7  2  0  0  0  0
 16 17  1  0  0  0  0
  2 18  1  0  0  0  0
M  END
> <ChemID>
101002

> <source_casrn>
1939-99-7

> <CAS>
1939-99-7

> <SMILES>
O=S(=O)(Cl)Cc1ccccc1

> <NAME>
Benzenemethanesulfonyl chloride

> <preferred_name>
Benzenemethanesulfonyl chloride

> <iupac>
Phenylmethanesulfonyl chloride

> <MPID>
100994

> <dsstox_substance_id>
DTXSID3062071

> <Canonical_QSARr>
O=S(=O)(Cl)Cc1ccccc1

> <InChI_Code_QSARr>
InChI=1S/C7H7ClO2S/c8-11(9,10)6-7-4-2-1-3-5-7/h1-5H,6H2

> <InChI Key_QSARr>
OAHKWDDSKCRNFE-UHFFFAOYSA-N

> <Salt_Solvent>
?

> <Ready_Biodeg>
1.0

$$$$
101003
  -INDIGO-08031722522D

 13 13  0  0  0  0  0  0  0  0999 V2000
   -0.0000   -0.0000    0.0000 C   0  0  0  0  0  0  0  0  0  0  0  0
    0.8000   -1.3857    0.0000 C   0  0  0  0  0  0  0  0  0  0  0  0
    2.4000   -1.3857    0.0000 Cl  0  0  0  0  0  0  0  0  0  0  0  0
   -0.0000   -2.7713    0.0000 C   0  0  0  0  0  0  0  0  0  0  0  0
    0.8000   -4.1569    0.0000 H   0  0  0  0  0  0  0  0  0  0  0  0
   -1.6000   -2.7713    0.0000 C   0  0  0  0  0  0  0  0  0  0  0  0
   -2.4000   -4.1569    0.0000 Br  0  0  0  0  0  0  0  0  0  0  0  0
   -2.4000   -1.3856    0.0000 C   0  0  0  0  0  0  0  0  0  0  0  0
   -4.0000   -1.3856    0.0000 Cl  0  0  0  0  0  0  0  0  0  0  0  0
   -1.6000   -0.0000    0.0000 C   0  0  0  0  0  0  0  0  0  0  0  0
   -2.4000    1.3856    0.0000 H   0  0  0  0  0  0  0  0  0  0  0  0
    0.8000    1.3856    0.0000 O   0  0  0  0  0  0  0  0  0  0  0  0
    2.4000    1.3856    0.0000 H   0  0  0  0  0  0  0  0  0  0  0  0
  1  2  1  0  0  0  0
  2  3  1  0  0  0  0
  2  4  2  0  0  0  0
  4  5  1  0  0  0  0
  4  6  1  0  0  0  0
  6  7  1  0  0  0  0
  6  8  2  0  0  0  0
  8  9  1  0  0  0  0
  8 10  1  0  0  0  0
 10  1  2  0  0  0  0
 10 11  1  0  0  0  0
  1 12  1  0  0  0  0
 12 13  1  0  0  0  0
M  END
> <ChemID>
101003

> <source_casrn>
1940-42-7

> <CAS>
1940-42-7

> <SMILES>
Oc1cc(Cl)c(Br)cc1Cl

> <NAME>
Phenol, 4-bromo-2,5-dichloro-

> <preferred_name>
4-Bromo-2,5-dichlorophenol

> <iupac>
4-Bromo-2,5-dichlorophenol

> <MPID>
100995

> <dsstox_substance_id>
DTXSID3062073

> <Canonical_QSARr>
Oc1cc(Cl)c(Br)cc1Cl

> <InChI_Code_QSARr>
InChI=1S/C6H3BrCl2O/c7-3-1-5(9)6(10)2-4(3)8/h1-2,10H

> <InChI Key_QSARr>
HWWKEEKUMAZJLL-UHFFFAOYSA-N

> <Salt_Solvent>
?

> <Ready_Biodeg>
0.0

$$$$
101005
  -INDIGO-08031722522D

 38 39  0  0  0  0  0  0  0  0999 V2000
    1.3856    0.8000    0.0000 S   0  0  0  0  0  0  0  0  0  0  0  0
    2.1856   -0.5856    0.0000 O   0  0  0  0  0  0  0  0  0  0  0  0
    0.5856    2.1857    0.0000 O   0  0  0  0  0  0  0  0  0  0  0  0
    2.7712    1.6001    0.0000 N   0  0  0  0  0  0  0  0  0  0  0  0
    2.7712    3.2000    0.0000 H   0  0  0  0  0  0  0  0  0  0  0  0
    4.1570    0.8000    0.0000 C   0  0  0  0  0  0  0  0  0  0  0  0
    5.5426    1.6001    0.0000 N   0  0  0  0  0  0  0  0  0  0  0  0
    6.9281    0.8000    0.0000 C   0  0  0  0  0  0  0  0  0  0  0  0
    8.3140    1.6001    0.0000 C   0  0  0  0  0  0  0  0  0  0  0  0
    8.9262    3.0782    0.0000 H   0  0  0  0  0  0  0  0  0  0  0  0
    7.7015    3.0782    0.0000 H   0  0  0  0  0  0  0  0  0  0  0  0
    9.6995    0.8000    0.0000 C   0  0  0  0  0  0  0  0  0  0  0  0
   11.0851   -0.0000    0.0000 H   0  0  0  0  0  0  0  0  0  0  0  0
   11.0851    1.6001    0.0000 H   0  0  0  0  0  0  0  0  0  0  0  0
    9.6995   -0.8000    0.0000 H   0  0  0  0  0  0  0  0  0  0  0  0
    6.9281   -0.8000    0.0000 N   0  0  0  0  0  0  0  0  0  0  0  0
    5.5426   -1.6000    0.0000 C   0  0  0  0  0  0  0  0  0  0  0  0
    5.5426   -3.2000    0.0000 C   0  0  0  0  0  0  0  0  0  0  0  0
    3.9563   -3.4088    0.0000 H   0  0  0  0  0  0  0  0  0  0  0  0
    4.5685   -4.4694    0.0000 H   0  0  0  0  0  0  0  0  0  0  0  0
    6.9281   -4.0001    0.0000 C   0  0  0  0  0  0  0  0  0  0  0  0
    6.9281   -5.6000    0.0000 H   0  0  0  0  0  0  0  0  0  0  0  0
    8.3137   -4.8000    0.0000 H   0  0  0  0  0  0  0  0  0  0  0  0
    8.3137   -3.2000    0.0000 H   0  0  0  0  0  0  0  0  0  0  0  0
    4.1570   -0.8000    0.0000 N   0  0  0  0  0  0  0  0  0  0  0  0
    0.0000   -0.0000    0.0000 C   0  0  0  0  0  0  0  0  0  0  0  0
    0.0000   -1.6000    0.0000 C   0  0  0  0  0  0  0  0  0  0  0  0
    1.3856   -2.4000    0.0000 H   0  0  0  0  0  0  0  0  0  0  0  0
   -1.3856   -2.4000    0.0000 C   0  0  0  0  0  0  0  0  0  0  0  0
   -1.3856   -4.0001    0.0000 H   0  0  0  0  0  0  0  0  0  0  0  0
   -2.7714   -1.6000    0.0000 C   0  0  0  0  0  0  0  0  0  0  0  0
   -4.1570   -2.4000    0.0000 N   0  0  0  0  0  0  0  0  0  0  0  0
   -4.1570   -4.0001    0.0000 H   0  0  0  0  0  0  0  0  0  0  0  0
   -5.5426   -1.6000    0.0000 H   0  0  0  0  0  0  0  0  0  0  0  0
   -2.7714   -0.0000    0.0000 C   0  0  0  0  0  0  0  0  0  0  0  0
   -4.1570    0.8000    0.0000 H   0  0  0  0  0  0  0  0  0  0  0  0
   -1.3856    0.8000    0.0000 C   0  0  0  0  0  0  0  0  0  0  0  0
   -1.3856    2.4000    0.0000 H   0  0  0  0  0  0  0  0  0  0  0  0
  1  2  2  0  0  0  0
  1  3  2  0  0  0  0
  1  4  1  0  0  0  0
  4  5  1  0  0  0  0
  4  6  1  0  0  0  0
  6  7  1  0  0  0  0
  7  8  2  0  0  0  0
  8  9  1  0  0  0  0
  9 10  1  0  0  0  0
  9 11  1  0  0  0  0
  9 12  1  0  0  0  0
 12 13  1  0  0  0  0
 12 14  1  0  0  0  0
 12 15  1  0  0  0  0
  8 16  1  0  0  0  0
 16 17  2  0  0  0  0
 17 18  1  0  0  0  0
 18 19  1  0  0  0  0
 18 20  1  0  0  0  0
 18 21  1  0  0  0  0
 21 22  1  0  0  0  0
 21 23  1  0  0  0  0
 21 24  1  0  0  0  0
 17 25  1  0  0  0  0
 25  6  2  0  0  0  0
  1 26  1  0  0  0  0
 26 27  1  0  0  0  0
 27 28  1  0  0  0  0
 27 29  2  0  0  0  0
 29 30  1  0  0  0  0
 29 31  1  0  0  0  0
 31 32  1  0  0  0  0
 32 33  1  0  0  0  0
 32 34  1  0  0  0  0
 31 35  2  0  0  0  0
 35 36  1  0  0  0  0
 35 37  1  0  0  0  0
 37 26  2  0  0  0  0
 37 38  1  0  0  0  0
M  END
> <ChemID>
101005

> <source_casrn>
1984-94-7

> <CAS>
1984-94-7

> <SMILES>
O=S(=O)(c1ccc(cc1)N)Nc2nc(nc(n2)CC)CC

> <NAME>
Sulfasimazine

> <preferred_name>
Sulfasymazine

> <iupac>
4-amino-N-(4,6-diethyl-1,3,5-triazin-2-yl)benzenesulfonamide

> <MPID>
100997

> <dsstox_substance_id>
DTXSID80173584

> <Canonical_QSARr>
CCc1[n]c(NS(=O)(=O)c2ccc(N)cc2)[n]c(CC)[n]1

> <InChI_Code_QSARr>
InChI=1S/C13H17N5O2S/c1-3-11-15-12(4-2)17-13(16-11)18-21(19,20)10-7-5-9(14)6-8-10/h5-8H,3-4,14H2,1-2H3,(H,15,16,17,18)

> <InChI Key_QSARr>
ZQMQGBHQZZQTJE-UHFFFAOYSA-N

> <Salt_Solvent>
?

> <Ready_Biodeg>
0.0

$$$$
101006
  -INDIGO-08031722522D

 29 30  0  0  0  0  0  0  0  0999 V2000
    4.8000    0.0000    0.0000 C   0  0  0  0  0  0  0  0  0  0  0  0
    6.3999    0.0000    0.0000 O   0  0  0  0  0  0  0  0  0  0  0  0
    7.2000   -1.3857    0.0000 H   0  0  0  0  0  0  0  0  0  0  0  0
    4.0001    1.3857    0.0000 C   0  0  0  0  0  0  0  0  0  0  0  0
    4.8000    2.7713    0.0000 H   0  0  0  0  0  0  0  0  0  0  0  0
    2.3999    1.3857    0.0000 C   0  0  0  0  0  0  0  0  0  0  0  0
    1.6000    2.7713    0.0000 H   0  0  0  0  0  0  0  0  0  0  0  0
    1.6000    0.0000    0.0000 C   0  0  0  0  0  0  0  0  0  0  0  0
    0.0001    0.0000    0.0000 C   0  0  0  0  0  0  0  0  0  0  0  0
    0.0001   -1.6000    0.0000 H   0  0  0  0  0  0  0  0  0  0  0  0
    0.0001    1.6001    0.0000 C   0  0  0  0  0  0  0  0  0  0  0  0
    0.0001    3.2000    0.0000 H   0  0  0  0  0  0  0  0  0  0  0  0
   -1.3855    2.4000    0.0000 H   0  0  0  0  0  0  0  0  0  0  0  0
   -1.3855    0.8000    0.0000 H   0  0  0  0  0  0  0  0  0  0  0  0
   -1.5035   -0.5472    0.0000 C   0  0  0  0  0  0  0  0  0  0  0  0
   -2.7292    0.4813    0.0000 C   0  0  0  0  0  0  0  0  0  0  0  0
   -2.4514    2.0569    0.0000 H   0  0  0  0  0  0  0  0  0  0  0  0
   -4.2326   -0.0660    0.0000 C   0  0  0  0  0  0  0  0  0  0  0  0
   -5.4583    0.9624    0.0000 H   0  0  0  0  0  0  0  0  0  0  0  0
   -4.5105   -1.6416    0.0000 C   0  0  0  0  0  0  0  0  0  0  0  0
   -6.0140   -2.1889    0.0000 H   0  0  0  0  0  0  0  0  0  0  0  0
   -3.2849   -2.6701    0.0000 C   0  0  0  0  0  0  0  0  0  0  0  0
   -3.5628   -4.2459    0.0000 H   0  0  0  0  0  0  0  0  0  0  0  0
   -1.7813   -2.1229    0.0000 C   0  0  0  0  0  0  0  0  0  0  0  0
   -0.5556   -3.1514    0.0000 H   0  0  0  0  0  0  0  0  0  0  0  0
    2.3999   -1.3857    0.0000 C   0  0  0  0  0  0  0  0  0  0  0  0
    1.6000   -2.7713    0.0000 H   0  0  0  0  0  0  0  0  0  0  0  0
    4.0001   -1.3857    0.0000 C   0  0  0  0  0  0  0  0  0  0  0  0
    4.8000   -2.7713    0.0000 H   0  0  0  0  0  0  0  0  0  0  0  0
  1  2  1  0  0  0  0
  2  3  1  0  0  0  0
  1  4  1  0  0  0  0
  4  5  1  0  0  0  0
  4  6  2  0  0  0  0
  6  7  1  0  0  0  0
  6  8  1  0  0  0  0
  8  9  1  0  0  0  0
  9 10  1  0  0  0  0
  9 11  1  0  0  0  0
 11 12  1  0  0  0  0
 11 13  1  0  0  0  0
 11 14  1  0  0  0  0
  9 15  1  0  0  0  0
 15 16  1  0  0  0  0
 16 17  1  0  0  0  0
 16 18  2  0  0  0  0
 18 19  1  0  0  0  0
 18 20  1  0  0  0  0
 20 21  1  0  0  0  0
 20 22  2  0  0  0  0
 22 23  1  0  0  0  0
 22 24  1  0  0  0  0
 24 15  2  0  0  0  0
 24 25  1  0  0  0  0
  8 26  2  0  0  0  0
 26 27  1  0  0  0  0
 26 28  1  0  0  0  0
 28  1  2  0  0  0  0
 28 29  1  0  0  0  0
M  END
> <ChemID>
101006

> <source_casrn>
1988-89-2

> <CAS>
NOCAS_862809

> <SMILES>
Oc(ccc(c1)C(c(cccc2)c2)C)c1

> <NAME>
Phenol, 4-(1-phenylethyl)-

> <preferred_name>


> <iupac>


> <MPID>
100998

> <dsstox_substance_id>
DTXSID20862809

> <Canonical_QSARr>
CC(c1ccccc1)c1ccc(O)cc1

> <InChI_Code_QSARr>
InChI=1S/C14H14O/c1-11(12-5-3-2-4-6-12)13-7-9-14(15)10-8-13/h2-11,15H,1H3

> <InChI Key_QSARr>
XHASMJXNUHCHBL-UHFFFAOYSA-N

> <Salt_Solvent>
?

> <Ready_Biodeg>
0.0

$$$$
101007
  -INDIGO-08031722522D

 16 16  0  0  0  0  0  0  0  0999 V2000
   -0.8000    1.3856    0.0000 C   0  0  0  0  0  0  0  0  0  0  0  0
   -0.0000    2.7713    0.0000 Cl  0  0  0  0  0  0  0  0  0  0  0  0
   -2.4000    1.3856    0.0000 C   0  0  0  0  0  0  0  0  0  0  0  0
   -3.2001    2.7713    0.0000 H   0  0  0  0  0  0  0  0  0  0  0  0
   -3.2001    0.0000    0.0000 C   0  0  0  0  0  0  0  0  0  0  0  0
   -4.8000    0.0000    0.0000 H   0  0  0  0  0  0  0  0  0  0  0  0
   -2.4000   -1.3856    0.0000 C   0  0  0  0  0  0  0  0  0  0  0  0
   -3.2001   -2.7713    0.0000 H   0  0  0  0  0  0  0  0  0  0  0  0
   -0.8000   -1.3856    0.0000 C   0  0  0  0  0  0  0  0  0  0  0  0
   -0.0000   -2.7713    0.0000 Cl  0  0  0  0  0  0  0  0  0  0  0  0
   -0.0000   -0.0000    0.0000 C   0  0  0  0  0  0  0  0  0  0  0  0
    1.6000    0.0000    0.0000 C   0  0  0  0  0  0  0  0  0  0  0  0
    2.4001    1.3856    0.0000 O   0  0  0  0  0  0  0  0  0  0  0  0
    2.4001   -1.3856    0.0000 N   0  0  0  0  0  0  0  0  0  0  0  0
    4.0000   -1.3856    0.0000 H   0  0  0  0  0  0  0  0  0  0  0  0
    1.6000   -2.7713    0.0000 H   0  0  0  0  0  0  0  0  0  0  0  0
  1  2  1  0  0  0  0
  1  3  1  0  0  0  0
  3  4  1  0  0  0  0
  3  5  2  0  0  0  0
  5  6  1  0  0  0  0
  5  7  1  0  0  0  0
  7  8  1  0  0  0  0
  7  9  2  0  0  0  0
  9 10  1  0  0  0  0
  9 11  1  0  0  0  0
 11  1  2  0  0  0  0
 11 12  1  0  0  0  0
 12 13  2  0  0  0  0
 12 14  1  0  0  0  0
 14 15  1  0  0  0  0
 14 16  1  0  0  0  0
M  END
> <ChemID>
101007

> <source_casrn>
2008-58-4

> <CAS>
2008-58-4

> <SMILES>
NC(=O)c1c(Cl)cccc1Cl

> <NAME>
2,6-DICHLOROBENZAMIDE

> <preferred_name>
2,6-Dichlorobenzamide

> <iupac>
2,6-dichlorobenzamide

> <MPID>
100999

> <dsstox_substance_id>
DTXSID7022170

> <Canonical_QSARr>
NC(=O)c1c(Cl)cccc1Cl

> <InChI_Code_QSARr>
InChI=1S/C7H5Cl2NO/c8-4-2-1-3-5(9)6(4)7(10)11/h1-3H,(H2,10,11)

> <InChI Key_QSARr>
JHSPCUHPSIUQRB-UHFFFAOYSA-N

> <Salt_Solvent>
?

> <Ready_Biodeg>
0.0

$$$$
101009
  -INDIGO-08031722522D

 31 31  0  0  0  0  0  0  0  0999 V2000
    8.3139    1.5999    0.0000 C   0  0  0  0  0  0  0  0  0  0  0  0
    9.6995    0.8000    0.0000 H   0  0  0  0  0  0  0  0  0  0  0  0
    9.6995    2.4000    0.0000 H   0  0  0  0  0  0  0  0  0  0  0  0
    8.3139   -0.0001    0.0000 H   0  0  0  0  0  0  0  0  0  0  0  0
    6.9282    2.4000    0.0000 N   0  0  0  0  0  0  0  0  0  0  0  0
    6.9282    4.0000    0.0000 H   0  0  0  0  0  0  0  0  0  0  0  0
    5.5427    1.5999    0.0000 C   0  0  0  0  0  0  0  0  0  0  0  0
    5.5427   -0.0001    0.0000 O   0  0  0  0  0  0  0  0  0  0  0  0
    4.1569    2.4000    0.0000 O   0  0  0  0  0  0  0  0  0  0  0  0
    2.7712    1.5999    0.0000 C   0  0  0  0  0  0  0  0  0  0  0  0
    1.3856    2.4000    0.0000 C   0  0  0  0  0  0  0  0  0  0  0  0
    1.3856    4.0000    0.0000 H   0  0  0  0  0  0  0  0  0  0  0  0
   -0.0001    1.6001    0.0000 C   0  0  0  0  0  0  0  0  0  0  0  0
   -1.3856    2.4000    0.0000 C   0  0  0  0  0  0  0  0  0  0  0  0
   -2.7714    3.1999    0.0000 H   0  0  0  0  0  0  0  0  0  0  0  0
   -1.3856    4.0000    0.0000 H   0  0  0  0  0  0  0  0  0  0  0  0
   -2.7714    1.6001    0.0000 H   0  0  0  0  0  0  0  0  0  0  0  0
   -0.0001   -0.0001    0.0000 C   0  0  0  0  0  0  0  0  0  0  0  0
   -1.3856   -0.8000    0.0000 N   0  0  0  0  0  0  0  0  0  0  0  0
   -1.3856   -2.4000    0.0000 C   0  0  0  0  0  0  0  0  0  0  0  0
   -1.3856   -4.0000    0.0000 H   0  0  0  0  0  0  0  0  0  0  0  0
   -2.7714   -3.2001    0.0000 H   0  0  0  0  0  0  0  0  0  0  0  0
    0.0001   -3.2001    0.0000 H   0  0  0  0  0  0  0  0  0  0  0  0
   -2.7714   -0.0001    0.0000 C   0  0  0  0  0  0  0  0  0  0  0  0
   -4.1569   -0.8000    0.0000 H   0  0  0  0  0  0  0  0  0  0  0  0
   -4.1569    0.8000    0.0000 H   0  0  0  0  0  0  0  0  0  0  0  0
   -2.7712   -1.6001    0.0000 H   0  0  0  0  0  0  0  0  0  0  0  0
    1.3856   -0.8000    0.0000 C   0  0  0  0  0  0  0  0  0  0  0  0
    1.3856   -2.4000    0.0000 H   0  0  0  0  0  0  0  0  0  0  0  0
    2.7712   -0.0001    0.0000 C   0  0  0  0  0  0  0  0  0  0  0  0
    4.1569   -0.8000    0.0000 H   0  0  0  0  0  0  0  0  0  0  0  0
  1  2  1  0  0  0  0
  1  3  1  0  0  0  0
  1  4  1  0  0  0  0
  1  5  1  0  0  0  0
  5  6  1  0  0  0  0
  5  7  1  0  0  0  0
  7  8  2  0  0  0  0
  7  9  1  0  0  0  0
  9 10  1  0  0  0  0
 10 11  1  0  0  0  0
 11 12  1  0  0  0  0
 11 13  2  0  0  0  0
 13 14  1  0  0  0  0
 14 15  1  0  0  0  0
 14 16  1  0  0  0  0
 14 17  1  0  0  0  0
 13 18  1  0  0  0  0
 18 19  1  0  0  0  0
 19 20  1  0  0  0  0
 20 21  1  0  0  0  0
 20 22  1  0  0  0  0
 20 23  1  0  0  0  0
 19 24  1  0  0  0  0
 24 25  1  0  0  0  0
 24 26  1  0  0  0  0
 24 27  1  0  0  0  0
 18 28  2  0  0  0  0
 28 29  1  0  0  0  0
 28 30  1  0  0  0  0
 30 10  2  0  0  0  0
 30 31  1  0  0  0  0
M  END
> <ChemID>
101009

> <source_casrn>
2032-59-9

> <CAS>
2032-59-9

> <SMILES>
Cc1cc(ccc1N(C)C)OC(=O)NC

> <NAME>
AMINOCARB

> <preferred_name>
Aminocarb

> <iupac>
4-(dimethylamino)-3-methylphenyl methylcarbamate

> <MPID>
101001

> <dsstox_substance_id>
DTXSID7022172

> <Canonical_QSARr>
Cc1cc(ccc1N(C)C)OC(=O)NC

> <InChI_Code_QSARr>
InChI=1S/C11H16N2O2/c1-8-7-9(15-11(14)12-2)5-6-10(8)13(3)4/h5-7H,1-4H3,(H,12,14)

> <InChI Key_QSARr>
IMIDOCRTMDIQIJ-UHFFFAOYSA-N

> <Salt_Solvent>
?

> <Ready_Biodeg>
1.0

$$$$
101010
  -INDIGO-08031722522D

 16 16  0  0  0  0  0  0  0  0999 V2000
    0.0001   -0.0000    0.0000 C   0  0  0  0  0  0  0  0  0  0  0  0
    0.0001   -1.6000    0.0000 C   0  0  0  0  0  0  0  0  0  0  0  0
    1.3856   -2.4000    0.0000 H   0  0  0  0  0  0  0  0  0  0  0  0
   -1.3856   -2.4000    0.0000 C   0  0  0  0  0  0  0  0  0  0  0  0
   -1.3856   -4.0000    0.0000 Cl  0  0  0  0  0  0  0  0  0  0  0  0
   -2.7712   -1.6000    0.0000 C   0  0  0  0  0  0  0  0  0  0  0  0
   -4.1569   -2.4000    0.0000 H   0  0  0  0  0  0  0  0  0  0  0  0
   -2.7712   -0.0000    0.0000 C   0  0  0  0  0  0  0  0  0  0  0  0
   -4.1569    0.8000    0.0000 H   0  0  0  0  0  0  0  0  0  0  0  0
   -1.3856    0.8000    0.0000 C   0  0  0  0  0  0  0  0  0  0  0  0
   -1.3856    2.4000    0.0000 H   0  0  0  0  0  0  0  0  0  0  0  0
    1.3856    0.8000    0.0000 C   0  0  0  0  0  0  0  0  0  0  0  0
    1.3856    2.4000    0.0000 H   0  0  0  0  0  0  0  0  0  0  0  0
    2.7713   -0.0000    0.0000 C   0  0  0  0  0  0  0  0  0  0  0  0
    4.1569    0.8000    0.0000 H   0  0  0  0  0  0  0  0  0  0  0  0
    2.7713   -1.6000    0.0000 H   0  0  0  0  0  0  0  0  0  0  0  0
  1  2  1  0  0  0  0
  2  3  1  0  0  0  0
  2  4  2  0  0  0  0
  4  5  1  0  0  0  0
  4  6  1  0  0  0  0
  6  7  1  0  0  0  0
  6  8  2  0  0  0  0
  8  9  1  0  0  0  0
  8 10  1  0  0  0  0
 10  1  2  0  0  0  0
 10 11  1  0  0  0  0
  1 12  1  0  0  0  0
 12 13  1  0  0  0  0
 12 14  2  0  0  0  0
 14 15  1  0  0  0  0
 14 16  1  0  0  0  0
M  END
> <ChemID>
101010

> <source_casrn>
2039-85-2

> <CAS>
2039-85-2

> <SMILES>
C=Cc1cccc(Cl)c1

> <NAME>
Benzene, 1-chloro-3-ethenyl-

> <preferred_name>
m-Chlorostyrene

> <iupac>
1-chloro-3-ethenylbenzene

> <MPID>
101002

> <dsstox_substance_id>
DTXSID8073130

> <Canonical_QSARr>
C=Cc1cccc(Cl)c1

> <InChI_Code_QSARr>
InChI=1S/C8H7Cl/c1-2-7-4-3-5-8(9)6-7/h2-6H,1H2

> <InChI Key_QSARr>
BOVQCIDBZXNFEJ-UHFFFAOYSA-N

> <Salt_Solvent>
?

> <Ready_Biodeg>
0.0

$$$$
101011
  -INDIGO-08031722522D

 16 16  0  0  0  0  0  0  0  0999 V2000
   -1.3856    0.8000    0.0000 C   0  0  0  0  0  0  0  0  0  0  0  0
   -1.3856    2.4000    0.0000 H   0  0  0  0  0  0  0  0  0  0  0  0
   -2.7713   -0.0000    0.0000 C   0  0  0  0  0  0  0  0  0  0  0  0
   -4.1569    0.8000    0.0000 H   0  0  0  0  0  0  0  0  0  0  0  0
   -2.7712   -1.6000    0.0000 H   0  0  0  0  0  0  0  0  0  0  0  0
   -0.0001   -0.0000    0.0000 C   0  0  0  0  0  0  0  0  0  0  0  0
   -0.0001   -1.6000    0.0000 C   0  0  0  0  0  0  0  0  0  0  0  0
   -1.3856   -2.4000    0.0000 H   0  0  0  0  0  0  0  0  0  0  0  0
    1.3856   -2.4000    0.0000 C   0  0  0  0  0  0  0  0  0  0  0  0
    1.3856   -4.0000    0.0000 H   0  0  0  0  0  0  0  0  0  0  0  0
    2.7713   -1.6000    0.0000 C   0  0  0  0  0  0  0  0  0  0  0  0
    4.1569   -2.4000    0.0000 H   0  0  0  0  0  0  0  0  0  0  0  0
    2.7712   -0.0000    0.0000 C   0  0  0  0  0  0  0  0  0  0  0  0
    4.1569    0.8000    0.0000 H   0  0  0  0  0  0  0  0  0  0  0  0
    1.3856    0.8000    0.0000 C   0  0  0  0  0  0  0  0  0  0  0  0
    1.3856    2.4000    0.0000 Cl  0  0  0  0  0  0  0  0  0  0  0  0
  1  2  1  0  0  0  0
  1  3  2  0  0  0  0
  3  4  1  0  0  0  0
  3  5  1  0  0  0  0
  1  6  1  0  0  0  0
  6  7  1  0  0  0  0
  7  8  1  0  0  0  0
  7  9  2  0  0  0  0
  9 10  1  0  0  0  0
  9 11  1  0  0  0  0
 11 12  1  0  0  0  0
 11 13  2  0  0  0  0
 13 14  1  0  0  0  0
 13 15  1  0  0  0  0
 15  6  2  0  0  0  0
 15 16  1  0  0  0  0
M  END
> <ChemID>
101011

> <source_casrn>
2039-87-4

> <CAS>
2039-87-4

> <SMILES>
Clc1ccccc1C=C

> <NAME>
2-CHLOR-STYROL

> <preferred_name>
2-Chlorostyrene

> <iupac>
1-chloro-2-ethenylbenzene

> <MPID>
101003

> <dsstox_substance_id>
DTXSID3024811

> <Canonical_QSARr>
C=Cc1ccccc1Cl

> <InChI_Code_QSARr>
InChI=1S/C8H7Cl/c1-2-7-5-3-4-6-8(7)9/h2-6H,1H2

> <InChI Key_QSARr>
ISRGONDNXBCDBM-UHFFFAOYSA-N

> <Salt_Solvent>
?

> <Ready_Biodeg>
0.0

$$$$
101013
  -INDIGO-08031722522D

 19 20  0  0  0  0  0  0  0  0999 V2000
   -0.0000    0.0000    0.0000 C   0  0  0  0  0  0  0  0  0  0  0  0
    1.6000    0.0000    0.0000 C   0  0  0  0  0  0  0  0  0  0  0  0
    2.4001    1.3856    0.0000 O   0  0  0  0  0  0  0  0  0  0  0  0
    4.0000    1.3856    0.0000 H   0  0  0  0  0  0  0  0  0  0  0  0
    2.4001   -1.3856    0.0000 C   0  0  0  0  0  0  0  0  0  0  0  0
    4.0000   -1.3856    0.0000 Cl  0  0  0  0  0  0  0  0  0  0  0  0
    1.6000   -2.7713    0.0000 C   0  0  0  0  0  0  0  0  0  0  0  0
    2.4001   -4.1569    0.0000 H   0  0  0  0  0  0  0  0  0  0  0  0
   -0.0000   -2.7713    0.0000 C   0  0  0  0  0  0  0  0  0  0  0  0
   -0.8000   -4.1569    0.0000 Cl  0  0  0  0  0  0  0  0  0  0  0  0
   -0.8000   -1.3856    0.0000 C   0  0  0  0  0  0  0  0  0  0  0  0
   -2.4000   -1.3856    0.0000 C   0  0  0  0  0  0  0  0  0  0  0  0
   -3.2001   -2.7713    0.0000 H   0  0  0  0  0  0  0  0  0  0  0  0
   -3.2001    0.0000    0.0000 C   0  0  0  0  0  0  0  0  0  0  0  0
   -4.8000    0.0000    0.0000 H   0  0  0  0  0  0  0  0  0  0  0  0
   -2.4000    1.3856    0.0000 C   0  0  0  0  0  0  0  0  0  0  0  0
   -3.2001    2.7713    0.0000 H   0  0  0  0  0  0  0  0  0  0  0  0
   -0.8000    1.3856    0.0000 C   0  0  0  0  0  0  0  0  0  0  0  0
   -0.0000    2.7713    0.0000 H   0  0  0  0  0  0  0  0  0  0  0  0
  1  2  1  0  0  0  0
  2  3  1  0  0  0  0
  3  4  1  0  0  0  0
  2  5  2  0  0  0  0
  5  6  1  0  0  0  0
  5  7  1  0  0  0  0
  7  8  1  0  0  0  0
  7  9  2  0  0  0  0
  9 10  1  0  0  0  0
  9 11  1  0  0  0  0
 11  1  1  0  0  0  0
 11 12  2  0  0  0  0
 12 13  1  0  0  0  0
 12 14  1  0  0  0  0
 14 15  1  0  0  0  0
 14 16  2  0  0  0  0
 16 17  1  0  0  0  0
 16 18  1  0  0  0  0
 18  1  2  0  0  0  0
 18 19  1  0  0  0  0
M  END
> <ChemID>
101013

> <source_casrn>
2050-76-2

> <CAS>
2050-76-2

> <SMILES>
Oc1c2ccccc2c(Cl)cc1Cl

> <NAME>
1-Naphthalenol, 2,4-dichloro-

> <preferred_name>
1-Naphthalenol, 2,4-dichloro-

> <iupac>
2,4-dichloronaphthalen-1-ol

> <MPID>
101005

> <dsstox_substance_id>
DTXSID4062141

> <Canonical_QSARr>
Oc1c2ccccc2c(Cl)cc1Cl

> <InChI_Code_QSARr>
InChI=1S/C10H6Cl2O/c11-8-5-9(12)10(13)7-4-2-1-3-6(7)8/h1-5,13H

> <InChI Key_QSARr>
HVLJEMXDXOTWLV-UHFFFAOYSA-N

> <Salt_Solvent>
?

> <Ready_Biodeg>
0.0

$$$$
101014
  -INDIGO-08031722522D

 34 33  0  0  0  0  0  0  0  0999 V2000
   -2.7712    0.0000    0.0000 N   0  0  0  0  0  0  0  0  0  0  0  0
   -2.7712   -1.6000    0.0000 H   0  0  0  0  0  0  0  0  0  0  0  0
   -4.1570    0.8000    0.0000 C   0  0  0  0  0  0  0  0  0  0  0  0
   -4.7692    2.2782    0.0000 H   0  0  0  0  0  0  0  0  0  0  0  0
   -3.5448    2.2782    0.0000 H   0  0  0  0  0  0  0  0  0  0  0  0
   -5.5426    0.0000    0.0000 C   0  0  0  0  0  0  0  0  0  0  0  0
   -4.9303   -1.4782    0.0000 H   0  0  0  0  0  0  0  0  0  0  0  0
   -6.1548   -1.4782    0.0000 H   0  0  0  0  0  0  0  0  0  0  0  0
   -6.9281    0.8000    0.0000 C   0  0  0  0  0  0  0  0  0  0  0  0
   -7.5404    2.2782    0.0000 H   0  0  0  0  0  0  0  0  0  0  0  0
   -6.3159    2.2782    0.0000 H   0  0  0  0  0  0  0  0  0  0  0  0
   -8.3137    0.0000    0.0000 C   0  0  0  0  0  0  0  0  0  0  0  0
   -7.7015   -1.4782    0.0000 H   0  0  0  0  0  0  0  0  0  0  0  0
   -8.9262   -1.4782    0.0000 H   0  0  0  0  0  0  0  0  0  0  0  0
   -9.6995    0.8000    0.0000 C   0  0  0  0  0  0  0  0  0  0  0  0
  -11.0851    1.6000    0.0000 H   0  0  0  0  0  0  0  0  0  0  0  0
  -11.0851    0.0000    0.0000 H   0  0  0  0  0  0  0  0  0  0  0  0
   -9.6995    2.4000    0.0000 H   0  0  0  0  0  0  0  0  0  0  0  0
   -1.3856    0.8000    0.0000 C   0  0  0  0  0  0  0  0  0  0  0  0
   -1.9978    2.2782    0.0000 H   0  0  0  0  0  0  0  0  0  0  0  0
   -0.7733    2.2782    0.0000 H   0  0  0  0  0  0  0  0  0  0  0  0
    0.0000    0.0000    0.0000 C   0  0  0  0  0  0  0  0  0  0  0  0
    0.6122   -1.4782    0.0000 H   0  0  0  0  0  0  0  0  0  0  0  0
   -0.6122   -1.4782    0.0000 H   0  0  0  0  0  0  0  0  0  0  0  0
    1.3856    0.8000    0.0000 C   0  0  0  0  0  0  0  0  0  0  0  0
    0.7733    2.2782    0.0000 H   0  0  0  0  0  0  0  0  0  0  0  0
    1.9978    2.2782    0.0000 H   0  0  0  0  0  0  0  0  0  0  0  0
    2.7714    0.0000    0.0000 C   0  0  0  0  0  0  0  0  0  0  0  0
    3.3836   -1.4782    0.0000 H   0  0  0  0  0  0  0  0  0  0  0  0
    2.1589   -1.4782    0.0000 H   0  0  0  0  0  0  0  0  0  0  0  0
    4.1570    0.8000    0.0000 C   0  0  0  0  0  0  0  0  0  0  0  0
    5.5426    1.6000    0.0000 H   0  0  0  0  0  0  0  0  0  0  0  0
    5.5426    0.0000    0.0000 H   0  0  0  0  0  0  0  0  0  0  0  0
    4.1570    2.4000    0.0000 H   0  0  0  0  0  0  0  0  0  0  0  0
  1  2  1  0  0  0  0
  1  3  1  0  0  0  0
  3  4  1  0  0  0  0
  3  5  1  0  0  0  0
  3  6  1  0  0  0  0
  6  7  1  0  0  0  0
  6  8  1  0  0  0  0
  6  9  1  0  0  0  0
  9 10  1  0  0  0  0
  9 11  1  0  0  0  0
  9 12  1  0  0  0  0
 12 13  1  0  0  0  0
 12 14  1  0  0  0  0
 12 15  1  0  0  0  0
 15 16  1  0  0  0  0
 15 17  1  0  0  0  0
 15 18  1  0  0  0  0
  1 19  1  0  0  0  0
 19 20  1  0  0  0  0
 19 21  1  0  0  0  0
 19 22  1  0  0  0  0
 22 23  1  0  0  0  0
 22 24  1  0  0  0  0
 22 25  1  0  0  0  0
 25 26  1  0  0  0  0
 25 27  1  0  0  0  0
 25 28  1  0  0  0  0
 28 29  1  0  0  0  0
 28 30  1  0  0  0  0
 28 31  1  0  0  0  0
 31 32  1  0  0  0  0
 31 33  1  0  0  0  0
 31 34  1  0  0  0  0
M  END
> <ChemID>
101014

> <source_casrn>
2050-92-2

> <CAS>
2050-92-2

> <SMILES>
CCCCCNCCCCC

> <NAME>
1-Pentanamine, N-pentyl-

> <preferred_name>
N-pentylpentan-1-amine

> <iupac>
N-pentylpentan-1-amine

> <MPID>
101006

> <dsstox_substance_id>
DTXSID4024931

> <Canonical_QSARr>
CCCCCNCCCCC

> <InChI_Code_QSARr>
InChI=1S/C10H23N/c1-3-5-7-9-11-10-8-6-4-2/h11H,3-10H2,1-2H3

> <InChI Key_QSARr>
JACMPVXHEARCBO-UHFFFAOYSA-N

> <Salt_Solvent>
?

> <Ready_Biodeg>
1.0

$$$$
101015
  -INDIGO-08031722522D

 22 23  0  0  0  0  0  0  0  0999 V2000
   -0.0001    0.0000    0.0000 C   0  0  0  0  0  0  0  0  0  0  0  0
    1.6001   -0.0000    0.0000 C   0  0  0  0  0  0  0  0  0  0  0  0
    2.4001   -1.3856    0.0000 C   0  0  0  0  0  0  0  0  0  0  0  0
    1.6001   -2.7713    0.0000 H   0  0  0  0  0  0  0  0  0  0  0  0
    4.0000   -1.3856    0.0000 C   0  0  0  0  0  0  0  0  0  0  0  0
    4.8000   -2.7713    0.0000 H   0  0  0  0  0  0  0  0  0  0  0  0
    4.8000    0.0000    0.0000 C   0  0  0  0  0  0  0  0  0  0  0  0
    6.4000    0.0000    0.0000 H   0  0  0  0  0  0  0  0  0  0  0  0
    4.0000    1.3856    0.0000 C   0  0  0  0  0  0  0  0  0  0  0  0
    4.8000    2.7713    0.0000 H   0  0  0  0  0  0  0  0  0  0  0  0
    2.4001    1.3856    0.0000 C   0  0  0  0  0  0  0  0  0  0  0  0
    1.6001    2.7713    0.0000 H   0  0  0  0  0  0  0  0  0  0  0  0
   -0.8001    1.3856    0.0000 C   0  0  0  0  0  0  0  0  0  0  0  0
   -0.0001    2.7713    0.0000 H   0  0  0  0  0  0  0  0  0  0  0  0
   -2.4000    1.3856    0.0000 C   0  0  0  0  0  0  0  0  0  0  0  0
   -3.2000    2.7713    0.0000 H   0  0  0  0  0  0  0  0  0  0  0  0
   -3.2000    0.0000    0.0000 C   0  0  0  0  0  0  0  0  0  0  0  0
   -4.8000   -0.0000    0.0000 Cl  0  0  0  0  0  0  0  0  0  0  0  0
   -2.4000   -1.3856    0.0000 C   0  0  0  0  0  0  0  0  0  0  0  0
   -3.2000   -2.7713    0.0000 H   0  0  0  0  0  0  0  0  0  0  0  0
   -0.8001   -1.3856    0.0000 C   0  0  0  0  0  0  0  0  0  0  0  0
   -0.0001   -2.7713    0.0000 H   0  0  0  0  0  0  0  0  0  0  0  0
  1  2  1  0  0  0  0
  2  3  1  0  0  0  0
  3  4  1  0  0  0  0
  3  5  2  0  0  0  0
  5  6  1  0  0  0  0
  5  7  1  0  0  0  0
  7  8  1  0  0  0  0
  7  9  2  0  0  0  0
  9 10  1  0  0  0  0
  9 11  1  0  0  0  0
 11  2  2  0  0  0  0
 11 12  1  0  0  0  0
  1 13  1  0  0  0  0
 13 14  1  0  0  0  0
 13 15  2  0  0  0  0
 15 16  1  0  0  0  0
 15 17  1  0  0  0  0
 17 18  1  0  0  0  0
 17 19  2  0  0  0  0
 19 20  1  0  0  0  0
 19 21  1  0  0  0  0
 21  1  2  0  0  0  0
 21 22  1  0  0  0  0
M  END
> <ChemID>
101015

> <source_casrn>
2051-62-9

> <CAS>
2051-62-9

> <SMILES>
Clc1ccc(cc1)-c1ccccc1

> <NAME>
4-CHLOROBIPHENYL

> <preferred_name>
4-Chlorobiphenyl

> <iupac>
4-chlorobiphenyl

> <MPID>
101007

> <dsstox_substance_id>
DTXSID3040300

> <Canonical_QSARr>
Clc1ccc(cc1)-c1ccccc1

> <InChI_Code_QSARr>
InChI=1S/C12H9Cl/c13-12-8-6-11(7-9-12)10-4-2-1-3-5-10/h1-9H

> <InChI Key_QSARr>
FPWNLURCHDRMHC-UHFFFAOYSA-N

> <Salt_Solvent>
?

> <Ready_Biodeg>
1.0

$$$$
101019
  -INDIGO-08031722522D

 14 14  0  0  0  0  0  0  0  0999 V2000
    0.8000    1.3856    0.0000 O   0  0  0  0  0  0  0  0  0  0  0  0
    2.4000    1.3856    0.0000 H   0  0  0  0  0  0  0  0  0  0  0  0
   -0.0000   -0.0000    0.0000 C   0  0  0  0  0  0  0  0  0  0  0  0
   -1.6000   -0.0000    0.0000 C   0  0  0  0  0  0  0  0  0  0  0  0
   -2.4000    1.3856    0.0000 O   0  0  0  0  0  0  0  0  0  0  0  0
   -4.0000    1.3856    0.0000 H   0  0  0  0  0  0  0  0  0  0  0  0
   -2.4000   -1.3856    0.0000 C   0  0  0  0  0  0  0  0  0  0  0  0
   -4.0000   -1.3856    0.0000 H   0  0  0  0  0  0  0  0  0  0  0  0
   -1.6000   -2.7713    0.0000 C   0  0  0  0  0  0  0  0  0  0  0  0
   -2.4000   -4.1569    0.0000 Cl  0  0  0  0  0  0  0  0  0  0  0  0
   -0.0000   -2.7713    0.0000 C   0  0  0  0  0  0  0  0  0  0  0  0
    0.8000   -4.1569    0.0000 H   0  0  0  0  0  0  0  0  0  0  0  0
    0.8000   -1.3856    0.0000 C   0  0  0  0  0  0  0  0  0  0  0  0
    2.4000   -1.3856    0.0000 H   0  0  0  0  0  0  0  0  0  0  0  0
  1  2  1  0  0  0  0
  1  3  1  0  0  0  0
  3  4  1  0  0  0  0
  4  5  1  0  0  0  0
  5  6  1  0  0  0  0
  4  7  2  0  0  0  0
  7  8  1  0  0  0  0
  7  9  1  0  0  0  0
  9 10  1  0  0  0  0
  9 11  2  0  0  0  0
 11 12  1  0  0  0  0
 11 13  1  0  0  0  0
 13  3  2  0  0  0  0
 13 14  1  0  0  0  0
M  END
> <ChemID>
101019

> <source_casrn>
2138-22-9

> <CAS>
2138-22-9

> <SMILES>
Oc1cc(Cl)ccc1O

> <NAME>
4-Chlorocatechol

> <preferred_name>
4-Chlorocatechol

> <iupac>
4-chlorobenzene-1,2-diol

> <MPID>
101009

> <dsstox_substance_id>
DTXSID7022176

> <Canonical_QSARr>
Oc1cc(Cl)ccc1O

> <InChI_Code_QSARr>
InChI=1S/C6H5ClO2/c7-4-1-2-5(8)6(9)3-4/h1-3,8-9H

> <InChI Key_QSARr>
WWOBYPKUYODHDG-UHFFFAOYSA-N

> <Salt_Solvent>
?

> <Ready_Biodeg>
0.0

$$$$
101020
  -INDIGO-08031722522D

 17 17  0  0  0  0  0  0  0  0999 V2000
    0.0001   -0.0000    0.0000 C   0  0  0  0  0  0  0  0  0  0  0  0
    1.3856    0.8000    0.0000 C   0  0  0  0  0  0  0  0  0  0  0  0
    1.3856    2.4000    0.0000 O   0  0  0  0  0  0  0  0  0  0  0  0
    2.7713   -0.0000    0.0000 C   0  0  0  0  0  0  0  0  0  0  0  0
    4.1569   -0.8000    0.0000 H   0  0  0  0  0  0  0  0  0  0  0  0
    4.1569    0.8000    0.0000 H   0  0  0  0  0  0  0  0  0  0  0  0
    2.7713   -1.6000    0.0000 H   0  0  0  0  0  0  0  0  0  0  0  0
    0.0001   -1.6000    0.0000 C   0  0  0  0  0  0  0  0  0  0  0  0
    1.3856   -2.4000    0.0000 Cl  0  0  0  0  0  0  0  0  0  0  0  0
   -1.3856   -2.4000    0.0000 C   0  0  0  0  0  0  0  0  0  0  0  0
   -1.3856   -4.0000    0.0000 H   0  0  0  0  0  0  0  0  0  0  0  0
   -2.7712   -1.6000    0.0000 C   0  0  0  0  0  0  0  0  0  0  0  0
   -4.1569   -2.4000    0.0000 H   0  0  0  0  0  0  0  0  0  0  0  0
   -2.7712   -0.0000    0.0000 C   0  0  0  0  0  0  0  0  0  0  0  0
   -4.1569    0.8000    0.0000 H   0  0  0  0  0  0  0  0  0  0  0  0
   -1.3856    0.8000    0.0000 C   0  0  0  0  0  0  0  0  0  0  0  0
   -1.3856    2.4000    0.0000 H   0  0  0  0  0  0  0  0  0  0  0  0
  1  2  1  0  0  0  0
  2  3  2  0  0  0  0
  2  4  1  0  0  0  0
  4  5  1  0  0  0  0
  4  6  1  0  0  0  0
  4  7  1  0  0  0  0
  1  8  1  0  0  0  0
  8  9  1  0  0  0  0
  8 10  2  0  0  0  0
 10 11  1  0  0  0  0
 10 12  1  0  0  0  0
 12 13  1  0  0  0  0
 12 14  2  0  0  0  0
 14 15  1  0  0  0  0
 14 16  1  0  0  0  0
 16  1  2  0  0  0  0
 16 17  1  0  0  0  0
M  END
> <ChemID>
101020

> <source_casrn>
2142-68-9

> <CAS>
2142-68-9

> <SMILES>
CC(=O)c1ccccc1Cl

> <NAME>
Ethanone, 1-(2-chlorophenyl)-

> <preferred_name>
Ethanone, 1-(2-chlorophenyl)-

> <iupac>
1-(2-chlorophenyl)ethanone

> <MPID>
101010

> <dsstox_substance_id>
DTXSID1062201

> <Canonical_QSARr>
CC(=O)c1ccccc1Cl

> <InChI_Code_QSARr>
InChI=1S/C8H7ClO/c1-6(10)7-4-2-3-5-8(7)9/h2-5H,1H3

> <InChI Key_QSARr>
ZDOYHCIRUPHUHN-UHFFFAOYSA-N

> <Salt_Solvent>
?

> <Ready_Biodeg>
0.0

$$$$
101022
  -INDIGO-08031722522D

 31 32  0  0  0  0  0  0  0  0999 V2000
   -6.4000    2.7713    0.0000 C   0  0  0  0  0  0  0  0  0  0  0  0
   -7.2000    4.1569    0.0000 C   0  0  0  0  0  0  0  0  0  0  0  0
   -6.4000    5.5426    0.0000 H   0  0  0  0  0  0  0  0  0  0  0  0
   -8.8001    4.1569    0.0000 C   0  0  0  0  0  0  0  0  0  0  0  0
   -9.5999    5.5426    0.0000 H   0  0  0  0  0  0  0  0  0  0  0  0
   -9.5999    2.7713    0.0000 C   0  0  0  0  0  0  0  0  0  0  0  0
  -11.2000    2.7713    0.0000 H   0  0  0  0  0  0  0  0  0  0  0  0
   -8.8001    1.3856    0.0000 C   0  0  0  0  0  0  0  0  0  0  0  0
   -9.5999   -0.0000    0.0000 H   0  0  0  0  0  0  0  0  0  0  0  0
   -7.2000    1.3856    0.0000 C   0  0  0  0  0  0  0  0  0  0  0  0
   -6.4000   -0.0000    0.0000 C   0  0  0  0  0  0  0  0  0  0  0  0
   -7.2000   -1.3856    0.0000 H   0  0  0  0  0  0  0  0  0  0  0  0
   -4.7999   -0.0000    0.0000 C   0  0  0  0  0  0  0  0  0  0  0  0
   -3.9999   -1.3856    0.0000 H   0  0  0  0  0  0  0  0  0  0  0  0
   -3.9999    1.3856    0.0000 C   0  0  0  0  0  0  0  0  0  0  0  0
   -2.4000    1.3856    0.0000 O   0  0  0  0  0  0  0  0  0  0  0  0
   -1.6000   -0.0000    0.0000 C   0  0  0  0  0  0  0  0  0  0  0  0
   -1.8087   -1.5863    0.0000 H   0  0  0  0  0  0  0  0  0  0  0  0
   -2.8694   -0.9740    0.0000 H   0  0  0  0  0  0  0  0  0  0  0  0
    0.0001   -0.0000    0.0000 C   0  0  0  0  0  0  0  0  0  0  0  0
    0.0001   -1.6000    0.0000 H   0  0  0  0  0  0  0  0  0  0  0  0
    1.5999   -0.0000    0.0000 C   0  0  0  0  0  0  0  0  0  0  0  0
    3.2000   -0.0000    0.0000 H   0  0  0  0  0  0  0  0  0  0  0  0
    2.4000    1.3856    0.0000 H   0  0  0  0  0  0  0  0  0  0  0  0
    2.4000   -1.3856    0.0000 H   0  0  0  0  0  0  0  0  0  0  0  0
    0.0001    1.6000    0.0000 C   0  0  0  0  0  0  0  0  0  0  0  0
    0.0001    3.2000    0.0000 H   0  0  0  0  0  0  0  0  0  0  0  0
   -1.3855    2.4000    0.0000 H   0  0  0  0  0  0  0  0  0  0  0  0
    1.3857    2.4000    0.0000 H   0  0  0  0  0  0  0  0  0  0  0  0
   -4.7999    2.7713    0.0000 C   0  0  0  0  0  0  0  0  0  0  0  0
   -4.0001    4.1569    0.0000 H   0  0  0  0  0  0  0  0  0  0  0  0
  1  2  1  0  0  0  0
  2  3  1  0  0  0  0
  2  4  2  0  0  0  0
  4  5  1  0  0  0  0
  4  6  1  0  0  0  0
  6  7  1  0  0  0  0
  6  8  2  0  0  0  0
  8  9  1  0  0  0  0
  8 10  1  0  0  0  0
 10  1  1  0  0  0  0
 10 11  2  0  0  0  0
 11 12  1  0  0  0  0
 11 13  1  0  0  0  0
 13 14  1  0  0  0  0
 13 15  2  0  0  0  0
 15 16  1  0  0  0  0
 16 17  1  0  0  0  0
 17 18  1  0  0  0  0
 17 19  1  0  0  0  0
 17 20  1  0  0  0  0
 20 21  1  0  0  0  0
 20 22  1  0  0  0  0
 22 23  1  0  0  0  0
 22 24  1  0  0  0  0
 22 25  1  0  0  0  0
 20 26  1  0  0  0  0
 26 27  1  0  0  0  0
 26 28  1  0  0  0  0
 26 29  1  0  0  0  0
 15 30  1  0  0  0  0
 30  1  2  0  0  0  0
 30 31  1  0  0  0  0
M  END
> <ChemID>
101022

> <source_casrn>
2173-57-1

> <CAS>
2173-57-1

> <SMILES>
CC(C)COc1cc2ccccc2cc1

> <NAME>
Naphthalene, 2-(2-methylpropoxy)-

> <preferred_name>
Isobutyl 2-naphthyl ether

> <iupac>
2-isobutoxynaphthalene

> <MPID>
101011

> <dsstox_substance_id>
DTXSID1051484

> <Canonical_QSARr>
CC(C)COc1cc2ccccc2cc1

> <InChI_Code_QSARr>
InChI=1S/C14H16O/c1-11(2)10-15-14-8-7-12-5-3-4-6-13(12)9-14/h3-9,11H,10H2,1-2H3

> <InChI Key_QSARr>
XOHIHZHSDMWWMS-UHFFFAOYSA-N

> <Salt_Solvent>
?

> <Ready_Biodeg>
0.0

$$$$
101025
  -INDIGO-08031722522D

 27 26  0  0  0  0  0  0  0  0999 V2000
    5.5427   -0.0000    0.0000 C   0  0  0  0  0  0  0  0  0  0  0  0
    6.9282   -0.8000    0.0000 H   0  0  0  0  0  0  0  0  0  0  0  0
    6.9282    0.8000    0.0000 H   0  0  0  0  0  0  0  0  0  0  0  0
    5.5427   -1.6000    0.0000 H   0  0  0  0  0  0  0  0  0  0  0  0
    4.1569    0.8000    0.0000 C   0  0  0  0  0  0  0  0  0  0  0  0
    3.5446    2.2782    0.0000 H   0  0  0  0  0  0  0  0  0  0  0  0
    4.7692    2.2782    0.0000 H   0  0  0  0  0  0  0  0  0  0  0  0
    2.7714   -0.0000    0.0000 C   0  0  0  0  0  0  0  0  0  0  0  0
    3.3835   -1.4782    0.0000 H   0  0  0  0  0  0  0  0  0  0  0  0
    2.1591   -1.4782    0.0000 H   0  0  0  0  0  0  0  0  0  0  0  0
    1.3856    0.8000    0.0000 C   0  0  0  0  0  0  0  0  0  0  0  0
    0.7733    2.2782    0.0000 H   0  0  0  0  0  0  0  0  0  0  0  0
    1.9980    2.2782    0.0000 H   0  0  0  0  0  0  0  0  0  0  0  0
    0.0001   -0.0000    0.0000 C   0  0  0  0  0  0  0  0  0  0  0  0
    0.6122   -1.4782    0.0000 H   0  0  0  0  0  0  0  0  0  0  0  0
   -0.6122   -1.4782    0.0000 H   0  0  0  0  0  0  0  0  0  0  0  0
   -1.3856    0.8000    0.0000 C   0  0  0  0  0  0  0  0  0  0  0  0
   -1.9980    2.2782    0.0000 H   0  0  0  0  0  0  0  0  0  0  0  0
   -0.7733    2.2782    0.0000 H   0  0  0  0  0  0  0  0  0  0  0  0
   -2.7712   -0.0000    0.0000 C   0  0  0  0  0  0  0  0  0  0  0  0
   -2.1591   -1.4782    0.0000 H   0  0  0  0  0  0  0  0  0  0  0  0
   -3.3835   -1.4782    0.0000 H   0  0  0  0  0  0  0  0  0  0  0  0
   -4.1569    0.8000    0.0000 C   0  0  0  0  0  0  0  0  0  0  0  0
   -4.7692    2.2782    0.0000 H   0  0  0  0  0  0  0  0  0  0  0  0
   -3.5446    2.2782    0.0000 H   0  0  0  0  0  0  0  0  0  0  0  0
   -5.5425   -0.0000    0.0000 C   0  0  0  0  0  0  0  0  0  0  0  0
   -6.9282   -0.8000    0.0000 N   0  0  0  0  0  0  0  0  0  0  0  0
  1  2  1  0  0  0  0
  1  3  1  0  0  0  0
  1  4  1  0  0  0  0
  1  5  1  0  0  0  0
  5  6  1  0  0  0  0
  5  7  1  0  0  0  0
  5  8  1  0  0  0  0
  8  9  1  0  0  0  0
  8 10  1  0  0  0  0
  8 11  1  0  0  0  0
 11 12  1  0  0  0  0
 11 13  1  0  0  0  0
 11 14  1  0  0  0  0
 14 15  1  0  0  0  0
 14 16  1  0  0  0  0
 14 17  1  0  0  0  0
 17 18  1  0  0  0  0
 17 19  1  0  0  0  0
 17 20  1  0  0  0  0
 20 21  1  0  0  0  0
 20 22  1  0  0  0  0
 20 23  1  0  0  0  0
 23 24  1  0  0  0  0
 23 25  1  0  0  0  0
 23 26  1  0  0  0  0
 26 27  3  0  0  0  0
M  END
> <ChemID>
101025

> <source_casrn>
2243-27-8

> <CAS>
2243-27-8

> <SMILES>
CCCCCCCCC#N

> <NAME>
Nonanenitrile

> <preferred_name>
Octyl cyanide

> <iupac>
nonanenitrile

> <MPID>
101014

> <dsstox_substance_id>
DTXSID6022183

> <Canonical_QSARr>
CCCCCCCCC#N

> <InChI_Code_QSARr>
InChI=1S/C9H17N/c1-2-3-4-5-6-7-8-9-10/h2-8H2,1H3

> <InChI Key_QSARr>
PLZZPPHAMDJOSR-UHFFFAOYSA-N

> <Salt_Solvent>
?

> <Ready_Biodeg>
1.0

$$$$
101026
  -INDIGO-08031722522D

 22 23  0  0  0  0  0  0  0  0999 V2000
    3.2001    2.7713    0.0000 N   0  0  0  0  0  0  0  0  0  0  0  0
    4.8000    2.7713    0.0000 H   0  0  0  0  0  0  0  0  0  0  0  0
    2.4000    4.1569    0.0000 H   0  0  0  0  0  0  0  0  0  0  0  0
    2.4000    1.3856    0.0000 C   0  0  0  0  0  0  0  0  0  0  0  0
    0.8000    1.3856    0.0000 C   0  0  0  0  0  0  0  0  0  0  0  0
    0.0000    0.0000    0.0000 C   0  0  0  0  0  0  0  0  0  0  0  0
   -1.6000    0.0000    0.0000 C   0  0  0  0  0  0  0  0  0  0  0  0
   -2.4001    1.3856    0.0000 C   0  0  0  0  0  0  0  0  0  0  0  0
   -4.0000    1.3856    0.0000 H   0  0  0  0  0  0  0  0  0  0  0  0
   -1.6000    2.7713    0.0000 C   0  0  0  0  0  0  0  0  0  0  0  0
   -2.4001    4.1569    0.0000 H   0  0  0  0  0  0  0  0  0  0  0  0
    0.0000    2.7713    0.0000 C   0  0  0  0  0  0  0  0  0  0  0  0
    0.8000    4.1569    0.0000 H   0  0  0  0  0  0  0  0  0  0  0  0
   -2.4001   -1.3856    0.0000 N   0  0  0  0  0  0  0  0  0  0  0  0
   -4.0000   -1.3856    0.0000 H   0  0  0  0  0  0  0  0  0  0  0  0
   -1.6000   -2.7713    0.0000 H   0  0  0  0  0  0  0  0  0  0  0  0
    0.8000   -1.3856    0.0000 C   0  0  0  0  0  0  0  0  0  0  0  0
    0.0000   -2.7713    0.0000 H   0  0  0  0  0  0  0  0  0  0  0  0
    2.4000   -1.3856    0.0000 C   0  0  0  0  0  0  0  0  0  0  0  0
    3.2001   -2.7713    0.0000 H   0  0  0  0  0  0  0  0  0  0  0  0
    3.2001    0.0000    0.0000 C   0  0  0  0  0  0  0  0  0  0  0  0
    4.8000    0.0000    0.0000 H   0  0  0  0  0  0  0  0  0  0  0  0
  1  2  1  0  0  0  0
  1  3  1  0  0  0  0
  1  4  1  0  0  0  0
  4  5  1  0  0  0  0
  5  6  1  0  0  0  0
  6  7  2  0  0  0  0
  7  8  1  0  0  0  0
  8  9  1  0  0  0  0
  8 10  2  0  0  0  0
 10 11  1  0  0  0  0
 10 12  1  0  0  0  0
 12  5  2  0  0  0  0
 12 13  1  0  0  0  0
  7 14  1  0  0  0  0
 14 15  1  0  0  0  0
 14 16  1  0  0  0  0
  6 17  1  0  0  0  0
 17 18  1  0  0  0  0
 17 19  2  0  0  0  0
 19 20  1  0  0  0  0
 19 21  1  0  0  0  0
 21  4  2  0  0  0  0
 21 22  1  0  0  0  0
M  END
> <ChemID>
101026

> <source_casrn>
2243-62-1

> <CAS>
2243-62-1

> <SMILES>
Nc1cccc2c1cccc2N

> <NAME>
1,5-Diaminonaphthalene

> <preferred_name>
1,5-Naphthalenediamine

> <iupac>
naphthalene-1,5-diamine

> <MPID>
101015

> <dsstox_substance_id>
DTXSID3020916

> <Canonical_QSARr>
Nc1cccc2c1cccc2N

> <InChI_Code_QSARr>
InChI=1S/C10H10N2/c11-9-5-1-3-7-8(9)4-2-6-10(7)12/h1-6H,11-12H2

> <InChI Key_QSARr>
KQSABULTKYLFEV-UHFFFAOYSA-N

> <Salt_Solvent>
?

> <Ready_Biodeg>
0.0

$$$$
101027
  -INDIGO-08031722522D

 22 22  0  0  0  0  0  0  0  0999 V2000
   -0.0001    0.0000    0.0000 C   0  0  0  0  0  0  0  0  0  0  0  0
    0.2778    1.5757    0.0000 H   0  0  0  0  0  0  0  0  0  0  0  0
    1.6000    0.0000    0.0000 C   0  0  0  0  0  0  0  0  0  0  0  0
    1.3221    1.5757    0.0000 H   0  0  0  0  0  0  0  0  0  0  0  0
    2.8257    1.0285    0.0000 C   0  0  0  0  0  0  0  0  0  0  0  0
    4.3292    0.4813    0.0000 O   0  0  0  0  0  0  0  0  0  0  0  0
    2.5478    2.6041    0.0000 O   0  0  0  0  0  0  0  0  0  0  0  0
    3.7735    3.6326    0.0000 H   0  0  0  0  0  0  0  0  0  0  0  0
    2.4000   -1.3857    0.0000 C   0  0  0  0  0  0  0  0  0  0  0  0
    3.6257   -0.3572    0.0000 H   0  0  0  0  0  0  0  0  0  0  0  0
    3.6257   -2.4141    0.0000 H   0  0  0  0  0  0  0  0  0  0  0  0
    1.6000   -2.7712    0.0000 C   0  0  0  0  0  0  0  0  0  0  0  0
    2.4000   -4.1569    0.0000 H   0  0  0  0  0  0  0  0  0  0  0  0
   -0.0001   -2.7712    0.0000 C   0  0  0  0  0  0  0  0  0  0  0  0
   -0.8000   -4.1569    0.0000 H   0  0  0  0  0  0  0  0  0  0  0  0
   -0.8000   -1.3857    0.0000 C   0  0  0  0  0  0  0  0  0  0  0  0
   -2.0257   -2.4141    0.0000 H   0  0  0  0  0  0  0  0  0  0  0  0
   -2.0257   -0.3572    0.0000 H   0  0  0  0  0  0  0  0  0  0  0  0
   -1.3857    0.8000    0.0000 C   0  0  0  0  0  0  0  0  0  0  0  0
   -2.8891    0.2528    0.0000 O   0  0  0  0  0  0  0  0  0  0  0  0
   -1.3857    2.4000    0.0000 O   0  0  0  0  0  0  0  0  0  0  0  0
   -2.7713    3.2000    0.0000 H   0  0  0  0  0  0  0  0  0  0  0  0
  1  2  1  0  0  0  0
  1  3  1  0  0  0  0
  3  4  1  0  0  0  0
  3  5  1  0  0  0  0
  5  6  2  0  0  0  0
  5  7  1  0  0  0  0
  7  8  1  0  0  0  0
  3  9  1  0  0  0  0
  9 10  1  0  0  0  0
  9 11  1  0  0  0  0
  9 12  1  0  0  0  0
 12 13  1  0  0  0  0
 12 14  2  0  0  0  0
 14 15  1  0  0  0  0
 14 16  1  0  0  0  0
 16  1  1  0  0  0  0
 16 17  1  0  0  0  0
 16 18  1  0  0  0  0
  1 19  1  0  0  0  0
 19 20  2  0  0  0  0
 19 21  1  0  0  0  0
 21 22  1  0  0  0  0
M  END
> <ChemID>
101027

> <source_casrn>
2305-26-2

> <CAS>
NOCAS_861676

> <SMILES>
O=C(O)C(C(C(=O)O)CC=C1)C1

> <NAME>
4-Cyclohexene-1,2-dicarboxylic acid, cis-

> <preferred_name>


> <iupac>


> <MPID>
101016

> <dsstox_substance_id>
DTXSID80861676

> <Canonical_QSARr>
OC(=O)C1CC=CCC1C(O)=O

> <InChI_Code_QSARr>
InChI=1S/C8H10O4/c9-7(10)5-3-1-2-4-6(5)8(11)12/h1-2,5-6H,3-4H2,(H,9,10)(H,11,12)

> <InChI Key_QSARr>
ILUAAIDVFMVTAU-UHFFFAOYSA-N

> <Salt_Solvent>
?

> <Ready_Biodeg>
0.0

$$$$
101029
  -INDIGO-08031722522D

 27 27  0  0  0  0  0  0  0  0999 V2000
   -4.1569   -0.8000    0.0000 C   0  0  0  0  0  0  0  0  0  0  0  0
   -2.7712   -0.0000    0.0000 N   0  0  0  0  0  0  0  0  0  0  0  0
   -2.7714    1.6000    0.0000 H   0  0  0  0  0  0  0  0  0  0  0  0
   -1.3856   -0.8000    0.0000 C   0  0  0  0  0  0  0  0  0  0  0  0
    0.0001   -0.0000    0.0000 C   0  0  0  0  0  0  0  0  0  0  0  0
    0.6122    1.4782    0.0000 H   0  0  0  0  0  0  0  0  0  0  0  0
   -0.6122    1.4782    0.0000 H   0  0  0  0  0  0  0  0  0  0  0  0
    1.3856   -0.8000    0.0000 C   0  0  0  0  0  0  0  0  0  0  0  0
    2.7714   -0.0000    0.0000 C   0  0  0  0  0  0  0  0  0  0  0  0
    4.1569    0.8000    0.0000 H   0  0  0  0  0  0  0  0  0  0  0  0
    4.1569   -0.8000    0.0000 H   0  0  0  0  0  0  0  0  0  0  0  0
    2.7714    1.6000    0.0000 H   0  0  0  0  0  0  0  0  0  0  0  0
    1.3856   -2.4000    0.0000 O   0  0  0  0  0  0  0  0  0  0  0  0
   -1.3856   -2.4000    0.0000 O   0  0  0  0  0  0  0  0  0  0  0  0
   -4.1569   -2.4000    0.0000 C   0  0  0  0  0  0  0  0  0  0  0  0
   -2.7712   -3.2000    0.0000 H   0  0  0  0  0  0  0  0  0  0  0  0
   -5.5425   -3.2000    0.0000 C   0  0  0  0  0  0  0  0  0  0  0  0
   -5.5425   -4.8000    0.0000 H   0  0  0  0  0  0  0  0  0  0  0  0
   -6.9282   -2.4000    0.0000 C   0  0  0  0  0  0  0  0  0  0  0  0
   -8.3139   -3.2000    0.0000 C   0  0  0  0  0  0  0  0  0  0  0  0
   -9.6995   -4.0000    0.0000 H   0  0  0  0  0  0  0  0  0  0  0  0
   -9.6995   -2.4000    0.0000 H   0  0  0  0  0  0  0  0  0  0  0  0
   -8.3139   -4.8000    0.0000 H   0  0  0  0  0  0  0  0  0  0  0  0
   -6.9282   -0.8000    0.0000 C   0  0  0  0  0  0  0  0  0  0  0  0
   -8.3139   -0.0000    0.0000 H   0  0  0  0  0  0  0  0  0  0  0  0
   -5.5425   -0.0000    0.0000 C   0  0  0  0  0  0  0  0  0  0  0  0
   -5.5425    1.6000    0.0000 H   0  0  0  0  0  0  0  0  0  0  0  0
  1  2  1  0  0  0  0
  2  3  1  0  0  0  0
  2  4  1  0  0  0  0
  4  5  1  0  0  0  0
  5  6  1  0  0  0  0
  5  7  1  0  0  0  0
  5  8  1  0  0  0  0
  8  9  1  0  0  0  0
  9 10  1  0  0  0  0
  9 11  1  0  0  0  0
  9 12  1  0  0  0  0
  8 13  2  0  0  0  0
  4 14  2  0  0  0  0
  1 15  1  0  0  0  0
 15 16  1  0  0  0  0
 15 17  2  0  0  0  0
 17 18  1  0  0  0  0
 17 19  1  0  0  0  0
 19 20  1  0  0  0  0
 20 21  1  0  0  0  0
 20 22  1  0  0  0  0
 20 23  1  0  0  0  0
 19 24  2  0  0  0  0
 24 25  1  0  0  0  0
 24 26  1  0  0  0  0
 26  1  2  0  0  0  0
 26 27  1  0  0  0  0
M  END
> <ChemID>
101029

> <source_casrn>
2415-85-2

> <CAS>
2415-85-2

> <SMILES>
CC(=O)CC(=O)Nc1ccc(C)cc1

> <NAME>
Butanamide, N-(4-methylphenyl)-3-oxo-

> <preferred_name>
Butanamide, N-(4-methylphenyl)-3-oxo-

> <iupac>
N-(4-methylphenyl)-3-oxobutanamide

> <MPID>
101018

> <dsstox_substance_id>
DTXSID5062394

> <Canonical_QSARr>
CC(=O)CC(=O)Nc1ccc(C)cc1

> <InChI_Code_QSARr>
InChI=1S/C11H13NO2/c1-8-3-5-10(6-4-8)12-11(14)7-9(2)13/h3-6H,7H2,1-2H3,(H,12,14)

> <InChI Key_QSARr>
MJGLMEMIYDUEHA-UHFFFAOYSA-N

> <Salt_Solvent>
?

> <Ready_Biodeg>
1.0

$$$$
101030
  -INDIGO-08031722522D

 23 23  0  0  0  0  0  0  0  0999 V2000
    1.5036   -0.5473    0.0000 C   0  0  0  0  0  0  0  0  0  0  0  0
    2.3632   -1.8967    0.0000 H   0  0  0  0  0  0  0  0  0  0  0  0
    1.1572   -2.1093    0.0000 H   0  0  0  0  0  0  0  0  0  0  0  0
    2.7293    0.4812    0.0000 O   0  0  0  0  0  0  0  0  0  0  0  0
    4.2327   -0.0660    0.0000 C   0  0  0  0  0  0  0  0  0  0  0  0
    5.0923   -1.4155    0.0000 H   0  0  0  0  0  0  0  0  0  0  0  0
    3.8864   -1.6281    0.0000 H   0  0  0  0  0  0  0  0  0  0  0  0
    5.4584    0.9624    0.0000 C   0  0  0  0  0  0  0  0  0  0  0  0
    4.5986    2.3119    0.0000 H   0  0  0  0  0  0  0  0  0  0  0  0
    5.8047    2.5245    0.0000 H   0  0  0  0  0  0  0  0  0  0  0  0
    6.9619    0.4152    0.0000 C   0  0  0  0  0  0  0  0  0  0  0  0
    7.8215   -0.9342    0.0000 H   0  0  0  0  0  0  0  0  0  0  0  0
    6.6155   -1.1469    0.0000 H   0  0  0  0  0  0  0  0  0  0  0  0
    8.1876    1.4437    0.0000 C   0  0  0  0  0  0  0  0  0  0  0  0
    9.4132    2.4721    0.0000 H   0  0  0  0  0  0  0  0  0  0  0  0
    9.6910    0.8965    0.0000 H   0  0  0  0  0  0  0  0  0  0  0  0
    7.9097    3.0194    0.0000 H   0  0  0  0  0  0  0  0  0  0  0  0
   -0.0001    0.0000    0.0000 C   0  0  0  0  0  0  0  0  0  0  0  0
    0.2779    1.5757    0.0000 H   0  0  0  0  0  0  0  0  0  0  0  0
   -1.6000    0.0000    0.0000 C   0  0  0  0  0  0  0  0  0  0  0  0
   -1.8778    1.5757    0.0000 H   0  0  0  0  0  0  0  0  0  0  0  0
   -3.1035   -0.5473    0.0000 H   0  0  0  0  0  0  0  0  0  0  0  0
   -0.8000   -1.3856    0.0000 O   0  0  0  0  0  0  0  0  0  0  0  0
  1  2  1  0  0  0  0
  1  3  1  0  0  0  0
  1  4  1  0  0  0  0
  4  5  1  0  0  0  0
  5  6  1  0  0  0  0
  5  7  1  0  0  0  0
  5  8  1  0  0  0  0
  8  9  1  0  0  0  0
  8 10  1  0  0  0  0
  8 11  1  0  0  0  0
 11 12  1  0  0  0  0
 11 13  1  0  0  0  0
 11 14  1  0  0  0  0
 14 15  1  0  0  0  0
 14 16  1  0  0  0  0
 14 17  1  0  0  0  0
  1 18  1  0  0  0  0
 18 19  1  0  0  0  0
 18 20  1  0  0  0  0
 20 21  1  0  0  0  0
 20 22  1  0  0  0  0
 20 23  1  0  0  0  0
 23 18  1  0  0  0  0
M  END
> <ChemID>
101030

> <source_casrn>
2426-08-6

> <CAS>
2426-08-6

> <SMILES>
CCCCOCC1CO1

> <NAME>
Oxirane, (butoxymethyl)-

> <preferred_name>
Butyl glycidyl ether

> <iupac>
2-(butoxymethyl)oxirane

> <MPID>
101019

> <dsstox_substance_id>
DTXSID9024691

> <Canonical_QSARr>
CCCCOCC1CO1

> <InChI_Code_QSARr>
InChI=1S/C7H14O2/c1-2-3-4-8-5-7-6-9-7/h7H,2-6H2,1H3

> <InChI Key_QSARr>
YSUQLAYJZDEMOT-UHFFFAOYSA-N

> <Salt_Solvent>
?

> <Ready_Biodeg>
1.0

$$$$
101031
  -INDIGO-08031722522D

 80 79  0  0  0  0  0  0  0  0999 V2000
   -5.5427    0.0000    0.0000 C   0  0  0  0  0  0  0  0  0  0  0  0
   -5.5427    1.6000    0.0000 O   0  0  0  0  0  0  0  0  0  0  0  0
   -6.9285   -0.8000    0.0000 O   0  0  0  0  0  0  0  0  0  0  0  0
   -8.3136    0.0000    0.0000 C   0  0  0  0  0  0  0  0  0  0  0  0
   -8.9262    1.4782    0.0000 H   0  0  0  0  0  0  0  0  0  0  0  0
   -7.7017    1.4782    0.0000 H   0  0  0  0  0  0  0  0  0  0  0  0
   -9.6994   -0.8000    0.0000 C   0  0  0  0  0  0  0  0  0  0  0  0
   -9.0874   -2.2782    0.0000 H   0  0  0  0  0  0  0  0  0  0  0  0
  -10.3119   -2.2782    0.0000 H   0  0  0  0  0  0  0  0  0  0  0  0
  -11.0851    0.0000    0.0000 C   0  0  0  0  0  0  0  0  0  0  0  0
  -11.6977    1.4782    0.0000 H   0  0  0  0  0  0  0  0  0  0  0  0
  -10.4726    1.4782    0.0000 H   0  0  0  0  0  0  0  0  0  0  0  0
  -12.4709   -0.8000    0.0000 C   0  0  0  0  0  0  0  0  0  0  0  0
  -11.8583   -2.2782    0.0000 H   0  0  0  0  0  0  0  0  0  0  0  0
  -13.0828   -2.2782    0.0000 H   0  0  0  0  0  0  0  0  0  0  0  0
  -13.8566    0.0000    0.0000 C   0  0  0  0  0  0  0  0  0  0  0  0
  -14.4685    1.4782    0.0000 H   0  0  0  0  0  0  0  0  0  0  0  0
  -13.2440    1.4782    0.0000 H   0  0  0  0  0  0  0  0  0  0  0  0
  -15.2423   -0.8000    0.0000 C   0  0  0  0  0  0  0  0  0  0  0  0
  -14.6298   -2.2782    0.0000 H   0  0  0  0  0  0  0  0  0  0  0  0
  -15.8543   -2.2782    0.0000 H   0  0  0  0  0  0  0  0  0  0  0  0
  -16.6275    0.0000    0.0000 C   0  0  0  0  0  0  0  0  0  0  0  0
  -17.2400    1.4782    0.0000 H   0  0  0  0  0  0  0  0  0  0  0  0
  -16.0155    1.4782    0.0000 H   0  0  0  0  0  0  0  0  0  0  0  0
  -18.0132   -0.8000    0.0000 C   0  0  0  0  0  0  0  0  0  0  0  0
  -19.3990   -1.6000    0.0000 H   0  0  0  0  0  0  0  0  0  0  0  0
  -19.3990    0.0000    0.0000 H   0  0  0  0  0  0  0  0  0  0  0  0
  -18.0132   -2.4000    0.0000 H   0  0  0  0  0  0  0  0  0  0  0  0
   -4.1570   -0.8000    0.0000 C   0  0  0  0  0  0  0  0  0  0  0  0
   -3.5444   -2.2782    0.0000 H   0  0  0  0  0  0  0  0  0  0  0  0
   -4.7689   -2.2782    0.0000 H   0  0  0  0  0  0  0  0  0  0  0  0
   -2.7712    0.0000    0.0000 C   0  0  0  0  0  0  0  0  0  0  0  0
   -3.3838    1.4782    0.0000 H   0  0  0  0  0  0  0  0  0  0  0  0
   -2.1587    1.4782    0.0000 H   0  0  0  0  0  0  0  0  0  0  0  0
   -1.3855   -0.8000    0.0000 C   0  0  0  0  0  0  0  0  0  0  0  0
   -0.7736   -2.2782    0.0000 H   0  0  0  0  0  0  0  0  0  0  0  0
   -1.9980   -2.2782    0.0000 H   0  0  0  0  0  0  0  0  0  0  0  0
    0.0003    0.0000    0.0000 C   0  0  0  0  0  0  0  0  0  0  0  0
   -0.6123    1.4782    0.0000 H   0  0  0  0  0  0  0  0  0  0  0  0
    0.6122    1.4782    0.0000 H   0  0  0  0  0  0  0  0  0  0  0  0
    1.3854   -0.8000    0.0000 C   0  0  0  0  0  0  0  0  0  0  0  0
    1.9979   -2.2782    0.0000 H   0  0  0  0  0  0  0  0  0  0  0  0
    0.7735   -2.2782    0.0000 H   0  0  0  0  0  0  0  0  0  0  0  0
    2.7711    0.0000    0.0000 C   0  0  0  0  0  0  0  0  0  0  0  0
    2.1592    1.4782    0.0000 H   0  0  0  0  0  0  0  0  0  0  0  0
    3.3837    1.4782    0.0000 H   0  0  0  0  0  0  0  0  0  0  0  0
    4.1569   -0.8000    0.0000 C   0  0  0  0  0  0  0  0  0  0  0  0
    4.7694   -2.2782    0.0000 H   0  0  0  0  0  0  0  0  0  0  0  0
    3.5443   -2.2782    0.0000 H   0  0  0  0  0  0  0  0  0  0  0  0
    5.5426    0.0000    0.0000 C   0  0  0  0  0  0  0  0  0  0  0  0
    4.9301    1.4782    0.0000 H   0  0  0  0  0  0  0  0  0  0  0  0
    6.1546    1.4782    0.0000 H   0  0  0  0  0  0  0  0  0  0  0  0
    6.9284   -0.8000    0.0000 C   0  0  0  0  0  0  0  0  0  0  0  0
    6.9284   -2.4000    0.0000 O   0  0  0  0  0  0  0  0  0  0  0  0
    8.3141    0.0000    0.0000 O   0  0  0  0  0  0  0  0  0  0  0  0
    9.6993   -0.8000    0.0000 C   0  0  0  0  0  0  0  0  0  0  0  0
   10.3118   -2.2782    0.0000 H   0  0  0  0  0  0  0  0  0  0  0  0
    9.0873   -2.2782    0.0000 H   0  0  0  0  0  0  0  0  0  0  0  0
   11.0850    0.0000    0.0000 C   0  0  0  0  0  0  0  0  0  0  0  0
   10.4731    1.4782    0.0000 H   0  0  0  0  0  0  0  0  0  0  0  0
   11.6975    1.4782    0.0000 H   0  0  0  0  0  0  0  0  0  0  0  0
   12.4707   -0.8000    0.0000 C   0  0  0  0  0  0  0  0  0  0  0  0
   13.0833   -2.2782    0.0000 H   0  0  0  0  0  0  0  0  0  0  0  0
   11.8582   -2.2782    0.0000 H   0  0  0  0  0  0  0  0  0  0  0  0
   13.8565    0.0000    0.0000 C   0  0  0  0  0  0  0  0  0  0  0  0
   13.2439    1.4782    0.0000 H   0  0  0  0  0  0  0  0  0  0  0  0
   14.4684    1.4782    0.0000 H   0  0  0  0  0  0  0  0  0  0  0  0
   15.2422   -0.8000    0.0000 C   0  0  0  0  0  0  0  0  0  0  0  0
   15.8542   -2.2782    0.0000 H   0  0  0  0  0  0  0  0  0  0  0  0
   14.6297   -2.2782    0.0000 H   0  0  0  0  0  0  0  0  0  0  0  0
   16.6280    0.0000    0.0000 C   0  0  0  0  0  0  0  0  0  0  0  0
   16.0154    1.4782    0.0000 H   0  0  0  0  0  0  0  0  0  0  0  0
   17.2399    1.4782    0.0000 H   0  0  0  0  0  0  0  0  0  0  0  0
   18.0131   -0.8000    0.0000 C   0  0  0  0  0  0  0  0  0  0  0  0
   18.6257   -2.2782    0.0000 H   0  0  0  0  0  0  0  0  0  0  0  0
   17.4012   -2.2782    0.0000 H   0  0  0  0  0  0  0  0  0  0  0  0
   19.3989    0.0000    0.0000 C   0  0  0  0  0  0  0  0  0  0  0  0
   20.7846    0.8000    0.0000 H   0  0  0  0  0  0  0  0  0  0  0  0
   20.7846   -0.8000    0.0000 H   0  0  0  0  0  0  0  0  0  0  0  0
   19.3989    1.6000    0.0000 H   0  0  0  0  0  0  0  0  0  0  0  0
  1  2  2  0  0  0  0
  1  3  1  0  0  0  0
  3  4  1  0  0  0  0
  4  5  1  0  0  0  0
  4  6  1  0  0  0  0
  4  7  1  0  0  0  0
  7  8  1  0  0  0  0
  7  9  1  0  0  0  0
  7 10  1  0  0  0  0
 10 11  1  0  0  0  0
 10 12  1  0  0  0  0
 10 13  1  0  0  0  0
 13 14  1  0  0  0  0
 13 15  1  0  0  0  0
 13 16  1  0  0  0  0
 16 17  1  0  0  0  0
 16 18  1  0  0  0  0
 16 19  1  0  0  0  0
 19 20  1  0  0  0  0
 19 21  1  0  0  0  0
 19 22  1  0  0  0  0
 22 23  1  0  0  0  0
 22 24  1  0  0  0  0
 22 25  1  0  0  0  0
 25 26  1  0  0  0  0
 25 27  1  0  0  0  0
 25 28  1  0  0  0  0
  1 29  1  0  0  0  0
 29 30  1  0  0  0  0
 29 31  1  0  0  0  0
 29 32  1  0  0  0  0
 32 33  1  0  0  0  0
 32 34  1  0  0  0  0
 32 35  1  0  0  0  0
 35 36  1  0  0  0  0
 35 37  1  0  0  0  0
 35 38  1  0  0  0  0
 38 39  1  0  0  0  0
 38 40  1  0  0  0  0
 38 41  1  0  0  0  0
 41 42  1  0  0  0  0
 41 43  1  0  0  0  0
 41 44  1  0  0  0  0
 44 45  1  0  0  0  0
 44 46  1  0  0  0  0
 44 47  1  0  0  0  0
 47 48  1  0  0  0  0
 47 49  1  0  0  0  0
 47 50  1  0  0  0  0
 50 51  1  0  0  0  0
 50 52  1  0  0  0  0
 50 53  1  0  0  0  0
 53 54  2  0  0  0  0
 53 55  1  0  0  0  0
 55 56  1  0  0  0  0
 56 57  1  0  0  0  0
 56 58  1  0  0  0  0
 56 59  1  0  0  0  0
 59 60  1  0  0  0  0
 59 61  1  0  0  0  0
 59 62  1  0  0  0  0
 62 63  1  0  0  0  0
 62 64  1  0  0  0  0
 62 65  1  0  0  0  0
 65 66  1  0  0  0  0
 65 67  1  0  0  0  0
 65 68  1  0  0  0  0
 68 69  1  0  0  0  0
 68 70  1  0  0  0  0
 68 71  1  0  0  0  0
 71 72  1  0  0  0  0
 71 73  1  0  0  0  0
 71 74  1  0  0  0  0
 74 75  1  0  0  0  0
 74 76  1  0  0  0  0
 74 77  1  0  0  0  0
 77 78  1  0  0  0  0
 77 79  1  0  0  0  0
 77 80  1  0  0  0  0
M  END
> <ChemID>
101031

> <source_casrn>
2432-87-3

> <CAS>
2432-87-3

> <SMILES>
CCCCCCCCOC(=O)CCCCCCCCC(=O)OCCCCCCCC

> <NAME>
DIOCTYL SEBACATE

> <preferred_name>
Dioctyl succinate

> <iupac>
dioctyl decanedioate

> <MPID>
101020

> <dsstox_substance_id>
DTXSID0047537

> <Canonical_QSARr>
CCCCCCCCOC(=O)CCCCCCCCC(=O)OCCCCCCCC

> <InChI_Code_QSARr>
InChI=1S/C26H50O4/c1-3-5-7-9-15-19-23-29-25(27)21-17-13-11-12-14-18-22-26(28)30-24-20-16-10-8-6-4-2/h3-24H2,1-2H3

> <InChI Key_QSARr>
MIMDHDXOBDPUQW-UHFFFAOYSA-N

> <Salt_Solvent>
?

> <Ready_Biodeg>
1.0

$$$$
101033
  -INDIGO-08031722522D

 63 62  0  0  0  0  0  0  0  0999 V2000
    6.9284    0.8000    0.0000 O   0  0  0  0  0  0  0  0  0  0  0  0
    8.3137    0.0000    0.0000 C   0  0  0  0  0  0  0  0  0  0  0  0
    7.7015   -1.4782    0.0000 H   0  0  0  0  0  0  0  0  0  0  0  0
    8.9263   -1.4782    0.0000 H   0  0  0  0  0  0  0  0  0  0  0  0
    9.6994    0.8000    0.0000 C   0  0  0  0  0  0  0  0  0  0  0  0
   10.3120    2.2782    0.0000 H   0  0  0  0  0  0  0  0  0  0  0  0
    9.0872    2.2782    0.0000 H   0  0  0  0  0  0  0  0  0  0  0  0
   11.0851    0.0000    0.0000 C   0  0  0  0  0  0  0  0  0  0  0  0
   10.4729   -1.4782    0.0000 H   0  0  0  0  0  0  0  0  0  0  0  0
   11.6972   -1.4782    0.0000 H   0  0  0  0  0  0  0  0  0  0  0  0
   12.4708    0.8000    0.0000 C   0  0  0  0  0  0  0  0  0  0  0  0
   13.0829    2.2782    0.0000 H   0  0  0  0  0  0  0  0  0  0  0  0
   11.8586    2.2782    0.0000 H   0  0  0  0  0  0  0  0  0  0  0  0
   13.8565    0.0000    0.0000 C   0  0  0  0  0  0  0  0  0  0  0  0
   13.2443   -1.4782    0.0000 H   0  0  0  0  0  0  0  0  0  0  0  0
   14.4686   -1.4782    0.0000 H   0  0  0  0  0  0  0  0  0  0  0  0
   15.2422    0.8000    0.0000 C   0  0  0  0  0  0  0  0  0  0  0  0
   15.8543    2.2782    0.0000 H   0  0  0  0  0  0  0  0  0  0  0  0
   14.6296    2.2782    0.0000 H   0  0  0  0  0  0  0  0  0  0  0  0
   16.6279    0.0000    0.0000 C   0  0  0  0  0  0  0  0  0  0  0  0
   16.0153   -1.4782    0.0000 H   0  0  0  0  0  0  0  0  0  0  0  0
   17.2400   -1.4782    0.0000 H   0  0  0  0  0  0  0  0  0  0  0  0
   18.0131    0.8000    0.0000 C   0  0  0  0  0  0  0  0  0  0  0  0
   18.6257    2.2782    0.0000 H   0  0  0  0  0  0  0  0  0  0  0  0
   17.4010    2.2782    0.0000 H   0  0  0  0  0  0  0  0  0  0  0  0
   19.3988    0.0000    0.0000 C   0  0  0  0  0  0  0  0  0  0  0  0
   18.7867   -1.4782    0.0000 H   0  0  0  0  0  0  0  0  0  0  0  0
   20.0115   -1.4782    0.0000 H   0  0  0  0  0  0  0  0  0  0  0  0
   20.7845    0.8000    0.0000 C   0  0  0  0  0  0  0  0  0  0  0  0
   22.1702    1.6000    0.0000 H   0  0  0  0  0  0  0  0  0  0  0  0
   22.1702    0.0000    0.0000 H   0  0  0  0  0  0  0  0  0  0  0  0
   20.7845    2.4000    0.0000 H   0  0  0  0  0  0  0  0  0  0  0  0
    5.5427    0.0000    0.0000 C   0  0  0  0  0  0  0  0  0  0  0  0
    4.9301   -1.4782    0.0000 H   0  0  0  0  0  0  0  0  0  0  0  0
    6.1549   -1.4782    0.0000 H   0  0  0  0  0  0  0  0  0  0  0  0
    4.1570    0.8000    0.0000 C   0  0  0  0  0  0  0  0  0  0  0  0
    4.7692    2.2782    0.0000 H   0  0  0  0  0  0  0  0  0  0  0  0
    3.5444    2.2782    0.0000 H   0  0  0  0  0  0  0  0  0  0  0  0
    2.7713    0.0000    0.0000 C   0  0  0  0  0  0  0  0  0  0  0  0
    2.1592   -1.4782    0.0000 H   0  0  0  0  0  0  0  0  0  0  0  0
    3.3835   -1.4782    0.0000 H   0  0  0  0  0  0  0  0  0  0  0  0
    1.3856    0.8000    0.0000 C   0  0  0  0  0  0  0  0  0  0  0  0
    1.9978    2.2782    0.0000 H   0  0  0  0  0  0  0  0  0  0  0  0
    0.7735    2.2782    0.0000 H   0  0  0  0  0  0  0  0  0  0  0  0
   -0.0001    0.0000    0.0000 C   0  0  0  0  0  0  0  0  0  0  0  0
   -0.6122   -1.4782    0.0000 H   0  0  0  0  0  0  0  0  0  0  0  0
    0.6121   -1.4782    0.0000 H   0  0  0  0  0  0  0  0  0  0  0  0
   -1.3858    0.8000    0.0000 C   0  0  0  0  0  0  0  0  0  0  0  0
   -0.7732    2.2782    0.0000 H   0  0  0  0  0  0  0  0  0  0  0  0
   -1.9979    2.2782    0.0000 H   0  0  0  0  0  0  0  0  0  0  0  0
   -2.7715    0.0000    0.0000 C   0  0  0  0  0  0  0  0  0  0  0  0
   -3.3836   -1.4782    0.0000 H   0  0  0  0  0  0  0  0  0  0  0  0
   -2.1589   -1.4782    0.0000 H   0  0  0  0  0  0  0  0  0  0  0  0
   -4.1567    0.8000    0.0000 C   0  0  0  0  0  0  0  0  0  0  0  0
   -3.5446    2.2782    0.0000 H   0  0  0  0  0  0  0  0  0  0  0  0
   -4.7693    2.2782    0.0000 H   0  0  0  0  0  0  0  0  0  0  0  0
   -5.5424    0.0000    0.0000 C   0  0  0  0  0  0  0  0  0  0  0  0
   -6.1550   -1.4782    0.0000 H   0  0  0  0  0  0  0  0  0  0  0  0
   -4.9303   -1.4782    0.0000 H   0  0  0  0  0  0  0  0  0  0  0  0
   -6.9281    0.8000    0.0000 C   0  0  0  0  0  0  0  0  0  0  0  0
   -8.3138    1.6000    0.0000 H   0  0  0  0  0  0  0  0  0  0  0  0
   -8.3138    0.0000    0.0000 H   0  0  0  0  0  0  0  0  0  0  0  0
   -6.9281    2.4000    0.0000 H   0  0  0  0  0  0  0  0  0  0  0  0
  1  2  1  0  0  0  0
  2  3  1  0  0  0  0
  2  4  1  0  0  0  0
  2  5  1  0  0  0  0
  5  6  1  0  0  0  0
  5  7  1  0  0  0  0
  5  8  1  0  0  0  0
  8  9  1  0  0  0  0
  8 10  1  0  0  0  0
  8 11  1  0  0  0  0
 11 12  1  0  0  0  0
 11 13  1  0  0  0  0
 11 14  1  0  0  0  0
 14 15  1  0  0  0  0
 14 16  1  0  0  0  0
 14 17  1  0  0  0  0
 17 18  1  0  0  0  0
 17 19  1  0  0  0  0
 17 20  1  0  0  0  0
 20 21  1  0  0  0  0
 20 22  1  0  0  0  0
 20 23  1  0  0  0  0
 23 24  1  0  0  0  0
 23 25  1  0  0  0  0
 23 26  1  0  0  0  0
 26 27  1  0  0  0  0
 26 28  1  0  0  0  0
 26 29  1  0  0  0  0
 29 30  1  0  0  0  0
 29 31  1  0  0  0  0
 29 32  1  0  0  0  0
  1 33  1  0  0  0  0
 33 34  1  0  0  0  0
 33 35  1  0  0  0  0
 33 36  1  0  0  0  0
 36 37  1  0  0  0  0
 36 38  1  0  0  0  0
 36 39  1  0  0  0  0
 39 40  1  0  0  0  0
 39 41  1  0  0  0  0
 39 42  1  0  0  0  0
 42 43  1  0  0  0  0
 42 44  1  0  0  0  0
 42 45  1  0  0  0  0
 45 46  1  0  0  0  0
 45 47  1  0  0  0  0
 45 48  1  0  0  0  0
 48 49  1  0  0  0  0
 48 50  1  0  0  0  0
 48 51  1  0  0  0  0
 51 52  1  0  0  0  0
 51 53  1  0  0  0  0
 51 54  1  0  0  0  0
 54 55  1  0  0  0  0
 54 56  1  0  0  0  0
 54 57  1  0  0  0  0
 57 58  1  0  0  0  0
 57 59  1  0  0  0  0
 57 60  1  0  0  0  0
 60 61  1  0  0  0  0
 60 62  1  0  0  0  0
 60 63  1  0  0  0  0
M  END
> <ChemID>
101033

> <source_casrn>
2456-28-2

> <CAS>
2456-28-2

> <SMILES>
CCCCCCCCCCOCCCCCCCCCC

> <NAME>
Decane, 1,1'-oxybis-

> <preferred_name>
Decane, 1,1'-oxybis-

> <iupac>
1-decoxydecane

> <MPID>
101022

> <dsstox_substance_id>
DTXSID4062430

> <Canonical_QSARr>
CCCCCCCCCCOCCCCCCCCCC

> <InChI_Code_QSARr>
InChI=1S/C20H42O/c1-3-5-7-9-11-13-15-17-19-21-20-18-16-14-12-10-8-6-4-2/h3-20H2,1-2H3

> <InChI Key_QSARr>
LTSWUFKUZPPYEG-UHFFFAOYSA-N

> <Salt_Solvent>
?

> <Ready_Biodeg>
1.0

$$$$
101034
  -INDIGO-08031722522D

 30 33  0  0  0  0  0  0  0  0999 V2000
   -2.4000    1.3856    0.0000 C   0  0  0  0  0  0  0  0  0  0  0  0
   -3.2000    2.7713    0.0000 C   0  0  0  0  0  0  0  0  0  0  0  0
   -2.4000    4.1569    0.0000 H   0  0  0  0  0  0  0  0  0  0  0  0
   -4.8000    2.7712    0.0000 C   0  0  0  0  0  0  0  0  0  0  0  0
   -5.6000    4.1569    0.0000 H   0  0  0  0  0  0  0  0  0  0  0  0
   -5.6000    1.3856    0.0000 C   0  0  0  0  0  0  0  0  0  0  0  0
   -7.2000    1.3856    0.0000 H   0  0  0  0  0  0  0  0  0  0  0  0
   -4.8000    0.0001    0.0000 C   0  0  0  0  0  0  0  0  0  0  0  0
   -5.6000   -1.3856    0.0000 H   0  0  0  0  0  0  0  0  0  0  0  0
   -3.2000   -0.0001    0.0000 C   0  0  0  0  0  0  0  0  0  0  0  0
   -2.4000   -1.3856    0.0000 C   0  0  0  0  0  0  0  0  0  0  0  0
   -3.2000   -2.7713    0.0000 O   0  0  0  0  0  0  0  0  0  0  0  0
   -0.8000   -1.3856    0.0000 C   0  0  0  0  0  0  0  0  0  0  0  0
    0.0000    0.0001    0.0000 C   0  0  0  0  0  0  0  0  0  0  0  0
    1.6000   -0.0001    0.0000 C   0  0  0  0  0  0  0  0  0  0  0  0
    2.4000   -1.3856    0.0000 C   0  0  0  0  0  0  0  0  0  0  0  0
    1.6000   -2.7712    0.0000 C   0  0  0  0  0  0  0  0  0  0  0  0
    2.4000   -4.1569    0.0000 H   0  0  0  0  0  0  0  0  0  0  0  0
    0.0000   -2.7712    0.0000 C   0  0  0  0  0  0  0  0  0  0  0  0
   -0.8000   -4.1569    0.0000 H   0  0  0  0  0  0  0  0  0  0  0  0
    4.0000   -1.3856    0.0000 C   0  0  0  0  0  0  0  0  0  0  0  0
    4.8000   -2.7713    0.0000 H   0  0  0  0  0  0  0  0  0  0  0  0
    4.8000   -0.0001    0.0000 C   0  0  0  0  0  0  0  0  0  0  0  0
    6.4000   -0.0001    0.0000 H   0  0  0  0  0  0  0  0  0  0  0  0
    4.0000    1.3856    0.0000 C   0  0  0  0  0  0  0  0  0  0  0  0
    4.8000    2.7712    0.0000 H   0  0  0  0  0  0  0  0  0  0  0  0
    2.4000    1.3856    0.0000 C   0  0  0  0  0  0  0  0  0  0  0  0
    1.6000    2.7712    0.0000 H   0  0  0  0  0  0  0  0  0  0  0  0
   -0.8000    1.3856    0.0000 C   0  0  0  0  0  0  0  0  0  0  0  0
    0.0000    2.7713    0.0000 O   0  0  0  0  0  0  0  0  0  0  0  0
  1  2  1  0  0  0  0
  2  3  1  0  0  0  0
  2  4  2  0  0  0  0
  4  5  1  0  0  0  0
  4  6  1  0  0  0  0
  6  7  1  0  0  0  0
  6  8  2  0  0  0  0
  8  9  1  0  0  0  0
  8 10  1  0  0  0  0
 10  1  2  0  0  0  0
 10 11  1  0  0  0  0
 11 12  2  0  0  0  0
 11 13  1  0  0  0  0
 13 14  1  0  0  0  0
 14 15  2  0  0  0  0
 15 16  1  0  0  0  0
 16 17  2  0  0  0  0
 17 18  1  0  0  0  0
 17 19  1  0  0  0  0
 19 13  2  0  0  0  0
 19 20  1  0  0  0  0
 16 21  1  0  0  0  0
 21 22  1  0  0  0  0
 21 23  2  0  0  0  0
 23 24  1  0  0  0  0
 23 25  1  0  0  0  0
 25 26  1  0  0  0  0
 25 27  2  0  0  0  0
 27 15  1  0  0  0  0
 27 28  1  0  0  0  0
 14 29  1  0  0  0  0
 29  1  1  0  0  0  0
 29 30  2  0  0  0  0
M  END
> <ChemID>
101034

> <source_casrn>
2498-66-0

> <CAS>
2498-66-0

> <SMILES>
O=C(c(c(c(c(c1)ccc2)c2)C(=O)c3cccc4)c1)c34

> <NAME>
Benz a anthracene-7,12-dione

> <preferred_name>
7,12-Benz(a)anthraquinone

> <iupac>
tetraphene-7,12-dione

> <MPID>
101023

> <dsstox_substance_id>
DTXSID8051916

> <Canonical_QSARr>
O=C1c2ccc3ccccc3c2C(=O)c2ccccc12

> <InChI_Code_QSARr>
InChI=1S/C18H10O2/c19-17-13-7-3-4-8-14(13)18(20)16-12-6-2-1-5-11(12)9-10-15(16)17/h1-10H

> <InChI Key_QSARr>
LHMRXAIRPKSGDE-UHFFFAOYSA-N

> <Salt_Solvent>
?

> <Ready_Biodeg>
0.0

$$$$
101035
  -INDIGO-08031722522D

 33 32  0  0  0  0  0  0  0  0999 V2000
    6.9283    0.8000    0.0000 C   0  0  0  0  0  0  0  0  0  0  0  0
    8.3139    0.0000    0.0000 C   0  0  0  0  0  0  0  0  0  0  0  0
    8.3139   -1.6000    0.0000 H   0  0  0  0  0  0  0  0  0  0  0  0
    9.6995    0.8000    0.0000 C   0  0  0  0  0  0  0  0  0  0  0  0
   11.0851    0.0000    0.0000 H   0  0  0  0  0  0  0  0  0  0  0  0
    9.6995    2.4000    0.0000 H   0  0  0  0  0  0  0  0  0  0  0  0
    5.5425    0.0000    0.0000 O   0  0  0  0  0  0  0  0  0  0  0  0
    4.1569    0.8000    0.0000 C   0  0  0  0  0  0  0  0  0  0  0  0
    4.7693    2.2782    0.0000 H   0  0  0  0  0  0  0  0  0  0  0  0
    3.5447    2.2782    0.0000 H   0  0  0  0  0  0  0  0  0  0  0  0
    2.7713    0.0000    0.0000 C   0  0  0  0  0  0  0  0  0  0  0  0
    2.1589   -1.4782    0.0000 H   0  0  0  0  0  0  0  0  0  0  0  0
    3.3837   -1.4782    0.0000 H   0  0  0  0  0  0  0  0  0  0  0  0
    1.3857    0.8000    0.0000 C   0  0  0  0  0  0  0  0  0  0  0  0
    1.9981    2.2782    0.0000 H   0  0  0  0  0  0  0  0  0  0  0  0
    0.7733    2.2782    0.0000 H   0  0  0  0  0  0  0  0  0  0  0  0
    0.0001    0.0000    0.0000 C   0  0  0  0  0  0  0  0  0  0  0  0
   -0.6123   -1.4782    0.0000 H   0  0  0  0  0  0  0  0  0  0  0  0
    0.6122   -1.4782    0.0000 H   0  0  0  0  0  0  0  0  0  0  0  0
   -1.3855    0.8000    0.0000 C   0  0  0  0  0  0  0  0  0  0  0  0
   -0.7734    2.2782    0.0000 H   0  0  0  0  0  0  0  0  0  0  0  0
   -1.9979    2.2782    0.0000 H   0  0  0  0  0  0  0  0  0  0  0  0
   -2.7714    0.0000    0.0000 C   0  0  0  0  0  0  0  0  0  0  0  0
   -3.3835   -1.4782    0.0000 H   0  0  0  0  0  0  0  0  0  0  0  0
   -2.1590   -1.4782    0.0000 H   0  0  0  0  0  0  0  0  0  0  0  0
   -4.1570    0.8000    0.0000 C   0  0  0  0  0  0  0  0  0  0  0  0
   -3.5446    2.2782    0.0000 H   0  0  0  0  0  0  0  0  0  0  0  0
   -4.7691    2.2782    0.0000 H   0  0  0  0  0  0  0  0  0  0  0  0
   -5.5426    0.0000    0.0000 C   0  0  0  0  0  0  0  0  0  0  0  0
   -6.9282   -0.8000    0.0000 H   0  0  0  0  0  0  0  0  0  0  0  0
   -6.9282    0.8000    0.0000 H   0  0  0  0  0  0  0  0  0  0  0  0
   -5.5426   -1.6000    0.0000 H   0  0  0  0  0  0  0  0  0  0  0  0
    6.9283    2.4000    0.0000 O   0  0  0  0  0  0  0  0  0  0  0  0
  1  2  1  0  0  0  0
  2  3  1  0  0  0  0
  2  4  2  0  0  0  0
  4  5  1  0  0  0  0
  4  6  1  0  0  0  0
  1  7  1  0  0  0  0
  7  8  1  0  0  0  0
  8  9  1  0  0  0  0
  8 10  1  0  0  0  0
  8 11  1  0  0  0  0
 11 12  1  0  0  0  0
 11 13  1  0  0  0  0
 11 14  1  0  0  0  0
 14 15  1  0  0  0  0
 14 16  1  0  0  0  0
 14 17  1  0  0  0  0
 17 18  1  0  0  0  0
 17 19  1  0  0  0  0
 17 20  1  0  0  0  0
 20 21  1  0  0  0  0
 20 22  1  0  0  0  0
 20 23  1  0  0  0  0
 23 24  1  0  0  0  0
 23 25  1  0  0  0  0
 23 26  1  0  0  0  0
 26 27  1  0  0  0  0
 26 28  1  0  0  0  0
 26 29  1  0  0  0  0
 29 30  1  0  0  0  0
 29 31  1  0  0  0  0
 29 32  1  0  0  0  0
  1 33  2  0  0  0  0
M  END
> <ChemID>
101035

> <source_casrn>
2499-59-4

> <CAS>
2499-59-4

> <SMILES>
CCCCCCCCOC(=O)C=C

> <NAME>
2-Propenoic acid, octyl ester

> <preferred_name>
Octyl prop-2-enoate

> <iupac>
octyl prop-2-enoate

> <MPID>
101024

> <dsstox_substance_id>
DTXSID8044624

> <Canonical_QSARr>
CCCCCCCCOC(=O)C=C

> <InChI_Code_QSARr>
InChI=1S/C11H20O2/c1-3-5-6-7-8-9-10-13-11(12)4-2/h4H,2-3,5-10H2,1H3

> <InChI Key_QSARr>
ANISOHQJBAQUQP-UHFFFAOYSA-N

> <Salt_Solvent>
?

> <Ready_Biodeg>
1.0

$$$$
101037
  -INDIGO-08031722522D

 19 18  0  0  0  0  0  0  0  0999 V2000
    2.7713    0.0000    0.0000 C   0  0  0  0  0  0  0  0  0  0  0  0
    3.3835   -1.4782    0.0000 H   0  0  0  0  0  0  0  0  0  0  0  0
    2.1590   -1.4782    0.0000 H   0  0  0  0  0  0  0  0  0  0  0  0
    1.3857    0.8000    0.0000 C   0  0  0  0  0  0  0  0  0  0  0  0
    0.7733    2.2782    0.0000 H   0  0  0  0  0  0  0  0  0  0  0  0
    1.9979    2.2782    0.0000 H   0  0  0  0  0  0  0  0  0  0  0  0
    0.0000    0.0000    0.0000 C   0  0  0  0  0  0  0  0  0  0  0  0
    0.8000   -1.3857    0.0000 H   0  0  0  0  0  0  0  0  0  0  0  0
   -1.3856   -0.8000    0.0000 C   0  0  0  0  0  0  0  0  0  0  0  0
   -2.7713   -1.6000    0.0000 H   0  0  0  0  0  0  0  0  0  0  0  0
   -2.7713    0.0000    0.0000 H   0  0  0  0  0  0  0  0  0  0  0  0
   -1.3856   -2.4000    0.0000 H   0  0  0  0  0  0  0  0  0  0  0  0
   -0.8000    1.3857    0.0000 O   0  0  0  0  0  0  0  0  0  0  0  0
   -0.2527    2.8891    0.0000 C   0  0  0  0  0  0  0  0  0  0  0  0
   -1.2812    4.1148    0.0000 H   0  0  0  0  0  0  0  0  0  0  0  0
    0.2944    4.3927    0.0000 H   0  0  0  0  0  0  0  0  0  0  0  0
    1.3229    3.1670    0.0000 H   0  0  0  0  0  0  0  0  0  0  0  0
    4.1570    0.8000    0.0000 O   0  0  0  0  0  0  0  0  0  0  0  0
    5.5426    0.0000    0.0000 H   0  0  0  0  0  0  0  0  0  0  0  0
  1  2  1  0  0  0  0
  1  3  1  0  0  0  0
  1  4  1  0  0  0  0
  4  5  1  0  0  0  0
  4  6  1  0  0  0  0
  4  7  1  0  0  0  0
  7  8  1  0  0  0  0
  7  9  1  0  0  0  0
  9 10  1  0  0  0  0
  9 11  1  0  0  0  0
  9 12  1  0  0  0  0
  7 13  1  0  0  0  0
 13 14  1  0  0  0  0
 14 15  1  0  0  0  0
 14 16  1  0  0  0  0
 14 17  1  0  0  0  0
  1 18  1  0  0  0  0
 18 19  1  0  0  0  0
M  END
> <ChemID>
101037

> <source_casrn>
2517-43-3

> <CAS>
2517-43-3

> <SMILES>
COC(C)CCO

> <NAME>
1-Butanol, 3-methoxy-

> <preferred_name>
3-Methoxybutan-1-ol

> <iupac>
3-methoxybutan-1-ol

> <MPID>
101026

> <dsstox_substance_id>
DTXSID0044812

> <Canonical_QSARr>
COC(C)CCO

> <InChI_Code_QSARr>
InChI=1S/C5H12O2/c1-5(7-2)3-4-6/h5-6H,3-4H2,1-2H3

> <InChI Key_QSARr>
JSGVZVOGOQILFM-UHFFFAOYSA-N

> <Salt_Solvent>
?

> <Ready_Biodeg>
1.0

$$$$
101038
  -INDIGO-08031722522D

 12 11  0  0  0  0  0  0  0  0999 V2000
    5.5425    0.0000    0.0000 C   0  0  0  0  0  0  0  0  0  0  0  0
    6.9282   -0.8000    0.0000 H   0  0  0  0  0  0  0  0  0  0  0  0
    5.5425    1.6000    0.0000 H   0  0  0  0  0  0  0  0  0  0  0  0
    4.1569   -0.8000    0.0000 C   0  0  0  0  0  0  0  0  0  0  0  0
    4.1569   -2.4000    0.0000 H   0  0  0  0  0  0  0  0  0  0  0  0
    2.7712    0.0000    0.0000 O   0  0  0  0  0  0  0  0  0  0  0  0
    1.3856   -0.8000    0.0000 C   0  0  0  0  0  0  0  0  0  0  0  0
   -0.0001    0.0000    0.0000 C   0  0  0  0  0  0  0  0  0  0  0  0
   -1.3856    0.8000    0.0000 H   0  0  0  0  0  0  0  0  0  0  0  0
   -0.0001    1.6000    0.0000 H   0  0  0  0  0  0  0  0  0  0  0  0
   -1.3856   -0.8000    0.0000 Cl  0  0  0  0  0  0  0  0  0  0  0  0
    1.3856   -2.4000    0.0000 O   0  0  0  0  0  0  0  0  0  0  0  0
  1  2  1  0  0  0  0
  1  3  1  0  0  0  0
  1  4  2  0  0  0  0
  4  5  1  0  0  0  0
  4  6  1  0  0  0  0
  6  7  1  0  0  0  0
  7  8  1  0  0  0  0
  8  9  1  0  0  0  0
  8 10  1  0  0  0  0
  8 11  1  0  0  0  0
  7 12  2  0  0  0  0
M  END
> <ChemID>
101038

> <source_casrn>
2549-51-1

> <CAS>
2549-51-1

> <SMILES>
C=COC(=O)CCl

> <NAME>
Acetic acid, chloro-, ethenyl ester

> <preferred_name>
Acetic acid, 2-chloro-, ethenyl ester

> <iupac>
ethenyl 2-chloroacetate

> <MPID>
101027

> <dsstox_substance_id>
DTXSID0062509

> <Canonical_QSARr>
C=COC(=O)CCl

> <InChI_Code_QSARr>
InChI=1S/C4H5ClO2/c1-2-7-4(6)3-5/h2H,1,3H2

> <InChI Key_QSARr>
XJELOQYISYPGDX-UHFFFAOYSA-N

> <Salt_Solvent>
?

> <Ready_Biodeg>
1.0

$$$$
101039
  -INDIGO-08031722522D

 23 23  0  0  0  0  0  0  0  0999 V2000
    4.1569   -0.8000    0.0000 C   0  0  0  0  0  0  0  0  0  0  0  0
    5.5426   -1.6000    0.0000 H   0  0  0  0  0  0  0  0  0  0  0  0
    5.5426   -0.0000    0.0000 H   0  0  0  0  0  0  0  0  0  0  0  0
    4.1569   -2.4000    0.0000 H   0  0  0  0  0  0  0  0  0  0  0  0
    2.7712   -0.0000    0.0000 C   0  0  0  0  0  0  0  0  0  0  0  0
    1.3856   -0.8000    0.0000 C   0  0  0  0  0  0  0  0  0  0  0  0
    1.9979   -2.2782    0.0000 H   0  0  0  0  0  0  0  0  0  0  0  0
    0.7734   -2.2782    0.0000 H   0  0  0  0  0  0  0  0  0  0  0  0
    0.0001   -0.0000    0.0000 C   0  0  0  0  0  0  0  0  0  0  0  0
   -0.6122    1.4782    0.0000 H   0  0  0  0  0  0  0  0  0  0  0  0
    0.6122    1.4782    0.0000 H   0  0  0  0  0  0  0  0  0  0  0  0
   -1.3856   -0.8000    0.0000 C   0  0  0  0  0  0  0  0  0  0  0  0
   -2.7712   -0.0000    0.0000 C   0  0  0  0  0  0  0  0  0  0  0  0
   -2.7712    1.6000    0.0000 H   0  0  0  0  0  0  0  0  0  0  0  0
   -4.1569   -0.8000    0.0000 C   0  0  0  0  0  0  0  0  0  0  0  0
   -5.5426   -0.0000    0.0000 H   0  0  0  0  0  0  0  0  0  0  0  0
   -4.1569   -2.4000    0.0000 C   0  0  0  0  0  0  0  0  0  0  0  0
   -5.5426   -3.2000    0.0000 H   0  0  0  0  0  0  0  0  0  0  0  0
   -2.7712   -3.2000    0.0000 C   0  0  0  0  0  0  0  0  0  0  0  0
   -2.7712   -4.8000    0.0000 H   0  0  0  0  0  0  0  0  0  0  0  0
   -1.3856   -2.4000    0.0000 C   0  0  0  0  0  0  0  0  0  0  0  0
    0.0001   -3.2000    0.0000 H   0  0  0  0  0  0  0  0  0  0  0  0
    2.7712    1.6000    0.0000 O   0  0  0  0  0  0  0  0  0  0  0  0
  1  2  1  0  0  0  0
  1  3  1  0  0  0  0
  1  4  1  0  0  0  0
  1  5  1  0  0  0  0
  5  6  1  0  0  0  0
  6  7  1  0  0  0  0
  6  8  1  0  0  0  0
  6  9  1  0  0  0  0
  9 10  1  0  0  0  0
  9 11  1  0  0  0  0
  9 12  1  0  0  0  0
 12 13  1  0  0  0  0
 13 14  1  0  0  0  0
 13 15  2  0  0  0  0
 15 16  1  0  0  0  0
 15 17  1  0  0  0  0
 17 18  1  0  0  0  0
 17 19  2  0  0  0  0
 19 20  1  0  0  0  0
 19 21  1  0  0  0  0
 21 12  2  0  0  0  0
 21 22  1  0  0  0  0
  5 23  2  0  0  0  0
M  END
> <ChemID>
101039

> <source_casrn>
2550-26-7

> <CAS>
2550-26-7

> <SMILES>
O=C(CCc(cccc1)c1)C

> <NAME>
Benzyl acetone

> <preferred_name>
Benzylacetone

> <iupac>
4-phenylbutan-2-one

> <MPID>
101028

> <dsstox_substance_id>
DTXSID6033241

> <Canonical_QSARr>
CC(=O)CCc1ccccc1

> <InChI_Code_QSARr>
InChI=1S/C10H12O/c1-9(11)7-8-10-5-3-2-4-6-10/h2-6H,7-8H2,1H3

> <InChI Key_QSARr>
AKGGYBADQZYZPD-UHFFFAOYSA-N

> <Salt_Solvent>
?

> <Ready_Biodeg>
0.0

$$$$
101041
  -INDIGO-08031722522D

 36 36  0  0  0  0  0  0  0  0999 V2000
   -1.6000    0.0000    0.0000 C   0  0  0  0  0  0  0  0  0  0  0  0
   -2.4000    1.3856    0.0000 C   0  0  0  0  0  0  0  0  0  0  0  0
   -1.6000    2.7713    0.0000 H   0  0  0  0  0  0  0  0  0  0  0  0
   -4.0001    1.3856    0.0000 C   0  0  0  0  0  0  0  0  0  0  0  0
   -4.7999    2.7713    0.0000 H   0  0  0  0  0  0  0  0  0  0  0  0
   -4.7999    0.0000    0.0000 C   0  0  0  0  0  0  0  0  0  0  0  0
   -6.4000    0.0000    0.0000 H   0  0  0  0  0  0  0  0  0  0  0  0
   -4.0001   -1.3857    0.0000 C   0  0  0  0  0  0  0  0  0  0  0  0
   -4.7999   -2.7712    0.0000 H   0  0  0  0  0  0  0  0  0  0  0  0
   -2.4000   -1.3857    0.0000 C   0  0  0  0  0  0  0  0  0  0  0  0
   -1.6000   -2.7712    0.0000 H   0  0  0  0  0  0  0  0  0  0  0  0
   -0.0001    0.0000    0.0000 C   0  0  0  0  0  0  0  0  0  0  0  0
   -0.0001   -1.6000    0.0000 H   0  0  0  0  0  0  0  0  0  0  0  0
    1.5758   -0.2778    0.0000 C   0  0  0  0  0  0  0  0  0  0  0  0
    2.6042    0.9478    0.0000 O   0  0  0  0  0  0  0  0  0  0  0  0
    2.1229   -1.7813    0.0000 O   0  0  0  0  0  0  0  0  0  0  0  0
    3.6986   -2.0591    0.0000 C   0  0  0  0  0  0  0  0  0  0  0  0
    4.1797   -0.5333    0.0000 H   0  0  0  0  0  0  0  0  0  0  0  0
    5.1179   -1.3204    0.0000 H   0  0  0  0  0  0  0  0  0  0  0  0
    4.2459   -3.5627    0.0000 C   0  0  0  0  0  0  0  0  0  0  0  0
    4.7931   -5.0662    0.0000 H   0  0  0  0  0  0  0  0  0  0  0  0
    5.8215   -3.8406    0.0000 H   0  0  0  0  0  0  0  0  0  0  0  0
    3.2174   -4.7884    0.0000 H   0  0  0  0  0  0  0  0  0  0  0  0
   -0.0001    1.6001    0.0000 S   0  0  0  0  0  0  0  0  0  0  0  0
    1.3857    2.4000    0.0000 P   0  0  0  0  0  0  0  0  0  0  0  0
    1.3857    4.0000    0.0000 O   0  0  0  0  0  0  0  0  0  0  0  0
    2.7713    4.8000    0.0000 C   0  0  0  0  0  0  0  0  0  0  0  0
    2.7713    6.4000    0.0000 H   0  0  0  0  0  0  0  0  0  0  0  0
    4.1569    5.6001    0.0000 H   0  0  0  0  0  0  0  0  0  0  0  0
    1.3857    5.6001    0.0000 H   0  0  0  0  0  0  0  0  0  0  0  0
    2.7713    3.1999    0.0000 O   0  0  0  0  0  0  0  0  0  0  0  0
    4.1569    2.4000    0.0000 C   0  0  0  0  0  0  0  0  0  0  0  0
    5.5426    3.1999    0.0000 H   0  0  0  0  0  0  0  0  0  0  0  0
    5.5426    1.6001    0.0000 H   0  0  0  0  0  0  0  0  0  0  0  0
    4.1569    0.8000    0.0000 H   0  0  0  0  0  0  0  0  0  0  0  0
   -0.0001    3.1999    0.0000 S   0  0  0  0  0  0  0  0  0  0  0  0
  1  2  1  0  0  0  0
  2  3  1  0  0  0  0
  2  4  2  0  0  0  0
  4  5  1  0  0  0  0
  4  6  1  0  0  0  0
  6  7  1  0  0  0  0
  6  8  2  0  0  0  0
  8  9  1  0  0  0  0
  8 10  1  0  0  0  0
 10  1  2  0  0  0  0
 10 11  1  0  0  0  0
  1 12  1  0  0  0  0
 12 13  1  0  0  0  0
 12 14  1  0  0  0  0
 14 15  2  0  0  0  0
 14 16  1  0  0  0  0
 16 17  1  0  0  0  0
 17 18  1  0  0  0  0
 17 19  1  0  0  0  0
 17 20  1  0  0  0  0
 20 21  1  0  0  0  0
 20 22  1  0  0  0  0
 20 23  1  0  0  0  0
 12 24  1  0  0  0  0
 24 25  1  0  0  0  0
 25 26  1  0  0  0  0
 26 27  1  0  0  0  0
 27 28  1  0  0  0  0
 27 29  1  0  0  0  0
 27 30  1  0  0  0  0
 25 31  1  0  0  0  0
 31 32  1  0  0  0  0
 32 33  1  0  0  0  0
 32 34  1  0  0  0  0
 32 35  1  0  0  0  0
 25 36  2  0  0  0  0
M  END
> <ChemID>
101041

> <source_casrn>
2597-03-7

> <CAS>
2597-03-7

> <SMILES>
CCOC(=O)C(SP(=S)(OC)OC)c1ccccc1

> <NAME>
Fenthoate

> <preferred_name>
Phenthoate

> <iupac>
ethyl [(dimethoxyphosphorothioyl)sulfanyl](phenyl)acetate

> <MPID>
101030

> <dsstox_substance_id>
DTXSID6042280

> <Canonical_QSARr>
CCOC(=O)C(SP(=S)(OC)OC)c1ccccc1

> <InChI_Code_QSARr>
InChI=1S/C12H17O4PS2/c1-4-16-12(13)11(10-8-6-5-7-9-10)19-17(18,14-2)15-3/h5-9,11H,4H2,1-3H3

> <InChI Key_QSARr>
XAMUDJHXFNRLCY-UHFFFAOYSA-N

> <Salt_Solvent>
?

> <Ready_Biodeg>
0.0

$$$$
101042
  -INDIGO-08031722522D

 92 91  0  0  0  0  0  0  0  0999 V2000
  -12.4705   -0.8000    0.0000 C   0  0  0  0  0  0  0  0  0  0  0  0
  -12.4705   -2.4000    0.0000 O   0  0  0  0  0  0  0  0  0  0  0  0
  -11.0848    0.0000    0.0000 O   0  0  0  0  0  0  0  0  0  0  0  0
   -9.6991   -0.8000    0.0000 C   0  0  0  0  0  0  0  0  0  0  0  0
   -9.0875   -2.2782    0.0000 H   0  0  0  0  0  0  0  0  0  0  0  0
  -10.3115   -2.2782    0.0000 H   0  0  0  0  0  0  0  0  0  0  0  0
   -8.3142    0.0000    0.0000 C   0  0  0  0  0  0  0  0  0  0  0  0
   -8.9258    1.4782    0.0000 H   0  0  0  0  0  0  0  0  0  0  0  0
   -7.7018    1.4782    0.0000 H   0  0  0  0  0  0  0  0  0  0  0  0
   -6.9285   -0.8000    0.0000 C   0  0  0  0  0  0  0  0  0  0  0  0
   -6.3162   -2.2782    0.0000 H   0  0  0  0  0  0  0  0  0  0  0  0
   -7.5408   -2.2782    0.0000 H   0  0  0  0  0  0  0  0  0  0  0  0
   -5.5428    0.0000    0.0000 C   0  0  0  0  0  0  0  0  0  0  0  0
   -6.1552    1.4782    0.0000 H   0  0  0  0  0  0  0  0  0  0  0  0
   -4.9305    1.4782    0.0000 H   0  0  0  0  0  0  0  0  0  0  0  0
   -4.1572   -0.8000    0.0000 C   0  0  0  0  0  0  0  0  0  0  0  0
   -3.5449   -2.2782    0.0000 H   0  0  0  0  0  0  0  0  0  0  0  0
   -4.7695   -2.2782    0.0000 H   0  0  0  0  0  0  0  0  0  0  0  0
   -2.7715    0.0000    0.0000 C   0  0  0  0  0  0  0  0  0  0  0  0
   -3.3838    1.4782    0.0000 H   0  0  0  0  0  0  0  0  0  0  0  0
   -2.1592    1.4782    0.0000 H   0  0  0  0  0  0  0  0  0  0  0  0
   -1.3859   -0.8000    0.0000 C   0  0  0  0  0  0  0  0  0  0  0  0
   -0.7735   -2.2782    0.0000 H   0  0  0  0  0  0  0  0  0  0  0  0
   -1.9982   -2.2782    0.0000 H   0  0  0  0  0  0  0  0  0  0  0  0
   -0.0002    0.0000    0.0000 C   0  0  0  0  0  0  0  0  0  0  0  0
   -0.6125    1.4782    0.0000 H   0  0  0  0  0  0  0  0  0  0  0  0
    0.6121    1.4782    0.0000 H   0  0  0  0  0  0  0  0  0  0  0  0
    1.3855   -0.8000    0.0000 C   0  0  0  0  0  0  0  0  0  0  0  0
    1.9978   -2.2782    0.0000 H   0  0  0  0  0  0  0  0  0  0  0  0
    0.7732   -2.2782    0.0000 H   0  0  0  0  0  0  0  0  0  0  0  0
    2.7711    0.0000    0.0000 C   0  0  0  0  0  0  0  0  0  0  0  0
    2.1588    1.4782    0.0000 H   0  0  0  0  0  0  0  0  0  0  0  0
    3.3835    1.4782    0.0000 H   0  0  0  0  0  0  0  0  0  0  0  0
    4.1568   -0.8000    0.0000 C   0  0  0  0  0  0  0  0  0  0  0  0
    4.7691   -2.2782    0.0000 H   0  0  0  0  0  0  0  0  0  0  0  0
    3.5445   -2.2782    0.0000 H   0  0  0  0  0  0  0  0  0  0  0  0
    5.5425    0.0000    0.0000 C   0  0  0  0  0  0  0  0  0  0  0  0
    4.9301    1.4782    0.0000 H   0  0  0  0  0  0  0  0  0  0  0  0
    6.1548    1.4782    0.0000 H   0  0  0  0  0  0  0  0  0  0  0  0
    6.9281   -0.8000    0.0000 C   0  0  0  0  0  0  0  0  0  0  0  0
    7.5404   -2.2782    0.0000 H   0  0  0  0  0  0  0  0  0  0  0  0
    6.3158   -2.2782    0.0000 H   0  0  0  0  0  0  0  0  0  0  0  0
    8.3138    0.0000    0.0000 C   0  0  0  0  0  0  0  0  0  0  0  0
    7.7015    1.4782    0.0000 H   0  0  0  0  0  0  0  0  0  0  0  0
    8.9261    1.4782    0.0000 H   0  0  0  0  0  0  0  0  0  0  0  0
    9.6994   -0.8000    0.0000 C   0  0  0  0  0  0  0  0  0  0  0  0
   10.3118   -2.2782    0.0000 H   0  0  0  0  0  0  0  0  0  0  0  0
    9.0871   -2.2782    0.0000 H   0  0  0  0  0  0  0  0  0  0  0  0
   11.0851    0.0000    0.0000 C   0  0  0  0  0  0  0  0  0  0  0  0
   12.4708    0.8000    0.0000 H   0  0  0  0  0  0  0  0  0  0  0  0
   12.4708   -0.8000    0.0000 H   0  0  0  0  0  0  0  0  0  0  0  0
   11.0851    1.6000    0.0000 H   0  0  0  0  0  0  0  0  0  0  0  0
  -13.8561    0.0000    0.0000 C   0  0  0  0  0  0  0  0  0  0  0  0
  -14.4685    1.4782    0.0000 H   0  0  0  0  0  0  0  0  0  0  0  0
  -13.2438    1.4782    0.0000 H   0  0  0  0  0  0  0  0  0  0  0  0
  -15.2418   -0.8000    0.0000 C   0  0  0  0  0  0  0  0  0  0  0  0
  -14.6295   -2.2782    0.0000 H   0  0  0  0  0  0  0  0  0  0  0  0
  -15.8541   -2.2782    0.0000 H   0  0  0  0  0  0  0  0  0  0  0  0
  -16.6275    0.0000    0.0000 C   0  0  0  0  0  0  0  0  0  0  0  0
  -17.2398    1.4782    0.0000 H   0  0  0  0  0  0  0  0  0  0  0  0
  -16.0151    1.4782    0.0000 H   0  0  0  0  0  0  0  0  0  0  0  0
  -18.0131   -0.8000    0.0000 C   0  0  0  0  0  0  0  0  0  0  0  0
  -17.4008   -2.2782    0.0000 H   0  0  0  0  0  0  0  0  0  0  0  0
  -18.6254   -2.2782    0.0000 H   0  0  0  0  0  0  0  0  0  0  0  0
  -19.3988    0.0000    0.0000 C   0  0  0  0  0  0  0  0  0  0  0  0
  -20.0111    1.4782    0.0000 H   0  0  0  0  0  0  0  0  0  0  0  0
  -18.7865    1.4782    0.0000 H   0  0  0  0  0  0  0  0  0  0  0  0
  -20.7844   -0.8000    0.0000 C   0  0  0  0  0  0  0  0  0  0  0  0
  -20.1721   -2.2782    0.0000 H   0  0  0  0  0  0  0  0  0  0  0  0
  -21.3968   -2.2782    0.0000 H   0  0  0  0  0  0  0  0  0  0  0  0
  -22.1701    0.0000    0.0000 C   0  0  0  0  0  0  0  0  0  0  0  0
  -22.7824    1.4782    0.0000 H   0  0  0  0  0  0  0  0  0  0  0  0
  -21.5578    1.4782    0.0000 H   0  0  0  0  0  0  0  0  0  0  0  0
  -23.5558   -0.8000    0.0000 C   0  0  0  0  0  0  0  0  0  0  0  0
  -22.9435   -2.2782    0.0000 H   0  0  0  0  0  0  0  0  0  0  0  0
  -24.1681   -2.2782    0.0000 H   0  0  0  0  0  0  0  0  0  0  0  0
  -24.9414    0.0000    0.0000 C   0  0  0  0  0  0  0  0  0  0  0  0
  -25.5537    1.4782    0.0000 H   0  0  0  0  0  0  0  0  0  0  0  0
  -24.3291    1.4782    0.0000 H   0  0  0  0  0  0  0  0  0  0  0  0
  -26.3271   -0.8000    0.0000 C   0  0  0  0  0  0  0  0  0  0  0  0
  -25.7148   -2.2782    0.0000 H   0  0  0  0  0  0  0  0  0  0  0  0
  -26.9394   -2.2782    0.0000 H   0  0  0  0  0  0  0  0  0  0  0  0
  -27.7128    0.0000    0.0000 C   0  0  0  0  0  0  0  0  0  0  0  0
  -28.3251    1.4782    0.0000 H   0  0  0  0  0  0  0  0  0  0  0  0
  -27.1004    1.4782    0.0000 H   0  0  0  0  0  0  0  0  0  0  0  0
  -29.0984   -0.8000    0.0000 C   0  0  0  0  0  0  0  0  0  0  0  0
  -28.4861   -2.2782    0.0000 H   0  0  0  0  0  0  0  0  0  0  0  0
  -29.7107   -2.2782    0.0000 H   0  0  0  0  0  0  0  0  0  0  0  0
  -30.4841    0.0000    0.0000 C   0  0  0  0  0  0  0  0  0  0  0  0
  -31.8697    0.8000    0.0000 H   0  0  0  0  0  0  0  0  0  0  0  0
  -31.8697   -0.8000    0.0000 H   0  0  0  0  0  0  0  0  0  0  0  0
  -30.4841    1.6000    0.0000 H   0  0  0  0  0  0  0  0  0  0  0  0
  1  2  2  0  0  0  0
  1  3  1  0  0  0  0
  3  4  1  0  0  0  0
  4  5  1  0  0  0  0
  4  6  1  0  0  0  0
  4  7  1  0  0  0  0
  7  8  1  0  0  0  0
  7  9  1  0  0  0  0
  7 10  1  0  0  0  0
 10 11  1  0  0  0  0
 10 12  1  0  0  0  0
 10 13  1  0  0  0  0
 13 14  1  0  0  0  0
 13 15  1  0  0  0  0
 13 16  1  0  0  0  0
 16 17  1  0  0  0  0
 16 18  1  0  0  0  0
 16 19  1  0  0  0  0
 19 20  1  0  0  0  0
 19 21  1  0  0  0  0
 19 22  1  0  0  0  0
 22 23  1  0  0  0  0
 22 24  1  0  0  0  0
 22 25  1  0  0  0  0
 25 26  1  0  0  0  0
 25 27  1  0  0  0  0
 25 28  1  0  0  0  0
 28 29  1  0  0  0  0
 28 30  1  0  0  0  0
 28 31  1  0  0  0  0
 31 32  1  0  0  0  0
 31 33  1  0  0  0  0
 31 34  1  0  0  0  0
 34 35  1  0  0  0  0
 34 36  1  0  0  0  0
 34 37  1  0  0  0  0
 37 38  1  0  0  0  0
 37 39  1  0  0  0  0
 37 40  1  0  0  0  0
 40 41  1  0  0  0  0
 40 42  1  0  0  0  0
 40 43  1  0  0  0  0
 43 44  1  0  0  0  0
 43 45  1  0  0  0  0
 43 46  1  0  0  0  0
 46 47  1  0  0  0  0
 46 48  1  0  0  0  0
 46 49  1  0  0  0  0
 49 50  1  0  0  0  0
 49 51  1  0  0  0  0
 49 52  1  0  0  0  0
  1 53  1  0  0  0  0
 53 54  1  0  0  0  0
 53 55  1  0  0  0  0
 53 56  1  0  0  0  0
 56 57  1  0  0  0  0
 56 58  1  0  0  0  0
 56 59  1  0  0  0  0
 59 60  1  0  0  0  0
 59 61  1  0  0  0  0
 59 62  1  0  0  0  0
 62 63  1  0  0  0  0
 62 64  1  0  0  0  0
 62 65  1  0  0  0  0
 65 66  1  0  0  0  0
 65 67  1  0  0  0  0
 65 68  1  0  0  0  0
 68 69  1  0  0  0  0
 68 70  1  0  0  0  0
 68 71  1  0  0  0  0
 71 72  1  0  0  0  0
 71 73  1  0  0  0  0
 71 74  1  0  0  0  0
 74 75  1  0  0  0  0
 74 76  1  0  0  0  0
 74 77  1  0  0  0  0
 77 78  1  0  0  0  0
 77 79  1  0  0  0  0
 77 80  1  0  0  0  0
 80 81  1  0  0  0  0
 80 82  1  0  0  0  0
 80 83  1  0  0  0  0
 83 84  1  0  0  0  0
 83 85  1  0  0  0  0
 83 86  1  0  0  0  0
 86 87  1  0  0  0  0
 86 88  1  0  0  0  0
 86 89  1  0  0  0  0
 89 90  1  0  0  0  0
 89 91  1  0  0  0  0
 89 92  1  0  0  0  0
M  END
> <ChemID>
101042

> <source_casrn>
2599-01-1

> <CAS>
2599-01-1

> <SMILES>
CCCCCCCCCCCCCC(=O)OCCCCCCCCCCCCCCCC

> <NAME>
Hexadecyl myristate

> <preferred_name>
Cetyl myristate

> <iupac>
hexadecyl tetradecanoate

> <MPID>
101031

> <dsstox_substance_id>
DTXSID1062546

> <Canonical_QSARr>
CCCCCCCCCCCCCC(=O)OCCCCCCCCCCCCCCCC

> <InChI_Code_QSARr>
InChI=1S/C30H60O2/c1-3-5-7-9-11-13-15-16-17-19-21-23-25-27-29-32-30(31)28-26-24-22-20-18-14-12-10-8-6-4-2/h3-29H2,1-2H3

> <InChI Key_QSARr>
QAKXLTNAJLFSQC-UHFFFAOYSA-N

> <Salt_Solvent>
?

> <Ready_Biodeg>
1.0

$$$$
101043
  -INDIGO-08031722522D

 26 26  0  0  0  0  0  0  0  0999 V2000
   -4.7999    0.0001    0.0000 C   0  0  0  0  0  0  0  0  0  0  0  0
   -3.1999    0.0001    0.0000 N   0  0  0  0  0  0  0  0  0  0  0  0
   -2.4001   -1.3856    0.0000 C   0  0  0  0  0  0  0  0  0  0  0  0
   -0.8001   -1.3856    0.0000 N   0  0  0  0  0  0  0  0  0  0  0  0
   -0.0000   -2.7712    0.0000 H   0  0  0  0  0  0  0  0  0  0  0  0
   -0.0000    0.0001    0.0000 C   0  0  0  0  0  0  0  0  0  0  0  0
   -0.2088    1.5863    0.0000 H   0  0  0  0  0  0  0  0  0  0  0  0
   -1.2694    0.9740    0.0000 H   0  0  0  0  0  0  0  0  0  0  0  0
    1.6000    0.0001    0.0000 C   0  0  0  0  0  0  0  0  0  0  0  0
    3.2000    0.0001    0.0000 H   0  0  0  0  0  0  0  0  0  0  0  0
    2.4000    1.3856    0.0000 H   0  0  0  0  0  0  0  0  0  0  0  0
    2.4000   -1.3856    0.0000 H   0  0  0  0  0  0  0  0  0  0  0  0
   -3.1999   -2.7712    0.0000 N   0  0  0  0  0  0  0  0  0  0  0  0
   -2.4001   -4.1569    0.0000 H   0  0  0  0  0  0  0  0  0  0  0  0
   -4.7999   -2.7712    0.0000 C   0  0  0  0  0  0  0  0  0  0  0  0
   -5.5999   -4.1569    0.0000 O   0  0  0  0  0  0  0  0  0  0  0  0
   -5.5999   -1.3856    0.0000 N   0  0  0  0  0  0  0  0  0  0  0  0
   -5.5999    1.3856    0.0000 N   0  0  0  0  0  0  0  0  0  0  0  0
   -4.7999    2.7713    0.0000 H   0  0  0  0  0  0  0  0  0  0  0  0
   -7.2000    1.3856    0.0000 C   0  0  0  0  0  0  0  0  0  0  0  0
   -8.4693    0.4116    0.0000 H   0  0  0  0  0  0  0  0  0  0  0  0
   -7.4088   -0.2006    0.0000 H   0  0  0  0  0  0  0  0  0  0  0  0
   -8.0000    2.7713    0.0000 C   0  0  0  0  0  0  0  0  0  0  0  0
   -8.8000    4.1569    0.0000 H   0  0  0  0  0  0  0  0  0  0  0  0
   -9.6000    2.7712    0.0000 H   0  0  0  0  0  0  0  0  0  0  0  0
   -7.2000    4.1569    0.0000 H   0  0  0  0  0  0  0  0  0  0  0  0
  1  2  1  0  0  0  0
  2  3  2  0  0  0  0
  3  4  1  0  0  0  0
  4  5  1  0  0  0  0
  4  6  1  0  0  0  0
  6  7  1  0  0  0  0
  6  8  1  0  0  0  0
  6  9  1  0  0  0  0
  9 10  1  0  0  0  0
  9 11  1  0  0  0  0
  9 12  1  0  0  0  0
  3 13  1  0  0  0  0
 13 14  1  0  0  0  0
 13 15  1  0  0  0  0
 15 16  2  0  0  0  0
 15 17  1  0  0  0  0
 17  1  2  0  0  0  0
  1 18  1  0  0  0  0
 18 19  1  0  0  0  0
 18 20  1  0  0  0  0
 20 21  1  0  0  0  0
 20 22  1  0  0  0  0
 20 23  1  0  0  0  0
 23 24  1  0  0  0  0
 23 25  1  0  0  0  0
 23 26  1  0  0  0  0
M  END
> <ChemID>
101043

> <source_casrn>
2599-11-3

> <CAS>
2599-11-3

> <SMILES>
n(c(nc(n1)NCC)NCC)c1O

> <NAME>
Hydroxysimazine

> <preferred_name>
1,3,5-Triazin-2(1H)-one, 4,6-bis(ethylamino)-

> <iupac>


> <MPID>
101032

> <dsstox_substance_id>
DTXSID6062547

> <Canonical_QSARr>
CCNC1NC(=O)N=C(NCC)N=1

> <InChI_Code_QSARr>
InChI=1S/C7H13N5O/c1-3-8-5-10-6(9-4-2)12-7(13)11-5/h3-4H2,1-2H3,(H3,8,9,10,11,12,13)

> <InChI Key_QSARr>
YQIXRXMOJFQVBV-UHFFFAOYSA-N

> <Salt_Solvent>
?

> <Ready_Biodeg>
0.0

$$$$
101046
  -INDIGO-08031722522D

 38 38  0  0  0  0  0  0  0  0999 V2000
   -3.2503    2.6270    0.0000 O   0  0  0  0  0  0  0  0  0  0  0  0
   -1.9239    1.7322    0.0000 C   0  0  0  0  0  0  0  0  0  0  0  0
   -1.5913    0.1672    0.0000 C   0  0  0  0  0  0  0  0  0  0  0  0
   -1.5913   -1.4327    0.0000 H   0  0  0  0  0  0  0  0  0  0  0  0
   -3.1826    0.0000    0.0000 C   0  0  0  0  0  0  0  0  0  0  0  0
   -4.5467    0.8360    0.0000 H   0  0  0  0  0  0  0  0  0  0  0  0
   -3.5560    1.5558    0.0000 H   0  0  0  0  0  0  0  0  0  0  0  0
   -3.8333   -1.4617    0.0000 C   0  0  0  0  0  0  0  0  0  0  0  0
   -2.4689   -2.2977    0.0000 H   0  0  0  0  0  0  0  0  0  0  0  0
   -3.4596   -3.0174    0.0000 H   0  0  0  0  0  0  0  0  0  0  0  0
   -5.4244   -1.6289    0.0000 C   0  0  0  0  0  0  0  0  0  0  0  0
   -6.7887   -0.7930    0.0000 H   0  0  0  0  0  0  0  0  0  0  0  0
   -5.7980   -0.0731    0.0000 H   0  0  0  0  0  0  0  0  0  0  0  0
   -6.0753   -3.0906    0.0000 C   0  0  0  0  0  0  0  0  0  0  0  0
   -4.7110   -3.9266    0.0000 H   0  0  0  0  0  0  0  0  0  0  0  0
   -5.7017   -4.6464    0.0000 H   0  0  0  0  0  0  0  0  0  0  0  0
   -7.6664   -3.2578    0.0000 C   0  0  0  0  0  0  0  0  0  0  0  0
   -9.2577   -3.4251    0.0000 H   0  0  0  0  0  0  0  0  0  0  0  0
   -8.3174   -4.7195    0.0000 H   0  0  0  0  0  0  0  0  0  0  0  0
   -8.6070   -1.9634    0.0000 H   0  0  0  0  0  0  0  0  0  0  0  0
    0.0001    0.0000    0.0000 C   0  0  0  0  0  0  0  0  0  0  0  0
   -0.3326   -1.5651    0.0000 H   0  0  0  0  0  0  0  0  0  0  0  0
    1.5217   -0.4945    0.0000 C   0  0  0  0  0  0  0  0  0  0  0  0
    1.2301   -2.0677    0.0000 H   0  0  0  0  0  0  0  0  0  0  0  0
    2.4278   -1.8130    0.0000 H   0  0  0  0  0  0  0  0  0  0  0  0
    3.0051    0.1049    0.0000 C   0  0  0  0  0  0  0  0  0  0  0  0
    4.2660   -0.8801    0.0000 O   0  0  0  0  0  0  0  0  0  0  0  0
    5.7496   -0.2807    0.0000 C   0  0  0  0  0  0  0  0  0  0  0  0
    7.2330    0.3186    0.0000 H   0  0  0  0  0  0  0  0  0  0  0  0
    7.0103   -1.2658    0.0000 H   0  0  0  0  0  0  0  0  0  0  0  0
    5.9721    1.3037    0.0000 H   0  0  0  0  0  0  0  0  0  0  0  0
    3.2278    1.6893    0.0000 O   0  0  0  0  0  0  0  0  0  0  0  0
    0.6508    1.4616    0.0000 C   0  0  0  0  0  0  0  0  0  0  0  0
    2.0365    0.6617    0.0000 H   0  0  0  0  0  0  0  0  0  0  0  0
    1.5911    2.7561    0.0000 H   0  0  0  0  0  0  0  0  0  0  0  0
   -0.5382    2.5323    0.0000 C   0  0  0  0  0  0  0  0  0  0  0  0
    0.6508    3.6029    0.0000 H   0  0  0  0  0  0  0  0  0  0  0  0
   -1.4788    3.8267    0.0000 H   0  0  0  0  0  0  0  0  0  0  0  0
  1  2  2  0  0  0  0
  2  3  1  0  0  0  0
  3  4  1  0  0  0  0
  3  5  1  0  0  0  0
  5  6  1  0  0  0  0
  5  7  1  0  0  0  0
  5  8  1  0  0  0  0
  8  9  1  0  0  0  0
  8 10  1  0  0  0  0
  8 11  1  0  0  0  0
 11 12  1  0  0  0  0
 11 13  1  0  0  0  0
 11 14  1  0  0  0  0
 14 15  1  0  0  0  0
 14 16  1  0  0  0  0
 14 17  1  0  0  0  0
 17 18  1  0  0  0  0
 17 19  1  0  0  0  0
 17 20  1  0  0  0  0
  3 21  1  0  0  0  0
 21 22  1  0  0  0  0
 21 23  1  0  0  0  0
 23 24  1  0  0  0  0
 23 25  1  0  0  0  0
 23 26  1  0  0  0  0
 26 27  1  0  0  0  0
 27 28  1  0  0  0  0
 28 29  1  0  0  0  0
 28 30  1  0  0  0  0
 28 31  1  0  0  0  0
 26 32  2  0  0  0  0
 21 33  1  0  0  0  0
 33 34  1  0  0  0  0
 33 35  1  0  0  0  0
 33 36  1  0  0  0  0
 36  2  1  0  0  0  0
 36 37  1  0  0  0  0
 36 38  1  0  0  0  0
M  END
> <ChemID>
101046

> <source_casrn>
2630-39-9|24851-98-7

> <CAS>
24851-98-7

> <SMILES>
O=C(OC)CC(C(C(=O)C1)CCCCC)C1

> <NAME>
Cyclopentaneacetic acid, 3-oxo-2-pentyl-, methyl ester, (-)-, Cyclopentaneacetic acid, 3-oxo-2-pentyl-, methyl ester

> <preferred_name>
Methyl dihydrojasmonate, (+-)-trans-

> <iupac>
methyl 2-[(1S,2S)-3-oxo-2-pentylcyclopentyl]acetate

> <MPID>
101035|101150

> <dsstox_substance_id>
DTXSID2029325

> <Canonical_QSARr>
CCCCCC1C(CCC1=O)CC(=O)OC

> <InChI_Code_QSARr>
InChI=1S/C13H22O3/c1-3-4-5-6-11-10(7-8-12(11)14)9-13(15)16-2/h10-11H,3-9H2,1-2H3

> <InChI Key_QSARr>
KVWWIYGFBYDJQC-UHFFFAOYSA-N

> <Salt_Solvent>
?

> <Ready_Biodeg>
1.0

$$$$
101047
  -INDIGO-08031722522D

 29 29  0  0  0  0  0  0  0  0999 V2000
    4.8001   -0.0000    0.0000 C   0  0  0  0  0  0  0  0  0  0  0  0
    5.6001   -1.3856    0.0000 O   0  0  0  0  0  0  0  0  0  0  0  0
    3.2000   -0.0000    0.0000 O   0  0  0  0  0  0  0  0  0  0  0  0
    2.4000   -1.3856    0.0000 C   0  0  0  0  0  0  0  0  0  0  0  0
    0.8000   -1.3856    0.0000 C   0  0  0  0  0  0  0  0  0  0  0  0
   -0.0001   -0.0000    0.0000 C   0  0  0  0  0  0  0  0  0  0  0  0
    1.3856    0.8001    0.0000 H   0  0  0  0  0  0  0  0  0  0  0  0
   -0.5473    1.5035    0.0000 C   0  0  0  0  0  0  0  0  0  0  0  0
   -1.0944    3.0070    0.0000 H   0  0  0  0  0  0  0  0  0  0  0  0
    0.4812    2.7291    0.0000 H   0  0  0  0  0  0  0  0  0  0  0  0
   -2.1229    1.7814    0.0000 H   0  0  0  0  0  0  0  0  0  0  0  0
   -1.3856   -0.8000    0.0000 C   0  0  0  0  0  0  0  0  0  0  0  0
   -2.7713   -1.6000    0.0000 H   0  0  0  0  0  0  0  0  0  0  0  0
   -2.7713   -0.0000    0.0000 H   0  0  0  0  0  0  0  0  0  0  0  0
   -1.3856    0.8001    0.0000 H   0  0  0  0  0  0  0  0  0  0  0  0
   -0.0001   -2.7712    0.0000 C   0  0  0  0  0  0  0  0  0  0  0  0
   -1.5999   -2.7712    0.0000 H   0  0  0  0  0  0  0  0  0  0  0  0
    0.8000   -4.1570    0.0000 C   0  0  0  0  0  0  0  0  0  0  0  0
   -0.0001   -5.5426    0.0000 H   0  0  0  0  0  0  0  0  0  0  0  0
    2.4000   -4.1570    0.0000 C   0  0  0  0  0  0  0  0  0  0  0  0
    3.2000   -5.5426    0.0000 H   0  0  0  0  0  0  0  0  0  0  0  0
    3.2000   -2.7712    0.0000 C   0  0  0  0  0  0  0  0  0  0  0  0
    4.8001   -2.7712    0.0000 H   0  0  0  0  0  0  0  0  0  0  0  0
    5.6001    1.3857    0.0000 N   0  0  0  0  0  0  0  0  0  0  0  0
    4.8001    2.7713    0.0000 H   0  0  0  0  0  0  0  0  0  0  0  0
    7.2000    1.3857    0.0000 C   0  0  0  0  0  0  0  0  0  0  0  0
    8.8000    1.3857    0.0000 H   0  0  0  0  0  0  0  0  0  0  0  0
    8.0000    2.7713    0.0000 H   0  0  0  0  0  0  0  0  0  0  0  0
    8.0000   -0.0000    0.0000 H   0  0  0  0  0  0  0  0  0  0  0  0
  1  2  2  0  0  0  0
  1  3  1  0  0  0  0
  3  4  1  0  0  0  0
  4  5  1  0  0  0  0
  5  6  1  0  0  0  0
  6  7  1  0  0  0  0
  6  8  1  0  0  0  0
  8  9  1  0  0  0  0
  8 10  1  0  0  0  0
  8 11  1  0  0  0  0
  6 12  1  0  0  0  0
 12 13  1  0  0  0  0
 12 14  1  0  0  0  0
 12 15  1  0  0  0  0
  5 16  2  0  0  0  0
 16 17  1  0  0  0  0
 16 18  1  0  0  0  0
 18 19  1  0  0  0  0
 18 20  2  0  0  0  0
 20 21  1  0  0  0  0
 20 22  1  0  0  0  0
 22  4  2  0  0  0  0
 22 23  1  0  0  0  0
  1 24  1  0  0  0  0
 24 25  1  0  0  0  0
 24 26  1  0  0  0  0
 26 27  1  0  0  0  0
 26 28  1  0  0  0  0
 26 29  1  0  0  0  0
M  END
> <ChemID>
101047

> <source_casrn>
2631-40-5

> <CAS>
2631-40-5

> <SMILES>
CNC(=O)Oc1ccccc1C(C)C

> <NAME>
Phenol, 2-(1-methylethyl)-, methylcarbamate

> <preferred_name>
Isoprocarb

> <iupac>
2-(propan-2-yl)phenyl methylcarbamate

> <MPID>
101036

> <dsstox_substance_id>
DTXSID6042072

> <Canonical_QSARr>
CNC(=O)Oc1ccccc1C(C)C

> <InChI_Code_QSARr>
InChI=1S/C11H15NO2/c1-8(2)9-6-4-5-7-10(9)14-11(13)12-3/h4-8H,1-3H3,(H,12,13)

> <InChI Key_QSARr>
QBSJMKIUCUGGNG-UHFFFAOYSA-N

> <Salt_Solvent>
?

> <Ready_Biodeg>
0.0

$$$$
101048
  -INDIGO-08031722522D

 26 26  0  0  0  0  0  0  0  0999 V2000
    1.3856    0.8000    0.0000 C   0  0  0  0  0  0  0  0  0  0  0  0
    2.7713    1.6001    0.0000 H   0  0  0  0  0  0  0  0  0  0  0  0
    1.3856    2.4000    0.0000 H   0  0  0  0  0  0  0  0  0  0  0  0
    2.7713    0.0001    0.0000 H   0  0  0  0  0  0  0  0  0  0  0  0
    0.0001    0.0001    0.0000 C   0  0  0  0  0  0  0  0  0  0  0  0
    0.0001   -1.6001    0.0000 C   0  0  0  0  0  0  0  0  0  0  0  0
    1.3856   -2.4000    0.0000 H   0  0  0  0  0  0  0  0  0  0  0  0
   -1.3856   -2.4000    0.0000 C   0  0  0  0  0  0  0  0  0  0  0  0
   -1.3856   -4.0000    0.0000 C   0  0  0  0  0  0  0  0  0  0  0  0
   -1.3856   -5.6000    0.0000 H   0  0  0  0  0  0  0  0  0  0  0  0
   -2.7713   -4.8001    0.0000 H   0  0  0  0  0  0  0  0  0  0  0  0
    0.0001   -4.8001    0.0000 H   0  0  0  0  0  0  0  0  0  0  0  0
   -2.7713   -1.5999    0.0000 C   0  0  0  0  0  0  0  0  0  0  0  0
   -4.1569   -2.4000    0.0000 H   0  0  0  0  0  0  0  0  0  0  0  0
   -2.7713    0.0001    0.0000 C   0  0  0  0  0  0  0  0  0  0  0  0
   -4.1569    0.8000    0.0000 O   0  0  0  0  0  0  0  0  0  0  0  0
   -5.5426    0.0001    0.0000 C   0  0  0  0  0  0  0  0  0  0  0  0
   -6.9283    0.8000    0.0000 N   0  0  0  0  0  0  0  0  0  0  0  0
   -6.9283    2.4000    0.0000 H   0  0  0  0  0  0  0  0  0  0  0  0
   -8.3138    0.0001    0.0000 C   0  0  0  0  0  0  0  0  0  0  0  0
   -9.6995   -0.8000    0.0000 H   0  0  0  0  0  0  0  0  0  0  0  0
   -9.6995    0.8000    0.0000 H   0  0  0  0  0  0  0  0  0  0  0  0
   -8.3138   -1.5999    0.0000 H   0  0  0  0  0  0  0  0  0  0  0  0
   -5.5426   -1.5999    0.0000 O   0  0  0  0  0  0  0  0  0  0  0  0
   -1.3856    0.8000    0.0000 C   0  0  0  0  0  0  0  0  0  0  0  0
   -1.3856    2.4000    0.0000 H   0  0  0  0  0  0  0  0  0  0  0  0
  1  2  1  0  0  0  0
  1  3  1  0  0  0  0
  1  4  1  0  0  0  0
  1  5  1  0  0  0  0
  5  6  1  0  0  0  0
  6  7  1  0  0  0  0
  6  8  2  0  0  0  0
  8  9  1  0  0  0  0
  9 10  1  0  0  0  0
  9 11  1  0  0  0  0
  9 12  1  0  0  0  0
  8 13  1  0  0  0  0
 13 14  1  0  0  0  0
 13 15  2  0  0  0  0
 15 16  1  0  0  0  0
 16 17  1  0  0  0  0
 17 18  1  0  0  0  0
 18 19  1  0  0  0  0
 18 20  1  0  0  0  0
 20 21  1  0  0  0  0
 20 22  1  0  0  0  0
 20 23  1  0  0  0  0
 17 24  2  0  0  0  0
 15 25  1  0  0  0  0
 25  5  2  0  0  0  0
 25 26  1  0  0  0  0
M  END
> <ChemID>
101048

> <source_casrn>
2655-14-3

> <CAS>
2655-14-3

> <SMILES>
CNC(=O)Oc1cc(C)cc(C)c1

> <NAME>
N-Me-3,5-dimethylphenyl carbamate

> <preferred_name>
XMC

> <iupac>
3,5-dimethylphenyl methylcarbamate

> <MPID>
101037

> <dsstox_substance_id>
DTXSID7058042

> <Canonical_QSARr>
CNC(=O)Oc1cc(C)cc(C)c1

> <InChI_Code_QSARr>
InChI=1S/C10H13NO2/c1-7-4-8(2)6-9(5-7)13-10(12)11-3/h4-6H,1-3H3,(H,11,12)

> <InChI Key_QSARr>
CVQODEWAPZVVBU-UHFFFAOYSA-N

> <Salt_Solvent>
?

> <Ready_Biodeg>
0.0

$$$$
101050
  -INDIGO-08031722522D

 19 18  0  0  0  0  0  0  0  0999 V2000
   -0.0000    0.0000    0.0000 C   0  0  0  0  0  0  0  0  0  0  0  0
   -0.2778   -1.5757    0.0000 O   0  0  0  0  0  0  0  0  0  0  0  0
    0.9478   -2.6042    0.0000 H   0  0  0  0  0  0  0  0  0  0  0  0
   -0.0000    1.6000    0.0000 C   0  0  0  0  0  0  0  0  0  0  0  0
   -0.0000    3.2000    0.0000 H   0  0  0  0  0  0  0  0  0  0  0  0
    1.3857    2.4000    0.0000 H   0  0  0  0  0  0  0  0  0  0  0  0
   -1.3856    2.4000    0.0000 H   0  0  0  0  0  0  0  0  0  0  0  0
   -1.6000    0.0000    0.0000 P   0  0  0  0  0  0  0  0  0  0  0  0
   -3.2001    0.0000    0.0000 O   0  0  0  0  0  0  0  0  0  0  0  0
   -4.0000   -1.3857    0.0000 H   0  0  0  0  0  0  0  0  0  0  0  0
   -2.4000    1.3856    0.0000 O   0  0  0  0  0  0  0  0  0  0  0  0
   -2.4000   -1.3857    0.0000 O   0  0  0  0  0  0  0  0  0  0  0  0
   -1.6000   -2.7713    0.0000 H   0  0  0  0  0  0  0  0  0  0  0  0
    1.6000    0.0000    0.0000 P   0  0  0  0  0  0  0  0  0  0  0  0
    3.1757    0.2778    0.0000 O   0  0  0  0  0  0  0  0  0  0  0  0
    4.2042   -0.9479    0.0000 H   0  0  0  0  0  0  0  0  0  0  0  0
    2.1472    1.5035    0.0000 O   0  0  0  0  0  0  0  0  0  0  0  0
    2.6284   -1.2257    0.0000 O   0  0  0  0  0  0  0  0  0  0  0  0
    2.0812   -2.7292    0.0000 H   0  0  0  0  0  0  0  0  0  0  0  0
  1  2  1  0  0  0  0
  2  3  1  0  0  0  0
  1  4  1  0  0  0  0
  4  5  1  0  0  0  0
  4  6  1  0  0  0  0
  4  7  1  0  0  0  0
  1  8  1  0  0  0  0
  8  9  1  0  0  0  0
  9 10  1  0  0  0  0
  8 11  2  0  0  0  0
  8 12  1  0  0  0  0
 12 13  1  0  0  0  0
  1 14  1  0  0  0  0
 14 15  1  0  0  0  0
 15 16  1  0  0  0  0
 14 17  2  0  0  0  0
 14 18  1  0  0  0  0
 18 19  1  0  0  0  0
M  END
> <ChemID>
101050

> <source_casrn>
2809-21-4

> <CAS>
2809-21-4

> <SMILES>
CC(O)(P(O)(O)=O)P(O)(O)=O

> <NAME>
1-Hydroxyethane-1,1-diphosphonic acid

> <preferred_name>
Etidronic acid

> <iupac>
(1-hydroxyethane-1,1-diyl)bis(phosphonic acid)

> <MPID>
101039

> <dsstox_substance_id>
DTXSID6023028

> <Canonical_QSARr>
CC(O)(P(O)(O)=O)P(O)(O)=O

> <InChI_Code_QSARr>
InChI=1S/C2H8O7P2/c1-2(3,10(4,5)6)11(7,8)9/h3H,1H3,(H2,4,5,6)(H2,7,8,9)

> <InChI Key_QSARr>
DBVJJBKOTRCVKF-UHFFFAOYSA-N

> <Salt_Solvent>
?

> <Ready_Biodeg>
1.0

$$$$
101051
  -INDIGO-08031722522D

 23 23  0  0  0  0  0  0  0  0999 V2000
    2.7713    0.0000    0.0000 N   0  0  0  0  0  0  0  0  0  0  0  0
    2.7713    1.6000    0.0000 H   0  0  0  0  0  0  0  0  0  0  0  0
    1.3856   -0.8000    0.0000 C   0  0  0  0  0  0  0  0  0  0  0  0
   -0.0000    0.0000    0.0000 C   0  0  0  0  0  0  0  0  0  0  0  0
    0.8001    1.3856    0.0000 H   0  0  0  0  0  0  0  0  0  0  0  0
   -1.3857    0.8000    0.0000 C   0  0  0  0  0  0  0  0  0  0  0  0
   -2.7713    1.6000    0.0000 H   0  0  0  0  0  0  0  0  0  0  0  0
   -2.7713    0.0000    0.0000 H   0  0  0  0  0  0  0  0  0  0  0  0
   -1.3857    2.4000    0.0000 H   0  0  0  0  0  0  0  0  0  0  0  0
   -0.8000   -1.3856    0.0000 C   0  0  0  0  0  0  0  0  0  0  0  0
   -1.6000   -2.7712    0.0000 H   0  0  0  0  0  0  0  0  0  0  0  0
   -2.3999   -1.3856    0.0000 H   0  0  0  0  0  0  0  0  0  0  0  0
   -0.0000   -2.7712    0.0000 H   0  0  0  0  0  0  0  0  0  0  0  0
    1.3856   -2.4000    0.0000 N   0  0  0  0  0  0  0  0  0  0  0  0
    2.7713   -3.2000    0.0000 C   0  0  0  0  0  0  0  0  0  0  0  0
    2.7713   -4.8000    0.0000 O   0  0  0  0  0  0  0  0  0  0  0  0
    4.1570   -2.4000    0.0000 C   0  0  0  0  0  0  0  0  0  0  0  0
    5.5426   -3.2000    0.0000 H   0  0  0  0  0  0  0  0  0  0  0  0
    4.1570   -0.8000    0.0000 C   0  0  0  0  0  0  0  0  0  0  0  0
    5.5426    0.0000    0.0000 C   0  0  0  0  0  0  0  0  0  0  0  0
    6.9282    0.8000    0.0000 H   0  0  0  0  0  0  0  0  0  0  0  0
    6.9282   -0.8000    0.0000 H   0  0  0  0  0  0  0  0  0  0  0  0
    5.5426    1.6000    0.0000 H   0  0  0  0  0  0  0  0  0  0  0  0
  1  2  1  0  0  0  0
  1  3  1  0  0  0  0
  3  4  1  0  0  0  0
  4  5  1  0  0  0  0
  4  6  1  0  0  0  0
  6  7  1  0  0  0  0
  6  8  1  0  0  0  0
  6  9  1  0  0  0  0
  4 10  1  0  0  0  0
 10 11  1  0  0  0  0
 10 12  1  0  0  0  0
 10 13  1  0  0  0  0
  3 14  2  0  0  0  0
 14 15  1  0  0  0  0
 15 16  2  0  0  0  0
 15 17  1  0  0  0  0
 17 18  1  0  0  0  0
 17 19  2  0  0  0  0
 19  1  1  0  0  0  0
 19 20  1  0  0  0  0
 20 21  1  0  0  0  0
 20 22  1  0  0  0  0
 20 23  1  0  0  0  0
M  END
> <ChemID>
101051

> <source_casrn>
2814-20-2

> <CAS>
2814-20-2

> <SMILES>
CC1=CC(=O)N=C(N1)C(C)C

> <NAME>
4(1H)-Pyrimidinone, 6-methyl-2-(1-methylethyl)-

> <preferred_name>
2-Isopropyl-6-methyl-4-pyrimidone

> <iupac>
6-methyl-2-(propan-2-yl)pyrimidin-4(1H)-one

> <MPID>
101040

> <dsstox_substance_id>
DTXSID1027502

> <Canonical_QSARr>
CC1=CC(=O)N=C(N1)C(C)C

> <InChI_Code_QSARr>
InChI=1S/C8H12N2O/c1-5(2)8-9-6(3)4-7(11)10-8/h4-5H,1-3H3,(H,9,10,11)

> <InChI Key_QSARr>
AJPIUNPJBFBUKK-UHFFFAOYSA-N

> <Salt_Solvent>
?

> <Ready_Biodeg>
0.0

$$$$
101052
  -INDIGO-08031722522D

 57 56  0  0  0  0  0  0  0  0999 V2000
   -0.0002    0.0000    0.0000 C   0  0  0  0  0  0  0  0  0  0  0  0
    0.6121    1.4782    0.0000 H   0  0  0  0  0  0  0  0  0  0  0  0
   -0.6121    1.4782    0.0000 H   0  0  0  0  0  0  0  0  0  0  0  0
    1.3855   -0.8000    0.0000 C   0  0  0  0  0  0  0  0  0  0  0  0
    0.7732   -2.2782    0.0000 H   0  0  0  0  0  0  0  0  0  0  0  0
    1.9979   -2.2782    0.0000 H   0  0  0  0  0  0  0  0  0  0  0  0
    2.7713    0.0000    0.0000 C   0  0  0  0  0  0  0  0  0  0  0  0
    3.3836    1.4782    0.0000 H   0  0  0  0  0  0  0  0  0  0  0  0
    2.1590    1.4782    0.0000 H   0  0  0  0  0  0  0  0  0  0  0  0
    4.1570   -0.8000    0.0000 C   0  0  0  0  0  0  0  0  0  0  0  0
    3.5447   -2.2782    0.0000 H   0  0  0  0  0  0  0  0  0  0  0  0
    4.7693   -2.2782    0.0000 H   0  0  0  0  0  0  0  0  0  0  0  0
    5.5428    0.0000    0.0000 C   0  0  0  0  0  0  0  0  0  0  0  0
    6.1547    1.4782    0.0000 H   0  0  0  0  0  0  0  0  0  0  0  0
    4.9305    1.4782    0.0000 H   0  0  0  0  0  0  0  0  0  0  0  0
    6.9281   -0.8000    0.0000 C   0  0  0  0  0  0  0  0  0  0  0  0
    6.3158   -2.2782    0.0000 H   0  0  0  0  0  0  0  0  0  0  0  0
    7.5404   -2.2782    0.0000 H   0  0  0  0  0  0  0  0  0  0  0  0
    8.3138    0.0000    0.0000 C   0  0  0  0  0  0  0  0  0  0  0  0
    8.9262    1.4782    0.0000 H   0  0  0  0  0  0  0  0  0  0  0  0
    7.7015    1.4782    0.0000 H   0  0  0  0  0  0  0  0  0  0  0  0
    9.6996   -0.8000    0.0000 C   0  0  0  0  0  0  0  0  0  0  0  0
    9.0873   -2.2782    0.0000 H   0  0  0  0  0  0  0  0  0  0  0  0
   10.3119   -2.2782    0.0000 H   0  0  0  0  0  0  0  0  0  0  0  0
   11.0853    0.0000    0.0000 C   0  0  0  0  0  0  0  0  0  0  0  0
   11.6972    1.4782    0.0000 H   0  0  0  0  0  0  0  0  0  0  0  0
   10.4730    1.4782    0.0000 H   0  0  0  0  0  0  0  0  0  0  0  0
   12.4707   -0.8000    0.0000 C   0  0  0  0  0  0  0  0  0  0  0  0
   13.8564   -1.6000    0.0000 H   0  0  0  0  0  0  0  0  0  0  0  0
   13.8564    0.0000    0.0000 H   0  0  0  0  0  0  0  0  0  0  0  0
   12.4707   -2.4000    0.0000 H   0  0  0  0  0  0  0  0  0  0  0  0
   -1.3855   -0.8000    0.0000 C   0  0  0  0  0  0  0  0  0  0  0  0
   -1.9979   -2.2782    0.0000 H   0  0  0  0  0  0  0  0  0  0  0  0
   -0.7732   -2.2782    0.0000 H   0  0  0  0  0  0  0  0  0  0  0  0
   -2.7713    0.0000    0.0000 C   0  0  0  0  0  0  0  0  0  0  0  0
   -2.1590    1.4782    0.0000 H   0  0  0  0  0  0  0  0  0  0  0  0
   -3.3836    1.4782    0.0000 H   0  0  0  0  0  0  0  0  0  0  0  0
   -4.1570   -0.8000    0.0000 C   0  0  0  0  0  0  0  0  0  0  0  0
   -4.7693   -2.2782    0.0000 H   0  0  0  0  0  0  0  0  0  0  0  0
   -3.5447   -2.2782    0.0000 H   0  0  0  0  0  0  0  0  0  0  0  0
   -5.5428    0.0000    0.0000 C   0  0  0  0  0  0  0  0  0  0  0  0
   -4.9305    1.4782    0.0000 H   0  0  0  0  0  0  0  0  0  0  0  0
   -6.1547    1.4782    0.0000 H   0  0  0  0  0  0  0  0  0  0  0  0
   -6.9281   -0.8000    0.0000 C   0  0  0  0  0  0  0  0  0  0  0  0
   -7.5404   -2.2782    0.0000 H   0  0  0  0  0  0  0  0  0  0  0  0
   -6.3158   -2.2782    0.0000 H   0  0  0  0  0  0  0  0  0  0  0  0
   -8.3138    0.0000    0.0000 C   0  0  0  0  0  0  0  0  0  0  0  0
   -7.7015    1.4782    0.0000 H   0  0  0  0  0  0  0  0  0  0  0  0
   -8.9262    1.4782    0.0000 H   0  0  0  0  0  0  0  0  0  0  0  0
   -9.6996   -0.8000    0.0000 C   0  0  0  0  0  0  0  0  0  0  0  0
  -10.3119   -2.2782    0.0000 H   0  0  0  0  0  0  0  0  0  0  0  0
   -9.0873   -2.2782    0.0000 H   0  0  0  0  0  0  0  0  0  0  0  0
  -11.0853    0.0000    0.0000 C   0  0  0  0  0  0  0  0  0  0  0  0
  -10.4730    1.4782    0.0000 H   0  0  0  0  0  0  0  0  0  0  0  0
  -11.6972    1.4782    0.0000 H   0  0  0  0  0  0  0  0  0  0  0  0
  -12.4707   -0.8000    0.0000 S   0  0  0  0  0  0  0  0  0  0  0  0
  -13.8564    0.0000    0.0000 H   0  0  0  0  0  0  0  0  0  0  0  0
  1  2  1  0  0  0  0
  1  3  1  0  0  0  0
  1  4  1  0  0  0  0
  4  5  1  0  0  0  0
  4  6  1  0  0  0  0
  4  7  1  0  0  0  0
  7  8  1  0  0  0  0
  7  9  1  0  0  0  0
  7 10  1  0  0  0  0
 10 11  1  0  0  0  0
 10 12  1  0  0  0  0
 10 13  1  0  0  0  0
 13 14  1  0  0  0  0
 13 15  1  0  0  0  0
 13 16  1  0  0  0  0
 16 17  1  0  0  0  0
 16 18  1  0  0  0  0
 16 19  1  0  0  0  0
 19 20  1  0  0  0  0
 19 21  1  0  0  0  0
 19 22  1  0  0  0  0
 22 23  1  0  0  0  0
 22 24  1  0  0  0  0
 22 25  1  0  0  0  0
 25 26  1  0  0  0  0
 25 27  1  0  0  0  0
 25 28  1  0  0  0  0
 28 29  1  0  0  0  0
 28 30  1  0  0  0  0
 28 31  1  0  0  0  0
  1 32  1  0  0  0  0
 32 33  1  0  0  0  0
 32 34  1  0  0  0  0
 32 35  1  0  0  0  0
 35 36  1  0  0  0  0
 35 37  1  0  0  0  0
 35 38  1  0  0  0  0
 38 39  1  0  0  0  0
 38 40  1  0  0  0  0
 38 41  1  0  0  0  0
 41 42  1  0  0  0  0
 41 43  1  0  0  0  0
 41 44  1  0  0  0  0
 44 45  1  0  0  0  0
 44 46  1  0  0  0  0
 44 47  1  0  0  0  0
 47 48  1  0  0  0  0
 47 49  1  0  0  0  0
 47 50  1  0  0  0  0
 50 51  1  0  0  0  0
 50 52  1  0  0  0  0
 50 53  1  0  0  0  0
 53 54  1  0  0  0  0
 53 55  1  0  0  0  0
 53 56  1  0  0  0  0
 56 57  1  0  0  0  0
M  END
> <ChemID>
101052

> <source_casrn>
2885-00-9

> <CAS>
2885-00-9

> <SMILES>
CCCCCCCCCCCCCCCCCCS

> <NAME>
1-Octadecanethiol

> <preferred_name>
1-Octadecanethiol

> <iupac>
octadecane-1-thiol

> <MPID>
101041

> <dsstox_substance_id>
DTXSID0062686

> <Canonical_QSARr>
CCCCCCCCCCCCCCCCCCS

> <InChI_Code_QSARr>
InChI=1S/C18H38S/c1-2-3-4-5-6-7-8-9-10-11-12-13-14-15-16-17-18-19/h19H,2-18H2,1H3

> <InChI Key_QSARr>
QJAOYSPHSNGHNC-UHFFFAOYSA-N

> <Salt_Solvent>
?

> <Ready_Biodeg>
0.0

$$$$
101054
  -INDIGO-08031722522D

 15 14  0  0  0  0  0  0  0  0999 V2000
   -1.3857    0.8000    0.0000 C   0  0  0  0  0  0  0  0  0  0  0  0
    0.0001    0.0000    0.0000 C   0  0  0  0  0  0  0  0  0  0  0  0
    0.6124   -1.4782    0.0000 H   0  0  0  0  0  0  0  0  0  0  0  0
   -0.6122   -1.4782    0.0000 H   0  0  0  0  0  0  0  0  0  0  0  0
    1.3857    0.8000    0.0000 C   0  0  0  0  0  0  0  0  0  0  0  0
    0.7734    2.2782    0.0000 H   0  0  0  0  0  0  0  0  0  0  0  0
    1.9980    2.2782    0.0000 H   0  0  0  0  0  0  0  0  0  0  0  0
    2.7713    0.0000    0.0000 S   0  0  0  0  0  0  0  0  0  0  0  0
    4.1569    0.8000    0.0000 H   0  0  0  0  0  0  0  0  0  0  0  0
   -2.7713    0.0000    0.0000 O   0  0  0  0  0  0  0  0  0  0  0  0
   -4.1569    0.8000    0.0000 C   0  0  0  0  0  0  0  0  0  0  0  0
   -5.5426    1.6000    0.0000 H   0  0  0  0  0  0  0  0  0  0  0  0
   -5.5426    0.0000    0.0000 H   0  0  0  0  0  0  0  0  0  0  0  0
   -4.1569    2.4000    0.0000 H   0  0  0  0  0  0  0  0  0  0  0  0
   -1.3857    2.4000    0.0000 O   0  0  0  0  0  0  0  0  0  0  0  0
  1  2  1  0  0  0  0
  2  3  1  0  0  0  0
  2  4  1  0  0  0  0
  2  5  1  0  0  0  0
  5  6  1  0  0  0  0
  5  7  1  0  0  0  0
  5  8  1  0  0  0  0
  8  9  1  0  0  0  0
  1 10  1  0  0  0  0
 10 11  1  0  0  0  0
 11 12  1  0  0  0  0
 11 13  1  0  0  0  0
 11 14  1  0  0  0  0
  1 15  2  0  0  0  0
M  END
> <ChemID>
101054

> <source_casrn>
2935-90-2

> <CAS>
2935-90-2

> <SMILES>
COC(=O)CCS

> <NAME>
Propanoic acid, 3-mercapto-, methyl ester

> <preferred_name>
Methyl 3-sulfanylpropanoate

> <iupac>
methyl 3-sulfanylpropanoate

> <MPID>
101043

> <dsstox_substance_id>
DTXSID6027509

> <Canonical_QSARr>
COC(=O)CCS

> <InChI_Code_QSARr>
InChI=1S/C4H8O2S/c1-6-4(5)2-3-7/h7H,2-3H2,1H3

> <InChI Key_QSARr>
LDTLDBDUBGAEDT-UHFFFAOYSA-N

> <Salt_Solvent>
?

> <Ready_Biodeg>
1.0

$$$$
101055
  -INDIGO-08031722522D

 38 38  0  0  0  0  0  0  0  0999 V2000
    0.2778    4.7757    0.0000 N   0  0  0  0  0  0  0  0  0  0  0  0
    1.6635    3.9757    0.0000 C   0  0  0  0  0  0  0  0  0  0  0  0
    3.0492    4.7757    0.0000 H   0  0  0  0  0  0  0  0  0  0  0  0
    1.6635    2.3757    0.0000 C   0  0  0  0  0  0  0  0  0  0  0  0
    3.0492    1.5757    0.0000 H   0  0  0  0  0  0  0  0  0  0  0  0
    0.2778    1.5757    0.0000 C   0  0  0  0  0  0  0  0  0  0  0  0
   -0.0000   -0.0001    0.0000 C   0  0  0  0  0  0  0  0  0  0  0  0
   -1.5756    0.2778    0.0000 H   0  0  0  0  0  0  0  0  0  0  0  0
   -0.8001   -1.3856    0.0000 C   0  0  0  0  0  0  0  0  0  0  0  0
   -0.5911   -2.9719    0.0000 H   0  0  0  0  0  0  0  0  0  0  0  0
    0.4693   -2.3597    0.0000 H   0  0  0  0  0  0  0  0  0  0  0  0
   -2.4000   -1.3856    0.0000 C   0  0  0  0  0  0  0  0  0  0  0  0
   -2.6089    0.2006    0.0000 H   0  0  0  0  0  0  0  0  0  0  0  0
   -3.6695   -0.4116    0.0000 H   0  0  0  0  0  0  0  0  0  0  0  0
   -3.1999   -2.7713    0.0000 C   0  0  0  0  0  0  0  0  0  0  0  0
   -2.9911   -4.3576    0.0000 H   0  0  0  0  0  0  0  0  0  0  0  0
   -1.9307   -3.7454    0.0000 H   0  0  0  0  0  0  0  0  0  0  0  0
   -4.8001   -2.7713    0.0000 C   0  0  0  0  0  0  0  0  0  0  0  0
   -6.4000   -2.7713    0.0000 H   0  0  0  0  0  0  0  0  0  0  0  0
   -5.5999   -4.1569    0.0000 H   0  0  0  0  0  0  0  0  0  0  0  0
   -5.5999   -1.3856    0.0000 H   0  0  0  0  0  0  0  0  0  0  0  0
    1.5758   -0.2778    0.0000 C   0  0  0  0  0  0  0  0  0  0  0  0
    2.9949    0.4610    0.0000 H   0  0  0  0  0  0  0  0  0  0  0  0
    2.0568    1.2481    0.0000 H   0  0  0  0  0  0  0  0  0  0  0  0
    2.6042   -1.5035    0.0000 C   0  0  0  0  0  0  0  0  0  0  0  0
    1.5233   -2.6831    0.0000 H   0  0  0  0  0  0  0  0  0  0  0  0
    2.6740   -3.1021    0.0000 H   0  0  0  0  0  0  0  0  0  0  0  0
    4.1798   -1.2256    0.0000 C   0  0  0  0  0  0  0  0  0  0  0  0
    5.2607   -0.0461    0.0000 H   0  0  0  0  0  0  0  0  0  0  0  0
    4.1100    0.3727    0.0000 H   0  0  0  0  0  0  0  0  0  0  0  0
    5.2084   -2.4514    0.0000 C   0  0  0  0  0  0  0  0  0  0  0  0
    6.2368   -3.6771    0.0000 H   0  0  0  0  0  0  0  0  0  0  0  0
    6.7840   -2.1735    0.0000 H   0  0  0  0  0  0  0  0  0  0  0  0
    4.6610   -3.9548    0.0000 H   0  0  0  0  0  0  0  0  0  0  0  0
   -1.1079    2.3757    0.0000 C   0  0  0  0  0  0  0  0  0  0  0  0
   -2.4934    1.5757    0.0000 H   0  0  0  0  0  0  0  0  0  0  0  0
   -1.1079    3.9757    0.0000 C   0  0  0  0  0  0  0  0  0  0  0  0
   -2.4934    4.7757    0.0000 H   0  0  0  0  0  0  0  0  0  0  0  0
  1  2  1  0  0  0  0
  2  3  1  0  0  0  0
  2  4  2  0  0  0  0
  4  5  1  0  0  0  0
  4  6  1  0  0  0  0
  6  7  1  0  0  0  0
  7  8  1  0  0  0  0
  7  9  1  0  0  0  0
  9 10  1  0  0  0  0
  9 11  1  0  0  0  0
  9 12  1  0  0  0  0
 12 13  1  0  0  0  0
 12 14  1  0  0  0  0
 12 15  1  0  0  0  0
 15 16  1  0  0  0  0
 15 17  1  0  0  0  0
 15 18  1  0  0  0  0
 18 19  1  0  0  0  0
 18 20  1  0  0  0  0
 18 21  1  0  0  0  0
  7 22  1  0  0  0  0
 22 23  1  0  0  0  0
 22 24  1  0  0  0  0
 22 25  1  0  0  0  0
 25 26  1  0  0  0  0
 25 27  1  0  0  0  0
 25 28  1  0  0  0  0
 28 29  1  0  0  0  0
 28 30  1  0  0  0  0
 28 31  1  0  0  0  0
 31 32  1  0  0  0  0
 31 33  1  0  0  0  0
 31 34  1  0  0  0  0
  6 35  2  0  0  0  0
 35 36  1  0  0  0  0
 35 37  1  0  0  0  0
 37  1  2  0  0  0  0
 37 38  1  0  0  0  0
M  END
> <ChemID>
101055

> <source_casrn>
2961-47-9

> <CAS>
2961-47-9

> <SMILES>
CCCCC(CCCC)c1cc[n]cc1

> <NAME>
4-(1-Butylpentyl)pyridine

> <preferred_name>
4-(1-Butylpentyl)pyridine

> <iupac>
4-nonan-5-ylpyridine

> <MPID>
101044

> <dsstox_substance_id>
DTXSID2062745

> <Canonical_QSARr>
CCCCC(CCCC)c1cc[n]cc1

> <InChI_Code_QSARr>
InChI=1S/C14H23N/c1-3-5-7-13(8-6-4-2)14-9-11-15-12-10-14/h9-13H,3-8H2,1-2H3

> <InChI Key_QSARr>
ATCGHKBXRIOBDX-UHFFFAOYSA-N

> <Salt_Solvent>
?

> <Ready_Biodeg>
1.0

$$$$
101056
  -INDIGO-08031722522D

 18 18  0  0  0  0  0  0  0  0999 V2000
    1.6000   -0.0000    0.0000 C   0  0  0  0  0  0  0  0  0  0  0  0
    2.3999   -1.3856    0.0000 O   0  0  0  0  0  0  0  0  0  0  0  0
    0.0000   -0.0000    0.0000 C   0  0  0  0  0  0  0  0  0  0  0  0
   -0.7999    1.3856    0.0000 C   0  0  0  0  0  0  0  0  0  0  0  0
    0.0000    2.7713    0.0000 Cl  0  0  0  0  0  0  0  0  0  0  0  0
   -2.4000    1.3856    0.0000 C   0  0  0  0  0  0  0  0  0  0  0  0
   -3.2000    2.7713    0.0000 H   0  0  0  0  0  0  0  0  0  0  0  0
   -3.2000   -0.0000    0.0000 C   0  0  0  0  0  0  0  0  0  0  0  0
   -4.8000   -0.0000    0.0000 N   0  0  0  0  0  0  0  0  0  0  0  0
   -5.6000   -1.3856    0.0000 O   0  0  0  0  0  0  0  0  0  0  0  0
   -5.6000    1.3856    0.0000 O   0  0  0  0  0  0  0  0  0  0  0  0
   -2.4000   -1.3856    0.0000 C   0  0  0  0  0  0  0  0  0  0  0  0
   -3.2000   -2.7713    0.0000 H   0  0  0  0  0  0  0  0  0  0  0  0
   -0.8001   -1.3856    0.0000 C   0  0  0  0  0  0  0  0  0  0  0  0
    0.0000   -2.7713    0.0000 H   0  0  0  0  0  0  0  0  0  0  0  0
    2.4001    1.3856    0.0000 N   0  0  0  0  0  0  0  0  0  0  0  0
    4.0000    1.3856    0.0000 H   0  0  0  0  0  0  0  0  0  0  0  0
    1.6000    2.7713    0.0000 H   0  0  0  0  0  0  0  0  0  0  0  0
  1  2  2  0  0  0  0
  1  3  1  0  0  0  0
  3  4  1  0  0  0  0
  4  5  1  0  0  0  0
  4  6  2  0  0  0  0
  6  7  1  0  0  0  0
  6  8  1  0  0  0  0
  8  9  1  0  0  0  0
  9 10  1  0  0  0  0
  9 11  2  0  0  0  0
  8 12  2  0  0  0  0
 12 13  1  0  0  0  0
 12 14  1  0  0  0  0
 14  3  2  0  0  0  0
 14 15  1  0  0  0  0
  1 16  1  0  0  0  0
 16 17  1  0  0  0  0
 16 18  1  0  0  0  0
M  CHG  2   9   1  10  -1
M  END
> <ChemID>
101056

> <source_casrn>
3011-89-0

> <CAS>
3011-89-0

> <SMILES>
NC(=O)c1ccc(cc1Cl)[N+]([O-])=O

> <NAME>
Aklomide

> <preferred_name>
2-Chloro-4-nitrobenzamide

> <iupac>
2-chloro-4-nitrobenzamide

> <MPID>
101045

> <dsstox_substance_id>
DTXSID3041405

> <Canonical_QSARr>
NC(=O)c1ccc(cc1Cl)[N+]([O-])=O

> <InChI_Code_QSARr>
InChI=1S/C7H5ClN2O3/c8-6-3-4(10(12)13)1-2-5(6)7(9)11/h1-3H,(H2,9,11)

> <InChI Key_QSARr>
GFGSZUNNBQXGMK-UHFFFAOYSA-N

> <Salt_Solvent>
?

> <Ready_Biodeg>
1.0

$$$$
101058
  -INDIGO-08031722522D

 44 43  0  0  0  0  0  0  0  0999 V2000
    5.2647   -1.5757    0.0000 O   0  0  0  0  0  0  0  0  0  0  0  0
    5.5425    0.0001    0.0000 C   0  0  0  0  0  0  0  0  0  0  0  0
    7.0462    0.5472    0.0000 N   0  0  0  0  0  0  0  0  0  0  0  0
    8.2717   -0.4813    0.0000 C   0  0  0  0  0  0  0  0  0  0  0  0
    9.4513    0.5997    0.0000 H   0  0  0  0  0  0  0  0  0  0  0  0
    9.8702   -0.5510    0.0000 H   0  0  0  0  0  0  0  0  0  0  0  0
    7.9939   -2.0569    0.0000 C   0  0  0  0  0  0  0  0  0  0  0  0
    6.8143   -3.1378    0.0000 H   0  0  0  0  0  0  0  0  0  0  0  0
    6.3955   -1.9872    0.0000 H   0  0  0  0  0  0  0  0  0  0  0  0
    9.2194   -3.0854    0.0000 O   0  0  0  0  0  0  0  0  0  0  0  0
    8.9416   -4.6611    0.0000 H   0  0  0  0  0  0  0  0  0  0  0  0
    7.3240    2.1229    0.0000 C   0  0  0  0  0  0  0  0  0  0  0  0
    6.5850    3.5422    0.0000 H   0  0  0  0  0  0  0  0  0  0  0  0
    5.7981    2.6041    0.0000 H   0  0  0  0  0  0  0  0  0  0  0  0
    8.8274    2.6702    0.0000 C   0  0  0  0  0  0  0  0  0  0  0  0
    8.4810    4.2322    0.0000 H   0  0  0  0  0  0  0  0  0  0  0  0
    9.6871    4.0196    0.0000 H   0  0  0  0  0  0  0  0  0  0  0  0
   10.0532    1.6417    0.0000 O   0  0  0  0  0  0  0  0  0  0  0  0
   11.5566    2.1889    0.0000 H   0  0  0  0  0  0  0  0  0  0  0  0
    4.1570    0.8000    0.0000 C   0  0  0  0  0  0  0  0  0  0  0  0
    4.7691    2.2782    0.0000 H   0  0  0  0  0  0  0  0  0  0  0  0
    3.5447    2.2782    0.0000 H   0  0  0  0  0  0  0  0  0  0  0  0
    2.7713    0.0001    0.0000 C   0  0  0  0  0  0  0  0  0  0  0  0
    2.1589   -1.4782    0.0000 H   0  0  0  0  0  0  0  0  0  0  0  0
    3.3836   -1.4782    0.0000 H   0  0  0  0  0  0  0  0  0  0  0  0
    1.3855    0.8000    0.0000 C   0  0  0  0  0  0  0  0  0  0  0  0
    1.9979    2.2782    0.0000 H   0  0  0  0  0  0  0  0  0  0  0  0
    0.7734    2.2782    0.0000 H   0  0  0  0  0  0  0  0  0  0  0  0
    0.0000    0.0001    0.0000 C   0  0  0  0  0  0  0  0  0  0  0  0
   -0.6123   -1.4782    0.0000 H   0  0  0  0  0  0  0  0  0  0  0  0
    0.6124   -1.4782    0.0000 H   0  0  0  0  0  0  0  0  0  0  0  0
   -1.3857    0.8000    0.0000 C   0  0  0  0  0  0  0  0  0  0  0  0
   -0.7734    2.2782    0.0000 H   0  0  0  0  0  0  0  0  0  0  0  0
   -1.9978    2.2782    0.0000 H   0  0  0  0  0  0  0  0  0  0  0  0
   -2.7712    0.0001    0.0000 C   0  0  0  0  0  0  0  0  0  0  0  0
   -3.3836   -1.4782    0.0000 H   0  0  0  0  0  0  0  0  0  0  0  0
   -2.1589   -1.4782    0.0000 H   0  0  0  0  0  0  0  0  0  0  0  0
   -4.1570    0.8000    0.0000 C   0  0  0  0  0  0  0  0  0  0  0  0
   -3.5446    2.2782    0.0000 H   0  0  0  0  0  0  0  0  0  0  0  0
   -4.7693    2.2782    0.0000 H   0  0  0  0  0  0  0  0  0  0  0  0
   -5.5424    0.0001    0.0000 C   0  0  0  0  0  0  0  0  0  0  0  0
   -6.9282   -0.8000    0.0000 H   0  0  0  0  0  0  0  0  0  0  0  0
   -6.9282    0.8000    0.0000 H   0  0  0  0  0  0  0  0  0  0  0  0
   -5.5424   -1.6000    0.0000 H   0  0  0  0  0  0  0  0  0  0  0  0
  1  2  2  0  0  0  0
  2  3  1  0  0  0  0
  3  4  1  0  0  0  0
  4  5  1  0  0  0  0
  4  6  1  0  0  0  0
  4  7  1  0  0  0  0
  7  8  1  0  0  0  0
  7  9  1  0  0  0  0
  7 10  1  0  0  0  0
 10 11  1  0  0  0  0
  3 12  1  0  0  0  0
 12 13  1  0  0  0  0
 12 14  1  0  0  0  0
 12 15  1  0  0  0  0
 15 16  1  0  0  0  0
 15 17  1  0  0  0  0
 15 18  1  0  0  0  0
 18 19  1  0  0  0  0
  2 20  1  0  0  0  0
 20 21  1  0  0  0  0
 20 22  1  0  0  0  0
 20 23  1  0  0  0  0
 23 24  1  0  0  0  0
 23 25  1  0  0  0  0
 23 26  1  0  0  0  0
 26 27  1  0  0  0  0
 26 28  1  0  0  0  0
 26 29  1  0  0  0  0
 29 30  1  0  0  0  0
 29 31  1  0  0  0  0
 29 32  1  0  0  0  0
 32 33  1  0  0  0  0
 32 34  1  0  0  0  0
 32 35  1  0  0  0  0
 35 36  1  0  0  0  0
 35 37  1  0  0  0  0
 35 38  1  0  0  0  0
 38 39  1  0  0  0  0
 38 40  1  0  0  0  0
 38 41  1  0  0  0  0
 41 42  1  0  0  0  0
 41 43  1  0  0  0  0
 41 44  1  0  0  0  0
M  END
> <ChemID>
101058

> <source_casrn>
3077-37-0

> <CAS>
3077-37-0

> <SMILES>
CCCCCCCCC(=O)N(CCO)CCO

> <NAME>
Nonanamide, N,N-bis(2-hydroxyethyl)-

> <preferred_name>
Nonanamide, N,N-bis(2-hydroxyethyl)-

> <iupac>
N,N-bis(2-hydroxyethyl)nonanamide

> <MPID>
101047

> <dsstox_substance_id>
DTXSID1062833

> <Canonical_QSARr>
CCCCCCCCC(=O)N(CCO)CCO

> <InChI_Code_QSARr>
InChI=1S/C13H27NO3/c1-2-3-4-5-6-7-8-13(17)14(9-11-15)10-12-16/h15-16H,2-12H2,1H3

> <InChI Key_QSARr>
WODYOUWSWYOPBP-UHFFFAOYSA-N

> <Salt_Solvent>
?

> <Ready_Biodeg>
1.0

$$$$
101060
  -INDIGO-08031722522D

 36 36  0  0  0  0  0  0  0  0999 V2000
    0.0001    0.0001    0.0000 C   0  0  0  0  0  0  0  0  0  0  0  0
    0.2778    1.5757    0.0000 H   0  0  0  0  0  0  0  0  0  0  0  0
   -1.3857   -0.7999    0.0000 C   0  0  0  0  0  0  0  0  0  0  0  0
   -1.9329    0.7034    0.0000 H   0  0  0  0  0  0  0  0  0  0  0  0
   -2.8891   -0.2527    0.0000 H   0  0  0  0  0  0  0  0  0  0  0  0
   -2.1857   -2.1857    0.0000 C   0  0  0  0  0  0  0  0  0  0  0  0
   -3.4114   -1.1571    0.0000 H   0  0  0  0  0  0  0  0  0  0  0  0
   -3.7613   -2.4634    0.0000 H   0  0  0  0  0  0  0  0  0  0  0  0
   -2.1857   -3.7857    0.0000 C   0  0  0  0  0  0  0  0  0  0  0  0
   -3.7613   -3.5079    0.0000 H   0  0  0  0  0  0  0  0  0  0  0  0
   -3.4114   -4.8141    0.0000 Br  0  0  0  0  0  0  0  0  0  0  0  0
   -1.3857   -5.1713    0.0000 C   0  0  0  0  0  0  0  0  0  0  0  0
   -2.8891   -5.7185    0.0000 H   0  0  0  0  0  0  0  0  0  0  0  0
   -1.9329   -6.6747    0.0000 Br  0  0  0  0  0  0  0  0  0  0  0  0
    0.0001   -5.9713    0.0000 C   0  0  0  0  0  0  0  0  0  0  0  0
   -1.0285   -7.1970    0.0000 H   0  0  0  0  0  0  0  0  0  0  0  0
    0.2778   -7.5470    0.0000 H   0  0  0  0  0  0  0  0  0  0  0  0
    1.6001   -5.9713    0.0000 C   0  0  0  0  0  0  0  0  0  0  0  0
    1.3222   -7.5470    0.0000 H   0  0  0  0  0  0  0  0  0  0  0  0
    2.6285   -7.1970    0.0000 H   0  0  0  0  0  0  0  0  0  0  0  0
    2.9857   -5.1713    0.0000 C   0  0  0  0  0  0  0  0  0  0  0  0
    3.5329   -6.6747    0.0000 H   0  0  0  0  0  0  0  0  0  0  0  0
    4.4891   -5.7185    0.0000 Br  0  0  0  0  0  0  0  0  0  0  0  0
    3.7857   -3.7856    0.0000 C   0  0  0  0  0  0  0  0  0  0  0  0
    5.0114   -4.8141    0.0000 H   0  0  0  0  0  0  0  0  0  0  0  0
    5.3613   -3.5079    0.0000 Br  0  0  0  0  0  0  0  0  0  0  0  0
    3.7857   -2.1856    0.0000 C   0  0  0  0  0  0  0  0  0  0  0  0
    5.3613   -2.4634    0.0000 H   0  0  0  0  0  0  0  0  0  0  0  0
    5.0114   -1.1571    0.0000 H   0  0  0  0  0  0  0  0  0  0  0  0
    2.9857   -0.7999    0.0000 C   0  0  0  0  0  0  0  0  0  0  0  0
    4.4891   -0.2527    0.0000 H   0  0  0  0  0  0  0  0  0  0  0  0
    3.5329    0.7034    0.0000 H   0  0  0  0  0  0  0  0  0  0  0  0
    1.6001    0.0001    0.0000 C   0  0  0  0  0  0  0  0  0  0  0  0
    2.6285    1.2257    0.0000 H   0  0  0  0  0  0  0  0  0  0  0  0
    1.3222    1.5757    0.0000 Br  0  0  0  0  0  0  0  0  0  0  0  0
   -1.0285    1.2257    0.0000 Br  0  0  0  0  0  0  0  0  0  0  0  0
  1  2  1  0  0  0  0
  1  3  1  0  0  0  0
  3  4  1  0  0  0  0
  3  5  1  0  0  0  0
  3  6  1  0  0  0  0
  6  7  1  0  0  0  0
  6  8  1  0  0  0  0
  6  9  1  0  0  0  0
  9 10  1  0  0  0  0
  9 11  1  0  0  0  0
  9 12  1  0  0  0  0
 12 13  1  0  0  0  0
 12 14  1  0  0  0  0
 12 15  1  0  0  0  0
 15 16  1  0  0  0  0
 15 17  1  0  0  0  0
 15 18  1  0  0  0  0
 18 19  1  0  0  0  0
 18 20  1  0  0  0  0
 18 21  1  0  0  0  0
 21 22  1  0  0  0  0
 21 23  1  0  0  0  0
 21 24  1  0  0  0  0
 24 25  1  0  0  0  0
 24 26  1  0  0  0  0
 24 27  1  0  0  0  0
 27 28  1  0  0  0  0
 27 29  1  0  0  0  0
 27 30  1  0  0  0  0
 30 31  1  0  0  0  0
 30 32  1  0  0  0  0
 30 33  1  0  0  0  0
 33  1  1  0  0  0  0
 33 34  1  0  0  0  0
 33 35  1  0  0  0  0
  1 36  1  0  0  0  0
M  END
> <ChemID>
101060

> <source_casrn>
3194-55-6

> <CAS>
3194-55-6

> <SMILES>
BrC1CCC(Br)C(Br)CCC(Br)C(Br)CCC1Br

> <NAME>
Cyclododecane, 1,2,5,6,9,10-hexabromo-

> <preferred_name>
1,2,5,6,9,10-Hexabromocyclododecane

> <iupac>
C12H18Br6

> <MPID>
101048

> <dsstox_substance_id>
DTXSID4027527

> <Canonical_QSARr>
BrC1CCC(Br)C(Br)CCC(Br)C(Br)CCC1Br

> <InChI_Code_QSARr>
InChI=1S/C12H18Br6/c13-7-1-2-8(14)10(16)5-6-12(18)11(17)4-3-9(7)15/h7-12H,1-6H2

> <InChI Key_QSARr>
DEIGXXQKDWULML-UHFFFAOYSA-N

> <Salt_Solvent>
?

> <Ready_Biodeg>
0.0

$$$$
101061
  -INDIGO-08031722522D

 17 16  0  0  0  0  0  0  0  0999 V2000
   -2.4000   -1.3856    0.0000 Br  0  0  0  0  0  0  0  0  0  0  0  0
   -0.8000   -1.3856    0.0000 C   0  0  0  0  0  0  0  0  0  0  0  0
   -1.6000   -2.7713    0.0000 H   0  0  0  0  0  0  0  0  0  0  0  0
    0.0000   -2.7713    0.0000 H   0  0  0  0  0  0  0  0  0  0  0  0
    0.0000    0.0000    0.0000 C   0  0  0  0  0  0  0  0  0  0  0  0
    0.8000    1.3856    0.0000 C   0  0  0  0  0  0  0  0  0  0  0  0
    1.6000    2.7713    0.0000 H   0  0  0  0  0  0  0  0  0  0  0  0
    2.4000    1.3856    0.0000 H   0  0  0  0  0  0  0  0  0  0  0  0
    0.0000    2.7713    0.0000 Br  0  0  0  0  0  0  0  0  0  0  0  0
   -1.3856    0.8000    0.0000 C   0  0  0  0  0  0  0  0  0  0  0  0
   -2.7713    1.6000    0.0000 H   0  0  0  0  0  0  0  0  0  0  0  0
   -2.7713    0.0000    0.0000 H   0  0  0  0  0  0  0  0  0  0  0  0
   -1.3856    2.4000    0.0000 Br  0  0  0  0  0  0  0  0  0  0  0  0
    1.3856   -0.8000    0.0000 C   0  0  0  0  0  0  0  0  0  0  0  0
    2.7713   -1.6000    0.0000 H   0  0  0  0  0  0  0  0  0  0  0  0
    1.3856   -2.4000    0.0000 H   0  0  0  0  0  0  0  0  0  0  0  0
    2.7713    0.0000    0.0000 Br  0  0  0  0  0  0  0  0  0  0  0  0
  1  2  1  0  0  0  0
  2  3  1  0  0  0  0
  2  4  1  0  0  0  0
  2  5  1  0  0  0  0
  5  6  1  0  0  0  0
  6  7  1  0  0  0  0
  6  8  1  0  0  0  0
  6  9  1  0  0  0  0
  5 10  1  0  0  0  0
 10 11  1  0  0  0  0
 10 12  1  0  0  0  0
 10 13  1  0  0  0  0
  5 14  1  0  0  0  0
 14 15  1  0  0  0  0
 14 16  1  0  0  0  0
 14 17  1  0  0  0  0
M  END
> <ChemID>
101061

> <source_casrn>
3229-00-3

> <CAS>
3229-00-3

> <SMILES>
BrCC(CBr)(CBr)CBr

> <NAME>
Propane, 1,3-dibromo-2,2-bis(bromomethyl)-

> <preferred_name>
Propane, 1,3-dibromo-2,2-bis(bromomethyl)-

> <iupac>
1,3-Dibromo-2,2-bis(bromomethyl)propane

> <MPID>
101049

> <dsstox_substance_id>
DTXSID1062916

> <Canonical_QSARr>
BrCC(CBr)(CBr)CBr

> <InChI_Code_QSARr>
InChI=1S/C5H8Br4/c6-1-5(2-7,3-8)4-9/h1-4H2

> <InChI Key_QSARr>
OYSVBCSOQFXYHK-UHFFFAOYSA-N

> <Salt_Solvent>
?

> <Ready_Biodeg>
0.0

$$$$
101063
  -INDIGO-08031722522D

 19 18  0  0  0  0  0  0  0  0999 V2000
    2.7713    0.0000    0.0000 O   0  0  0  0  0  0  0  0  0  0  0  0
    4.1569   -0.8000    0.0000 H   0  0  0  0  0  0  0  0  0  0  0  0
    1.3856   -0.8000    0.0000 C   0  0  0  0  0  0  0  0  0  0  0  0
    1.9979   -2.2782    0.0000 H   0  0  0  0  0  0  0  0  0  0  0  0
    0.7734   -2.2782    0.0000 H   0  0  0  0  0  0  0  0  0  0  0  0
    0.0001    0.0000    0.0000 C   0  0  0  0  0  0  0  0  0  0  0  0
   -1.3856    0.8000    0.0000 C   0  0  0  0  0  0  0  0  0  0  0  0
   -1.9979    2.2782    0.0000 H   0  0  0  0  0  0  0  0  0  0  0  0
   -0.7734    2.2782    0.0000 H   0  0  0  0  0  0  0  0  0  0  0  0
   -2.7712    0.0000    0.0000 O   0  0  0  0  0  0  0  0  0  0  0  0
   -4.1569    0.8000    0.0000 H   0  0  0  0  0  0  0  0  0  0  0  0
    0.8000    1.3857    0.0000 C   0  0  0  0  0  0  0  0  0  0  0  0
    1.6000    2.7713    0.0000 H   0  0  0  0  0  0  0  0  0  0  0  0
    0.2528    2.8891    0.0000 H   0  0  0  0  0  0  0  0  0  0  0  0
    2.4000    1.3857    0.0000 Br  0  0  0  0  0  0  0  0  0  0  0  0
   -0.8000   -1.3857    0.0000 C   0  0  0  0  0  0  0  0  0  0  0  0
   -1.6000   -2.7713    0.0000 H   0  0  0  0  0  0  0  0  0  0  0  0
   -0.2528   -2.8891    0.0000 H   0  0  0  0  0  0  0  0  0  0  0  0
   -2.4000   -1.3857    0.0000 Br  0  0  0  0  0  0  0  0  0  0  0  0
  1  2  1  0  0  0  0
  1  3  1  0  0  0  0
  3  4  1  0  0  0  0
  3  5  1  0  0  0  0
  3  6  1  0  0  0  0
  6  7  1  0  0  0  0
  7  8  1  0  0  0  0
  7  9  1  0  0  0  0
  7 10  1  0  0  0  0
 10 11  1  0  0  0  0
  6 12  1  0  0  0  0
 12 13  1  0  0  0  0
 12 14  1  0  0  0  0
 12 15  1  0  0  0  0
  6 16  1  0  0  0  0
 16 17  1  0  0  0  0
 16 18  1  0  0  0  0
 16 19  1  0  0  0  0
M  END
> <ChemID>
101063

> <source_casrn>
3296-90-0

> <CAS>
3296-90-0

> <SMILES>
OCC(CBr)(CBr)CO

> <NAME>
1,3-Propanediol, 2,2-bis(bromomethyl)-

> <preferred_name>
2,2-Bis(bromomethyl)-1,3-propanediol

> <iupac>
2,2-bis(bromomethyl)propane-1,3-diol

> <MPID>
101051

> <dsstox_substance_id>
DTXSID9020164

> <Canonical_QSARr>
OCC(CBr)(CBr)CO

> <InChI_Code_QSARr>
InChI=1S/C5H10Br2O2/c6-1-5(2-7,3-8)4-9/h8-9H,1-4H2

> <InChI Key_QSARr>
CHUGKEQJSLOLHL-UHFFFAOYSA-N

> <Salt_Solvent>
?

> <Ready_Biodeg>
0.0

$$$$
101064
  -INDIGO-08031722522D

 93 93  0  0  0  0  0  0  0  0999 V2000
    5.5427    4.8000    0.0000 O   0  0  0  0  0  0  0  0  0  0  0  0
    6.9283    4.0000    0.0000 C   0  0  0  0  0  0  0  0  0  0  0  0
    8.3139    4.8000    0.0000 O   0  0  0  0  0  0  0  0  0  0  0  0
    8.3139    6.4001    0.0000 C   0  0  0  0  0  0  0  0  0  0  0  0
    7.3397    7.6695    0.0000 H   0  0  0  0  0  0  0  0  0  0  0  0
    6.7277    6.6089    0.0000 H   0  0  0  0  0  0  0  0  0  0  0  0
    9.6995    7.2001    0.0000 C   0  0  0  0  0  0  0  0  0  0  0  0
   10.2469    5.6965    0.0000 H   0  0  0  0  0  0  0  0  0  0  0  0
   11.2031    7.7473    0.0000 C   0  0  0  0  0  0  0  0  0  0  0  0
   11.4120    6.1610    0.0000 H   0  0  0  0  0  0  0  0  0  0  0  0
   12.4725    6.7733    0.0000 H   0  0  0  0  0  0  0  0  0  0  0  0
   12.4288    8.7757    0.0000 C   0  0  0  0  0  0  0  0  0  0  0  0
   12.7749   10.3378    0.0000 H   0  0  0  0  0  0  0  0  0  0  0  0
   11.5690   10.1250    0.0000 H   0  0  0  0  0  0  0  0  0  0  0  0
   13.9320    8.2286    0.0000 C   0  0  0  0  0  0  0  0  0  0  0  0
   13.5860    6.6665    0.0000 H   0  0  0  0  0  0  0  0  0  0  0  0
   14.7919    6.8790    0.0000 H   0  0  0  0  0  0  0  0  0  0  0  0
   15.1578    9.2570    0.0000 C   0  0  0  0  0  0  0  0  0  0  0  0
   16.3835   10.2855    0.0000 H   0  0  0  0  0  0  0  0  0  0  0  0
   16.6614    8.7096    0.0000 H   0  0  0  0  0  0  0  0  0  0  0  0
   14.8799   10.8326    0.0000 H   0  0  0  0  0  0  0  0  0  0  0  0
    9.1521    8.7035    0.0000 C   0  0  0  0  0  0  0  0  0  0  0  0
   10.5716    9.4423    0.0000 H   0  0  0  0  0  0  0  0  0  0  0  0
    9.6335   10.2294    0.0000 H   0  0  0  0  0  0  0  0  0  0  0  0
    7.5767    8.9815    0.0000 C   0  0  0  0  0  0  0  0  0  0  0  0
    7.0294   10.4848    0.0000 H   0  0  0  0  0  0  0  0  0  0  0  0
    6.0010    9.2592    0.0000 H   0  0  0  0  0  0  0  0  0  0  0  0
    8.6051   10.2071    0.0000 H   0  0  0  0  0  0  0  0  0  0  0  0
    6.9283    2.3999    0.0000 C   0  0  0  0  0  0  0  0  0  0  0  0
    8.3139    1.5999    0.0000 C   0  0  0  0  0  0  0  0  0  0  0  0
    9.6995    2.3999    0.0000 H   0  0  0  0  0  0  0  0  0  0  0  0
    8.3139    0.0001    0.0000 C   0  0  0  0  0  0  0  0  0  0  0  0
    9.6995   -0.7999    0.0000 H   0  0  0  0  0  0  0  0  0  0  0  0
    6.9283   -0.7999    0.0000 C   0  0  0  0  0  0  0  0  0  0  0  0
    6.9283   -2.4000    0.0000 C   0  0  0  0  0  0  0  0  0  0  0  0
    5.5427   -3.2000    0.0000 O   0  0  0  0  0  0  0  0  0  0  0  0
    8.3139   -3.2000    0.0000 O   0  0  0  0  0  0  0  0  0  0  0  0
    8.3139   -4.8001    0.0000 C   0  0  0  0  0  0  0  0  0  0  0  0
    6.7277   -5.0089    0.0000 H   0  0  0  0  0  0  0  0  0  0  0  0
    7.3397   -6.0695    0.0000 H   0  0  0  0  0  0  0  0  0  0  0  0
    9.6995   -5.6001    0.0000 C   0  0  0  0  0  0  0  0  0  0  0  0
   10.2469   -4.0965    0.0000 H   0  0  0  0  0  0  0  0  0  0  0  0
   11.2031   -6.1473    0.0000 C   0  0  0  0  0  0  0  0  0  0  0  0
   12.4725   -5.1733    0.0000 H   0  0  0  0  0  0  0  0  0  0  0  0
   11.4120   -4.5610    0.0000 H   0  0  0  0  0  0  0  0  0  0  0  0
   12.4288   -7.1757    0.0000 C   0  0  0  0  0  0  0  0  0  0  0  0
   11.5690   -8.5250    0.0000 H   0  0  0  0  0  0  0  0  0  0  0  0
   12.7749   -8.7378    0.0000 H   0  0  0  0  0  0  0  0  0  0  0  0
   13.9320   -6.6286    0.0000 C   0  0  0  0  0  0  0  0  0  0  0  0
   14.7919   -5.2790    0.0000 H   0  0  0  0  0  0  0  0  0  0  0  0
   13.5860   -5.0665    0.0000 H   0  0  0  0  0  0  0  0  0  0  0  0
   15.1578   -7.6570    0.0000 C   0  0  0  0  0  0  0  0  0  0  0  0
   16.3835   -8.6855    0.0000 H   0  0  0  0  0  0  0  0  0  0  0  0
   16.6614   -7.1096    0.0000 H   0  0  0  0  0  0  0  0  0  0  0  0
   14.8799   -9.2326    0.0000 H   0  0  0  0  0  0  0  0  0  0  0  0
    9.1521   -7.1035    0.0000 C   0  0  0  0  0  0  0  0  0  0  0  0
    9.6335   -8.6294    0.0000 H   0  0  0  0  0  0  0  0  0  0  0  0
   10.5716   -7.8423    0.0000 H   0  0  0  0  0  0  0  0  0  0  0  0
    7.5767   -7.3815    0.0000 C   0  0  0  0  0  0  0  0  0  0  0  0
    7.0294   -8.8848    0.0000 H   0  0  0  0  0  0  0  0  0  0  0  0
    6.0010   -7.6592    0.0000 H   0  0  0  0  0  0  0  0  0  0  0  0
    8.6051   -8.6071    0.0000 H   0  0  0  0  0  0  0  0  0  0  0  0
    5.5427    0.0001    0.0000 C   0  0  0  0  0  0  0  0  0  0  0  0
    4.1568   -0.7999    0.0000 C   0  0  0  0  0  0  0  0  0  0  0  0
    4.1568   -2.4000    0.0000 O   0  0  0  0  0  0  0  0  0  0  0  0
    2.7712    0.0001    0.0000 O   0  0  0  0  0  0  0  0  0  0  0  0
    1.3856   -0.7999    0.0000 C   0  0  0  0  0  0  0  0  0  0  0  0
    0.7733   -2.2781    0.0000 H   0  0  0  0  0  0  0  0  0  0  0  0
    1.9979   -2.2781    0.0000 H   0  0  0  0  0  0  0  0  0  0  0  0
    0.0000    0.0001    0.0000 C   0  0  0  0  0  0  0  0  0  0  0  0
    0.8000    1.3856    0.0000 H   0  0  0  0  0  0  0  0  0  0  0  0
   -1.3856    0.8002    0.0000 C   0  0  0  0  0  0  0  0  0  0  0  0
   -0.3049    1.9795    0.0000 H   0  0  0  0  0  0  0  0  0  0  0  0
   -1.4556    2.3984    0.0000 H   0  0  0  0  0  0  0  0  0  0  0  0
   -2.9855    0.8002    0.0000 C   0  0  0  0  0  0  0  0  0  0  0  0
   -4.2549   -0.1741    0.0000 H   0  0  0  0  0  0  0  0  0  0  0  0
   -3.1944   -0.7864    0.0000 H   0  0  0  0  0  0  0  0  0  0  0  0
   -3.7858    2.1856    0.0000 C   0  0  0  0  0  0  0  0  0  0  0  0
   -2.5164    3.1595    0.0000 H   0  0  0  0  0  0  0  0  0  0  0  0
   -3.5769    3.7719    0.0000 H   0  0  0  0  0  0  0  0  0  0  0  0
   -5.3857    2.1856    0.0000 C   0  0  0  0  0  0  0  0  0  0  0  0
   -6.9856    2.1856    0.0000 H   0  0  0  0  0  0  0  0  0  0  0  0
   -6.1857    3.5713    0.0000 H   0  0  0  0  0  0  0  0  0  0  0  0
   -6.1857    0.8002    0.0000 H   0  0  0  0  0  0  0  0  0  0  0  0
   -0.7999   -1.3856    0.0000 C   0  0  0  0  0  0  0  0  0  0  0  0
   -2.1494   -0.5259    0.0000 H   0  0  0  0  0  0  0  0  0  0  0  0
   -2.3620   -1.7319    0.0000 H   0  0  0  0  0  0  0  0  0  0  0  0
   -0.2529   -2.8893    0.0000 C   0  0  0  0  0  0  0  0  0  0  0  0
   -1.2813   -4.1149    0.0000 H   0  0  0  0  0  0  0  0  0  0  0  0
    0.2945   -4.3926    0.0000 H   0  0  0  0  0  0  0  0  0  0  0  0
   -1.8283   -2.6113    0.0000 H   0  0  0  0  0  0  0  0  0  0  0  0
    5.5427    1.5999    0.0000 C   0  0  0  0  0  0  0  0  0  0  0  0
    4.1568    2.3999    0.0000 H   0  0  0  0  0  0  0  0  0  0  0  0
  1  2  2  0  0  0  0
  2  3  1  0  0  0  0
  3  4  1  0  0  0  0
  4  5  1  0  0  0  0
  4  6  1  0  0  0  0
  4  7  1  0  0  0  0
  7  8  1  0  0  0  0
  7  9  1  0  0  0  0
  9 10  1  0  0  0  0
  9 11  1  0  0  0  0
  9 12  1  0  0  0  0
 12 13  1  0  0  0  0
 12 14  1  0  0  0  0
 12 15  1  0  0  0  0
 15 16  1  0  0  0  0
 15 17  1  0  0  0  0
 15 18  1  0  0  0  0
 18 19  1  0  0  0  0
 18 20  1  0  0  0  0
 18 21  1  0  0  0  0
  7 22  1  0  0  0  0
 22 23  1  0  0  0  0
 22 24  1  0  0  0  0
 22 25  1  0  0  0  0
 25 26  1  0  0  0  0
 25 27  1  0  0  0  0
 25 28  1  0  0  0  0
  2 29  1  0  0  0  0
 29 30  1  0  0  0  0
 30 31  1  0  0  0  0
 30 32  2  0  0  0  0
 32 33  1  0  0  0  0
 32 34  1  0  0  0  0
 34 35  1  0  0  0  0
 35 36  2  0  0  0  0
 35 37  1  0  0  0  0
 37 38  1  0  0  0  0
 38 39  1  0  0  0  0
 38 40  1  0  0  0  0
 38 41  1  0  0  0  0
 41 42  1  0  0  0  0
 41 43  1  0  0  0  0
 43 44  1  0  0  0  0
 43 45  1  0  0  0  0
 43 46  1  0  0  0  0
 46 47  1  0  0  0  0
 46 48  1  0  0  0  0
 46 49  1  0  0  0  0
 49 50  1  0  0  0  0
 49 51  1  0  0  0  0
 49 52  1  0  0  0  0
 52 53  1  0  0  0  0
 52 54  1  0  0  0  0
 52 55  1  0  0  0  0
 41 56  1  0  0  0  0
 56 57  1  0  0  0  0
 56 58  1  0  0  0  0
 56 59  1  0  0  0  0
 59 60  1  0  0  0  0
 59 61  1  0  0  0  0
 59 62  1  0  0  0  0
 34 63  2  0  0  0  0
 63 64  1  0  0  0  0
 64 65  2  0  0  0  0
 64 66  1  0  0  0  0
 66 67  1  0  0  0  0
 67 68  1  0  0  0  0
 67 69  1  0  0  0  0
 67 70  1  0  0  0  0
 70 71  1  0  0  0  0
 70 72  1  0  0  0  0
 72 73  1  0  0  0  0
 72 74  1  0  0  0  0
 72 75  1  0  0  0  0
 75 76  1  0  0  0  0
 75 77  1  0  0  0  0
 75 78  1  0  0  0  0
 78 79  1  0  0  0  0
 78 80  1  0  0  0  0
 78 81  1  0  0  0  0
 81 82  1  0  0  0  0
 81 83  1  0  0  0  0
 81 84  1  0  0  0  0
 70 85  1  0  0  0  0
 85 86  1  0  0  0  0
 85 87  1  0  0  0  0
 85 88  1  0  0  0  0
 88 89  1  0  0  0  0
 88 90  1  0  0  0  0
 88 91  1  0  0  0  0
 63 92  1  0  0  0  0
 92 29  2  0  0  0  0
 92 93  1  0  0  0  0
M  END
> <ChemID>
101064

> <source_casrn>
3319-31-1

> <CAS>
3319-31-1

> <SMILES>
CCCCC(COC(=O)c1ccc(cc1C(=O)OCC(CCCC)CC)C(=O)OCC(CCCC)CC)CC

> <NAME>
1,2,4-Benzenetricarboxylic acid, tris(2-ethylhexyl) ester

> <preferred_name>
Tris(2-ethylhexyl) trimellitate

> <iupac>
tris(2-ethylhexyl) benzene-1,2,4-tricarboxylate

> <MPID>
101052

> <dsstox_substance_id>
DTXSID9026265

> <Canonical_QSARr>
CCCCC(COC(=O)c1ccc(cc1C(=O)OCC(CCCC)CC)C(=O)OCC(CCCC)CC)CC

> <InChI_Code_QSARr>
InChI=1S/C33H54O6/c1-7-13-16-25(10-4)22-37-31(34)28-19-20-29(32(35)38-23-26(11-5)17-14-8-2)30(21-28)33(36)39-24-27(12-6)18-15-9-3/h19-21,25-27H,7-18,22-24H2,1-6H3

> <InChI Key_QSARr>
KRADHMIOFJQKEZ-UHFFFAOYSA-N

> <Salt_Solvent>
?

> <Ready_Biodeg>
0.0

$$$$
101065
  -INDIGO-08031722522D

 31 32  0  0  0  0  0  0  0  0999 V2000
    7.2001    1.3856    0.0000 C   0  0  0  0  0  0  0  0  0  0  0  0
    8.8000    1.3856    0.0000 H   0  0  0  0  0  0  0  0  0  0  0  0
    7.9999    2.7713    0.0000 H   0  0  0  0  0  0  0  0  0  0  0  0
    7.9999   -0.0000    0.0000 H   0  0  0  0  0  0  0  0  0  0  0  0
    5.6000    1.3856    0.0000 C   0  0  0  0  0  0  0  0  0  0  0  0
    4.7999    0.0000    0.0000 N   0  0  0  0  0  0  0  0  0  0  0  0
    5.6000   -1.3856    0.0000 H   0  0  0  0  0  0  0  0  0  0  0  0
    3.2001    0.0000    0.0000 C   0  0  0  0  0  0  0  0  0  0  0  0
    2.4000    1.3856    0.0000 C   0  0  0  0  0  0  0  0  0  0  0  0
    3.2001    2.7713    0.0000 H   0  0  0  0  0  0  0  0  0  0  0  0
    0.8001    1.3856    0.0000 C   0  0  0  0  0  0  0  0  0  0  0  0
    0.0001    2.7713    0.0000 H   0  0  0  0  0  0  0  0  0  0  0  0
    0.0001    0.0000    0.0000 C   0  0  0  0  0  0  0  0  0  0  0  0
   -1.6001    0.0000    0.0000 C   0  0  0  0  0  0  0  0  0  0  0  0
   -2.3999    1.3856    0.0000 C   0  0  0  0  0  0  0  0  0  0  0  0
   -1.6001    2.7713    0.0000 H   0  0  0  0  0  0  0  0  0  0  0  0
   -4.0000    1.3856    0.0000 C   0  0  0  0  0  0  0  0  0  0  0  0
   -4.8001    2.7713    0.0000 H   0  0  0  0  0  0  0  0  0  0  0  0
   -4.8001   -0.0000    0.0000 C   0  0  0  0  0  0  0  0  0  0  0  0
   -6.3999   -0.0000    0.0000 N   0  0  0  0  0  0  0  0  0  0  0  0
   -7.2000   -1.3856    0.0000 H   0  0  0  0  0  0  0  0  0  0  0  0
   -7.2000    1.3856    0.0000 H   0  0  0  0  0  0  0  0  0  0  0  0
   -4.0000   -1.3856    0.0000 C   0  0  0  0  0  0  0  0  0  0  0  0
   -4.8001   -2.7713    0.0000 H   0  0  0  0  0  0  0  0  0  0  0  0
   -2.3999   -1.3856    0.0000 C   0  0  0  0  0  0  0  0  0  0  0  0
   -1.6001   -2.7713    0.0000 H   0  0  0  0  0  0  0  0  0  0  0  0
    0.8001   -1.3856    0.0000 C   0  0  0  0  0  0  0  0  0  0  0  0
    0.0001   -2.7713    0.0000 H   0  0  0  0  0  0  0  0  0  0  0  0
    2.4000   -1.3856    0.0000 C   0  0  0  0  0  0  0  0  0  0  0  0
    3.2001   -2.7713    0.0000 H   0  0  0  0  0  0  0  0  0  0  0  0
    4.7999    2.7713    0.0000 O   0  0  0  0  0  0  0  0  0  0  0  0
  1  2  1  0  0  0  0
  1  3  1  0  0  0  0
  1  4  1  0  0  0  0
  1  5  1  0  0  0  0
  5  6  1  0  0  0  0
  6  7  1  0  0  0  0
  6  8  1  0  0  0  0
  8  9  1  0  0  0  0
  9 10  1  0  0  0  0
  9 11  2  0  0  0  0
 11 12  1  0  0  0  0
 11 13  1  0  0  0  0
 13 14  1  0  0  0  0
 14 15  1  0  0  0  0
 15 16  1  0  0  0  0
 15 17  2  0  0  0  0
 17 18  1  0  0  0  0
 17 19  1  0  0  0  0
 19 20  1  0  0  0  0
 20 21  1  0  0  0  0
 20 22  1  0  0  0  0
 19 23  2  0  0  0  0
 23 24  1  0  0  0  0
 23 25  1  0  0  0  0
 25 14  2  0  0  0  0
 25 26  1  0  0  0  0
 13 27  2  0  0  0  0
 27 28  1  0  0  0  0
 27 29  1  0  0  0  0
 29  8  2  0  0  0  0
 29 30  1  0  0  0  0
  5 31  2  0  0  0  0
M  END
> <ChemID>
101065

> <source_casrn>
3366-61-8

> <CAS>
3366-61-8

> <SMILES>
CC(=O)Nc1ccc(cc1)c2ccc(N)cc2

> <NAME>
Monoacetylbenzidine

> <preferred_name>
N-Acetylbenzidine

> <iupac>
N-(4'-aminobiphenyl-4-yl)acetamide

> <MPID>
101053

> <dsstox_substance_id>
DTXSID4036853

> <Canonical_QSARr>
CC(=O)Nc1ccc(cc1)-c1ccc(N)cc1

> <InChI_Code_QSARr>
InChI=1S/C14H14N2O/c1-10(17)16-14-8-4-12(5-9-14)11-2-6-13(15)7-3-11/h2-9H,15H2,1H3,(H,16,17)

> <InChI Key_QSARr>
DZQXBXZZSKPMDV-UHFFFAOYSA-N

> <Salt_Solvent>
?

> <Ready_Biodeg>
0.0

$$$$
101067
  -INDIGO-08031722522D

 24 25  0  0  0  0  0  0  0  0999 V2000
    1.3857    0.8000    0.0000 O   0  0  0  0  0  0  0  0  0  0  0  0
    2.9613    0.5222    0.0000 C   0  0  0  0  0  0  0  0  0  0  0  0
    3.5086   -0.9814    0.0000 C   0  0  0  0  0  0  0  0  0  0  0  0
    2.4802   -2.2071    0.0000 Cl  0  0  0  0  0  0  0  0  0  0  0  0
    5.0842   -1.2591    0.0000 C   0  0  0  0  0  0  0  0  0  0  0  0
    5.6315   -2.7627    0.0000 H   0  0  0  0  0  0  0  0  0  0  0  0
    6.1126   -0.0335    0.0000 C   0  0  0  0  0  0  0  0  0  0  0  0
    7.6884   -0.3113    0.0000 Cl  0  0  0  0  0  0  0  0  0  0  0  0
    5.5655    1.4700    0.0000 C   0  0  0  0  0  0  0  0  0  0  0  0
    6.5940    2.6957    0.0000 H   0  0  0  0  0  0  0  0  0  0  0  0
    3.9898    1.7479    0.0000 C   0  0  0  0  0  0  0  0  0  0  0  0
    3.4426    3.2513    0.0000 H   0  0  0  0  0  0  0  0  0  0  0  0
   -0.0001    0.0000    0.0000 C   0  0  0  0  0  0  0  0  0  0  0  0
   -1.3857    0.8000    0.0000 C   0  0  0  0  0  0  0  0  0  0  0  0
   -1.3857    2.4000    0.0000 O   0  0  0  0  0  0  0  0  0  0  0  0
   -2.7713    3.2000    0.0000 H   0  0  0  0  0  0  0  0  0  0  0  0
   -2.7713    0.0000    0.0000 C   0  0  0  0  0  0  0  0  0  0  0  0
   -4.1569    0.8000    0.0000 H   0  0  0  0  0  0  0  0  0  0  0  0
   -2.7713   -1.6000    0.0000 C   0  0  0  0  0  0  0  0  0  0  0  0
   -4.1569   -2.4000    0.0000 Cl  0  0  0  0  0  0  0  0  0  0  0  0
   -1.3857   -2.4000    0.0000 C   0  0  0  0  0  0  0  0  0  0  0  0
   -1.3857   -4.0000    0.0000 H   0  0  0  0  0  0  0  0  0  0  0  0
   -0.0001   -1.6000    0.0000 C   0  0  0  0  0  0  0  0  0  0  0  0
    1.3857   -2.4000    0.0000 H   0  0  0  0  0  0  0  0  0  0  0  0
  1  2  1  0  0  0  0
  2  3  1  0  0  0  0
  3  4  1  0  0  0  0
  3  5  2  0  0  0  0
  5  6  1  0  0  0  0
  5  7  1  0  0  0  0
  7  8  1  0  0  0  0
  7  9  2  0  0  0  0
  9 10  1  0  0  0  0
  9 11  1  0  0  0  0
 11  2  2  0  0  0  0
 11 12  1  0  0  0  0
  1 13  1  0  0  0  0
 13 14  1  0  0  0  0
 14 15  1  0  0  0  0
 15 16  1  0  0  0  0
 14 17  2  0  0  0  0
 17 18  1  0  0  0  0
 17 19  1  0  0  0  0
 19 20  1  0  0  0  0
 19 21  2  0  0  0  0
 21 22  1  0  0  0  0
 21 23  1  0  0  0  0
 23 13  2  0  0  0  0
 23 24  1  0  0  0  0
M  END
> <ChemID>
101067

> <source_casrn>
3380-34-5

> <CAS>
3380-34-5

> <SMILES>
Oc1cc(Cl)ccc1Oc1ccc(Cl)cc1Cl

> <NAME>
Phenol, 5-chloro-2-(2,4-dichlorophenoxy)-

> <preferred_name>
Triclosan

> <iupac>
5-chloro-2-(2,4-dichlorophenoxy)phenol

> <MPID>
101055

> <dsstox_substance_id>
DTXSID5032498

> <Canonical_QSARr>
Oc1cc(Cl)ccc1Oc1ccc(Cl)cc1Cl

> <InChI_Code_QSARr>
InChI=1S/C12H7Cl3O2/c13-7-1-3-11(9(15)5-7)17-12-4-2-8(14)6-10(12)16/h1-6,16H

> <InChI Key_QSARr>
XEFQLINVKFYRCS-UHFFFAOYSA-N

> <Salt_Solvent>
?

> <Ready_Biodeg>
0.0

$$$$
101068
  -INDIGO-08031722522D

 22 23  0  0  0  0  0  0  0  0999 V2000
   -2.4621    0.8000    0.0000 O   0  0  0  0  0  0  0  0  0  0  0  0
   -1.5216   -0.4945    0.0000 C   0  0  0  0  0  0  0  0  0  0  0  0
   -2.0161   -2.0161    0.0000 O   0  0  0  0  0  0  0  0  0  0  0  0
    0.0000    0.0000    0.0000 C   0  0  0  0  0  0  0  0  0  0  0  0
   -0.1673   -1.5913    0.0000 H   0  0  0  0  0  0  0  0  0  0  0  0
    1.3856   -0.8000    0.0000 C   0  0  0  0  0  0  0  0  0  0  0  0
    2.4141   -2.0256    0.0000 H   0  0  0  0  0  0  0  0  0  0  0  0
    0.8384   -2.3035    0.0000 H   0  0  0  0  0  0  0  0  0  0  0  0
    2.7712    0.0000    0.0000 C   0  0  0  0  0  0  0  0  0  0  0  0
    2.7712    1.6000    0.0000 C   0  0  0  0  0  0  0  0  0  0  0  0
    4.1570    2.4000    0.0000 H   0  0  0  0  0  0  0  0  0  0  0  0
    1.3856    2.4000    0.0000 C   0  0  0  0  0  0  0  0  0  0  0  0
    0.8384    3.9035    0.0000 H   0  0  0  0  0  0  0  0  0  0  0  0
    2.4141    3.6256    0.0000 H   0  0  0  0  0  0  0  0  0  0  0  0
    0.0000    1.6000    0.0000 C   0  0  0  0  0  0  0  0  0  0  0  0
   -0.1673    3.1913    0.0000 H   0  0  0  0  0  0  0  0  0  0  0  0
   -1.5216    2.0945    0.0000 C   0  0  0  0  0  0  0  0  0  0  0  0
   -2.0161    3.6161    0.0000 O   0  0  0  0  0  0  0  0  0  0  0  0
    4.1570   -0.8000    0.0000 C   0  0  0  0  0  0  0  0  0  0  0  0
    5.5426   -1.6000    0.0000 H   0  0  0  0  0  0  0  0  0  0  0  0
    5.5426    0.0000    0.0000 H   0  0  0  0  0  0  0  0  0  0  0  0
    4.1570   -2.4000    0.0000 H   0  0  0  0  0  0  0  0  0  0  0  0
  1  2  1  0  0  0  0
  2  3  2  0  0  0  0
  2  4  1  0  0  0  0
  4  5  1  0  0  0  0
  4  6  1  0  0  0  0
  6  7  1  0  0  0  0
  6  8  1  0  0  0  0
  6  9  1  0  0  0  0
  9 10  2  0  0  0  0
 10 11  1  0  0  0  0
 10 12  1  0  0  0  0
 12 13  1  0  0  0  0
 12 14  1  0  0  0  0
 12 15  1  0  0  0  0
 15  4  1  0  0  0  0
 15 16  1  0  0  0  0
 15 17  1  0  0  0  0
 17  1  1  0  0  0  0
 17 18  2  0  0  0  0
  9 19  1  0  0  0  0
 19 20  1  0  0  0  0
 19 21  1  0  0  0  0
 19 22  1  0  0  0  0
M  END
> <ChemID>
101068

> <source_casrn>
3425-89-6

> <CAS>
3425-89-6

> <SMILES>
CC1CC2C(CC=1)C(=O)OC2=O

> <NAME>
1,3-Isobenzofurandione, 3a,4,7,7a-tetrahydro-5-methyl-

> <preferred_name>
3a,4,7,7a-Tetrahydro-5-methyl-1,3-isobenzofurandione

> <iupac>
5-methyl-3a,4,7,7a-tetrahydro-2-benzofuran-1,3-dione

> <MPID>
101056

> <dsstox_substance_id>
DTXSID6058714

> <Canonical_QSARr>
CC1CC2C(CC=1)C(=O)OC2=O

> <InChI_Code_QSARr>
InChI=1S/C9H10O3/c1-5-2-3-6-7(4-5)9(11)12-8(6)10/h2,6-7H,3-4H2,1H3

> <InChI Key_QSARr>
OEMSKMUAMXLNKL-UHFFFAOYSA-N

> <Salt_Solvent>
?

> <Ready_Biodeg>
0.0

$$$$
101069
  -INDIGO-08031722522D

 22 22  0  0  0  0  0  0  0  0999 V2000
   -0.0001   -0.0000    0.0000 C   0  0  0  0  0  0  0  0  0  0  0  0
    1.3856    0.8000    0.0000 C   0  0  0  0  0  0  0  0  0  0  0  0
    1.9979    2.2782    0.0000 H   0  0  0  0  0  0  0  0  0  0  0  0
    0.7733    2.2782    0.0000 H   0  0  0  0  0  0  0  0  0  0  0  0
    2.7713   -0.0000    0.0000 C   0  0  0  0  0  0  0  0  0  0  0  0
    4.1569    0.8000    0.0000 H   0  0  0  0  0  0  0  0  0  0  0  0
    4.1569   -0.8000    0.0000 H   0  0  0  0  0  0  0  0  0  0  0  0
    2.7713    1.6000    0.0000 H   0  0  0  0  0  0  0  0  0  0  0  0
   -0.0001   -1.6000    0.0000 C   0  0  0  0  0  0  0  0  0  0  0  0
    1.3856   -2.4000    0.0000 H   0  0  0  0  0  0  0  0  0  0  0  0
   -1.3856   -2.4000    0.0000 C   0  0  0  0  0  0  0  0  0  0  0  0
   -1.3856   -4.0000    0.0000 H   0  0  0  0  0  0  0  0  0  0  0  0
   -2.7712   -1.6000    0.0000 C   0  0  0  0  0  0  0  0  0  0  0  0
   -4.1569   -2.4000    0.0000 C   0  0  0  0  0  0  0  0  0  0  0  0
   -4.1569   -4.0000    0.0000 H   0  0  0  0  0  0  0  0  0  0  0  0
   -5.5425   -1.6000    0.0000 C   0  0  0  0  0  0  0  0  0  0  0  0
   -6.9282   -2.4000    0.0000 H   0  0  0  0  0  0  0  0  0  0  0  0
   -5.5425   -0.0000    0.0000 H   0  0  0  0  0  0  0  0  0  0  0  0
   -2.7712   -0.0000    0.0000 C   0  0  0  0  0  0  0  0  0  0  0  0
   -4.1569    0.8000    0.0000 H   0  0  0  0  0  0  0  0  0  0  0  0
   -1.3856    0.8000    0.0000 C   0  0  0  0  0  0  0  0  0  0  0  0
   -1.3856    2.4000    0.0000 H   0  0  0  0  0  0  0  0  0  0  0  0
  1  2  1  0  0  0  0
  2  3  1  0  0  0  0
  2  4  1  0  0  0  0
  2  5  1  0  0  0  0
  5  6  1  0  0  0  0
  5  7  1  0  0  0  0
  5  8  1  0  0  0  0
  1  9  1  0  0  0  0
  9 10  1  0  0  0  0
  9 11  2  0  0  0  0
 11 12  1  0  0  0  0
 11 13  1  0  0  0  0
 13 14  1  0  0  0  0
 14 15  1  0  0  0  0
 14 16  2  0  0  0  0
 16 17  1  0  0  0  0
 16 18  1  0  0  0  0
 13 19  2  0  0  0  0
 19 20  1  0  0  0  0
 19 21  1  0  0  0  0
 21  1  2  0  0  0  0
 21 22  1  0  0  0  0
M  END
> <ChemID>
101069

> <source_casrn>
3454-07-7

> <CAS>
3454-07-7

> <SMILES>
CCc1ccc(C=C)cc1

> <NAME>
p-Ethylstyrene

> <preferred_name>
4-Ethylstyrene

> <iupac>
1-ethenyl-4-ethylbenzene

> <MPID>
101057

> <dsstox_substance_id>
DTXSID70188081

> <Canonical_QSARr>
CCc1ccc(C=C)cc1

> <InChI_Code_QSARr>
InChI=1S/C10H12/c1-3-9-5-7-10(4-2)8-6-9/h3,5-8H,1,4H2,2H3

> <InChI Key_QSARr>
WHFHDVDXYKOSKI-UHFFFAOYSA-N

> <Salt_Solvent>
?

> <Ready_Biodeg>
0.0

$$$$
101072
  -INDIGO-08031722522D

 17 16  0  0  0  0  0  0  0  0999 V2000
    2.7712   -1.6000    0.0000 C   0  0  0  0  0  0  0  0  0  0  0  0
    4.1569   -2.4000    0.0000 H   0  0  0  0  0  0  0  0  0  0  0  0
    1.3857   -0.8000    0.0000 C   0  0  0  0  0  0  0  0  0  0  0  0
   -0.0000   -0.0000    0.0000 C   0  0  0  0  0  0  0  0  0  0  0  0
   -1.3857    0.8000    0.0000 O   0  0  0  0  0  0  0  0  0  0  0  0
   -1.3857    2.4000    0.0000 H   0  0  0  0  0  0  0  0  0  0  0  0
    0.8001    1.3857    0.0000 C   0  0  0  0  0  0  0  0  0  0  0  0
    1.6000    2.7713    0.0000 H   0  0  0  0  0  0  0  0  0  0  0  0
    2.4000    1.3857    0.0000 H   0  0  0  0  0  0  0  0  0  0  0  0
   -0.0000    2.7713    0.0000 H   0  0  0  0  0  0  0  0  0  0  0  0
   -0.8000   -1.3857    0.0000 C   0  0  0  0  0  0  0  0  0  0  0  0
    0.4693   -2.3596    0.0000 H   0  0  0  0  0  0  0  0  0  0  0  0
   -0.5911   -2.9720    0.0000 H   0  0  0  0  0  0  0  0  0  0  0  0
   -2.4000   -1.3857    0.0000 C   0  0  0  0  0  0  0  0  0  0  0  0
   -4.0000   -1.3857    0.0000 H   0  0  0  0  0  0  0  0  0  0  0  0
   -3.2001   -2.7713    0.0000 H   0  0  0  0  0  0  0  0  0  0  0  0
   -3.2001   -0.0000    0.0000 H   0  0  0  0  0  0  0  0  0  0  0  0
  1  2  1  0  0  0  0
  1  3  3  0  0  0  0
  3  4  1  0  0  0  0
  4  5  1  0  0  0  0
  5  6  1  0  0  0  0
  4  7  1  0  0  0  0
  7  8  1  0  0  0  0
  7  9  1  0  0  0  0
  7 10  1  0  0  0  0
  4 11  1  0  0  0  0
 11 12  1  0  0  0  0
 11 13  1  0  0  0  0
 11 14  1  0  0  0  0
 14 15  1  0  0  0  0
 14 16  1  0  0  0  0
 14 17  1  0  0  0  0
M  END
> <ChemID>
101072

> <source_casrn>
3734-67-6

> <CAS>
77-75-8

> <SMILES>
CCC(O)(C)C#C

> <NAME>
Meparfynol

> <preferred_name>
3-Methyl-1-pentyn-3-ol

> <iupac>
3-methylpent-1-yn-3-ol

> <MPID>
101059

> <dsstox_substance_id>
DTXSID5021756

> <Canonical_QSARr>
CCC(C)(O)C#C

> <InChI_Code_QSARr>
InChI=1S/C6H10O/c1-4-6(3,7)5-2/h1,7H,5H2,2-3H3

> <InChI Key_QSARr>
QXLPXWSKPNOQLE-UHFFFAOYSA-N

> <Salt_Solvent>
?

> <Ready_Biodeg>
1.0

$$$$
101073
  -INDIGO-08031722522D

 32 32  0  0  0  0  0  0  0  0999 V2000
    2.6041    0.9478    0.0000 C   0  0  0  0  0  0  0  0  0  0  0  0
    4.1798    0.6700    0.0000 H   0  0  0  0  0  0  0  0  0  0  0  0
    3.6326    2.1735    0.0000 H   0  0  0  0  0  0  0  0  0  0  0  0
    3.1513   -0.5557    0.0000 H   0  0  0  0  0  0  0  0  0  0  0  0
    1.0284    1.2256    0.0000 C   0  0  0  0  0  0  0  0  0  0  0  0
    0.1688    2.5750    0.0000 H   0  0  0  0  0  0  0  0  0  0  0  0
    1.0983    2.8241    0.0000 H   0  0  0  0  0  0  0  0  0  0  0  0
   -0.0001    0.0000    0.0000 C   0  0  0  0  0  0  0  0  0  0  0  0
    1.3856   -0.8000    0.0000 H   0  0  0  0  0  0  0  0  0  0  0  0
   -1.3856    0.8000    0.0000 C   0  0  0  0  0  0  0  0  0  0  0  0
   -1.3856    2.4000    0.0000 H   0  0  0  0  0  0  0  0  0  0  0  0
   -2.7712    1.6000    0.0000 H   0  0  0  0  0  0  0  0  0  0  0  0
   -0.0001    1.6000    0.0000 H   0  0  0  0  0  0  0  0  0  0  0  0
   -0.8001   -1.3856    0.0000 C   0  0  0  0  0  0  0  0  0  0  0  0
   -2.4000   -1.3856    0.0000 C   0  0  0  0  0  0  0  0  0  0  0  0
   -3.2000    0.0000    0.0000 H   0  0  0  0  0  0  0  0  0  0  0  0
   -3.2000   -2.7713    0.0000 C   0  0  0  0  0  0  0  0  0  0  0  0
   -4.8000   -2.7713    0.0000 H   0  0  0  0  0  0  0  0  0  0  0  0
   -2.4000   -4.1569    0.0000 C   0  0  0  0  0  0  0  0  0  0  0  0
   -3.2000   -5.5426    0.0000 H   0  0  0  0  0  0  0  0  0  0  0  0
   -0.8001   -4.1569    0.0000 C   0  0  0  0  0  0  0  0  0  0  0  0
   -0.0001   -5.5426    0.0000 H   0  0  0  0  0  0  0  0  0  0  0  0
   -0.0001   -2.7713    0.0000 C   0  0  0  0  0  0  0  0  0  0  0  0
    1.6001   -2.7713    0.0000 O   0  0  0  0  0  0  0  0  0  0  0  0
    2.4001   -4.1569    0.0000 C   0  0  0  0  0  0  0  0  0  0  0  0
    4.0000   -4.1569    0.0000 N   0  0  0  0  0  0  0  0  0  0  0  0
    4.8000   -2.7713    0.0000 H   0  0  0  0  0  0  0  0  0  0  0  0
    4.8000   -5.5426    0.0000 C   0  0  0  0  0  0  0  0  0  0  0  0
    5.6000   -6.9282    0.0000 H   0  0  0  0  0  0  0  0  0  0  0  0
    6.4000   -5.5426    0.0000 H   0  0  0  0  0  0  0  0  0  0  0  0
    4.0000   -6.9282    0.0000 H   0  0  0  0  0  0  0  0  0  0  0  0
    1.6001   -5.5426    0.0000 O   0  0  0  0  0  0  0  0  0  0  0  0
  1  2  1  0  0  0  0
  1  3  1  0  0  0  0
  1  4  1  0  0  0  0
  1  5  1  0  0  0  0
  5  6  1  0  0  0  0
  5  7  1  0  0  0  0
  5  8  1  0  0  0  0
  8  9  1  0  0  0  0
  8 10  1  0  0  0  0
 10 11  1  0  0  0  0
 10 12  1  0  0  0  0
 10 13  1  0  0  0  0
  8 14  1  0  0  0  0
 14 15  1  0  0  0  0
 15 16  1  0  0  0  0
 15 17  2  0  0  0  0
 17 18  1  0  0  0  0
 17 19  1  0  0  0  0
 19 20  1  0  0  0  0
 19 21  2  0  0  0  0
 21 22  1  0  0  0  0
 21 23  1  0  0  0  0
 23 14  2  0  0  0  0
 23 24  1  0  0  0  0
 24 25  1  0  0  0  0
 25 26  1  0  0  0  0
 26 27  1  0  0  0  0
 26 28  1  0  0  0  0
 28 29  1  0  0  0  0
 28 30  1  0  0  0  0
 28 31  1  0  0  0  0
 25 32  2  0  0  0  0
M  END
> <ChemID>
101073

> <source_casrn>
3766-81-2

> <CAS>
3766-81-2

> <SMILES>
CCC(C)c1ccccc1OC(=O)NC

> <NAME>
Phenol, 2-(1-methylpropyl)-, methylcarbamate

> <preferred_name>
Fenobucarb

> <iupac>
2-sec-butylphenyl methylcarbamate

> <MPID>
101060

> <dsstox_substance_id>
DTXSID4058077

> <Canonical_QSARr>
CCC(C)c1ccccc1OC(=O)NC

> <InChI_Code_QSARr>
InChI=1S/C12H17NO2/c1-4-9(2)10-7-5-6-8-11(10)15-12(14)13-3/h5-9H,4H2,1-3H3,(H,13,14)

> <InChI Key_QSARr>
DIRFUJHNVNOBMY-UHFFFAOYSA-N

> <Salt_Solvent>
?

> <Ready_Biodeg>
0.0

$$$$
101075
  -INDIGO-08031722522D

131132  0  0  0  0  0  0  0  0999 V2000
    1.3857   -0.8000    0.0000 C   0  0  0  0  0  0  0  0  0  0  0  0
    2.4137   -2.0257    0.0000 H   0  0  0  0  0  0  0  0  0  0  0  0
    1.5755   -1.8779    0.0000 H   0  0  0  0  0  0  0  0  0  0  0  0
    2.7709   -0.0001    0.0000 O   0  0  0  0  0  0  0  0  0  0  0  0
    2.7709    1.5999    0.0000 P   0  0  0  0  0  0  0  0  0  0  0  0
    4.1571    2.4000    0.0000 O   0  0  0  0  0  0  0  0  0  0  0  0
    5.5424    1.5999    0.0000 C   0  0  0  0  0  0  0  0  0  0  0  0
    6.1545    0.1218    0.0000 H   0  0  0  0  0  0  0  0  0  0  0  0
    4.9302    0.1218    0.0000 H   0  0  0  0  0  0  0  0  0  0  0  0
    6.9285    2.4000    0.0000 C   0  0  0  0  0  0  0  0  0  0  0  0
    6.3164    3.8782    0.0000 H   0  0  0  0  0  0  0  0  0  0  0  0
    7.5407    3.8782    0.0000 H   0  0  0  0  0  0  0  0  0  0  0  0
    8.3138    1.5999    0.0000 C   0  0  0  0  0  0  0  0  0  0  0  0
    8.9259    0.1218    0.0000 H   0  0  0  0  0  0  0  0  0  0  0  0
    7.7016    0.1218    0.0000 H   0  0  0  0  0  0  0  0  0  0  0  0
    9.6999    2.4000    0.0000 C   0  0  0  0  0  0  0  0  0  0  0  0
    9.0869    3.8782    0.0000 H   0  0  0  0  0  0  0  0  0  0  0  0
   10.3121    3.8782    0.0000 H   0  0  0  0  0  0  0  0  0  0  0  0
   11.0852    1.5999    0.0000 C   0  0  0  0  0  0  0  0  0  0  0  0
   11.6973    0.1218    0.0000 H   0  0  0  0  0  0  0  0  0  0  0  0
   10.4730    0.1218    0.0000 H   0  0  0  0  0  0  0  0  0  0  0  0
   12.4704    2.4000    0.0000 C   0  0  0  0  0  0  0  0  0  0  0  0
   11.8583    3.8782    0.0000 H   0  0  0  0  0  0  0  0  0  0  0  0
   13.0835    3.8782    0.0000 H   0  0  0  0  0  0  0  0  0  0  0  0
   13.8566    1.5999    0.0000 C   0  0  0  0  0  0  0  0  0  0  0  0
   14.4687    0.1218    0.0000 H   0  0  0  0  0  0  0  0  0  0  0  0
   13.2444    0.1218    0.0000 H   0  0  0  0  0  0  0  0  0  0  0  0
   15.2418    2.4000    0.0000 C   0  0  0  0  0  0  0  0  0  0  0  0
   14.6297    3.8782    0.0000 H   0  0  0  0  0  0  0  0  0  0  0  0
   15.8540    3.8782    0.0000 H   0  0  0  0  0  0  0  0  0  0  0  0
   16.6280    1.5999    0.0000 C   0  0  0  0  0  0  0  0  0  0  0  0
   17.2401    0.1218    0.0000 H   0  0  0  0  0  0  0  0  0  0  0  0
   16.0158    0.1218    0.0000 H   0  0  0  0  0  0  0  0  0  0  0  0
   18.0132    2.4000    0.0000 C   0  0  0  0  0  0  0  0  0  0  0  0
   17.4011    3.8782    0.0000 H   0  0  0  0  0  0  0  0  0  0  0  0
   18.6254    3.8782    0.0000 H   0  0  0  0  0  0  0  0  0  0  0  0
   19.3994    1.5999    0.0000 C   0  0  0  0  0  0  0  0  0  0  0  0
   20.0115    0.1218    0.0000 H   0  0  0  0  0  0  0  0  0  0  0  0
   18.7863    0.1218    0.0000 H   0  0  0  0  0  0  0  0  0  0  0  0
   20.7846    2.4000    0.0000 C   0  0  0  0  0  0  0  0  0  0  0  0
   20.1725    3.8782    0.0000 H   0  0  0  0  0  0  0  0  0  0  0  0
   21.3968    3.8782    0.0000 H   0  0  0  0  0  0  0  0  0  0  0  0
   22.1699    1.5999    0.0000 C   0  0  0  0  0  0  0  0  0  0  0  0
   22.7830    0.1218    0.0000 H   0  0  0  0  0  0  0  0  0  0  0  0
   21.5577    0.1218    0.0000 H   0  0  0  0  0  0  0  0  0  0  0  0
   23.5560    2.4000    0.0000 C   0  0  0  0  0  0  0  0  0  0  0  0
   22.9439    3.8782    0.0000 H   0  0  0  0  0  0  0  0  0  0  0  0
   24.1682    3.8782    0.0000 H   0  0  0  0  0  0  0  0  0  0  0  0
   24.9413    1.6001    0.0000 C   0  0  0  0  0  0  0  0  0  0  0  0
   25.5534    0.1218    0.0000 H   0  0  0  0  0  0  0  0  0  0  0  0
   24.3291    0.1218    0.0000 H   0  0  0  0  0  0  0  0  0  0  0  0
   26.3275    2.4000    0.0000 C   0  0  0  0  0  0  0  0  0  0  0  0
   25.7153    3.8782    0.0000 H   0  0  0  0  0  0  0  0  0  0  0  0
   26.9396    3.8782    0.0000 H   0  0  0  0  0  0  0  0  0  0  0  0
   27.7127    1.6001    0.0000 C   0  0  0  0  0  0  0  0  0  0  0  0
   28.3248    0.1218    0.0000 H   0  0  0  0  0  0  0  0  0  0  0  0
   27.1005    0.1218    0.0000 H   0  0  0  0  0  0  0  0  0  0  0  0
   29.0989    2.4000    0.0000 C   0  0  0  0  0  0  0  0  0  0  0  0
   30.4841    3.2001    0.0000 H   0  0  0  0  0  0  0  0  0  0  0  0
   30.4841    1.6001    0.0000 H   0  0  0  0  0  0  0  0  0  0  0  0
   29.0989    4.0000    0.0000 H   0  0  0  0  0  0  0  0  0  0  0  0
    1.3857    2.4000    0.0000 O   0  0  0  0  0  0  0  0  0  0  0  0
   -0.0005    1.5999    0.0000 C   0  0  0  0  0  0  0  0  0  0  0  0
   -0.5475    3.1035    0.0000 H   0  0  0  0  0  0  0  0  0  0  0  0
   -0.8387    2.3036    0.0000 H   0  0  0  0  0  0  0  0  0  0  0  0
   -0.0005   -0.0001    0.0000 C   0  0  0  0  0  0  0  0  0  0  0  0
   -1.3857    0.8000    0.0000 C   0  0  0  0  0  0  0  0  0  0  0  0
   -1.5755    1.8778    0.0000 H   0  0  0  0  0  0  0  0  0  0  0  0
   -2.4137    2.0257    0.0000 H   0  0  0  0  0  0  0  0  0  0  0  0
   -2.7709   -0.0001    0.0000 O   0  0  0  0  0  0  0  0  0  0  0  0
   -2.7709   -1.6001    0.0000 P   0  0  0  0  0  0  0  0  0  0  0  0
   -4.1571   -2.4000    0.0000 O   0  0  0  0  0  0  0  0  0  0  0  0
   -5.5424   -1.6001    0.0000 C   0  0  0  0  0  0  0  0  0  0  0  0
   -6.1545   -0.1218    0.0000 H   0  0  0  0  0  0  0  0  0  0  0  0
   -4.9302   -0.1218    0.0000 H   0  0  0  0  0  0  0  0  0  0  0  0
   -6.9285   -2.4000    0.0000 C   0  0  0  0  0  0  0  0  0  0  0  0
   -6.3164   -3.8782    0.0000 H   0  0  0  0  0  0  0  0  0  0  0  0
   -7.5407   -3.8782    0.0000 H   0  0  0  0  0  0  0  0  0  0  0  0
   -8.3138   -1.6001    0.0000 C   0  0  0  0  0  0  0  0  0  0  0  0
   -8.9259   -0.1218    0.0000 H   0  0  0  0  0  0  0  0  0  0  0  0
   -7.7016   -0.1218    0.0000 H   0  0  0  0  0  0  0  0  0  0  0  0
   -9.6999   -2.4000    0.0000 C   0  0  0  0  0  0  0  0  0  0  0  0
   -9.0869   -3.8782    0.0000 H   0  0  0  0  0  0  0  0  0  0  0  0
  -10.3121   -3.8782    0.0000 H   0  0  0  0  0  0  0  0  0  0  0  0
  -11.0852   -1.6001    0.0000 C   0  0  0  0  0  0  0  0  0  0  0  0
  -11.6973   -0.1218    0.0000 H   0  0  0  0  0  0  0  0  0  0  0  0
  -10.4730   -0.1218    0.0000 H   0  0  0  0  0  0  0  0  0  0  0  0
  -12.4704   -2.4000    0.0000 C   0  0  0  0  0  0  0  0  0  0  0  0
  -11.8583   -3.8782    0.0000 H   0  0  0  0  0  0  0  0  0  0  0  0
  -13.0835   -3.8782    0.0000 H   0  0  0  0  0  0  0  0  0  0  0  0
  -13.8566   -1.6001    0.0000 C   0  0  0  0  0  0  0  0  0  0  0  0
  -14.4687   -0.1218    0.0000 H   0  0  0  0  0  0  0  0  0  0  0  0
  -13.2444   -0.1218    0.0000 H   0  0  0  0  0  0  0  0  0  0  0  0
  -15.2418   -2.4000    0.0000 C   0  0  0  0  0  0  0  0  0  0  0  0
  -14.6297   -3.8782    0.0000 H   0  0  0  0  0  0  0  0  0  0  0  0
  -15.8540   -3.8782    0.0000 H   0  0  0  0  0  0  0  0  0  0  0  0
  -16.6280   -1.6001    0.0000 C   0  0  0  0  0  0  0  0  0  0  0  0
  -17.2401   -0.1218    0.0000 H   0  0  0  0  0  0  0  0  0  0  0  0
  -16.0158   -0.1218    0.0000 H   0  0  0  0  0  0  0  0  0  0  0  0
  -18.0132   -2.4000    0.0000 C   0  0  0  0  0  0  0  0  0  0  0  0
  -17.4011   -3.8782    0.0000 H   0  0  0  0  0  0  0  0  0  0  0  0
  -18.6254   -3.8782    0.0000 H   0  0  0  0  0  0  0  0  0  0  0  0
  -19.3994   -1.6001    0.0000 C   0  0  0  0  0  0  0  0  0  0  0  0
  -20.0115   -0.1218    0.0000 H   0  0  0  0  0  0  0  0  0  0  0  0
  -18.7863   -0.1218    0.0000 H   0  0  0  0  0  0  0  0  0  0  0  0
  -20.7846   -2.4000    0.0000 C   0  0  0  0  0  0  0  0  0  0  0  0
  -20.1725   -3.8782    0.0000 H   0  0  0  0  0  0  0  0  0  0  0  0
  -21.3968   -3.8782    0.0000 H   0  0  0  0  0  0  0  0  0  0  0  0
  -22.1699   -1.6001    0.0000 C   0  0  0  0  0  0  0  0  0  0  0  0
  -22.7830   -0.1218    0.0000 H   0  0  0  0  0  0  0  0  0  0  0  0
  -21.5577   -0.1218    0.0000 H   0  0  0  0  0  0  0  0  0  0  0  0
  -23.5560   -2.4000    0.0000 C   0  0  0  0  0  0  0  0  0  0  0  0
  -22.9439   -3.8782    0.0000 H   0  0  0  0  0  0  0  0  0  0  0  0
  -24.1682   -3.8782    0.0000 H   0  0  0  0  0  0  0  0  0  0  0  0
  -24.9413   -1.6001    0.0000 C   0  0  0  0  0  0  0  0  0  0  0  0
  -25.5534   -0.1218    0.0000 H   0  0  0  0  0  0  0  0  0  0  0  0
  -24.3291   -0.1218    0.0000 H   0  0  0  0  0  0  0  0  0  0  0  0
  -26.3274   -2.4000    0.0000 C   0  0  0  0  0  0  0  0  0  0  0  0
  -25.7153   -3.8782    0.0000 H   0  0  0  0  0  0  0  0  0  0  0  0
  -26.9396   -3.8782    0.0000 H   0  0  0  0  0  0  0  0  0  0  0  0
  -27.7127   -1.6001    0.0000 C   0  0  0  0  0  0  0  0  0  0  0  0
  -28.3248   -0.1218    0.0000 H   0  0  0  0  0  0  0  0  0  0  0  0
  -27.1005   -0.1218    0.0000 H   0  0  0  0  0  0  0  0  0  0  0  0
  -29.0989   -2.4000    0.0000 C   0  0  0  0  0  0  0  0  0  0  0  0
  -30.4841   -3.2001    0.0000 H   0  0  0  0  0  0  0  0  0  0  0  0
  -30.4841   -1.6001    0.0000 H   0  0  0  0  0  0  0  0  0  0  0  0
  -29.0989   -4.0000    0.0000 H   0  0  0  0  0  0  0  0  0  0  0  0
   -1.3857   -2.4000    0.0000 O   0  0  0  0  0  0  0  0  0  0  0  0
   -0.0005   -1.6001    0.0000 C   0  0  0  0  0  0  0  0  0  0  0  0
    0.5475   -3.1035    0.0000 H   0  0  0  0  0  0  0  0  0  0  0  0
    0.8387   -2.3036    0.0000 H   0  0  0  0  0  0  0  0  0  0  0  0
  1  2  1  0  0  0  0
  1  3  1  0  0  0  0
  1  4  1  0  0  0  0
  4  5  1  0  0  0  0
  5  6  1  0  0  0  0
  6  7  1  0  0  0  0
  7  8  1  0  0  0  0
  7  9  1  0  0  0  0
  7 10  1  0  0  0  0
 10 11  1  0  0  0  0
 10 12  1  0  0  0  0
 10 13  1  0  0  0  0
 13 14  1  0  0  0  0
 13 15  1  0  0  0  0
 13 16  1  0  0  0  0
 16 17  1  0  0  0  0
 16 18  1  0  0  0  0
 16 19  1  0  0  0  0
 19 20  1  0  0  0  0
 19 21  1  0  0  0  0
 19 22  1  0  0  0  0
 22 23  1  0  0  0  0
 22 24  1  0  0  0  0
 22 25  1  0  0  0  0
 25 26  1  0  0  0  0
 25 27  1  0  0  0  0
 25 28  1  0  0  0  0
 28 29  1  0  0  0  0
 28 30  1  0  0  0  0
 28 31  1  0  0  0  0
 31 32  1  0  0  0  0
 31 33  1  0  0  0  0
 31 34  1  0  0  0  0
 34 35  1  0  0  0  0
 34 36  1  0  0  0  0
 34 37  1  0  0  0  0
 37 38  1  0  0  0  0
 37 39  1  0  0  0  0
 37 40  1  0  0  0  0
 40 41  1  0  0  0  0
 40 42  1  0  0  0  0
 40 43  1  0  0  0  0
 43 44  1  0  0  0  0
 43 45  1  0  0  0  0
 43 46  1  0  0  0  0
 46 47  1  0  0  0  0
 46 48  1  0  0  0  0
 46 49  1  0  0  0  0
 49 50  1  0  0  0  0
 49 51  1  0  0  0  0
 49 52  1  0  0  0  0
 52 53  1  0  0  0  0
 52 54  1  0  0  0  0
 52 55  1  0  0  0  0
 55 56  1  0  0  0  0
 55 57  1  0  0  0  0
 55 58  1  0  0  0  0
 58 59  1  0  0  0  0
 58 60  1  0  0  0  0
 58 61  1  0  0  0  0
  5 62  1  0  0  0  0
 62 63  1  0  0  0  0
 63 64  1  0  0  0  0
 63 65  1  0  0  0  0
 63 66  1  0  0  0  0
 66  1  1  0  0  0  0
 66 67  1  0  0  0  0
 67 68  1  0  0  0  0
 67 69  1  0  0  0  0
 67 70  1  0  0  0  0
 70 71  1  0  0  0  0
 71 72  1  0  0  0  0
 72 73  1  0  0  0  0
 73 74  1  0  0  0  0
 73 75  1  0  0  0  0
 73 76  1  0  0  0  0
 76 77  1  0  0  0  0
 76 78  1  0  0  0  0
 76 79  1  0  0  0  0
 79 80  1  0  0  0  0
 79 81  1  0  0  0  0
 79 82  1  0  0  0  0
 82 83  1  0  0  0  0
 82 84  1  0  0  0  0
 82 85  1  0  0  0  0
 85 86  1  0  0  0  0
 85 87  1  0  0  0  0
 85 88  1  0  0  0  0
 88 89  1  0  0  0  0
 88 90  1  0  0  0  0
 88 91  1  0  0  0  0
 91 92  1  0  0  0  0
 91 93  1  0  0  0  0
 91 94  1  0  0  0  0
 94 95  1  0  0  0  0
 94 96  1  0  0  0  0
 94 97  1  0  0  0  0
 97 98  1  0  0  0  0
 97 99  1  0  0  0  0
 97100  1  0  0  0  0
100101  1  0  0  0  0
100102  1  0  0  0  0
100103  1  0  0  0  0
103104  1  0  0  0  0
103105  1  0  0  0  0
103106  1  0  0  0  0
106107  1  0  0  0  0
106108  1  0  0  0  0
106109  1  0  0  0  0
109110  1  0  0  0  0
109111  1  0  0  0  0
109112  1  0  0  0  0
112113  1  0  0  0  0
112114  1  0  0  0  0
112115  1  0  0  0  0
115116  1  0  0  0  0
115117  1  0  0  0  0
115118  1  0  0  0  0
118119  1  0  0  0  0
118120  1  0  0  0  0
118121  1  0  0  0  0
121122  1  0  0  0  0
121123  1  0  0  0  0
121124  1  0  0  0  0
124125  1  0  0  0  0
124126  1  0  0  0  0
124127  1  0  0  0  0
 71128  1  0  0  0  0
128129  1  0  0  0  0
129 66  1  0  0  0  0
129130  1  0  0  0  0
129131  1  0  0  0  0
M  END
> <ChemID>
101075

> <source_casrn>
3806-34-6

> <CAS>
3806-34-6

> <SMILES>
O(P(OCC1(COP(O2)OCCCCCCCCCCCCCCCCCC)C2)OCCCCCCCCCCCCCCCCCC)C1

> <NAME>
2,4,8,10-Tetraoxa-3,9-diphosphaspiro 5.5 undecane, 3,9-bis(octadecylo

> <preferred_name>
2,4,8,10-Tetraoxa-3,9-diphosphaspiro[5.5]undecane, 3,9-bis(octadecyloxy)-

> <iupac>
3,9-bis(octadecyloxy)-2,4,8,10-tetraoxa-3,9-diphosphaspiro[5.5]undecane

> <MPID>
101061

> <dsstox_substance_id>
DTXSID2027549

> <Canonical_QSARr>
CCCCCCCCCCCCCCCCCCOP1OCC2(COP(OC2)OCCCCCCCCCCCCCCCCCC)CO1

> <InChI_Code_QSARr>
InChI=1S/C41H82O6P2/c1-3-5-7-9-11-13-15-17-19-21-23-25-27-29-31-33-35-42-48-44-37-41(38-45-48)39-46-49(47-40-41)43-36-34-32-30-28-26-24-22-20-18-16-14-12-10-8-6-4-2/h3-40H2,1-2H3

> <InChI Key_QSARr>
PZRWFKGUFWPFID-UHFFFAOYSA-N

> <Salt_Solvent>
?

> <Ready_Biodeg>
1.0

$$$$
101077
  -INDIGO-08031722522D

 16 16  0  0  0  0  0  0  0  0999 V2000
   -3.2000    2.7713    0.0000 Cl  0  0  0  0  0  0  0  0  0  0  0  0
   -2.4000    1.3856    0.0000 C   0  0  0  0  0  0  0  0  0  0  0  0
   -0.7999    1.3856    0.0000 C   0  0  0  0  0  0  0  0  0  0  0  0
    0.0000    2.7713    0.0000 H   0  0  0  0  0  0  0  0  0  0  0  0
    0.0000    0.0000    0.0000 C   0  0  0  0  0  0  0  0  0  0  0  0
    1.6000    0.0000    0.0000 C   0  0  0  0  0  0  0  0  0  0  0  0
    2.4001   -1.3856    0.0000 O   0  0  0  0  0  0  0  0  0  0  0  0
    4.0000   -1.3856    0.0000 H   0  0  0  0  0  0  0  0  0  0  0  0
    2.3999    1.3856    0.0000 O   0  0  0  0  0  0  0  0  0  0  0  0
   -0.8001   -1.3856    0.0000 C   0  0  0  0  0  0  0  0  0  0  0  0
    0.0000   -2.7713    0.0000 H   0  0  0  0  0  0  0  0  0  0  0  0
   -2.4000   -1.3856    0.0000 C   0  0  0  0  0  0  0  0  0  0  0  0
   -3.2000   -2.7713    0.0000 H   0  0  0  0  0  0  0  0  0  0  0  0
   -3.2000   -0.0000    0.0000 C   0  0  0  0  0  0  0  0  0  0  0  0
   -4.8000    0.0000    0.0000 O   0  0  0  0  0  0  0  0  0  0  0  0
   -5.6000    1.3856    0.0000 H   0  0  0  0  0  0  0  0  0  0  0  0
  1  2  1  0  0  0  0
  2  3  1  0  0  0  0
  3  4  1  0  0  0  0
  3  5  2  0  0  0  0
  5  6  1  0  0  0  0
  6  7  1  0  0  0  0
  7  8  1  0  0  0  0
  6  9  2  0  0  0  0
  5 10  1  0  0  0  0
 10 11  1  0  0  0  0
 10 12  2  0  0  0  0
 12 13  1  0  0  0  0
 12 14  1  0  0  0  0
 14  2  2  0  0  0  0
 14 15  1  0  0  0  0
 15 16  1  0  0  0  0
M  END
> <ChemID>
101077

> <source_casrn>
3964-58-7

> <CAS>
3964-58-7

> <SMILES>
Oc1ccc(cc1Cl)C(O)=O

> <NAME>
3-Chloro-4-hydroxybenzoic acid

> <preferred_name>
3-Chloro-4-hydroxybenzoate

> <iupac>
3-Chloro-4-hydroxybenzoic acid

> <MPID>
101063

> <dsstox_substance_id>
DTXSID50192747

> <Canonical_QSARr>
Oc1ccc(cc1Cl)C(O)=O

> <InChI_Code_QSARr>
InChI=1S/C7H5ClO3/c8-5-3-4(7(10)11)1-2-6(5)9/h1-3,9H,(H,10,11)

> <InChI Key_QSARr>
QGNLHMKIGMZKJX-UHFFFAOYSA-N

> <Salt_Solvent>
?

> <Ready_Biodeg>
0.0

$$$$
101079
  -INDIGO-08031722522D

 32 31  0  0  0  0  0  0  0  0999 V2000
   -0.0001    0.0000    0.0000 C   0  0  0  0  0  0  0  0  0  0  0  0
    0.6123    1.4782    0.0000 H   0  0  0  0  0  0  0  0  0  0  0  0
   -0.6122    1.4782    0.0000 H   0  0  0  0  0  0  0  0  0  0  0  0
    1.3856   -0.8000    0.0000 C   0  0  0  0  0  0  0  0  0  0  0  0
    0.7732   -2.2782    0.0000 H   0  0  0  0  0  0  0  0  0  0  0  0
    1.9980   -2.2782    0.0000 H   0  0  0  0  0  0  0  0  0  0  0  0
    2.7713    0.0000    0.0000 C   0  0  0  0  0  0  0  0  0  0  0  0
    3.3835    1.4782    0.0000 H   0  0  0  0  0  0  0  0  0  0  0  0
    2.1589    1.4782    0.0000 H   0  0  0  0  0  0  0  0  0  0  0  0
    4.1570   -0.8000    0.0000 C   0  0  0  0  0  0  0  0  0  0  0  0
    3.5446   -2.2782    0.0000 H   0  0  0  0  0  0  0  0  0  0  0  0
    4.7692   -2.2782    0.0000 H   0  0  0  0  0  0  0  0  0  0  0  0
    5.5425    0.0000    0.0000 C   0  0  0  0  0  0  0  0  0  0  0  0
    6.9282    0.8000    0.0000 H   0  0  0  0  0  0  0  0  0  0  0  0
    6.9282   -0.8000    0.0000 H   0  0  0  0  0  0  0  0  0  0  0  0
    5.5425    1.6000    0.0000 Br  0  0  0  0  0  0  0  0  0  0  0  0
   -1.3856   -0.8000    0.0000 C   0  0  0  0  0  0  0  0  0  0  0  0
   -1.9979   -2.2782    0.0000 H   0  0  0  0  0  0  0  0  0  0  0  0
   -0.7734   -2.2782    0.0000 H   0  0  0  0  0  0  0  0  0  0  0  0
   -2.7713    0.0000    0.0000 C   0  0  0  0  0  0  0  0  0  0  0  0
   -2.1589    1.4782    0.0000 H   0  0  0  0  0  0  0  0  0  0  0  0
   -3.3836    1.4782    0.0000 H   0  0  0  0  0  0  0  0  0  0  0  0
   -4.1570   -0.8000    0.0000 C   0  0  0  0  0  0  0  0  0  0  0  0
   -4.7691   -2.2782    0.0000 H   0  0  0  0  0  0  0  0  0  0  0  0
   -3.5446   -2.2782    0.0000 H   0  0  0  0  0  0  0  0  0  0  0  0
   -5.5427    0.0000    0.0000 C   0  0  0  0  0  0  0  0  0  0  0  0
   -4.9303    1.4782    0.0000 H   0  0  0  0  0  0  0  0  0  0  0  0
   -6.1548    1.4782    0.0000 H   0  0  0  0  0  0  0  0  0  0  0  0
   -6.9281   -0.8000    0.0000 C   0  0  0  0  0  0  0  0  0  0  0  0
   -8.3138   -1.6000    0.0000 H   0  0  0  0  0  0  0  0  0  0  0  0
   -8.3138    0.0000    0.0000 H   0  0  0  0  0  0  0  0  0  0  0  0
   -6.9281   -2.4000    0.0000 Br  0  0  0  0  0  0  0  0  0  0  0  0
  1  2  1  0  0  0  0
  1  3  1  0  0  0  0
  1  4  1  0  0  0  0
  4  5  1  0  0  0  0
  4  6  1  0  0  0  0
  4  7  1  0  0  0  0
  7  8  1  0  0  0  0
  7  9  1  0  0  0  0
  7 10  1  0  0  0  0
 10 11  1  0  0  0  0
 10 12  1  0  0  0  0
 10 13  1  0  0  0  0
 13 14  1  0  0  0  0
 13 15  1  0  0  0  0
 13 16  1  0  0  0  0
  1 17  1  0  0  0  0
 17 18  1  0  0  0  0
 17 19  1  0  0  0  0
 17 20  1  0  0  0  0
 20 21  1  0  0  0  0
 20 22  1  0  0  0  0
 20 23  1  0  0  0  0
 23 24  1  0  0  0  0
 23 25  1  0  0  0  0
 23 26  1  0  0  0  0
 26 27  1  0  0  0  0
 26 28  1  0  0  0  0
 26 29  1  0  0  0  0
 29 30  1  0  0  0  0
 29 31  1  0  0  0  0
 29 32  1  0  0  0  0
M  END
> <ChemID>
101079

> <source_casrn>
4101-68-2

> <CAS>
4101-68-2

> <SMILES>
BrCCCCCCCCCCBr

> <NAME>
Decane, 1,10-dibromo-

> <preferred_name>
Decane, 1,10-dibromo-

> <iupac>
1,10-Dibromodecane

> <MPID>
101064

> <dsstox_substance_id>
DTXSID4063298

> <Canonical_QSARr>
BrCCCCCCCCCCBr

> <InChI_Code_QSARr>
InChI=1S/C10H20Br2/c11-9-7-5-3-1-2-4-6-8-10-12/h1-10H2

> <InChI Key_QSARr>
GTQHJCOHNAFHRE-UHFFFAOYSA-N

> <Salt_Solvent>
?

> <Ready_Biodeg>
0.0

$$$$
101080
  -INDIGO-08031722522D

 99 98  0  0  0  0  0  0  0  0999 V2000
   11.0848    0.0000    0.0000 O   0  0  0  0  0  0  0  0  0  0  0  0
   12.4708   -0.8000    0.0000 C   0  0  0  0  0  0  0  0  0  0  0  0
   11.8583   -2.2782    0.0000 H   0  0  0  0  0  0  0  0  0  0  0  0
   13.0833   -2.2782    0.0000 H   0  0  0  0  0  0  0  0  0  0  0  0
   13.8568    0.0000    0.0000 C   0  0  0  0  0  0  0  0  0  0  0  0
   14.4685    1.4782    0.0000 H   0  0  0  0  0  0  0  0  0  0  0  0
   13.2443    1.4782    0.0000 H   0  0  0  0  0  0  0  0  0  0  0  0
   15.2421   -0.8000    0.0000 C   0  0  0  0  0  0  0  0  0  0  0  0
   14.6296   -2.2782    0.0000 H   0  0  0  0  0  0  0  0  0  0  0  0
   15.8545   -2.2782    0.0000 H   0  0  0  0  0  0  0  0  0  0  0  0
   16.6281    0.0000    0.0000 C   0  0  0  0  0  0  0  0  0  0  0  0
   17.2398    1.4782    0.0000 H   0  0  0  0  0  0  0  0  0  0  0  0
   16.0156    1.4782    0.0000 H   0  0  0  0  0  0  0  0  0  0  0  0
   18.0133   -0.8000    0.0000 C   0  0  0  0  0  0  0  0  0  0  0  0
   17.4008   -2.2782    0.0000 H   0  0  0  0  0  0  0  0  0  0  0  0
   18.6258   -2.2782    0.0000 H   0  0  0  0  0  0  0  0  0  0  0  0
   19.3986    0.0000    0.0000 C   0  0  0  0  0  0  0  0  0  0  0  0
   20.0111    1.4782    0.0000 H   0  0  0  0  0  0  0  0  0  0  0  0
   18.7868    1.4782    0.0000 H   0  0  0  0  0  0  0  0  0  0  0  0
   20.7846   -0.8000    0.0000 C   0  0  0  0  0  0  0  0  0  0  0  0
   20.1721   -2.2782    0.0000 H   0  0  0  0  0  0  0  0  0  0  0  0
   21.3971   -2.2782    0.0000 H   0  0  0  0  0  0  0  0  0  0  0  0
   22.1699    0.0000    0.0000 C   0  0  0  0  0  0  0  0  0  0  0  0
   22.7824    1.4782    0.0000 H   0  0  0  0  0  0  0  0  0  0  0  0
   21.5581    1.4782    0.0000 H   0  0  0  0  0  0  0  0  0  0  0  0
   23.5559   -0.8000    0.0000 C   0  0  0  0  0  0  0  0  0  0  0  0
   22.9434   -2.2782    0.0000 H   0  0  0  0  0  0  0  0  0  0  0  0
   24.1684   -2.2782    0.0000 H   0  0  0  0  0  0  0  0  0  0  0  0
   24.9412    0.0000    0.0000 C   0  0  0  0  0  0  0  0  0  0  0  0
   25.5537    1.4782    0.0000 H   0  0  0  0  0  0  0  0  0  0  0  0
   24.3294    1.4782    0.0000 H   0  0  0  0  0  0  0  0  0  0  0  0
   26.3272   -0.8000    0.0000 C   0  0  0  0  0  0  0  0  0  0  0  0
   25.7147   -2.2782    0.0000 H   0  0  0  0  0  0  0  0  0  0  0  0
   26.9397   -2.2782    0.0000 H   0  0  0  0  0  0  0  0  0  0  0  0
   27.7125    0.0000    0.0000 C   0  0  0  0  0  0  0  0  0  0  0  0
   28.3249    1.4782    0.0000 H   0  0  0  0  0  0  0  0  0  0  0  0
   27.1007    1.4782    0.0000 H   0  0  0  0  0  0  0  0  0  0  0  0
   29.0985   -0.8000    0.0000 C   0  0  0  0  0  0  0  0  0  0  0  0
   28.4860   -2.2782    0.0000 H   0  0  0  0  0  0  0  0  0  0  0  0
   29.7109   -2.2782    0.0000 H   0  0  0  0  0  0  0  0  0  0  0  0
   30.4837    0.0000    0.0000 C   0  0  0  0  0  0  0  0  0  0  0  0
   31.0962    1.4782    0.0000 H   0  0  0  0  0  0  0  0  0  0  0  0
   29.8720    1.4782    0.0000 H   0  0  0  0  0  0  0  0  0  0  0  0
   31.8697   -0.8000    0.0000 C   0  0  0  0  0  0  0  0  0  0  0  0
   31.2573   -2.2782    0.0000 H   0  0  0  0  0  0  0  0  0  0  0  0
   32.4822   -2.2782    0.0000 H   0  0  0  0  0  0  0  0  0  0  0  0
   33.2557    0.0000    0.0000 C   0  0  0  0  0  0  0  0  0  0  0  0
   34.6410    0.8000    0.0000 H   0  0  0  0  0  0  0  0  0  0  0  0
   34.6410   -0.8000    0.0000 H   0  0  0  0  0  0  0  0  0  0  0  0
   33.2557    1.6000    0.0000 H   0  0  0  0  0  0  0  0  0  0  0  0
    9.6995   -0.8000    0.0000 C   0  0  0  0  0  0  0  0  0  0  0  0
    9.0870   -2.2782    0.0000 H   0  0  0  0  0  0  0  0  0  0  0  0
   10.3120   -2.2782    0.0000 H   0  0  0  0  0  0  0  0  0  0  0  0
    8.3135    0.0000    0.0000 C   0  0  0  0  0  0  0  0  0  0  0  0
    8.9260    1.4782    0.0000 H   0  0  0  0  0  0  0  0  0  0  0  0
    7.7017    1.4782    0.0000 H   0  0  0  0  0  0  0  0  0  0  0  0
    6.9282   -0.8000    0.0000 C   0  0  0  0  0  0  0  0  0  0  0  0
    6.3157   -2.2782    0.0000 H   0  0  0  0  0  0  0  0  0  0  0  0
    7.5407   -2.2782    0.0000 H   0  0  0  0  0  0  0  0  0  0  0  0
    5.5422    0.0000    0.0000 C   0  0  0  0  0  0  0  0  0  0  0  0
    6.1547    1.4782    0.0000 H   0  0  0  0  0  0  0  0  0  0  0  0
    4.9304    1.4782    0.0000 H   0  0  0  0  0  0  0  0  0  0  0  0
    4.1569   -0.8000    0.0000 C   0  0  0  0  0  0  0  0  0  0  0  0
    3.5444   -2.2782    0.0000 H   0  0  0  0  0  0  0  0  0  0  0  0
    4.7694   -2.2782    0.0000 H   0  0  0  0  0  0  0  0  0  0  0  0
    2.7709    0.0000    0.0000 C   0  0  0  0  0  0  0  0  0  0  0  0
    3.3834    1.4782    0.0000 H   0  0  0  0  0  0  0  0  0  0  0  0
    2.1592    1.4782    0.0000 H   0  0  0  0  0  0  0  0  0  0  0  0
    1.3856   -0.8000    0.0000 C   0  0  0  0  0  0  0  0  0  0  0  0
    0.7732   -2.2782    0.0000 H   0  0  0  0  0  0  0  0  0  0  0  0
    1.9981   -2.2782    0.0000 H   0  0  0  0  0  0  0  0  0  0  0  0
   -0.0004    0.0000    0.0000 C   0  0  0  0  0  0  0  0  0  0  0  0
    0.6121    1.4782    0.0000 H   0  0  0  0  0  0  0  0  0  0  0  0
   -0.6121    1.4782    0.0000 H   0  0  0  0  0  0  0  0  0  0  0  0
   -1.3856   -0.8000    0.0000 C   0  0  0  0  0  0  0  0  0  0  0  0
   -1.9981   -2.2782    0.0000 H   0  0  0  0  0  0  0  0  0  0  0  0
   -0.7732   -2.2782    0.0000 H   0  0  0  0  0  0  0  0  0  0  0  0
   -2.7716    0.0000    0.0000 C   0  0  0  0  0  0  0  0  0  0  0  0
   -2.1592    1.4782    0.0000 H   0  0  0  0  0  0  0  0  0  0  0  0
   -3.3834    1.4782    0.0000 H   0  0  0  0  0  0  0  0  0  0  0  0
   -4.1569   -0.8000    0.0000 C   0  0  0  0  0  0  0  0  0  0  0  0
   -4.7694   -2.2782    0.0000 H   0  0  0  0  0  0  0  0  0  0  0  0
   -3.5444   -2.2782    0.0000 H   0  0  0  0  0  0  0  0  0  0  0  0
   -5.5422    0.0000    0.0000 C   0  0  0  0  0  0  0  0  0  0  0  0
   -4.9304    1.4782    0.0000 H   0  0  0  0  0  0  0  0  0  0  0  0
   -6.1547    1.4782    0.0000 H   0  0  0  0  0  0  0  0  0  0  0  0
   -6.9282   -0.8000    0.0000 C   0  0  0  0  0  0  0  0  0  0  0  0
   -7.5407   -2.2782    0.0000 H   0  0  0  0  0  0  0  0  0  0  0  0
   -6.3157   -2.2782    0.0000 H   0  0  0  0  0  0  0  0  0  0  0  0
   -8.3142    0.0000    0.0000 C   0  0  0  0  0  0  0  0  0  0  0  0
   -7.7017    1.4782    0.0000 H   0  0  0  0  0  0  0  0  0  0  0  0
   -8.9260    1.4782    0.0000 H   0  0  0  0  0  0  0  0  0  0  0  0
   -9.6995   -0.8000    0.0000 C   0  0  0  0  0  0  0  0  0  0  0  0
  -10.3120   -2.2782    0.0000 H   0  0  0  0  0  0  0  0  0  0  0  0
   -9.0870   -2.2782    0.0000 H   0  0  0  0  0  0  0  0  0  0  0  0
  -11.0848    0.0000    0.0000 C   0  0  0  0  0  0  0  0  0  0  0  0
  -12.4708    0.8000    0.0000 H   0  0  0  0  0  0  0  0  0  0  0  0
  -12.4708   -0.8000    0.0000 H   0  0  0  0  0  0  0  0  0  0  0  0
  -11.0848    1.6000    0.0000 H   0  0  0  0  0  0  0  0  0  0  0  0
  1  2  1  0  0  0  0
  2  3  1  0  0  0  0
  2  4  1  0  0  0  0
  2  5  1  0  0  0  0
  5  6  1  0  0  0  0
  5  7  1  0  0  0  0
  5  8  1  0  0  0  0
  8  9  1  0  0  0  0
  8 10  1  0  0  0  0
  8 11  1  0  0  0  0
 11 12  1  0  0  0  0
 11 13  1  0  0  0  0
 11 14  1  0  0  0  0
 14 15  1  0  0  0  0
 14 16  1  0  0  0  0
 14 17  1  0  0  0  0
 17 18  1  0  0  0  0
 17 19  1  0  0  0  0
 17 20  1  0  0  0  0
 20 21  1  0  0  0  0
 20 22  1  0  0  0  0
 20 23  1  0  0  0  0
 23 24  1  0  0  0  0
 23 25  1  0  0  0  0
 23 26  1  0  0  0  0
 26 27  1  0  0  0  0
 26 28  1  0  0  0  0
 26 29  1  0  0  0  0
 29 30  1  0  0  0  0
 29 31  1  0  0  0  0
 29 32  1  0  0  0  0
 32 33  1  0  0  0  0
 32 34  1  0  0  0  0
 32 35  1  0  0  0  0
 35 36  1  0  0  0  0
 35 37  1  0  0  0  0
 35 38  1  0  0  0  0
 38 39  1  0  0  0  0
 38 40  1  0  0  0  0
 38 41  1  0  0  0  0
 41 42  1  0  0  0  0
 41 43  1  0  0  0  0
 41 44  1  0  0  0  0
 44 45  1  0  0  0  0
 44 46  1  0  0  0  0
 44 47  1  0  0  0  0
 47 48  1  0  0  0  0
 47 49  1  0  0  0  0
 47 50  1  0  0  0  0
  1 51  1  0  0  0  0
 51 52  1  0  0  0  0
 51 53  1  0  0  0  0
 51 54  1  0  0  0  0
 54 55  1  0  0  0  0
 54 56  1  0  0  0  0
 54 57  1  0  0  0  0
 57 58  1  0  0  0  0
 57 59  1  0  0  0  0
 57 60  1  0  0  0  0
 60 61  1  0  0  0  0
 60 62  1  0  0  0  0
 60 63  1  0  0  0  0
 63 64  1  0  0  0  0
 63 65  1  0  0  0  0
 63 66  1  0  0  0  0
 66 67  1  0  0  0  0
 66 68  1  0  0  0  0
 66 69  1  0  0  0  0
 69 70  1  0  0  0  0
 69 71  1  0  0  0  0
 69 72  1  0  0  0  0
 72 73  1  0  0  0  0
 72 74  1  0  0  0  0
 72 75  1  0  0  0  0
 75 76  1  0  0  0  0
 75 77  1  0  0  0  0
 75 78  1  0  0  0  0
 78 79  1  0  0  0  0
 78 80  1  0  0  0  0
 78 81  1  0  0  0  0
 81 82  1  0  0  0  0
 81 83  1  0  0  0  0
 81 84  1  0  0  0  0
 84 85  1  0  0  0  0
 84 86  1  0  0  0  0
 84 87  1  0  0  0  0
 87 88  1  0  0  0  0
 87 89  1  0  0  0  0
 87 90  1  0  0  0  0
 90 91  1  0  0  0  0
 90 92  1  0  0  0  0
 90 93  1  0  0  0  0
 93 94  1  0  0  0  0
 93 95  1  0  0  0  0
 93 96  1  0  0  0  0
 96 97  1  0  0  0  0
 96 98  1  0  0  0  0
 96 99  1  0  0  0  0
M  END
> <ChemID>
101080

> <source_casrn>
4113-12-6

> <CAS>
4113-12-6

> <SMILES>
CCCCCCCCCCCCCCCCOCCCCCCCCCCCCCCCC

> <NAME>
Di-hexadecyl ether

> <preferred_name>
Dicetyl ether

> <iupac>
1-hexadecoxyhexadecane

> <MPID>
101065

> <dsstox_substance_id>
DTXSID30194067

> <Canonical_QSARr>
CCCCCCCCCCCCCCCCOCCCCCCCCCCCCCCCC

> <InChI_Code_QSARr>
InChI=1S/C32H66O/c1-3-5-7-9-11-13-15-17-19-21-23-25-27-29-31-33-32-30-28-26-24-22-20-18-16-14-12-10-8-6-4-2/h3-32H2,1-2H3

> <InChI Key_QSARr>
FDCJDKXCCYFOCV-UHFFFAOYSA-N

> <Salt_Solvent>
?

> <Ready_Biodeg>
0.0

$$$$
101082
  -INDIGO-08031722522D

 47 48  0  0  0  0  0  0  0  0999 V2000
   -8.9068   -0.1635    0.0000 C   0  0  0  0  0  0  0  0  0  0  0  0
   -8.8371   -1.7620    0.0000 H   0  0  0  0  0  0  0  0  0  0  0  0
   -9.9880   -1.3432    0.0000 H   0  0  0  0  0  0  0  0  0  0  0  0
   -7.3313    0.1143    0.0000 C   0  0  0  0  0  0  0  0  0  0  0  0
   -7.4010    1.7128    0.0000 H   0  0  0  0  0  0  0  0  0  0  0  0
   -6.2501    1.2940    0.0000 H   0  0  0  0  0  0  0  0  0  0  0  0
   -6.3028   -1.1114    0.0000 O   0  0  0  0  0  0  0  0  0  0  0  0
   -4.7270   -0.8335    0.0000 C   0  0  0  0  0  0  0  0  0  0  0  0
   -3.6985   -2.0592    0.0000 C   0  0  0  0  0  0  0  0  0  0  0  0
   -4.2457   -3.5627    0.0000 Br  0  0  0  0  0  0  0  0  0  0  0  0
   -2.1231   -1.7814    0.0000 C   0  0  0  0  0  0  0  0  0  0  0  0
   -1.8451   -3.3571    0.0000 H   0  0  0  0  0  0  0  0  0  0  0  0
   -1.5755   -0.2778    0.0000 C   0  0  0  0  0  0  0  0  0  0  0  0
   -0.0001    0.0000    0.0000 C   0  0  0  0  0  0  0  0  0  0  0  0
    0.2778    1.5757    0.0000 C   0  0  0  0  0  0  0  0  0  0  0  0
    0.5558    3.1514    0.0000 H   0  0  0  0  0  0  0  0  0  0  0  0
   -0.9479    2.6042    0.0000 H   0  0  0  0  0  0  0  0  0  0  0  0
   -1.2255    1.0284    0.0000 H   0  0  0  0  0  0  0  0  0  0  0  0
   -0.0001   -1.6000    0.0000 C   0  0  0  0  0  0  0  0  0  0  0  0
   -0.0001   -3.2000    0.0000 H   0  0  0  0  0  0  0  0  0  0  0  0
   -1.3856   -2.4000    0.0000 H   0  0  0  0  0  0  0  0  0  0  0  0
    1.5036   -1.0528    0.0000 H   0  0  0  0  0  0  0  0  0  0  0  0
    1.5999    0.0000    0.0000 C   0  0  0  0  0  0  0  0  0  0  0  0
    2.4001    1.3857    0.0000 C   0  0  0  0  0  0  0  0  0  0  0  0
    1.5999    2.7713    0.0000 H   0  0  0  0  0  0  0  0  0  0  0  0
    4.0001    1.3857    0.0000 C   0  0  0  0  0  0  0  0  0  0  0  0
    4.7999    2.7713    0.0000 Br  0  0  0  0  0  0  0  0  0  0  0  0
    4.7999    0.0000    0.0000 C   0  0  0  0  0  0  0  0  0  0  0  0
    6.4000    0.0000    0.0000 O   0  0  0  0  0  0  0  0  0  0  0  0
    7.2001    1.3857    0.0000 C   0  0  0  0  0  0  0  0  0  0  0  0
    6.9912    2.9720    0.0000 H   0  0  0  0  0  0  0  0  0  0  0  0
    5.9307    2.3596    0.0000 H   0  0  0  0  0  0  0  0  0  0  0  0
    8.8001    1.3857    0.0000 C   0  0  0  0  0  0  0  0  0  0  0  0
    9.0088   -0.2007    0.0000 H   0  0  0  0  0  0  0  0  0  0  0  0
   10.0692    0.4117    0.0000 H   0  0  0  0  0  0  0  0  0  0  0  0
    9.6000    2.7713    0.0000 O   0  0  0  0  0  0  0  0  0  0  0  0
   11.2000    2.7713    0.0000 H   0  0  0  0  0  0  0  0  0  0  0  0
    4.0001   -1.3856    0.0000 C   0  0  0  0  0  0  0  0  0  0  0  0
    4.7999   -2.7713    0.0000 Br  0  0  0  0  0  0  0  0  0  0  0  0
    2.4001   -1.3856    0.0000 C   0  0  0  0  0  0  0  0  0  0  0  0
    1.5999   -2.7713    0.0000 H   0  0  0  0  0  0  0  0  0  0  0  0
   -2.6041    0.9479    0.0000 C   0  0  0  0  0  0  0  0  0  0  0  0
   -2.0569    2.4513    0.0000 H   0  0  0  0  0  0  0  0  0  0  0  0
   -4.1798    0.6700    0.0000 C   0  0  0  0  0  0  0  0  0  0  0  0
   -5.2084    1.8957    0.0000 Br  0  0  0  0  0  0  0  0  0  0  0  0
   -9.9353    1.0621    0.0000 O   0  0  0  0  0  0  0  0  0  0  0  0
  -11.5111    0.7843    0.0000 H   0  0  0  0  0  0  0  0  0  0  0  0
  1  2  1  0  0  0  0
  1  3  1  0  0  0  0
  1  4  1  0  0  0  0
  4  5  1  0  0  0  0
  4  6  1  0  0  0  0
  4  7  1  0  0  0  0
  7  8  1  0  0  0  0
  8  9  1  0  0  0  0
  9 10  1  0  0  0  0
  9 11  2  0  0  0  0
 11 12  1  0  0  0  0
 11 13  1  0  0  0  0
 13 14  1  0  0  0  0
 14 15  1  0  0  0  0
 15 16  1  0  0  0  0
 15 17  1  0  0  0  0
 15 18  1  0  0  0  0
 14 19  1  0  0  0  0
 19 20  1  0  0  0  0
 19 21  1  0  0  0  0
 19 22  1  0  0  0  0
 14 23  1  0  0  0  0
 23 24  1  0  0  0  0
 24 25  1  0  0  0  0
 24 26  2  0  0  0  0
 26 27  1  0  0  0  0
 26 28  1  0  0  0  0
 28 29  1  0  0  0  0
 29 30  1  0  0  0  0
 30 31  1  0  0  0  0
 30 32  1  0  0  0  0
 30 33  1  0  0  0  0
 33 34  1  0  0  0  0
 33 35  1  0  0  0  0
 33 36  1  0  0  0  0
 36 37  1  0  0  0  0
 28 38  2  0  0  0  0
 38 39  1  0  0  0  0
 38 40  1  0  0  0  0
 40 23  2  0  0  0  0
 40 41  1  0  0  0  0
 13 42  2  0  0  0  0
 42 43  1  0  0  0  0
 42 44  1  0  0  0  0
 44  8  2  0  0  0  0
 44 45  1  0  0  0  0
  1 46  1  0  0  0  0
 46 47  1  0  0  0  0
M  END
> <ChemID>
101082

> <source_casrn>
4162-45-2

> <CAS>
4162-45-2

> <SMILES>
O(c(c(cc(c1)C(c(cc(c(OCCO)c2Br)Br)c2)(C)C)Br)c1Br)CCO

> <NAME>
Ethanol, 2,2'- (1-methylethylidene)bis (2,6-dibromo-4,1-phenylene)oxy

> <preferred_name>
Tetrabromobisphenol A bis(2-hydroxyethyl) ether

> <iupac>
C19H20Br4O4

> <MPID>
101067

> <dsstox_substance_id>
DTXSID4038922

> <Canonical_QSARr>
CC(C)(c1cc(Br)c(OCCO)c(Br)c1)c1cc(Br)c(OCCO)c(Br)c1

> <InChI_Code_QSARr>
InChI=1S/C19H20Br4O4/c1-19(2,11-7-13(20)17(14(21)8-11)26-5-3-24)12-9-15(22)18(16(23)10-12)27-6-4-25/h7-10,24-25H,3-6H2,1-2H3

> <InChI Key_QSARr>
RVHUMFJSCJBNGS-UHFFFAOYSA-N

> <Salt_Solvent>
?

> <Ready_Biodeg>
0.0

$$$$
101083
  -INDIGO-08031722522D

122121  0  0  0  0  0  0  0  0999 V2000
   -0.0003    0.0000    0.0000 C   0  0  0  0  0  0  0  0  0  0  0  0
    0.6126    1.4782    0.0000 H   0  0  0  0  0  0  0  0  0  0  0  0
   -0.6123    1.4782    0.0000 H   0  0  0  0  0  0  0  0  0  0  0  0
    1.3859   -0.8000    0.0000 C   0  0  0  0  0  0  0  0  0  0  0  0
    0.7730   -2.2782    0.0000 H   0  0  0  0  0  0  0  0  0  0  0  0
    1.9979   -2.2782    0.0000 H   0  0  0  0  0  0  0  0  0  0  0  0
    2.7712    0.0000    0.0000 C   0  0  0  0  0  0  0  0  0  0  0  0
    3.3832    1.4782    0.0000 H   0  0  0  0  0  0  0  0  0  0  0  0
    2.1592    1.4782    0.0000 H   0  0  0  0  0  0  0  0  0  0  0  0
    4.1573   -0.8000    0.0000 C   0  0  0  0  0  0  0  0  0  0  0  0
    3.5444   -2.2782    0.0000 H   0  0  0  0  0  0  0  0  0  0  0  0
    4.7693   -2.2782    0.0000 H   0  0  0  0  0  0  0  0  0  0  0  0
    5.5426    0.0000    0.0000 C   0  0  0  0  0  0  0  0  0  0  0  0
    6.1546    1.4782    0.0000 H   0  0  0  0  0  0  0  0  0  0  0  0
    4.9306    1.4782    0.0000 H   0  0  0  0  0  0  0  0  0  0  0  0
    6.9279   -0.8000    0.0000 C   0  0  0  0  0  0  0  0  0  0  0  0
    6.3159   -2.2782    0.0000 H   0  0  0  0  0  0  0  0  0  0  0  0
    7.5408   -2.2782    0.0000 H   0  0  0  0  0  0  0  0  0  0  0  0
    8.3140    0.0000    0.0000 C   0  0  0  0  0  0  0  0  0  0  0  0
    8.9261    1.4782    0.0000 H   0  0  0  0  0  0  0  0  0  0  0  0
    7.7011    1.4782    0.0000 H   0  0  0  0  0  0  0  0  0  0  0  0
    9.6993   -0.8000    0.0000 C   0  0  0  0  0  0  0  0  0  0  0  0
    9.0873   -2.2782    0.0000 H   0  0  0  0  0  0  0  0  0  0  0  0
   10.3122   -2.2782    0.0000 H   0  0  0  0  0  0  0  0  0  0  0  0
   11.0855    0.0000    0.0000 C   0  0  0  0  0  0  0  0  0  0  0  0
   11.6975    1.4782    0.0000 H   0  0  0  0  0  0  0  0  0  0  0  0
   10.4726    1.4782    0.0000 H   0  0  0  0  0  0  0  0  0  0  0  0
   12.4707   -0.8000    0.0000 C   0  0  0  0  0  0  0  0  0  0  0  0
   11.8587   -2.2782    0.0000 H   0  0  0  0  0  0  0  0  0  0  0  0
   13.0828   -2.2782    0.0000 H   0  0  0  0  0  0  0  0  0  0  0  0
   13.8560    0.0000    0.0000 C   0  0  0  0  0  0  0  0  0  0  0  0
   14.4689    1.4782    0.0000 H   0  0  0  0  0  0  0  0  0  0  0  0
   13.2440    1.4782    0.0000 H   0  0  0  0  0  0  0  0  0  0  0  0
   15.2422   -0.8000    0.0000 C   0  0  0  0  0  0  0  0  0  0  0  0
   14.6302   -2.2782    0.0000 H   0  0  0  0  0  0  0  0  0  0  0  0
   15.8542   -2.2782    0.0000 H   0  0  0  0  0  0  0  0  0  0  0  0
   16.6275    0.0000    0.0000 C   0  0  0  0  0  0  0  0  0  0  0  0
   17.2403    1.4782    0.0000 H   0  0  0  0  0  0  0  0  0  0  0  0
   16.0154    1.4782    0.0000 H   0  0  0  0  0  0  0  0  0  0  0  0
   18.0136   -0.8000    0.0000 C   0  0  0  0  0  0  0  0  0  0  0  0
   17.4007   -2.2782    0.0000 H   0  0  0  0  0  0  0  0  0  0  0  0
   18.6256   -2.2782    0.0000 H   0  0  0  0  0  0  0  0  0  0  0  0
   19.3989    0.0000    0.0000 C   0  0  0  0  0  0  0  0  0  0  0  0
   20.0109    1.4782    0.0000 H   0  0  0  0  0  0  0  0  0  0  0  0
   18.7869    1.4782    0.0000 H   0  0  0  0  0  0  0  0  0  0  0  0
   20.7850   -0.8000    0.0000 C   0  0  0  0  0  0  0  0  0  0  0  0
   20.1721   -2.2782    0.0000 H   0  0  0  0  0  0  0  0  0  0  0  0
   21.3971   -2.2782    0.0000 H   0  0  0  0  0  0  0  0  0  0  0  0
   22.1703    0.0000    0.0000 C   0  0  0  0  0  0  0  0  0  0  0  0
   22.7823    1.4782    0.0000 H   0  0  0  0  0  0  0  0  0  0  0  0
   21.5583    1.4782    0.0000 H   0  0  0  0  0  0  0  0  0  0  0  0
   23.5556   -0.8000    0.0000 C   0  0  0  0  0  0  0  0  0  0  0  0
   22.9436   -2.2782    0.0000 H   0  0  0  0  0  0  0  0  0  0  0  0
   24.1685   -2.2782    0.0000 H   0  0  0  0  0  0  0  0  0  0  0  0
   24.9417    0.0000    0.0000 C   0  0  0  0  0  0  0  0  0  0  0  0
   25.5538    1.4782    0.0000 H   0  0  0  0  0  0  0  0  0  0  0  0
   24.3289    1.4782    0.0000 H   0  0  0  0  0  0  0  0  0  0  0  0
   26.3270   -0.8000    0.0000 C   0  0  0  0  0  0  0  0  0  0  0  0
   25.7150   -2.2782    0.0000 H   0  0  0  0  0  0  0  0  0  0  0  0
   26.9390   -2.2782    0.0000 H   0  0  0  0  0  0  0  0  0  0  0  0
   27.7132    0.0000    0.0000 C   0  0  0  0  0  0  0  0  0  0  0  0
   29.0985    0.8000    0.0000 H   0  0  0  0  0  0  0  0  0  0  0  0
   29.0985   -0.8000    0.0000 H   0  0  0  0  0  0  0  0  0  0  0  0
   27.7132    1.6000    0.0000 H   0  0  0  0  0  0  0  0  0  0  0  0
   -1.3855   -0.8000    0.0000 C   0  0  0  0  0  0  0  0  0  0  0  0
   -1.9976   -2.2782    0.0000 H   0  0  0  0  0  0  0  0  0  0  0  0
   -0.7735   -2.2782    0.0000 H   0  0  0  0  0  0  0  0  0  0  0  0
   -2.7717    0.0000    0.0000 C   0  0  0  0  0  0  0  0  0  0  0  0
   -2.1588    1.4782    0.0000 H   0  0  0  0  0  0  0  0  0  0  0  0
   -3.3837    1.4782    0.0000 H   0  0  0  0  0  0  0  0  0  0  0  0
   -4.1570   -0.8000    0.0000 C   0  0  0  0  0  0  0  0  0  0  0  0
   -4.7690   -2.2782    0.0000 H   0  0  0  0  0  0  0  0  0  0  0  0
   -3.5449   -2.2782    0.0000 H   0  0  0  0  0  0  0  0  0  0  0  0
   -5.5422    0.0000    0.0000 C   0  0  0  0  0  0  0  0  0  0  0  0
   -4.9302    1.4782    0.0000 H   0  0  0  0  0  0  0  0  0  0  0  0
   -6.1551    1.4782    0.0000 H   0  0  0  0  0  0  0  0  0  0  0  0
   -6.9284   -0.8000    0.0000 C   0  0  0  0  0  0  0  0  0  0  0  0
   -7.5404   -2.2782    0.0000 H   0  0  0  0  0  0  0  0  0  0  0  0
   -6.3155   -2.2782    0.0000 H   0  0  0  0  0  0  0  0  0  0  0  0
   -8.3137    0.0000    0.0000 C   0  0  0  0  0  0  0  0  0  0  0  0
   -7.7017    1.4782    0.0000 H   0  0  0  0  0  0  0  0  0  0  0  0
   -8.9266    1.4782    0.0000 H   0  0  0  0  0  0  0  0  0  0  0  0
   -9.6998   -0.8000    0.0000 C   0  0  0  0  0  0  0  0  0  0  0  0
  -10.3118   -2.2782    0.0000 H   0  0  0  0  0  0  0  0  0  0  0  0
   -9.0869   -2.2782    0.0000 H   0  0  0  0  0  0  0  0  0  0  0  0
  -11.0851    0.0000    0.0000 C   0  0  0  0  0  0  0  0  0  0  0  0
  -10.4731    1.4782    0.0000 H   0  0  0  0  0  0  0  0  0  0  0  0
  -11.6971    1.4782    0.0000 H   0  0  0  0  0  0  0  0  0  0  0  0
  -12.4704   -0.8000    0.0000 C   0  0  0  0  0  0  0  0  0  0  0  0
  -13.0833   -2.2782    0.0000 H   0  0  0  0  0  0  0  0  0  0  0  0
  -11.8584   -2.2782    0.0000 H   0  0  0  0  0  0  0  0  0  0  0  0
  -13.8565    0.0000    0.0000 C   0  0  0  0  0  0  0  0  0  0  0  0
  -13.2445    1.4782    0.0000 H   0  0  0  0  0  0  0  0  0  0  0  0
  -14.4686    1.4782    0.0000 H   0  0  0  0  0  0  0  0  0  0  0  0
  -15.2418   -0.8000    0.0000 C   0  0  0  0  0  0  0  0  0  0  0  0
  -15.8547   -2.2782    0.0000 H   0  0  0  0  0  0  0  0  0  0  0  0
  -14.6298   -2.2782    0.0000 H   0  0  0  0  0  0  0  0  0  0  0  0
  -16.6280    0.0000    0.0000 C   0  0  0  0  0  0  0  0  0  0  0  0
  -16.0151    1.4782    0.0000 H   0  0  0  0  0  0  0  0  0  0  0  0
  -17.2400    1.4782    0.0000 H   0  0  0  0  0  0  0  0  0  0  0  0
  -18.0132   -0.8000    0.0000 C   0  0  0  0  0  0  0  0  0  0  0  0
  -18.6253   -2.2782    0.0000 H   0  0  0  0  0  0  0  0  0  0  0  0
  -17.4012   -2.2782    0.0000 H   0  0  0  0  0  0  0  0  0  0  0  0
  -19.3994    0.0000    0.0000 C   0  0  0  0  0  0  0  0  0  0  0  0
  -18.7865    1.4782    0.0000 H   0  0  0  0  0  0  0  0  0  0  0  0
  -20.0114    1.4782    0.0000 H   0  0  0  0  0  0  0  0  0  0  0  0
  -20.7847   -0.8000    0.0000 C   0  0  0  0  0  0  0  0  0  0  0  0
  -21.3967   -2.2782    0.0000 H   0  0  0  0  0  0  0  0  0  0  0  0
  -20.1727   -2.2782    0.0000 H   0  0  0  0  0  0  0  0  0  0  0  0
  -22.1700    0.0000    0.0000 C   0  0  0  0  0  0  0  0  0  0  0  0
  -21.5579    1.4782    0.0000 H   0  0  0  0  0  0  0  0  0  0  0  0
  -22.7828    1.4782    0.0000 H   0  0  0  0  0  0  0  0  0  0  0  0
  -23.5561   -0.8000    0.0000 C   0  0  0  0  0  0  0  0  0  0  0  0
  -24.1681   -2.2782    0.0000 H   0  0  0  0  0  0  0  0  0  0  0  0
  -22.9432   -2.2782    0.0000 H   0  0  0  0  0  0  0  0  0  0  0  0
  -24.9414    0.0000    0.0000 C   0  0  0  0  0  0  0  0  0  0  0  0
  -24.3294    1.4782    0.0000 H   0  0  0  0  0  0  0  0  0  0  0  0
  -25.5534    1.4782    0.0000 H   0  0  0  0  0  0  0  0  0  0  0  0
  -26.3275   -0.8000    0.0000 C   0  0  0  0  0  0  0  0  0  0  0  0
  -27.7128   -1.6000    0.0000 H   0  0  0  0  0  0  0  0  0  0  0  0
  -27.7128    0.0000    0.0000 H   0  0  0  0  0  0  0  0  0  0  0  0
  -26.3275   -2.4000    0.0000 H   0  0  0  0  0  0  0  0  0  0  0  0
  1  2  1  0  0  0  0
  1  3  1  0  0  0  0
  1  4  1  0  0  0  0
  4  5  1  0  0  0  0
  4  6  1  0  0  0  0
  4  7  1  0  0  0  0
  7  8  1  0  0  0  0
  7  9  1  0  0  0  0
  7 10  1  0  0  0  0
 10 11  1  0  0  0  0
 10 12  1  0  0  0  0
 10 13  1  0  0  0  0
 13 14  1  0  0  0  0
 13 15  1  0  0  0  0
 13 16  1  0  0  0  0
 16 17  1  0  0  0  0
 16 18  1  0  0  0  0
 16 19  1  0  0  0  0
 19 20  1  0  0  0  0
 19 21  1  0  0  0  0
 19 22  1  0  0  0  0
 22 23  1  0  0  0  0
 22 24  1  0  0  0  0
 22 25  1  0  0  0  0
 25 26  1  0  0  0  0
 25 27  1  0  0  0  0
 25 28  1  0  0  0  0
 28 29  1  0  0  0  0
 28 30  1  0  0  0  0
 28 31  1  0  0  0  0
 31 32  1  0  0  0  0
 31 33  1  0  0  0  0
 31 34  1  0  0  0  0
 34 35  1  0  0  0  0
 34 36  1  0  0  0  0
 34 37  1  0  0  0  0
 37 38  1  0  0  0  0
 37 39  1  0  0  0  0
 37 40  1  0  0  0  0
 40 41  1  0  0  0  0
 40 42  1  0  0  0  0
 40 43  1  0  0  0  0
 43 44  1  0  0  0  0
 43 45  1  0  0  0  0
 43 46  1  0  0  0  0
 46 47  1  0  0  0  0
 46 48  1  0  0  0  0
 46 49  1  0  0  0  0
 49 50  1  0  0  0  0
 49 51  1  0  0  0  0
 49 52  1  0  0  0  0
 52 53  1  0  0  0  0
 52 54  1  0  0  0  0
 52 55  1  0  0  0  0
 55 56  1  0  0  0  0
 55 57  1  0  0  0  0
 55 58  1  0  0  0  0
 58 59  1  0  0  0  0
 58 60  1  0  0  0  0
 58 61  1  0  0  0  0
 61 62  1  0  0  0  0
 61 63  1  0  0  0  0
 61 64  1  0  0  0  0
  1 65  1  0  0  0  0
 65 66  1  0  0  0  0
 65 67  1  0  0  0  0
 65 68  1  0  0  0  0
 68 69  1  0  0  0  0
 68 70  1  0  0  0  0
 68 71  1  0  0  0  0
 71 72  1  0  0  0  0
 71 73  1  0  0  0  0
 71 74  1  0  0  0  0
 74 75  1  0  0  0  0
 74 76  1  0  0  0  0
 74 77  1  0  0  0  0
 77 78  1  0  0  0  0
 77 79  1  0  0  0  0
 77 80  1  0  0  0  0
 80 81  1  0  0  0  0
 80 82  1  0  0  0  0
 80 83  1  0  0  0  0
 83 84  1  0  0  0  0
 83 85  1  0  0  0  0
 83 86  1  0  0  0  0
 86 87  1  0  0  0  0
 86 88  1  0  0  0  0
 86 89  1  0  0  0  0
 89 90  1  0  0  0  0
 89 91  1  0  0  0  0
 89 92  1  0  0  0  0
 92 93  1  0  0  0  0
 92 94  1  0  0  0  0
 92 95  1  0  0  0  0
 95 96  1  0  0  0  0
 95 97  1  0  0  0  0
 95 98  1  0  0  0  0
 98 99  1  0  0  0  0
 98100  1  0  0  0  0
 98101  1  0  0  0  0
101102  1  0  0  0  0
101103  1  0  0  0  0
101104  1  0  0  0  0
104105  1  0  0  0  0
104106  1  0  0  0  0
104107  1  0  0  0  0
107108  1  0  0  0  0
107109  1  0  0  0  0
107110  1  0  0  0  0
110111  1  0  0  0  0
110112  1  0  0  0  0
110113  1  0  0  0  0
113114  1  0  0  0  0
113115  1  0  0  0  0
113116  1  0  0  0  0
116117  1  0  0  0  0
116118  1  0  0  0  0
116119  1  0  0  0  0
119120  1  0  0  0  0
119121  1  0  0  0  0
119122  1  0  0  0  0
M  END
> <ChemID>
101083

> <source_casrn>
4181-95-7

> <CAS>
4181-95-7

> <SMILES>
CCCCCCCCCCCCCCCCCCCCCCCCCCCCCCCCCCCCCCCC

> <NAME>
Tetracontane

> <preferred_name>
Tetracontane

> <iupac>
TETRACONTANE

> <MPID>
101068

> <dsstox_substance_id>
DTXSID2063341

> <Canonical_QSARr>
CCCCCCCCCCCCCCCCCCCCCCCCCCCCCCCCCCCCCCCC

> <InChI_Code_QSARr>
InChI=1S/C40H82/c1-3-5-7-9-11-13-15-17-19-21-23-25-27-29-31-33-35-37-39-40-38-36-34-32-30-28-26-24-22-20-18-16-14-12-10-8-6-4-2/h3-40H2,1-2H3

> <InChI Key_QSARr>
KUPLEGDPSCCPJI-UHFFFAOYSA-N

> <Salt_Solvent>
?

> <Ready_Biodeg>
1.0

$$$$
101084
  -INDIGO-08031722522D

 29 30  0  0  0  0  0  0  0  0999 V2000
    2.4001    1.3857    0.0000 C   0  0  0  0  0  0  0  0  0  0  0  0
    1.5999    2.7713    0.0000 O   0  0  0  0  0  0  0  0  0  0  0  0
    2.4001    4.1569    0.0000 H   0  0  0  0  0  0  0  0  0  0  0  0
    1.5999    0.0000    0.0000 C   0  0  0  0  0  0  0  0  0  0  0  0
    0.0001    0.0000    0.0000 C   0  0  0  0  0  0  0  0  0  0  0  0
    0.0001    1.6000    0.0000 H   0  0  0  0  0  0  0  0  0  0  0  0
    0.0001   -1.6001    0.0000 C   0  0  0  0  0  0  0  0  0  0  0  0
    0.0001   -3.2000    0.0000 H   0  0  0  0  0  0  0  0  0  0  0  0
   -1.3856   -2.4000    0.0000 H   0  0  0  0  0  0  0  0  0  0  0  0
   -1.3856   -0.8000    0.0000 H   0  0  0  0  0  0  0  0  0  0  0  0
   -1.5034    0.5472    0.0000 C   0  0  0  0  0  0  0  0  0  0  0  0
   -2.7292   -0.4813    0.0000 C   0  0  0  0  0  0  0  0  0  0  0  0
   -2.4513   -2.0569    0.0000 H   0  0  0  0  0  0  0  0  0  0  0  0
   -4.2327    0.0660    0.0000 C   0  0  0  0  0  0  0  0  0  0  0  0
   -5.4584   -0.9624    0.0000 H   0  0  0  0  0  0  0  0  0  0  0  0
   -4.5106    1.6416    0.0000 C   0  0  0  0  0  0  0  0  0  0  0  0
   -6.0140    2.1889    0.0000 H   0  0  0  0  0  0  0  0  0  0  0  0
   -3.2848    2.6701    0.0000 C   0  0  0  0  0  0  0  0  0  0  0  0
   -3.5627    4.2458    0.0000 H   0  0  0  0  0  0  0  0  0  0  0  0
   -1.7813    2.1229    0.0000 C   0  0  0  0  0  0  0  0  0  0  0  0
   -0.5557    3.1514    0.0000 H   0  0  0  0  0  0  0  0  0  0  0  0
    2.4001   -1.3857    0.0000 C   0  0  0  0  0  0  0  0  0  0  0  0
    1.5999   -2.7713    0.0000 H   0  0  0  0  0  0  0  0  0  0  0  0
    4.0000   -1.3857    0.0000 C   0  0  0  0  0  0  0  0  0  0  0  0
    4.7999   -2.7713    0.0000 H   0  0  0  0  0  0  0  0  0  0  0  0
    4.7999    0.0000    0.0000 C   0  0  0  0  0  0  0  0  0  0  0  0
    6.4000    0.0000    0.0000 H   0  0  0  0  0  0  0  0  0  0  0  0
    4.0000    1.3857    0.0000 C   0  0  0  0  0  0  0  0  0  0  0  0
    4.7999    2.7713    0.0000 H   0  0  0  0  0  0  0  0  0  0  0  0
  1  2  1  0  0  0  0
  2  3  1  0  0  0  0
  1  4  1  0  0  0  0
  4  5  1  0  0  0  0
  5  6  1  0  0  0  0
  5  7  1  0  0  0  0
  7  8  1  0  0  0  0
  7  9  1  0  0  0  0
  7 10  1  0  0  0  0
  5 11  1  0  0  0  0
 11 12  1  0  0  0  0
 12 13  1  0  0  0  0
 12 14  2  0  0  0  0
 14 15  1  0  0  0  0
 14 16  1  0  0  0  0
 16 17  1  0  0  0  0
 16 18  2  0  0  0  0
 18 19  1  0  0  0  0
 18 20  1  0  0  0  0
 20 11  2  0  0  0  0
 20 21  1  0  0  0  0
  4 22  2  0  0  0  0
 22 23  1  0  0  0  0
 22 24  1  0  0  0  0
 24 25  1  0  0  0  0
 24 26  2  0  0  0  0
 26 27  1  0  0  0  0
 26 28  1  0  0  0  0
 28  1  2  0  0  0  0
 28 29  1  0  0  0  0
M  END
> <ChemID>
101084

> <source_casrn>
4237-44-9

> <CAS>
26857-99-8

> <SMILES>
Oc(c(ccc1)C(c(cccc2)c2)C)c1

> <NAME>
Phenol, 2-(1-phenylethyl)-

> <preferred_name>


> <iupac>


> <MPID>
101069

> <dsstox_substance_id>
DTXSID90863348

> <Canonical_QSARr>
CC(c1ccccc1O)c1ccccc1

> <InChI_Code_QSARr>
InChI=1S/C14H14O/c1-11(12-7-3-2-4-8-12)13-9-5-6-10-14(13)15/h2-11,15H,1H3

> <InChI Key_QSARr>
WYZIVNCBUWDCOZ-UHFFFAOYSA-N

> <Salt_Solvent>
?

> <Ready_Biodeg>
0.0

$$$$
101086
  -INDIGO-08031722522D

 50 49  0  0  0  0  0  0  0  0999 V2000
    4.5857    0.8000    0.0000 C   0  0  0  0  0  0  0  0  0  0  0  0
    4.7944    2.3864    0.0000 H   0  0  0  0  0  0  0  0  0  0  0  0
    5.8549    1.7740    0.0000 H   0  0  0  0  0  0  0  0  0  0  0  0
    2.9856    0.8000    0.0000 C   0  0  0  0  0  0  0  0  0  0  0  0
    2.1857   -0.5856    0.0000 H   0  0  0  0  0  0  0  0  0  0  0  0
    2.9856    2.4000    0.0000 C   0  0  0  0  0  0  0  0  0  0  0  0
    2.9856    4.0000    0.0000 H   0  0  0  0  0  0  0  0  0  0  0  0
    1.6001    3.2000    0.0000 H   0  0  0  0  0  0  0  0  0  0  0  0
    4.3713    3.2000    0.0000 H   0  0  0  0  0  0  0  0  0  0  0  0
    1.3856    0.8000    0.0000 C   0  0  0  0  0  0  0  0  0  0  0  0
    1.9980    2.2782    0.0000 H   0  0  0  0  0  0  0  0  0  0  0  0
    0.7733    2.2782    0.0000 H   0  0  0  0  0  0  0  0  0  0  0  0
   -0.0001   -0.0000    0.0000 C   0  0  0  0  0  0  0  0  0  0  0  0
   -1.3856   -0.8000    0.0000 C   0  0  0  0  0  0  0  0  0  0  0  0
   -1.9979   -2.2782    0.0000 H   0  0  0  0  0  0  0  0  0  0  0  0
   -0.7733   -2.2782    0.0000 H   0  0  0  0  0  0  0  0  0  0  0  0
   -2.7713   -0.0000    0.0000 C   0  0  0  0  0  0  0  0  0  0  0  0
   -4.1568    0.8000    0.0000 C   0  0  0  0  0  0  0  0  0  0  0  0
   -5.5426    1.6000    0.0000 H   0  0  0  0  0  0  0  0  0  0  0  0
   -5.5426   -0.0000    0.0000 H   0  0  0  0  0  0  0  0  0  0  0  0
   -4.1568    2.4000    0.0000 H   0  0  0  0  0  0  0  0  0  0  0  0
   -3.5712   -1.3856    0.0000 C   0  0  0  0  0  0  0  0  0  0  0  0
   -4.3713   -2.7713    0.0000 H   0  0  0  0  0  0  0  0  0  0  0  0
   -2.7713   -2.7713    0.0000 H   0  0  0  0  0  0  0  0  0  0  0  0
   -5.1713   -1.3856    0.0000 H   0  0  0  0  0  0  0  0  0  0  0  0
   -1.9713    1.3857    0.0000 C   0  0  0  0  0  0  0  0  0  0  0  0
   -2.7713    2.7712    0.0000 H   0  0  0  0  0  0  0  0  0  0  0  0
   -3.5712    1.3857    0.0000 H   0  0  0  0  0  0  0  0  0  0  0  0
   -1.1712   -0.0000    0.0000 H   0  0  0  0  0  0  0  0  0  0  0  0
   -0.8000    1.3857    0.0000 C   0  0  0  0  0  0  0  0  0  0  0  0
   -0.0001    2.7712    0.0000 H   0  0  0  0  0  0  0  0  0  0  0  0
   -1.6000    2.7712    0.0000 H   0  0  0  0  0  0  0  0  0  0  0  0
    0.8000    1.3857    0.0000 H   0  0  0  0  0  0  0  0  0  0  0  0
    0.8000   -1.3856    0.0000 C   0  0  0  0  0  0  0  0  0  0  0  0
    1.6001   -2.7713    0.0000 H   0  0  0  0  0  0  0  0  0  0  0  0
   -0.0001   -2.7713    0.0000 H   0  0  0  0  0  0  0  0  0  0  0  0
    2.3758   -1.6634    0.0000 H   0  0  0  0  0  0  0  0  0  0  0  0
    5.6140   -0.4257    0.0000 C   0  0  0  0  0  0  0  0  0  0  0  0
    6.8397    0.6028    0.0000 C   0  0  0  0  0  0  0  0  0  0  0  0
    8.0655    1.6312    0.0000 H   0  0  0  0  0  0  0  0  0  0  0  0
    8.3433    0.0555    0.0000 H   0  0  0  0  0  0  0  0  0  0  0  0
    6.8397    2.2028    0.0000 H   0  0  0  0  0  0  0  0  0  0  0  0
    6.8397   -1.4542    0.0000 C   0  0  0  0  0  0  0  0  0  0  0  0
    8.0655   -2.4825    0.0000 H   0  0  0  0  0  0  0  0  0  0  0  0
    6.5620   -3.0298    0.0000 H   0  0  0  0  0  0  0  0  0  0  0  0
    8.3433   -0.9069    0.0000 H   0  0  0  0  0  0  0  0  0  0  0  0
    4.3885   -1.4542    0.0000 C   0  0  0  0  0  0  0  0  0  0  0  0
    4.6662   -3.0298    0.0000 H   0  0  0  0  0  0  0  0  0  0  0  0
    5.8920   -2.0013    0.0000 H   0  0  0  0  0  0  0  0  0  0  0  0
    3.8412    0.0494    0.0000 H   0  0  0  0  0  0  0  0  0  0  0  0
  1  2  1  0  0  0  0
  1  3  1  0  0  0  0
  1  4  1  0  0  0  0
  4  5  1  0  0  0  0
  4  6  1  0  0  0  0
  6  7  1  0  0  0  0
  6  8  1  0  0  0  0
  6  9  1  0  0  0  0
  4 10  1  0  0  0  0
 10 11  1  0  0  0  0
 10 12  1  0  0  0  0
 10 13  1  0  0  0  0
 13 14  1  0  0  0  0
 14 15  1  0  0  0  0
 14 16  1  0  0  0  0
 14 17  1  0  0  0  0
 17 18  1  0  0  0  0
 18 19  1  0  0  0  0
 18 20  1  0  0  0  0
 18 21  1  0  0  0  0
 17 22  1  0  0  0  0
 22 23  1  0  0  0  0
 22 24  1  0  0  0  0
 22 25  1  0  0  0  0
 17 26  1  0  0  0  0
 26 27  1  0  0  0  0
 26 28  1  0  0  0  0
 26 29  1  0  0  0  0
 13 30  1  0  0  0  0
 30 31  1  0  0  0  0
 30 32  1  0  0  0  0
 30 33  1  0  0  0  0
 13 34  1  0  0  0  0
 34 35  1  0  0  0  0
 34 36  1  0  0  0  0
 34 37  1  0  0  0  0
  1 38  1  0  0  0  0
 38 39  1  0  0  0  0
 39 40  1  0  0  0  0
 39 41  1  0  0  0  0
 39 42  1  0  0  0  0
 38 43  1  0  0  0  0
 43 44  1  0  0  0  0
 43 45  1  0  0  0  0
 43 46  1  0  0  0  0
 38 47  1  0  0  0  0
 47 48  1  0  0  0  0
 47 49  1  0  0  0  0
 47 50  1  0  0  0  0
M  END
> <ChemID>
101086

> <source_casrn>
4390-04-9

> <CAS>
4390-04-9

> <SMILES>
CC(CC(C)(C)C)CC(C)(C)CC(C)(C)C

> <NAME>
Nonane, 2,2,4,4,6,8,8-heptamethyl-

> <preferred_name>
2,2,4,4,6,8,8-Heptamethylnonane

> <iupac>
2,2,4,4,6,8,8-heptamethylnonane

> <MPID>
101071

> <dsstox_substance_id>
DTXSID7052101

> <Canonical_QSARr>
CC(CC(C)(C)C)CC(C)(C)CC(C)(C)C

> <InChI_Code_QSARr>
InChI=1S/C16H34/c1-13(10-14(2,3)4)11-16(8,9)12-15(5,6)7/h13H,10-12H2,1-9H3

> <InChI Key_QSARr>
VCLJODPNBNEBKW-UHFFFAOYSA-N

> <Salt_Solvent>
?

> <Ready_Biodeg>
0.0

$$$$
101087
  -INDIGO-08031722522D

 42 41  0  0  0  0  0  0  0  0999 V2000
    5.7327    0.5222    0.0000 C   0  0  0  0  0  0  0  0  0  0  0  0
    6.5325   -0.8635    0.0000 C   0  0  0  0  0  0  0  0  0  0  0  0
    7.9184   -0.0634    0.0000 C   0  0  0  0  0  0  0  0  0  0  0  0
    9.5045   -0.2724    0.0000 H   0  0  0  0  0  0  0  0  0  0  0  0
    8.8924   -1.3329    0.0000 H   0  0  0  0  0  0  0  0  0  0  0  0
    7.9184    1.5365    0.0000 C   0  0  0  0  0  0  0  0  0  0  0  0
    6.3182    1.5365    0.0000 H   0  0  0  0  0  0  0  0  0  0  0  0
    9.5183    1.5365    0.0000 C   0  0  0  0  0  0  0  0  0  0  0  0
   11.1183    1.5365    0.0000 H   0  0  0  0  0  0  0  0  0  0  0  0
   10.3182    2.9221    0.0000 H   0  0  0  0  0  0  0  0  0  0  0  0
   10.5467    0.3109    0.0000 H   0  0  0  0  0  0  0  0  0  0  0  0
    7.9184    3.1365    0.0000 C   0  0  0  0  0  0  0  0  0  0  0  0
    7.9184    4.7365    0.0000 H   0  0  0  0  0  0  0  0  0  0  0  0
    6.5325    3.9365    0.0000 H   0  0  0  0  0  0  0  0  0  0  0  0
    9.3040    3.9365    0.0000 H   0  0  0  0  0  0  0  0  0  0  0  0
    7.3326   -2.2491    0.0000 C   0  0  0  0  0  0  0  0  0  0  0  0
    8.1327   -3.6347    0.0000 H   0  0  0  0  0  0  0  0  0  0  0  0
    8.9083   -2.5269    0.0000 H   0  0  0  0  0  0  0  0  0  0  0  0
    6.5325   -3.6347    0.0000 H   0  0  0  0  0  0  0  0  0  0  0  0
    5.1469   -1.6634    0.0000 N   0  0  0  0  0  0  0  0  0  0  0  0
    3.7613   -0.8635    0.0000 N   0  0  0  0  0  0  0  0  0  0  0  0
    2.3757   -1.6634    0.0000 C   0  0  0  0  0  0  0  0  0  0  0  0
    0.9901   -2.4635    0.0000 C   0  0  0  0  0  0  0  0  0  0  0  0
   -0.3956   -3.2634    0.0000 N   0  0  0  0  0  0  0  0  0  0  0  0
    1.5756   -0.2778    0.0000 C   0  0  0  0  0  0  0  0  0  0  0  0
    2.0569    1.2481    0.0000 H   0  0  0  0  0  0  0  0  0  0  0  0
    2.9949    0.4609    0.0000 H   0  0  0  0  0  0  0  0  0  0  0  0
   -0.0001   -0.0001    0.0000 C   0  0  0  0  0  0  0  0  0  0  0  0
   -0.0001   -1.6000    0.0000 H   0  0  0  0  0  0  0  0  0  0  0  0
   -1.6001   -0.0001    0.0000 C   0  0  0  0  0  0  0  0  0  0  0  0
   -3.2000   -0.0001    0.0000 H   0  0  0  0  0  0  0  0  0  0  0  0
   -2.3999    1.3857    0.0000 H   0  0  0  0  0  0  0  0  0  0  0  0
   -2.3999   -1.3856    0.0000 H   0  0  0  0  0  0  0  0  0  0  0  0
   -0.0001    1.5999    0.0000 C   0  0  0  0  0  0  0  0  0  0  0  0
   -0.0001    3.2001    0.0000 H   0  0  0  0  0  0  0  0  0  0  0  0
    1.3857    2.4000    0.0000 H   0  0  0  0  0  0  0  0  0  0  0  0
   -1.3857    2.4000    0.0000 H   0  0  0  0  0  0  0  0  0  0  0  0
    3.1758   -3.0492    0.0000 C   0  0  0  0  0  0  0  0  0  0  0  0
    3.9756   -4.4348    0.0000 H   0  0  0  0  0  0  0  0  0  0  0  0
    4.7757   -3.0492    0.0000 H   0  0  0  0  0  0  0  0  0  0  0  0
    2.3757   -4.4348    0.0000 H   0  0  0  0  0  0  0  0  0  0  0  0
    4.9326    1.9078    0.0000 N   0  0  0  0  0  0  0  0  0  0  0  0
  1  2  1  0  0  0  0
  2  3  1  0  0  0  0
  3  4  1  0  0  0  0
  3  5  1  0  0  0  0
  3  6  1  0  0  0  0
  6  7  1  0  0  0  0
  6  8  1  0  0  0  0
  8  9  1  0  0  0  0
  8 10  1  0  0  0  0
  8 11  1  0  0  0  0
  6 12  1  0  0  0  0
 12 13  1  0  0  0  0
 12 14  1  0  0  0  0
 12 15  1  0  0  0  0
  2 16  1  0  0  0  0
 16 17  1  0  0  0  0
 16 18  1  0  0  0  0
 16 19  1  0  0  0  0
  2 20  1  0  0  0  0
 20 21  2  0  0  0  0
 21 22  1  0  0  0  0
 22 23  1  0  0  0  0
 23 24  3  0  0  0  0
 22 25  1  0  0  0  0
 25 26  1  0  0  0  0
 25 27  1  0  0  0  0
 25 28  1  0  0  0  0
 28 29  1  0  0  0  0
 28 30  1  0  0  0  0
 30 31  1  0  0  0  0
 30 32  1  0  0  0  0
 30 33  1  0  0  0  0
 28 34  1  0  0  0  0
 34 35  1  0  0  0  0
 34 36  1  0  0  0  0
 34 37  1  0  0  0  0
 22 38  1  0  0  0  0
 38 39  1  0  0  0  0
 38 40  1  0  0  0  0
 38 41  1  0  0  0  0
  1 42  3  0  0  0  0
M  END
> <ChemID>
101087

> <source_casrn>
4419-11-8

> <CAS>
4419-11-8

> <SMILES>
N#CC(N=NC(C#N)(CC(C)C)C)(CC(C)C)C

> <NAME>
Pentanenitrile, 2,2'-azobis 2,4-dimethyl-

> <preferred_name>
2,2'-Azobis(2,4-dimethylvaleronitrile)

> <iupac>
2,2'-(E)-diazene-1,2-diylbis(2,4-dimethylpentanenitrile)

> <MPID>
101072

> <dsstox_substance_id>
DTXSID3044675

> <Canonical_QSARr>
CC(CC(C)C)(C#N)N=NC(C)(CC(C)C)C#N

> <InChI_Code_QSARr>
InChI=1S/C14H24N4/c1-11(2)7-13(5,9-15)17-18-14(6,10-16)8-12(3)4/h11-12H,7-8H2,1-6H3/b18-17+

> <InChI Key_QSARr>
WYGWHHGCAGTUCH-ISLYRVAYSA-N

> <Salt_Solvent>
?

> <Ready_Biodeg>
0.0

$$$$
101088
  -INDIGO-08031722522D

 24 23  0  0  0  0  0  0  0  0999 V2000
    6.9283    0.8000    0.0000 C   0  0  0  0  0  0  0  0  0  0  0  0
    8.3138    1.6000    0.0000 H   0  0  0  0  0  0  0  0  0  0  0  0
    8.3138    0.0000    0.0000 H   0  0  0  0  0  0  0  0  0  0  0  0
    6.9283    2.4000    0.0000 H   0  0  0  0  0  0  0  0  0  0  0  0
    5.5425    0.0000    0.0000 C   0  0  0  0  0  0  0  0  0  0  0  0
    4.1570    0.8000    0.0000 O   0  0  0  0  0  0  0  0  0  0  0  0
    2.7713    0.0000    0.0000 C   0  0  0  0  0  0  0  0  0  0  0  0
    3.3836   -1.4782    0.0000 H   0  0  0  0  0  0  0  0  0  0  0  0
    2.1589   -1.4782    0.0000 H   0  0  0  0  0  0  0  0  0  0  0  0
    1.3857    0.8000    0.0000 C   0  0  0  0  0  0  0  0  0  0  0  0
    0.7733    2.2782    0.0000 H   0  0  0  0  0  0  0  0  0  0  0  0
    1.9979    2.2782    0.0000 H   0  0  0  0  0  0  0  0  0  0  0  0
   -0.0000    0.0000    0.0000 C   0  0  0  0  0  0  0  0  0  0  0  0
    0.8000   -1.3856    0.0000 H   0  0  0  0  0  0  0  0  0  0  0  0
   -1.3856   -0.8000    0.0000 C   0  0  0  0  0  0  0  0  0  0  0  0
   -2.7713   -1.6000    0.0000 H   0  0  0  0  0  0  0  0  0  0  0  0
   -2.7713    0.0000    0.0000 H   0  0  0  0  0  0  0  0  0  0  0  0
   -1.3856   -2.4000    0.0000 H   0  0  0  0  0  0  0  0  0  0  0  0
   -0.7999    1.3856    0.0000 O   0  0  0  0  0  0  0  0  0  0  0  0
   -2.4001    1.3856    0.0000 C   0  0  0  0  0  0  0  0  0  0  0  0
   -3.1999    2.7713    0.0000 H   0  0  0  0  0  0  0  0  0  0  0  0
   -4.0000    1.3856    0.0000 H   0  0  0  0  0  0  0  0  0  0  0  0
   -1.6000    2.7713    0.0000 H   0  0  0  0  0  0  0  0  0  0  0  0
    5.5425   -1.6000    0.0000 O   0  0  0  0  0  0  0  0  0  0  0  0
  1  2  1  0  0  0  0
  1  3  1  0  0  0  0
  1  4  1  0  0  0  0
  1  5  1  0  0  0  0
  5  6  1  0  0  0  0
  6  7  1  0  0  0  0
  7  8  1  0  0  0  0
  7  9  1  0  0  0  0
  7 10  1  0  0  0  0
 10 11  1  0  0  0  0
 10 12  1  0  0  0  0
 10 13  1  0  0  0  0
 13 14  1  0  0  0  0
 13 15  1  0  0  0  0
 15 16  1  0  0  0  0
 15 17  1  0  0  0  0
 15 18  1  0  0  0  0
 13 19  1  0  0  0  0
 19 20  1  0  0  0  0
 20 21  1  0  0  0  0
 20 22  1  0  0  0  0
 20 23  1  0  0  0  0
  5 24  2  0  0  0  0
M  END
> <ChemID>
101088

> <source_casrn>
4435-53-4

> <CAS>
4435-53-4

> <SMILES>
COC(C)CCOC(C)=O

> <NAME>
1-Butanol, 3-methoxy-, acetate

> <preferred_name>
3-Methoxybutyl acetate

> <iupac>
3-methoxybutyl acetate

> <MPID>
101073

> <dsstox_substance_id>
DTXSID2052106

> <Canonical_QSARr>
COC(C)CCOC(C)=O

> <InChI_Code_QSARr>
InChI=1S/C7H14O3/c1-6(9-3)4-5-10-7(2)8/h6H,4-5H2,1-3H3

> <InChI Key_QSARr>
QMYGFTJCQFEDST-UHFFFAOYSA-N

> <Salt_Solvent>
?

> <Ready_Biodeg>
1.0

$$$$
101090
  -INDIGO-08031722522D

 14 14  0  0  0  0  0  0  0  0999 V2000
   -0.8000    1.3856    0.0000 N   0  0  0  0  0  0  0  0  0  0  0  0
   -0.0000   -0.0000    0.0000 C   0  0  0  0  0  0  0  0  0  0  0  0
    1.6000   -0.0000    0.0000 C   0  0  0  0  0  0  0  0  0  0  0  0
    2.4001   -1.3856    0.0000 O   0  0  0  0  0  0  0  0  0  0  0  0
    2.4001    1.3856    0.0000 O   0  0  0  0  0  0  0  0  0  0  0  0
    4.0000    1.3856    0.0000 H   0  0  0  0  0  0  0  0  0  0  0  0
   -0.8000   -1.3856    0.0000 C   0  0  0  0  0  0  0  0  0  0  0  0
   -0.0000   -2.7713    0.0000 H   0  0  0  0  0  0  0  0  0  0  0  0
   -2.4000   -1.3856    0.0000 C   0  0  0  0  0  0  0  0  0  0  0  0
   -3.2001   -2.7713    0.0000 H   0  0  0  0  0  0  0  0  0  0  0  0
   -3.2001   -0.0000    0.0000 C   0  0  0  0  0  0  0  0  0  0  0  0
   -4.8000   -0.0000    0.0000 H   0  0  0  0  0  0  0  0  0  0  0  0
   -2.4000    1.3856    0.0000 C   0  0  0  0  0  0  0  0  0  0  0  0
   -3.2001    2.7713    0.0000 Cl  0  0  0  0  0  0  0  0  0  0  0  0
  1  2  1  0  0  0  0
  2  3  1  0  0  0  0
  3  4  2  0  0  0  0
  3  5  1  0  0  0  0
  5  6  1  0  0  0  0
  2  7  2  0  0  0  0
  7  8  1  0  0  0  0
  7  9  1  0  0  0  0
  9 10  1  0  0  0  0
  9 11  2  0  0  0  0
 11 12  1  0  0  0  0
 11 13  1  0  0  0  0
 13  1  2  0  0  0  0
 13 14  1  0  0  0  0
M  END
> <ChemID>
101090

> <source_casrn>
4684-94-0

> <CAS>
4684-94-0

> <SMILES>
OC(=O)c1cccc(Cl)[n]1

> <NAME>
6-CHLOROPICOLINIC ACID

> <preferred_name>
6-Chloro-2-picolinic acid

> <iupac>
6-chloropyridine-2-carboxylic acid

> <MPID>
101075

> <dsstox_substance_id>
DTXSID7040289

> <Canonical_QSARr>
OC(=O)c1cccc(Cl)[n]1

> <InChI_Code_QSARr>
InChI=1S/C6H4ClNO2/c7-5-3-1-2-4(8-5)6(9)10/h1-3H,(H,9,10)

> <InChI Key_QSARr>
ZLKMOIHCHCMSFW-UHFFFAOYSA-N

> <Salt_Solvent>
?

> <Ready_Biodeg>
0.0

$$$$
101091
  -INDIGO-08031722522D

 36 36  0  0  0  0  0  0  0  0999 V2000
   -0.7999    1.3857    0.0000 C   0  0  0  0  0  0  0  0  0  0  0  0
   -0.5912    2.9720    0.0000 H   0  0  0  0  0  0  0  0  0  0  0  0
    0.4694    2.3596    0.0000 H   0  0  0  0  0  0  0  0  0  0  0  0
   -2.3999    1.3857    0.0000 C   0  0  0  0  0  0  0  0  0  0  0  0
   -2.6089    2.9720    0.0000 H   0  0  0  0  0  0  0  0  0  0  0  0
   -3.6694    2.3596    0.0000 H   0  0  0  0  0  0  0  0  0  0  0  0
   -3.2000    0.0000    0.0000 O   0  0  0  0  0  0  0  0  0  0  0  0
   -4.8000    0.0000    0.0000 H   0  0  0  0  0  0  0  0  0  0  0  0
   -0.0000    0.0000    0.0000 N   0  0  0  0  0  0  0  0  0  0  0  0
   -0.7999   -1.3856    0.0000 C   0  0  0  0  0  0  0  0  0  0  0  0
   -2.0257   -0.3572    0.0000 H   0  0  0  0  0  0  0  0  0  0  0  0
   -2.0257   -2.4141    0.0000 H   0  0  0  0  0  0  0  0  0  0  0  0
   -0.0000   -2.7713    0.0000 N   0  0  0  0  0  0  0  0  0  0  0  0
   -0.7999   -4.1570    0.0000 C   0  0  0  0  0  0  0  0  0  0  0  0
   -2.2782   -4.7692    0.0000 H   0  0  0  0  0  0  0  0  0  0  0  0
   -2.2782   -3.5446    0.0000 H   0  0  0  0  0  0  0  0  0  0  0  0
   -0.0000   -5.5426    0.0000 C   0  0  0  0  0  0  0  0  0  0  0  0
   -1.2694   -6.5165    0.0000 H   0  0  0  0  0  0  0  0  0  0  0  0
   -0.2088   -7.1289    0.0000 H   0  0  0  0  0  0  0  0  0  0  0  0
    1.6000   -5.5426    0.0000 O   0  0  0  0  0  0  0  0  0  0  0  0
    2.4000   -6.9282    0.0000 H   0  0  0  0  0  0  0  0  0  0  0  0
    1.6000   -2.7713    0.0000 C   0  0  0  0  0  0  0  0  0  0  0  0
    1.3222   -4.3470    0.0000 H   0  0  0  0  0  0  0  0  0  0  0  0
    3.1036   -3.3185    0.0000 H   0  0  0  0  0  0  0  0  0  0  0  0
    2.4000   -1.3856    0.0000 N   0  0  0  0  0  0  0  0  0  0  0  0
    4.0000   -1.3856    0.0000 C   0  0  0  0  0  0  0  0  0  0  0  0
    5.2694   -2.3597    0.0000 H   0  0  0  0  0  0  0  0  0  0  0  0
    4.2088   -2.9720    0.0000 H   0  0  0  0  0  0  0  0  0  0  0  0
    4.7999    0.0000    0.0000 C   0  0  0  0  0  0  0  0  0  0  0  0
    6.2782   -0.6123    0.0000 H   0  0  0  0  0  0  0  0  0  0  0  0
    6.2782    0.6122    0.0000 H   0  0  0  0  0  0  0  0  0  0  0  0
    4.0000    1.3857    0.0000 O   0  0  0  0  0  0  0  0  0  0  0  0
    4.7999    2.7713    0.0000 H   0  0  0  0  0  0  0  0  0  0  0  0
    1.6000    0.0000    0.0000 C   0  0  0  0  0  0  0  0  0  0  0  0
    3.1036    0.5472    0.0000 H   0  0  0  0  0  0  0  0  0  0  0  0
    1.3222    1.5757    0.0000 H   0  0  0  0  0  0  0  0  0  0  0  0
  1  2  1  0  0  0  0
  1  3  1  0  0  0  0
  1  4  1  0  0  0  0
  4  5  1  0  0  0  0
  4  6  1  0  0  0  0
  4  7  1  0  0  0  0
  7  8  1  0  0  0  0
  1  9  1  0  0  0  0
  9 10  1  0  0  0  0
 10 11  1  0  0  0  0
 10 12  1  0  0  0  0
 10 13  1  0  0  0  0
 13 14  1  0  0  0  0
 14 15  1  0  0  0  0
 14 16  1  0  0  0  0
 14 17  1  0  0  0  0
 17 18  1  0  0  0  0
 17 19  1  0  0  0  0
 17 20  1  0  0  0  0
 20 21  1  0  0  0  0
 13 22  1  0  0  0  0
 22 23  1  0  0  0  0
 22 24  1  0  0  0  0
 22 25  1  0  0  0  0
 25 26  1  0  0  0  0
 26 27  1  0  0  0  0
 26 28  1  0  0  0  0
 26 29  1  0  0  0  0
 29 30  1  0  0  0  0
 29 31  1  0  0  0  0
 29 32  1  0  0  0  0
 32 33  1  0  0  0  0
 25 34  1  0  0  0  0
 34  9  1  0  0  0  0
 34 35  1  0  0  0  0
 34 36  1  0  0  0  0
M  END
> <ChemID>
101091

> <source_casrn>
4719-04-4

> <CAS>
4719-04-4

> <SMILES>
OCCN1CN(CN(C1)CCO)CCO

> <NAME>
1,3,5-Triazine-1,3,5(2H,4H,6H)-triethanol

> <preferred_name>
1,3,5-Triazine-1,3,5(2H,4H,6H)-triethanol

> <iupac>
2,2',2''-(1,3,5-triazinane-1,3,5-triyl)triethanol

> <MPID>
101076

> <dsstox_substance_id>
DTXSID7025394

> <Canonical_QSARr>
OCCN1CN(CN(C1)CCO)CCO

> <InChI_Code_QSARr>
InChI=1S/C9H21N3O3/c13-4-1-10-7-11(2-5-14)9-12(8-10)3-6-15/h13-15H,1-9H2

> <InChI Key_QSARr>
HUHGPYXAVBJSJV-UHFFFAOYSA-N

> <Salt_Solvent>
?

> <Ready_Biodeg>
1.0

$$$$
101092
  -INDIGO-08031722522D

 42 42  0  0  0  0  0  0  0  0999 V2000
    2.3999    1.3857    0.0000 C   0  0  0  0  0  0  0  0  0  0  0  0
    2.1222    2.9613    0.0000 N   0  0  0  0  0  0  0  0  0  0  0  0
    3.3478    3.9898    0.0000 O   0  0  0  0  0  0  0  0  0  0  0  0
    0.6188    3.5085    0.0000 O   0  0  0  0  0  0  0  0  0  0  0  0
    1.6001    0.0000    0.0000 C   0  0  0  0  0  0  0  0  0  0  0  0
    0.0000    0.0000    0.0000 N   0  0  0  0  0  0  0  0  0  0  0  0
   -0.8000   -1.3856    0.0000 C   0  0  0  0  0  0  0  0  0  0  0  0
   -0.5911   -2.9720    0.0000 H   0  0  0  0  0  0  0  0  0  0  0  0
    0.4693   -2.3597    0.0000 H   0  0  0  0  0  0  0  0  0  0  0  0
   -2.1857   -2.1857    0.0000 C   0  0  0  0  0  0  0  0  0  0  0  0
   -3.1597   -0.9163    0.0000 H   0  0  0  0  0  0  0  0  0  0  0  0
   -3.7719   -1.9768    0.0000 H   0  0  0  0  0  0  0  0  0  0  0  0
   -2.1857   -3.7857    0.0000 C   0  0  0  0  0  0  0  0  0  0  0  0
   -2.1857   -5.3856    0.0000 H   0  0  0  0  0  0  0  0  0  0  0  0
   -3.5713   -4.5857    0.0000 H   0  0  0  0  0  0  0  0  0  0  0  0
   -0.8000   -4.5857    0.0000 H   0  0  0  0  0  0  0  0  0  0  0  0
   -0.8000    1.3857    0.0000 C   0  0  0  0  0  0  0  0  0  0  0  0
    0.4693    2.3597    0.0000 H   0  0  0  0  0  0  0  0  0  0  0  0
   -0.5911    2.9719    0.0000 H   0  0  0  0  0  0  0  0  0  0  0  0
   -2.4001    1.3857    0.0000 C   0  0  0  0  0  0  0  0  0  0  0  0
   -3.6693    0.4117    0.0000 H   0  0  0  0  0  0  0  0  0  0  0  0
   -2.3302   -0.2128    0.0000 H   0  0  0  0  0  0  0  0  0  0  0  0
   -3.1999    2.7713    0.0000 C   0  0  0  0  0  0  0  0  0  0  0  0
   -4.0000    4.1569    0.0000 H   0  0  0  0  0  0  0  0  0  0  0  0
   -4.8000    2.7713    0.0000 H   0  0  0  0  0  0  0  0  0  0  0  0
   -2.4001    4.1569    0.0000 H   0  0  0  0  0  0  0  0  0  0  0  0
    2.3999   -1.3856    0.0000 C   0  0  0  0  0  0  0  0  0  0  0  0
    2.1222   -2.9614    0.0000 N   0  0  0  0  0  0  0  0  0  0  0  0
    0.6188   -3.5086    0.0000 O   0  0  0  0  0  0  0  0  0  0  0  0
    3.3478   -3.9898    0.0000 O   0  0  0  0  0  0  0  0  0  0  0  0
    4.0000   -1.3856    0.0000 C   0  0  0  0  0  0  0  0  0  0  0  0
    4.8000   -2.7712    0.0000 H   0  0  0  0  0  0  0  0  0  0  0  0
    4.8000    0.0000    0.0000 C   0  0  0  0  0  0  0  0  0  0  0  0
    6.4001    0.0000    0.0000 S   0  0  0  0  0  0  0  0  0  0  0  0
    6.4001    1.6000    0.0000 O   0  0  0  0  0  0  0  0  0  0  0  0
    6.4001   -1.6001    0.0000 O   0  0  0  0  0  0  0  0  0  0  0  0
    7.9999    0.0000    0.0000 C   0  0  0  0  0  0  0  0  0  0  0  0
    9.6000    0.0000    0.0000 H   0  0  0  0  0  0  0  0  0  0  0  0
    8.8000    1.3857    0.0000 H   0  0  0  0  0  0  0  0  0  0  0  0
    8.8000   -1.3856    0.0000 H   0  0  0  0  0  0  0  0  0  0  0  0
    4.0000    1.3857    0.0000 C   0  0  0  0  0  0  0  0  0  0  0  0
    4.8000    2.7713    0.0000 H   0  0  0  0  0  0  0  0  0  0  0  0
  1  2  1  0  0  0  0
  2  3  1  0  0  0  0
  2  4  2  0  0  0  0
  1  5  1  0  0  0  0
  5  6  1  0  0  0  0
  6  7  1  0  0  0  0
  7  8  1  0  0  0  0
  7  9  1  0  0  0  0
  7 10  1  0  0  0  0
 10 11  1  0  0  0  0
 10 12  1  0  0  0  0
 10 13  1  0  0  0  0
 13 14  1  0  0  0  0
 13 15  1  0  0  0  0
 13 16  1  0  0  0  0
  6 17  1  0  0  0  0
 17 18  1  0  0  0  0
 17 19  1  0  0  0  0
 17 20  1  0  0  0  0
 20 21  1  0  0  0  0
 20 22  1  0  0  0  0
 20 23  1  0  0  0  0
 23 24  1  0  0  0  0
 23 25  1  0  0  0  0
 23 26  1  0  0  0  0
  5 27  2  0  0  0  0
 27 28  1  0  0  0  0
 28 29  1  0  0  0  0
 28 30  2  0  0  0  0
 27 31  1  0  0  0  0
 31 32  1  0  0  0  0
 31 33  2  0  0  0  0
 33 34  1  0  0  0  0
 34 35  2  0  0  0  0
 34 36  2  0  0  0  0
 34 37  1  0  0  0  0
 37 38  1  0  0  0  0
 37 39  1  0  0  0  0
 37 40  1  0  0  0  0
 33 41  1  0  0  0  0
 41  1  2  0  0  0  0
 41 42  1  0  0  0  0
M  CHG  4   2   1   3  -1  28   1  29  -1
M  END
> <ChemID>
101092

> <source_casrn>
4726-14-1

> <CAS>
4726-14-1

> <SMILES>
CS(=O)(=O)c1cc(c(c(c1)[N+]([O-])=O)N(CCC)CCC)[N+]([O-])=O

> <NAME>
NITRALIN

> <preferred_name>
Nitralin

> <iupac>
4-(methylsulfonyl)-2,6-dinitro-N,N-dipropylaniline

> <MPID>
101077

> <dsstox_substance_id>
DTXSID9042203

> <Canonical_QSARr>
CS(=O)(=O)c1cc(c(c(c1)[N+]([O-])=O)N(CCC)CCC)[N+]([O-])=O

> <InChI_Code_QSARr>
InChI=1S/C13H19N3O6S/c1-4-6-14(7-5-2)13-11(15(17)18)8-10(23(3,21)22)9-12(13)16(19)20/h8-9H,4-7H2,1-3H3

> <InChI Key_QSARr>
UMKANAFDOQQUKE-UHFFFAOYSA-N

> <Salt_Solvent>
?

> <Ready_Biodeg>
0.0

$$$$
101094
  -INDIGO-08031722522D

 30 30  0  0  0  0  0  0  0  0999 V2000
    1.6000    0.0001    0.0000 C   0  0  0  0  0  0  0  0  0  0  0  0
    2.0140    1.5455    0.0000 H   0  0  0  0  0  0  0  0  0  0  0  0
    2.9857   -0.8000    0.0000 C   0  0  0  0  0  0  0  0  0  0  0  0
    4.1170    0.3314    0.0000 H   0  0  0  0  0  0  0  0  0  0  0  0
    3.7856   -2.1856    0.0000 C   0  0  0  0  0  0  0  0  0  0  0  0
    4.8141   -0.9600    0.0000 H   0  0  0  0  0  0  0  0  0  0  0  0
    5.3613   -2.4634    0.0000 H   0  0  0  0  0  0  0  0  0  0  0  0
    3.7856   -3.7857    0.0000 C   0  0  0  0  0  0  0  0  0  0  0  0
    5.3613   -3.5079    0.0000 H   0  0  0  0  0  0  0  0  0  0  0  0
    4.8141   -5.0113    0.0000 H   0  0  0  0  0  0  0  0  0  0  0  0
    2.9857   -5.1712    0.0000 C   0  0  0  0  0  0  0  0  0  0  0  0
    4.1170   -6.3027    0.0000 H   0  0  0  0  0  0  0  0  0  0  0  0
    1.6000   -5.9713    0.0000 C   0  0  0  0  0  0  0  0  0  0  0  0
    2.0140   -7.5168    0.0000 H   0  0  0  0  0  0  0  0  0  0  0  0
    0.0001   -5.9713    0.0000 C   0  0  0  0  0  0  0  0  0  0  0  0
    0.5473   -7.4747    0.0000 H   0  0  0  0  0  0  0  0  0  0  0  0
   -1.0284   -7.1969    0.0000 H   0  0  0  0  0  0  0  0  0  0  0  0
   -1.3857   -5.1712    0.0000 C   0  0  0  0  0  0  0  0  0  0  0  0
   -1.9329   -6.6748    0.0000 H   0  0  0  0  0  0  0  0  0  0  0  0
   -2.9614   -5.4490    0.0000 H   0  0  0  0  0  0  0  0  0  0  0  0
   -2.1857   -3.7857    0.0000 C   0  0  0  0  0  0  0  0  0  0  0  0
   -3.7311   -4.1997    0.0000 H   0  0  0  0  0  0  0  0  0  0  0  0
   -2.1857   -2.1856    0.0000 C   0  0  0  0  0  0  0  0  0  0  0  0
   -3.7311   -1.7715    0.0000 H   0  0  0  0  0  0  0  0  0  0  0  0
   -1.3857   -0.8000    0.0000 C   0  0  0  0  0  0  0  0  0  0  0  0
   -2.9614   -0.5221    0.0000 H   0  0  0  0  0  0  0  0  0  0  0  0
   -1.9329    0.7035    0.0000 H   0  0  0  0  0  0  0  0  0  0  0  0
    0.0001    0.0001    0.0000 C   0  0  0  0  0  0  0  0  0  0  0  0
   -1.0284    1.2256    0.0000 H   0  0  0  0  0  0  0  0  0  0  0  0
    0.5473    1.5034    0.0000 H   0  0  0  0  0  0  0  0  0  0  0  0
  1  2  1  0  0  0  0
  1  3  2  0  0  0  0
  3  4  1  0  0  0  0
  3  5  1  0  0  0  0
  5  6  1  0  0  0  0
  5  7  1  0  0  0  0
  5  8  1  0  0  0  0
  8  9  1  0  0  0  0
  8 10  1  0  0  0  0
  8 11  1  0  0  0  0
 11 12  1  0  0  0  0
 11 13  2  0  0  0  0
 13 14  1  0  0  0  0
 13 15  1  0  0  0  0
 15 16  1  0  0  0  0
 15 17  1  0  0  0  0
 15 18  1  0  0  0  0
 18 19  1  0  0  0  0
 18 20  1  0  0  0  0
 18 21  1  0  0  0  0
 21 22  1  0  0  0  0
 21 23  2  0  0  0  0
 23 24  1  0  0  0  0
 23 25  1  0  0  0  0
 25 26  1  0  0  0  0
 25 27  1  0  0  0  0
 25 28  1  0  0  0  0
 28  1  1  0  0  0  0
 28 29  1  0  0  0  0
 28 30  1  0  0  0  0
M  END
> <ChemID>
101094

> <source_casrn>
4904-61-4

> <CAS>
4904-61-4

> <SMILES>
C1CC=CCCC=CCCC=C1

> <NAME>
1,5,9-Cyclododecatriene

> <preferred_name>
1,5,9-Cyclododecatriene

> <iupac>


> <MPID>
101079

> <dsstox_substance_id>
DTXSID8027581

> <Canonical_QSARr>
C1CC=CCCC=CCCC=C1

> <InChI_Code_QSARr>
InChI=1S/C12H18/c1-2-4-6-8-10-12-11-9-7-5-3-1/h1-2,7-10H,3-6,11-12H2/b2-1-,9-7-,10-8-

> <InChI Key_QSARr>
ZOLLIQAKMYWTBR-MOLCZBCNSA-N

> <Salt_Solvent>
?

> <Ready_Biodeg>
0.0

$$$$
101095
  -INDIGO-08031722522D

 26 27  0  0  0  0  0  0  0  0999 V2000
    3.2000   -0.0000    0.0000 C   0  0  0  0  0  0  0  0  0  0  0  0
    4.8000   -0.0000    0.0000 H   0  0  0  0  0  0  0  0  0  0  0  0
    2.4001    1.3856    0.0000 C   0  0  0  0  0  0  0  0  0  0  0  0
    3.2000    2.7713    0.0000 H   0  0  0  0  0  0  0  0  0  0  0  0
    0.8000    1.3856    0.0000 C   0  0  0  0  0  0  0  0  0  0  0  0
    1.0778    2.9613    0.0000 H   0  0  0  0  0  0  0  0  0  0  0  0
   -0.7035    1.9329    0.0000 H   0  0  0  0  0  0  0  0  0  0  0  0
   -0.0000   -0.0000    0.0000 C   0  0  0  0  0  0  0  0  0  0  0  0
   -1.2257   -1.0284    0.0000 H   0  0  0  0  0  0  0  0  0  0  0  0
   -1.5034    0.5472    0.0000 C   0  0  0  0  0  0  0  0  0  0  0  0
   -1.7813    2.1229    0.0000 C   0  0  0  0  0  0  0  0  0  0  0  0
   -0.5556    3.1514    0.0000 H   0  0  0  0  0  0  0  0  0  0  0  0
   -3.2849    2.6701    0.0000 C   0  0  0  0  0  0  0  0  0  0  0  0
   -3.5626    4.2458    0.0000 H   0  0  0  0  0  0  0  0  0  0  0  0
   -4.5104    1.6416    0.0000 C   0  0  0  0  0  0  0  0  0  0  0  0
   -6.0140    2.1889    0.0000 H   0  0  0  0  0  0  0  0  0  0  0  0
   -4.2327    0.0660    0.0000 C   0  0  0  0  0  0  0  0  0  0  0  0
   -5.4583   -0.9624    0.0000 H   0  0  0  0  0  0  0  0  0  0  0  0
   -2.7291   -0.4812    0.0000 C   0  0  0  0  0  0  0  0  0  0  0  0
   -2.4513   -2.0569    0.0000 H   0  0  0  0  0  0  0  0  0  0  0  0
    0.8000   -1.3856    0.0000 C   0  0  0  0  0  0  0  0  0  0  0  0
   -0.7035   -1.9329    0.0000 H   0  0  0  0  0  0  0  0  0  0  0  0
    1.0778   -2.9613    0.0000 H   0  0  0  0  0  0  0  0  0  0  0  0
    2.4001   -1.3856    0.0000 C   0  0  0  0  0  0  0  0  0  0  0  0
    2.1222   -2.9613    0.0000 H   0  0  0  0  0  0  0  0  0  0  0  0
    3.9035   -1.9329    0.0000 H   0  0  0  0  0  0  0  0  0  0  0  0
  1  2  1  0  0  0  0
  1  3  2  0  0  0  0
  3  4  1  0  0  0  0
  3  5  1  0  0  0  0
  5  6  1  0  0  0  0
  5  7  1  0  0  0  0
  5  8  1  0  0  0  0
  8  9  1  0  0  0  0
  8 10  1  0  0  0  0
 10 11  1  0  0  0  0
 11 12  1  0  0  0  0
 11 13  2  0  0  0  0
 13 14  1  0  0  0  0
 13 15  1  0  0  0  0
 15 16  1  0  0  0  0
 15 17  2  0  0  0  0
 17 18  1  0  0  0  0
 17 19  1  0  0  0  0
 19 10  2  0  0  0  0
 19 20  1  0  0  0  0
  8 21  1  0  0  0  0
 21 22  1  0  0  0  0
 21 23  1  0  0  0  0
 21 24  1  0  0  0  0
 24  1  1  0  0  0  0
 24 25  1  0  0  0  0
 24 26  1  0  0  0  0
M  END
> <ChemID>
101095

> <source_casrn>
4994-16-5

> <CAS>
4994-16-5

> <SMILES>
C1C=CCCC1c1ccccc1

> <NAME>
4-Phenylcyclohexene

> <preferred_name>
4-Phenyl-1-cyclohexene

> <iupac>
cyclohex-3-en-1-ylbenzene

> <MPID>
101080

> <dsstox_substance_id>
DTXSID9047176

> <Canonical_QSARr>
C1C=CCCC1c1ccccc1

> <InChI_Code_QSARr>
InChI=1S/C12H14/c1-3-7-11(8-4-1)12-9-5-2-6-10-12/h1-5,7-8,12H,6,9-10H2

> <InChI Key_QSARr>
XWCWNUSFQVJNDI-UHFFFAOYSA-N

> <Salt_Solvent>
?

> <Ready_Biodeg>
1.0

$$$$
101096
  -INDIGO-08031722522D

 41 43  0  0  0  0  0  0  0  0999 V2000
   -4.0001   -1.3857    0.0000 C   0  0  0  0  0  0  0  0  0  0  0  0
   -3.1999   -2.7713    0.0000 C   0  0  0  0  0  0  0  0  0  0  0  0
   -1.5999   -2.7713    0.0000 H   0  0  0  0  0  0  0  0  0  0  0  0
   -4.0001   -4.1569    0.0000 C   0  0  0  0  0  0  0  0  0  0  0  0
   -3.1999   -5.5426    0.0000 H   0  0  0  0  0  0  0  0  0  0  0  0
   -5.6001   -4.1569    0.0000 C   0  0  0  0  0  0  0  0  0  0  0  0
   -6.4000   -5.5426    0.0000 H   0  0  0  0  0  0  0  0  0  0  0  0
   -6.4000   -2.7713    0.0000 C   0  0  0  0  0  0  0  0  0  0  0  0
   -8.0000   -2.7713    0.0000 H   0  0  0  0  0  0  0  0  0  0  0  0
   -5.6001   -1.3857    0.0000 C   0  0  0  0  0  0  0  0  0  0  0  0
   -6.4000    0.0001    0.0000 H   0  0  0  0  0  0  0  0  0  0  0  0
   -3.1999    0.0001    0.0000 N   0  0  0  0  0  0  0  0  0  0  0  0
   -4.0001    1.3857    0.0000 H   0  0  0  0  0  0  0  0  0  0  0  0
   -1.5999    0.0001    0.0000 S   0  0  0  0  0  0  0  0  0  0  0  0
   -1.5999   -1.6000    0.0000 O   0  0  0  0  0  0  0  0  0  0  0  0
   -1.5999    1.6000    0.0000 O   0  0  0  0  0  0  0  0  0  0  0  0
    0.0001    0.0001    0.0000 C   0  0  0  0  0  0  0  0  0  0  0  0
    0.8000    1.3857    0.0000 C   0  0  0  0  0  0  0  0  0  0  0  0
    0.0001    2.7713    0.0000 H   0  0  0  0  0  0  0  0  0  0  0  0
    2.4000    1.3857    0.0000 C   0  0  0  0  0  0  0  0  0  0  0  0
    3.1999    2.7713    0.0000 N   0  0  0  0  0  0  0  0  0  0  0  0
    2.4000    4.1569    0.0000 O   0  0  0  0  0  0  0  0  0  0  0  0
    4.7999    2.7713    0.0000 O   0  0  0  0  0  0  0  0  0  0  0  0
    3.1999    0.0001    0.0000 C   0  0  0  0  0  0  0  0  0  0  0  0
    4.7999    0.0001    0.0000 N   0  0  0  0  0  0  0  0  0  0  0  0
    5.6001    1.3857    0.0000 H   0  0  0  0  0  0  0  0  0  0  0  0
    6.0258   -1.0284    0.0000 C   0  0  0  0  0  0  0  0  0  0  0  0
    7.5291   -0.4812    0.0000 C   0  0  0  0  0  0  0  0  0  0  0  0
    7.8069    1.0944    0.0000 H   0  0  0  0  0  0  0  0  0  0  0  0
    8.7547   -1.5097    0.0000 C   0  0  0  0  0  0  0  0  0  0  0  0
   10.2584   -0.9624    0.0000 H   0  0  0  0  0  0  0  0  0  0  0  0
    8.4770   -3.0854    0.0000 C   0  0  0  0  0  0  0  0  0  0  0  0
    9.7028   -4.1139    0.0000 H   0  0  0  0  0  0  0  0  0  0  0  0
    6.9736   -3.6326    0.0000 C   0  0  0  0  0  0  0  0  0  0  0  0
    6.6956   -5.2084    0.0000 H   0  0  0  0  0  0  0  0  0  0  0  0
    5.7477   -2.6041    0.0000 C   0  0  0  0  0  0  0  0  0  0  0  0
    4.2444   -3.1514    0.0000 H   0  0  0  0  0  0  0  0  0  0  0  0
    2.4000   -1.3857    0.0000 C   0  0  0  0  0  0  0  0  0  0  0  0
    3.1999   -2.7713    0.0000 H   0  0  0  0  0  0  0  0  0  0  0  0
    0.8000   -1.3857    0.0000 C   0  0  0  0  0  0  0  0  0  0  0  0
    0.0001   -2.7713    0.0000 H   0  0  0  0  0  0  0  0  0  0  0  0
  1  2  1  0  0  0  0
  2  3  1  0  0  0  0
  2  4  2  0  0  0  0
  4  5  1  0  0  0  0
  4  6  1  0  0  0  0
  6  7  1  0  0  0  0
  6  8  2  0  0  0  0
  8  9  1  0  0  0  0
  8 10  1  0  0  0  0
 10  1  2  0  0  0  0
 10 11  1  0  0  0  0
  1 12  1  0  0  0  0
 12 13  1  0  0  0  0
 12 14  1  0  0  0  0
 14 15  2  0  0  0  0
 14 16  2  0  0  0  0
 14 17  1  0  0  0  0
 17 18  1  0  0  0  0
 18 19  1  0  0  0  0
 18 20  2  0  0  0  0
 20 21  1  0  0  0  0
 21 22  1  0  0  0  0
 21 23  2  0  0  0  0
 20 24  1  0  0  0  0
 24 25  1  0  0  0  0
 25 26  1  0  0  0  0
 25 27  1  0  0  0  0
 27 28  1  0  0  0  0
 28 29  1  0  0  0  0
 28 30  2  0  0  0  0
 30 31  1  0  0  0  0
 30 32  1  0  0  0  0
 32 33  1  0  0  0  0
 32 34  2  0  0  0  0
 34 35  1  0  0  0  0
 34 36  1  0  0  0  0
 36 27  2  0  0  0  0
 36 37  1  0  0  0  0
 24 38  2  0  0  0  0
 38 39  1  0  0  0  0
 38 40  1  0  0  0  0
 40 17  2  0  0  0  0
 40 41  1  0  0  0  0
M  CHG  2  21   1  22  -1
M  END
> <ChemID>
101096

> <source_casrn>
5124-25-4

> <CAS>
5124-25-4

> <SMILES>
[O-][N+](=O)c1cc(ccc1Nc1ccccc1)S(=O)(=O)Nc1ccccc1

> <NAME>
Benzenesulfonamide, 3-nitro-N-phenyl-4-(phenylamino)-

> <preferred_name>
C.I.Disperse Yellow 42

> <iupac>
4-anilino-3-nitro-N-phenylbenzenesulfonamide

> <MPID>
101081

> <dsstox_substance_id>
DTXSID8052148

> <Canonical_QSARr>
[O-][N+](=O)c1cc(ccc1Nc1ccccc1)S(=O)(=O)Nc1ccccc1

> <InChI_Code_QSARr>
InChI=1S/C18H15N3O4S/c22-21(23)18-13-16(26(24,25)20-15-9-5-2-6-10-15)11-12-17(18)19-14-7-3-1-4-8-14/h1-13,19-20H

> <InChI Key_QSARr>
BBFRYSKTTHYWQZ-UHFFFAOYSA-N

> <Salt_Solvent>
?

> <Ready_Biodeg>
0.0

$$$$
101098
  -INDIGO-08031722522D

 29 30  0  0  0  0  0  0  0  0999 V2000
    0.0000    0.0001    0.0000 C   0  0  0  0  0  0  0  0  0  0  0  0
    1.6000    0.0001    0.0000 C   0  0  0  0  0  0  0  0  0  0  0  0
    2.4000   -1.3856    0.0000 N   0  0  0  0  0  0  0  0  0  0  0  0
    1.6000   -2.7712    0.0000 H   0  0  0  0  0  0  0  0  0  0  0  0
    3.9999   -1.3856    0.0000 C   0  0  0  0  0  0  0  0  0  0  0  0
    4.7999   -2.7713    0.0000 C   0  0  0  0  0  0  0  0  0  0  0  0
    3.9999   -4.1569    0.0000 H   0  0  0  0  0  0  0  0  0  0  0  0
    6.4001   -2.7712    0.0000 C   0  0  0  0  0  0  0  0  0  0  0  0
    7.2000   -4.1569    0.0000 H   0  0  0  0  0  0  0  0  0  0  0  0
    7.2000   -1.3856    0.0000 C   0  0  0  0  0  0  0  0  0  0  0  0
    8.8000   -1.3856    0.0000 H   0  0  0  0  0  0  0  0  0  0  0  0
    6.4001    0.0001    0.0000 C   0  0  0  0  0  0  0  0  0  0  0  0
    7.2000    1.3856    0.0000 H   0  0  0  0  0  0  0  0  0  0  0  0
    4.7999    0.0001    0.0000 C   0  0  0  0  0  0  0  0  0  0  0  0
    3.9999    1.3856    0.0000 H   0  0  0  0  0  0  0  0  0  0  0  0
    2.4000    1.3856    0.0000 O   0  0  0  0  0  0  0  0  0  0  0  0
   -0.7999    1.3856    0.0000 C   0  0  0  0  0  0  0  0  0  0  0  0
    0.0000    2.7713    0.0000 C   0  0  0  0  0  0  0  0  0  0  0  0
    0.8000    4.1569    0.0000 H   0  0  0  0  0  0  0  0  0  0  0  0
   -0.7999    4.1569    0.0000 H   0  0  0  0  0  0  0  0  0  0  0  0
    1.6000    2.7713    0.0000 H   0  0  0  0  0  0  0  0  0  0  0  0
   -2.4001    1.3856    0.0000 O   0  0  0  0  0  0  0  0  0  0  0  0
   -3.2001    0.0001    0.0000 C   0  0  0  0  0  0  0  0  0  0  0  0
   -4.4257    1.0284    0.0000 H   0  0  0  0  0  0  0  0  0  0  0  0
   -4.4257   -1.0284    0.0000 H   0  0  0  0  0  0  0  0  0  0  0  0
   -2.4001   -1.3856    0.0000 C   0  0  0  0  0  0  0  0  0  0  0  0
   -3.9036   -1.9329    0.0000 H   0  0  0  0  0  0  0  0  0  0  0  0
   -2.1222   -2.9614    0.0000 H   0  0  0  0  0  0  0  0  0  0  0  0
   -0.7999   -1.3856    0.0000 S   0  0  0  0  0  0  0  0  0  0  0  0
  1  2  1  0  0  0  0
  2  3  1  0  0  0  0
  3  4  1  0  0  0  0
  3  5  1  0  0  0  0
  5  6  1  0  0  0  0
  6  7  1  0  0  0  0
  6  8  2  0  0  0  0
  8  9  1  0  0  0  0
  8 10  1  0  0  0  0
 10 11  1  0  0  0  0
 10 12  2  0  0  0  0
 12 13  1  0  0  0  0
 12 14  1  0  0  0  0
 14  5  2  0  0  0  0
 14 15  1  0  0  0  0
  2 16  2  0  0  0  0
  1 17  2  0  0  0  0
 17 18  1  0  0  0  0
 18 19  1  0  0  0  0
 18 20  1  0  0  0  0
 18 21  1  0  0  0  0
 17 22  1  0  0  0  0
 22 23  1  0  0  0  0
 23 24  1  0  0  0  0
 23 25  1  0  0  0  0
 23 26  1  0  0  0  0
 26 27  1  0  0  0  0
 26 28  1  0  0  0  0
 26 29  1  0  0  0  0
 29  1  1  0  0  0  0
M  END
> <ChemID>
101098

> <source_casrn>
5234-68-4

> <CAS>
5234-68-4

> <SMILES>
CC1OCCSC=1C(=O)Nc1ccccc1

> <NAME>
CARBOXIN

> <preferred_name>
Carboxin

> <iupac>
2-methyl-N-phenyl-5,6-dihydro-1,4-oxathiine-3-carboxamide

> <MPID>
101083

> <dsstox_substance_id>
DTXSID0023951

> <Canonical_QSARr>
CC1OCCSC=1C(=O)Nc1ccccc1

> <InChI_Code_QSARr>
InChI=1S/C12H13NO2S/c1-9-11(16-8-7-15-9)12(14)13-10-5-3-2-4-6-10/h2-6H,7-8H2,1H3,(H,13,14)

> <InChI Key_QSARr>
GYSSRZJIHXQEHQ-UHFFFAOYSA-N

> <Salt_Solvent>
?

> <Ready_Biodeg>
1.0

$$$$
101099
  -INDIGO-08031722522D

 16 16  0  0  0  0  0  0  0  0999 V2000
   -4.1569    2.4000    0.0000 Cl  0  0  0  0  0  0  0  0  0  0  0  0
   -2.7713    1.6000    0.0000 C   0  0  0  0  0  0  0  0  0  0  0  0
   -1.3856    2.4000    0.0000 C   0  0  0  0  0  0  0  0  0  0  0  0
   -1.3856    4.0000    0.0000 H   0  0  0  0  0  0  0  0  0  0  0  0
    0.0000    1.6000    0.0000 C   0  0  0  0  0  0  0  0  0  0  0  0
    1.3856    2.4000    0.0000 O   0  0  0  0  0  0  0  0  0  0  0  0
    1.3856    4.0000    0.0000 H   0  0  0  0  0  0  0  0  0  0  0  0
    0.0000    0.0000    0.0000 C   0  0  0  0  0  0  0  0  0  0  0  0
    1.3856   -0.8000    0.0000 C   0  0  0  0  0  0  0  0  0  0  0  0
    2.7713   -1.6000    0.0000 H   0  0  0  0  0  0  0  0  0  0  0  0
    1.3856   -2.4000    0.0000 H   0  0  0  0  0  0  0  0  0  0  0  0
    2.7713    0.0000    0.0000 H   0  0  0  0  0  0  0  0  0  0  0  0
   -1.3856   -0.8000    0.0000 C   0  0  0  0  0  0  0  0  0  0  0  0
   -1.3856   -2.4000    0.0000 H   0  0  0  0  0  0  0  0  0  0  0  0
   -2.7713    0.0000    0.0000 C   0  0  0  0  0  0  0  0  0  0  0  0
   -4.1569   -0.8000    0.0000 H   0  0  0  0  0  0  0  0  0  0  0  0
  1  2  1  0  0  0  0
  2  3  1  0  0  0  0
  3  4  1  0  0  0  0
  3  5  2  0  0  0  0
  5  6  1  0  0  0  0
  6  7  1  0  0  0  0
  5  8  1  0  0  0  0
  8  9  1  0  0  0  0
  9 10  1  0  0  0  0
  9 11  1  0  0  0  0
  9 12  1  0  0  0  0
  8 13  2  0  0  0  0
 13 14  1  0  0  0  0
 13 15  1  0  0  0  0
 15  2  2  0  0  0  0
 15 16  1  0  0  0  0
M  END
> <ChemID>
101099

> <source_casrn>
5306-98-9

> <CAS>
5306-98-9

> <SMILES>
Oc1cc(Cl)ccc1C

> <NAME>


> <preferred_name>
5-Chloro-o-cresol

> <iupac>
5-Chloro-2-methylphenol

> <MPID>
101084

> <dsstox_substance_id>
DTXSID50201126

> <Canonical_QSARr>
Cc1ccc(Cl)cc1O

> <InChI_Code_QSARr>
InChI=1S/C7H7ClO/c1-5-2-3-6(8)4-7(5)9/h2-4,9H,1H3

> <InChI Key_QSARr>
KKFPXGXMSBBNJI-UHFFFAOYSA-N

> <Salt_Solvent>
?

> <Ready_Biodeg>
0.0

$$$$
101100
  -INDIGO-08031722522D

 22 23  0  0  0  0  0  0  0  0999 V2000
    0.0000   -0.0000    0.0000 C   0  0  0  0  0  0  0  0  0  0  0  0
    1.5381    0.4410    0.0000 H   0  0  0  0  0  0  0  0  0  0  0  0
    0.7999   -1.3857    0.0000 C   0  0  0  0  0  0  0  0  0  0  0  0
    2.1857   -0.5856    0.0000 H   0  0  0  0  0  0  0  0  0  0  0  0
    2.0256   -2.4141    0.0000 C   0  0  0  0  0  0  0  0  0  0  0  0
    3.2513   -3.4425    0.0000 H   0  0  0  0  0  0  0  0  0  0  0  0
    3.5292   -1.8668    0.0000 H   0  0  0  0  0  0  0  0  0  0  0  0
    1.7479   -3.9898    0.0000 H   0  0  0  0  0  0  0  0  0  0  0  0
    0.0000   -2.7713    0.0000 C   0  0  0  0  0  0  0  0  0  0  0  0
    0.7999   -4.1569    0.0000 H   0  0  0  0  0  0  0  0  0  0  0  0
   -1.6000   -2.7713    0.0000 C   0  0  0  0  0  0  0  0  0  0  0  0
   -2.4000   -4.1569    0.0000 H   0  0  0  0  0  0  0  0  0  0  0  0
   -2.4000   -1.3857    0.0000 C   0  0  0  0  0  0  0  0  0  0  0  0
   -3.6256   -2.4141    0.0000 H   0  0  0  0  0  0  0  0  0  0  0  0
   -3.9035   -0.8384    0.0000 H   0  0  0  0  0  0  0  0  0  0  0  0
   -1.6000   -0.0000    0.0000 C   0  0  0  0  0  0  0  0  0  0  0  0
   -3.1913    0.1672    0.0000 H   0  0  0  0  0  0  0  0  0  0  0  0
   -2.0944    1.5217    0.0000 C   0  0  0  0  0  0  0  0  0  0  0  0
   -3.6161    2.0161    0.0000 O   0  0  0  0  0  0  0  0  0  0  0  0
   -0.8000    2.4621    0.0000 O   0  0  0  0  0  0  0  0  0  0  0  0
    0.4944    1.5217    0.0000 C   0  0  0  0  0  0  0  0  0  0  0  0
    2.0161    2.0161    0.0000 O   0  0  0  0  0  0  0  0  0  0  0  0
  1  2  1  0  0  0  0
  1  3  1  0  0  0  0
  3  4  1  0  0  0  0
  3  5  1  0  0  0  0
  5  6  1  0  0  0  0
  5  7  1  0  0  0  0
  5  8  1  0  0  0  0
  3  9  1  0  0  0  0
  9 10  1  0  0  0  0
  9 11  2  0  0  0  0
 11 12  1  0  0  0  0
 11 13  1  0  0  0  0
 13 14  1  0  0  0  0
 13 15  1  0  0  0  0
 13 16  1  0  0  0  0
 16  1  1  0  0  0  0
 16 17  1  0  0  0  0
 16 18  1  0  0  0  0
 18 19  2  0  0  0  0
 18 20  1  0  0  0  0
 20 21  1  0  0  0  0
 21  1  1  0  0  0  0
 21 22  2  0  0  0  0
M  END
> <ChemID>
101100

> <source_casrn>
5333-84-6

> <CAS>
5333-84-6

> <SMILES>
CC1C=CCC2C1C(=O)OC2=O

> <NAME>
1,3-Isobenzofurandione, 3a,4,7,7a-tetrahydro-4-methyl-

> <preferred_name>
3a,4,7,7a-Tetrahydro-4-methyl-1,3-isobenzofurandione

> <iupac>
4-methyl-3a,4,7,7a-tetrahydro-2-benzofuran-1,3-dione

> <MPID>
101085

> <dsstox_substance_id>
DTXSID6058710

> <Canonical_QSARr>
CC1C=CCC2C1C(=O)OC2=O

> <InChI_Code_QSARr>
InChI=1S/C9H10O3/c1-5-3-2-4-6-7(5)9(11)12-8(6)10/h2-3,5-7H,4H2,1H3

> <InChI Key_QSARr>
XPEKVUUBSDFMDR-UHFFFAOYSA-N

> <Salt_Solvent>
?

> <Ready_Biodeg>
0.0

$$$$
101102
  -INDIGO-08031722522D

 18 18  0  0  0  0  0  0  0  0999 V2000
    4.1569   -4.0000    0.0000 O   0  0  0  0  0  0  0  0  0  0  0  0
    4.1569   -2.4000    0.0000 N   0  0  0  0  0  0  0  0  0  0  0  0
    5.5426   -1.6000    0.0000 O   0  0  0  0  0  0  0  0  0  0  0  0
    2.7713   -1.6000    0.0000 C   0  0  0  0  0  0  0  0  0  0  0  0
    2.7713   -0.0000    0.0000 C   0  0  0  0  0  0  0  0  0  0  0  0
    4.1570    0.8000    0.0000 H   0  0  0  0  0  0  0  0  0  0  0  0
    1.3857    0.8000    0.0000 C   0  0  0  0  0  0  0  0  0  0  0  0
    1.3857    2.4000    0.0000 H   0  0  0  0  0  0  0  0  0  0  0  0
    0.0000   -0.0000    0.0000 C   0  0  0  0  0  0  0  0  0  0  0  0
   -1.3856    0.8000    0.0000 C   0  0  0  0  0  0  0  0  0  0  0  0
   -2.7713    1.6000    0.0000 H   0  0  0  0  0  0  0  0  0  0  0  0
   -1.3856    2.4000    0.0000 H   0  0  0  0  0  0  0  0  0  0  0  0
   -2.7713   -0.0000    0.0000 H   0  0  0  0  0  0  0  0  0  0  0  0
    0.0000   -1.6000    0.0000 C   0  0  0  0  0  0  0  0  0  0  0  0
   -1.3856   -2.4000    0.0000 O   0  0  0  0  0  0  0  0  0  0  0  0
   -1.3856   -4.0000    0.0000 H   0  0  0  0  0  0  0  0  0  0  0  0
    1.3857   -2.4000    0.0000 C   0  0  0  0  0  0  0  0  0  0  0  0
    1.3857   -4.0000    0.0000 H   0  0  0  0  0  0  0  0  0  0  0  0
  1  2  2  0  0  0  0
  2  3  1  0  0  0  0
  2  4  1  0  0  0  0
  4  5  1  0  0  0  0
  5  6  1  0  0  0  0
  5  7  2  0  0  0  0
  7  8  1  0  0  0  0
  7  9  1  0  0  0  0
  9 10  1  0  0  0  0
 10 11  1  0  0  0  0
 10 12  1  0  0  0  0
 10 13  1  0  0  0  0
  9 14  2  0  0  0  0
 14 15  1  0  0  0  0
 15 16  1  0  0  0  0
 14 17  1  0  0  0  0
 17  4  2  0  0  0  0
 17 18  1  0  0  0  0
M  CHG  2   2   1   3  -1
M  END
> <ChemID>
101102

> <source_casrn>
5428-54-6

> <CAS>
5428-54-6

> <SMILES>
Cc1ccc(cc1O)[N+]([O-])=O

> <NAME>
Phenol, 2-methyl-5-nitro-

> <preferred_name>
Phenol, 2-methyl-5-nitro-

> <iupac>
2-Methyl-5-nitrophenol

> <MPID>
101087

> <dsstox_substance_id>
DTXSID4063874

> <Canonical_QSARr>
Cc1ccc(cc1O)[N+]([O-])=O

> <InChI_Code_QSARr>
InChI=1S/C7H7NO3/c1-5-2-3-6(8(10)11)4-7(5)9/h2-4,9H,1H3

> <InChI Key_QSARr>
UMFDLIXUUJMPSI-UHFFFAOYSA-N

> <Salt_Solvent>
?

> <Ready_Biodeg>
0.0

$$$$
101103
  -INDIGO-08031722522D

 37 37  0  0  0  0  0  0  0  0999 V2000
    2.7714    0.0000    0.0000 C   0  0  0  0  0  0  0  0  0  0  0  0
    2.7712    1.6001    0.0000 O   0  0  0  0  0  0  0  0  0  0  0  0
    4.1569    2.3999    0.0000 H   0  0  0  0  0  0  0  0  0  0  0  0
    4.1569   -0.8000    0.0000 C   0  0  0  0  0  0  0  0  0  0  0  0
    5.5426    0.0000    0.0000 C   0  0  0  0  0  0  0  0  0  0  0  0
    4.7426    1.3857    0.0000 H   0  0  0  0  0  0  0  0  0  0  0  0
    6.7683    1.0284    0.0000 C   0  0  0  0  0  0  0  0  0  0  0  0
    7.1145    2.5905    0.0000 H   0  0  0  0  0  0  0  0  0  0  0  0
    5.9086    2.3778    0.0000 H   0  0  0  0  0  0  0  0  0  0  0  0
    8.2718    0.4812    0.0000 C   0  0  0  0  0  0  0  0  0  0  0  0
    9.4974    1.5097    0.0000 H   0  0  0  0  0  0  0  0  0  0  0  0
    9.7753   -0.0660    0.0000 H   0  0  0  0  0  0  0  0  0  0  0  0
    7.9939    2.0569    0.0000 H   0  0  0  0  0  0  0  0  0  0  0  0
    6.3425   -1.3856    0.0000 C   0  0  0  0  0  0  0  0  0  0  0  0
    7.1425   -2.7712    0.0000 H   0  0  0  0  0  0  0  0  0  0  0  0
    7.9426   -1.3856    0.0000 H   0  0  0  0  0  0  0  0  0  0  0  0
    7.1425    0.0000    0.0000 H   0  0  0  0  0  0  0  0  0  0  0  0
    4.1569   -2.4000    0.0000 C   0  0  0  0  0  0  0  0  0  0  0  0
    5.5426   -3.2000    0.0000 H   0  0  0  0  0  0  0  0  0  0  0  0
    2.7714   -3.2000    0.0000 C   0  0  0  0  0  0  0  0  0  0  0  0
    2.7714   -4.8000    0.0000 H   0  0  0  0  0  0  0  0  0  0  0  0
    1.3857   -2.4000    0.0000 C   0  0  0  0  0  0  0  0  0  0  0  0
   -0.0001   -3.2000    0.0000 H   0  0  0  0  0  0  0  0  0  0  0  0
    1.3857   -0.8000    0.0000 C   0  0  0  0  0  0  0  0  0  0  0  0
   -0.0001    0.0000    0.0000 C   0  0  0  0  0  0  0  0  0  0  0  0
    0.8000    1.3857    0.0000 H   0  0  0  0  0  0  0  0  0  0  0  0
   -1.2257    1.0284    0.0000 C   0  0  0  0  0  0  0  0  0  0  0  0
   -0.3660    2.3778    0.0000 H   0  0  0  0  0  0  0  0  0  0  0  0
   -1.5720    2.5905    0.0000 H   0  0  0  0  0  0  0  0  0  0  0  0
   -2.7292    0.4812    0.0000 C   0  0  0  0  0  0  0  0  0  0  0  0
   -3.9548    1.5097    0.0000 H   0  0  0  0  0  0  0  0  0  0  0  0
   -4.2327   -0.0660    0.0000 H   0  0  0  0  0  0  0  0  0  0  0  0
   -2.4513    2.0569    0.0000 H   0  0  0  0  0  0  0  0  0  0  0  0
   -0.7999   -1.3856    0.0000 C   0  0  0  0  0  0  0  0  0  0  0  0
   -1.6000   -2.7712    0.0000 H   0  0  0  0  0  0  0  0  0  0  0  0
   -2.4000   -1.3856    0.0000 H   0  0  0  0  0  0  0  0  0  0  0  0
   -1.6000    0.0000    0.0000 H   0  0  0  0  0  0  0  0  0  0  0  0
  1  2  1  0  0  0  0
  2  3  1  0  0  0  0
  1  4  1  0  0  0  0
  4  5  1  0  0  0  0
  5  6  1  0  0  0  0
  5  7  1  0  0  0  0
  7  8  1  0  0  0  0
  7  9  1  0  0  0  0
  7 10  1  0  0  0  0
 10 11  1  0  0  0  0
 10 12  1  0  0  0  0
 10 13  1  0  0  0  0
  5 14  1  0  0  0  0
 14 15  1  0  0  0  0
 14 16  1  0  0  0  0
 14 17  1  0  0  0  0
  4 18  2  0  0  0  0
 18 19  1  0  0  0  0
 18 20  1  0  0  0  0
 20 21  1  0  0  0  0
 20 22  2  0  0  0  0
 22 23  1  0  0  0  0
 22 24  1  0  0  0  0
 24  1  2  0  0  0  0
 24 25  1  0  0  0  0
 25 26  1  0  0  0  0
 25 27  1  0  0  0  0
 27 28  1  0  0  0  0
 27 29  1  0  0  0  0
 27 30  1  0  0  0  0
 30 31  1  0  0  0  0
 30 32  1  0  0  0  0
 30 33  1  0  0  0  0
 25 34  1  0  0  0  0
 34 35  1  0  0  0  0
 34 36  1  0  0  0  0
 34 37  1  0  0  0  0
M  END
> <ChemID>
101103

> <source_casrn>
5510-99-6

> <CAS>
5510-99-6

> <SMILES>
CC(CC)c1cccc(C(C)CC)c1O

> <NAME>
2,6-Di-sec-butylphenol

> <preferred_name>
2,6-Di(butan-2-yl)phenol

> <iupac>
2,6-di(butan-2-yl)phenol

> <MPID>
101088

> <dsstox_substance_id>
DTXSID0044440

> <Canonical_QSARr>
CC(CC)c1cccc(C(C)CC)c1O

> <InChI_Code_QSARr>
InChI=1S/C14H22O/c1-5-10(3)12-8-7-9-13(14(12)15)11(4)6-2/h7-11,15H,5-6H2,1-4H3

> <InChI Key_QSARr>
FHTGJZOULSYEOB-UHFFFAOYSA-N

> <Salt_Solvent>
?

> <Ready_Biodeg>
0.0

$$$$
101105
  -INDIGO-08031722522D

 36 36  0  0  0  0  0  0  0  0999 V2000
    3.9264    0.6279    0.0000 O   0  0  0  0  0  0  0  0  0  0  0  0
    4.2043   -0.9478    0.0000 S   0  0  0  0  0  0  0  0  0  0  0  0
    4.4819   -2.5236    0.0000 O   0  0  0  0  0  0  0  0  0  0  0  0
    5.7798   -0.6700    0.0000 O   0  0  0  0  0  0  0  0  0  0  0  0
    6.8083   -1.8956    0.0000 H   0  0  0  0  0  0  0  0  0  0  0  0
    2.6285   -1.2257    0.0000 C   0  0  0  0  0  0  0  0  0  0  0  0
    2.6983   -2.8241    0.0000 H   0  0  0  0  0  0  0  0  0  0  0  0
    1.5474   -2.4054    0.0000 H   0  0  0  0  0  0  0  0  0  0  0  0
    1.6000   -0.0000    0.0000 C   0  0  0  0  0  0  0  0  0  0  0  0
    1.8089    1.5863    0.0000 H   0  0  0  0  0  0  0  0  0  0  0  0
    2.8694    0.9740    0.0000 H   0  0  0  0  0  0  0  0  0  0  0  0
    0.0001   -0.0000    0.0000 N   0  0  0  0  0  0  0  0  0  0  0  0
   -0.8000    1.3857    0.0000 C   0  0  0  0  0  0  0  0  0  0  0  0
    0.7034    1.9329    0.0000 H   0  0  0  0  0  0  0  0  0  0  0  0
   -1.0779    2.9613    0.0000 H   0  0  0  0  0  0  0  0  0  0  0  0
   -2.4000    1.3857    0.0000 C   0  0  0  0  0  0  0  0  0  0  0  0
   -2.1221    2.9613    0.0000 H   0  0  0  0  0  0  0  0  0  0  0  0
   -3.9034    1.9329    0.0000 H   0  0  0  0  0  0  0  0  0  0  0  0
   -3.2001   -0.0000    0.0000 N   0  0  0  0  0  0  0  0  0  0  0  0
   -4.8000   -0.0000    0.0000 C   0  0  0  0  0  0  0  0  0  0  0  0
   -5.0089   -1.5863    0.0000 H   0  0  0  0  0  0  0  0  0  0  0  0
   -6.0694   -0.9740    0.0000 H   0  0  0  0  0  0  0  0  0  0  0  0
   -5.8285    1.2257    0.0000 C   0  0  0  0  0  0  0  0  0  0  0  0
   -5.8983    2.8241    0.0000 H   0  0  0  0  0  0  0  0  0  0  0  0
   -4.7474    2.4054    0.0000 H   0  0  0  0  0  0  0  0  0  0  0  0
   -7.4043    0.9478    0.0000 S   0  0  0  0  0  0  0  0  0  0  0  0
   -7.6819    2.5236    0.0000 O   0  0  0  0  0  0  0  0  0  0  0  0
   -7.1264   -0.6279    0.0000 O   0  0  0  0  0  0  0  0  0  0  0  0
   -8.9798    0.6700    0.0000 O   0  0  0  0  0  0  0  0  0  0  0  0
  -10.0083    1.8956    0.0000 H   0  0  0  0  0  0  0  0  0  0  0  0
   -2.4000   -1.3857    0.0000 C   0  0  0  0  0  0  0  0  0  0  0  0
   -3.9034   -1.9329    0.0000 H   0  0  0  0  0  0  0  0  0  0  0  0
   -2.1221   -2.9613    0.0000 H   0  0  0  0  0  0  0  0  0  0  0  0
   -0.8000   -1.3857    0.0000 C   0  0  0  0  0  0  0  0  0  0  0  0
   -1.0779   -2.9613    0.0000 H   0  0  0  0  0  0  0  0  0  0  0  0
    0.7034   -1.9329    0.0000 H   0  0  0  0  0  0  0  0  0  0  0  0
  1  2  2  0  0  0  0
  2  3  2  0  0  0  0
  2  4  1  0  0  0  0
  4  5  1  0  0  0  0
  2  6  1  0  0  0  0
  6  7  1  0  0  0  0
  6  8  1  0  0  0  0
  6  9  1  0  0  0  0
  9 10  1  0  0  0  0
  9 11  1  0  0  0  0
  9 12  1  0  0  0  0
 12 13  1  0  0  0  0
 13 14  1  0  0  0  0
 13 15  1  0  0  0  0
 13 16  1  0  0  0  0
 16 17  1  0  0  0  0
 16 18  1  0  0  0  0
 16 19  1  0  0  0  0
 19 20  1  0  0  0  0
 20 21  1  0  0  0  0
 20 22  1  0  0  0  0
 20 23  1  0  0  0  0
 23 24  1  0  0  0  0
 23 25  1  0  0  0  0
 23 26  1  0  0  0  0
 26 27  2  0  0  0  0
 26 28  2  0  0  0  0
 26 29  1  0  0  0  0
 29 30  1  0  0  0  0
 19 31  1  0  0  0  0
 31 32  1  0  0  0  0
 31 33  1  0  0  0  0
 31 34  1  0  0  0  0
 34 12  1  0  0  0  0
 34 35  1  0  0  0  0
 34 36  1  0  0  0  0
M  END
> <ChemID>
101105

> <source_casrn>
5625-37-6

> <CAS>
5625-37-6

> <SMILES>
OS(=O)(=O)CCN1CCN(CC1)CCS(O)(=O)=O

> <NAME>
1,4-Piperazinebis(ethanesulfonic acid)

> <preferred_name>
1,4-Piperazinediethanesulfonic acid

> <iupac>
2-[4-(2-sulfoethyl)piperazin-1-yl]ethanesulfonic acid

> <MPID>
101089

> <dsstox_substance_id>
DTXSID8063965

> <Canonical_QSARr>
OS(=O)(=O)CCN1CCN(CC1)CCS(O)(=O)=O

> <InChI_Code_QSARr>
InChI=1S/C8H18N2O6S2/c11-17(12,13)7-5-9-1-2-10(4-3-9)6-8-18(14,15)16/h1-8H2,(H,11,12,13)(H,14,15,16)

> <InChI Key_QSARr>
IHPYMWDTONKSCO-UHFFFAOYSA-N

> <Salt_Solvent>
?

> <Ready_Biodeg>
0.0

$$$$
101108
  -INDIGO-08031722522D

 27 27  0  0  0  0  0  0  0  0999 V2000
   -1.5999    0.0000    0.0000 N   0  0  0  0  0  0  0  0  0  0  0  0
   -2.3999    1.3857    0.0000 C   0  0  0  0  0  0  0  0  0  0  0  0
   -1.5999    2.7713    0.0000 O   0  0  0  0  0  0  0  0  0  0  0  0
   -4.0001    1.3857    0.0000 C   0  0  0  0  0  0  0  0  0  0  0  0
   -4.8000    2.7713    0.0000 Cl  0  0  0  0  0  0  0  0  0  0  0  0
   -4.8000    0.0000    0.0000 C   0  0  0  0  0  0  0  0  0  0  0  0
   -6.4000    0.0000    0.0000 C   0  0  0  0  0  0  0  0  0  0  0  0
   -8.0000    0.0000    0.0000 H   0  0  0  0  0  0  0  0  0  0  0  0
   -7.2000   -1.3857    0.0000 H   0  0  0  0  0  0  0  0  0  0  0  0
   -7.2000    1.3857    0.0000 H   0  0  0  0  0  0  0  0  0  0  0  0
   -4.0001   -1.3857    0.0000 N   0  0  0  0  0  0  0  0  0  0  0  0
   -4.8000   -2.7713    0.0000 H   0  0  0  0  0  0  0  0  0  0  0  0
   -2.3999   -1.3857    0.0000 C   0  0  0  0  0  0  0  0  0  0  0  0
   -1.5999   -2.7713    0.0000 O   0  0  0  0  0  0  0  0  0  0  0  0
    0.0000    0.0000    0.0000 C   0  0  0  0  0  0  0  0  0  0  0  0
    1.6000   -0.0000    0.0000 C   0  0  0  0  0  0  0  0  0  0  0  0
    3.2000   -0.0000    0.0000 H   0  0  0  0  0  0  0  0  0  0  0  0
    2.6285   -1.2256    0.0000 H   0  0  0  0  0  0  0  0  0  0  0  0
    2.6285    1.2256    0.0000 H   0  0  0  0  0  0  0  0  0  0  0  0
    0.0000    1.6000    0.0000 C   0  0  0  0  0  0  0  0  0  0  0  0
   -0.2778    3.1757    0.0000 H   0  0  0  0  0  0  0  0  0  0  0  0
    1.2258    2.6285    0.0000 H   0  0  0  0  0  0  0  0  0  0  0  0
    1.5035    1.0527    0.0000 H   0  0  0  0  0  0  0  0  0  0  0  0
    0.0000   -1.6000    0.0000 C   0  0  0  0  0  0  0  0  0  0  0  0
   -0.2778   -3.1757    0.0000 H   0  0  0  0  0  0  0  0  0  0  0  0
    1.2258   -2.6285    0.0000 H   0  0  0  0  0  0  0  0  0  0  0  0
    1.5035   -1.0527    0.0000 H   0  0  0  0  0  0  0  0  0  0  0  0
  1  2  1  0  0  0  0
  2  3  2  0  0  0  0
  2  4  1  0  0  0  0
  4  5  1  0  0  0  0
  4  6  2  0  0  0  0
  6  7  1  0  0  0  0
  7  8  1  0  0  0  0
  7  9  1  0  0  0  0
  7 10  1  0  0  0  0
  6 11  1  0  0  0  0
 11 12  1  0  0  0  0
 11 13  1  0  0  0  0
 13  1  1  0  0  0  0
 13 14  2  0  0  0  0
  1 15  1  0  0  0  0
 15 16  1  0  0  0  0
 16 17  1  0  0  0  0
 16 18  1  0  0  0  0
 16 19  1  0  0  0  0
 15 20  1  0  0  0  0
 20 21  1  0  0  0  0
 20 22  1  0  0  0  0
 20 23  1  0  0  0  0
 15 24  1  0  0  0  0
 24 25  1  0  0  0  0
 24 26  1  0  0  0  0
 24 27  1  0  0  0  0
M  END
> <ChemID>
101108

> <source_casrn>
5902-51-2

> <CAS>
5902-51-2

> <SMILES>
CC1NC(=O)N(C(=O)C=1Cl)C(C)(C)C

> <NAME>
Terbacil

> <preferred_name>
Terbacil

> <iupac>
3-tert-butyl-5-chloro-6-methylpyrimidine-2,4(1H,3H)-dione

> <MPID>
101092

> <dsstox_substance_id>
DTXSID8024317

> <Canonical_QSARr>
CC1NC(=O)N(C(=O)C=1Cl)C(C)(C)C

> <InChI_Code_QSARr>
InChI=1S/C9H13ClN2O2/c1-5-6(10)7(13)12(8(14)11-5)9(2,3)4/h1-4H3,(H,11,14)

> <InChI Key_QSARr>
NBQCNZYJJMBDKY-UHFFFAOYSA-N

> <Salt_Solvent>
?

> <Ready_Biodeg>
0.0

$$$$
101109
  -INDIGO-08031722522D

 10  9  0  0  0  0  0  0  0  0999 V2000
    1.3856    2.4000    0.0000 Cl  0  0  0  0  0  0  0  0  0  0  0  0
    1.3856    0.8000    0.0000 C   0  0  0  0  0  0  0  0  0  0  0  0
    2.7713    0.0000    0.0000 C   0  0  0  0  0  0  0  0  0  0  0  0
    4.1569    0.8000    0.0000 H   0  0  0  0  0  0  0  0  0  0  0  0
    2.7713   -1.6000    0.0000 H   0  0  0  0  0  0  0  0  0  0  0  0
    0.0000    0.0000    0.0000 C   0  0  0  0  0  0  0  0  0  0  0  0
    0.6123   -1.4782    0.0000 H   0  0  0  0  0  0  0  0  0  0  0  0
   -0.6123   -1.4782    0.0000 H   0  0  0  0  0  0  0  0  0  0  0  0
   -1.3856    0.8000    0.0000 O   0  0  0  0  0  0  0  0  0  0  0  0
   -2.7713    0.0000    0.0000 H   0  0  0  0  0  0  0  0  0  0  0  0
  1  2  1  0  0  0  0
  2  3  2  0  0  0  0
  3  4  1  0  0  0  0
  3  5  1  0  0  0  0
  2  6  1  0  0  0  0
  6  7  1  0  0  0  0
  6  8  1  0  0  0  0
  6  9  1  0  0  0  0
  9 10  1  0  0  0  0
M  END
> <ChemID>
101109

> <source_casrn>
5976-47-6

> <CAS>
5976-47-6

> <SMILES>
C=C(Cl)CO

> <NAME>
2-Chloro-2-propen-1-ol

> <preferred_name>
2-Chloro-2-propen-1-ol

> <iupac>
2-chloroprop-2-en-1-ol

> <MPID>
101093

> <dsstox_substance_id>
DTXSID2073984

> <Canonical_QSARr>
C=C(Cl)CO

> <InChI_Code_QSARr>
InChI=1S/C3H5ClO/c1-3(4)2-5/h5H,1-2H2

> <InChI Key_QSARr>
OSCXYTRISGREIM-UHFFFAOYSA-N

> <Salt_Solvent>
?

> <Ready_Biodeg>
1.0

$$$$
101110
  -INDIGO-08031722522D

 18 17  0  0  0  0  0  0  0  0999 V2000
    2.7712    1.6000    0.0000 C   0  0  0  0  0  0  0  0  0  0  0  0
    4.1569    2.4000    0.0000 H   0  0  0  0  0  0  0  0  0  0  0  0
    4.1569    0.8000    0.0000 H   0  0  0  0  0  0  0  0  0  0  0  0
    2.7712    3.2000    0.0000 H   0  0  0  0  0  0  0  0  0  0  0  0
    1.3856    0.8000    0.0000 C   0  0  0  0  0  0  0  0  0  0  0  0
    0.5857    2.1857    0.0000 H   0  0  0  0  0  0  0  0  0  0  0  0
   -0.0001    0.0000    0.0000 C   0  0  0  0  0  0  0  0  0  0  0  0
    0.6123   -1.4782    0.0000 H   0  0  0  0  0  0  0  0  0  0  0  0
   -0.6123   -1.4782    0.0000 H   0  0  0  0  0  0  0  0  0  0  0  0
   -1.3856    0.8000    0.0000 C   0  0  0  0  0  0  0  0  0  0  0  0
   -1.9979    2.2782    0.0000 H   0  0  0  0  0  0  0  0  0  0  0  0
   -0.7734    2.2782    0.0000 H   0  0  0  0  0  0  0  0  0  0  0  0
   -2.7713    0.0000    0.0000 C   0  0  0  0  0  0  0  0  0  0  0  0
   -4.1569   -0.8000    0.0000 H   0  0  0  0  0  0  0  0  0  0  0  0
   -4.1569    0.8000    0.0000 H   0  0  0  0  0  0  0  0  0  0  0  0
   -2.7713   -1.6000    0.0000 H   0  0  0  0  0  0  0  0  0  0  0  0
    2.1856   -0.5857    0.0000 O   0  0  0  0  0  0  0  0  0  0  0  0
    3.7856   -0.5857    0.0000 H   0  0  0  0  0  0  0  0  0  0  0  0
  1  2  1  0  0  0  0
  1  3  1  0  0  0  0
  1  4  1  0  0  0  0
  1  5  1  0  0  0  0
  5  6  1  0  0  0  0
  5  7  1  0  0  0  0
  7  8  1  0  0  0  0
  7  9  1  0  0  0  0
  7 10  1  0  0  0  0
 10 11  1  0  0  0  0
 10 12  1  0  0  0  0
 10 13  1  0  0  0  0
 13 14  1  0  0  0  0
 13 15  1  0  0  0  0
 13 16  1  0  0  0  0
  5 17  1  0  0  0  0
 17 18  1  0  0  0  0
M  END
> <ChemID>
101110

> <source_casrn>
6032-29-7

> <CAS>
6032-29-7

> <SMILES>
CCCC(C)O

> <NAME>
2-PENTANOL

> <preferred_name>
Pentan-2-ol

> <iupac>
pentan-2-ol

> <MPID>
101094

> <dsstox_substance_id>
DTXSID3052721

> <Canonical_QSARr>
CCCC(C)O

> <InChI_Code_QSARr>
InChI=1S/C5H12O/c1-3-4-5(2)6/h5-6H,3-4H2,1-2H3

> <InChI Key_QSARr>
JYVLIDXNZAXMDK-UHFFFAOYSA-N

> <Salt_Solvent>
?

> <Ready_Biodeg>
1.0

$$$$
101113
  -INDIGO-08031722522D

 26 27  0  0  0  0  0  0  0  0999 V2000
   -4.1569    2.4000    0.0000 S   0  0  0  0  0  0  0  0  0  0  0  0
   -2.7712    1.6001    0.0000 C   0  0  0  0  0  0  0  0  0  0  0  0
   -2.7712   -0.0000    0.0000 C   0  0  0  0  0  0  0  0  0  0  0  0
   -4.1569   -0.8000    0.0000 H   0  0  0  0  0  0  0  0  0  0  0  0
   -1.3857   -0.8000    0.0000 C   0  0  0  0  0  0  0  0  0  0  0  0
   -1.3857   -2.4000    0.0000 H   0  0  0  0  0  0  0  0  0  0  0  0
    0.0000   -0.0000    0.0000 C   0  0  0  0  0  0  0  0  0  0  0  0
    1.3857   -0.8000    0.0000 C   0  0  0  0  0  0  0  0  0  0  0  0
    2.7712   -0.0000    0.0000 O   0  0  0  0  0  0  0  0  0  0  0  0
    4.1569   -0.8000    0.0000 H   0  0  0  0  0  0  0  0  0  0  0  0
    1.3857   -2.4000    0.0000 O   0  0  0  0  0  0  0  0  0  0  0  0
    0.0000    1.6001    0.0000 C   0  0  0  0  0  0  0  0  0  0  0  0
    1.3857    2.4000    0.0000 H   0  0  0  0  0  0  0  0  0  0  0  0
   -1.3857    2.4000    0.0000 C   0  0  0  0  0  0  0  0  0  0  0  0
   -1.3857    4.0000    0.0000 H   0  0  0  0  0  0  0  0  0  0  0  0
   -5.7327    2.1222    0.0000 C   0  0  0  0  0  0  0  0  0  0  0  0
   -6.2798    0.6187    0.0000 C   0  0  0  0  0  0  0  0  0  0  0  0
   -5.2514   -0.6071    0.0000 H   0  0  0  0  0  0  0  0  0  0  0  0
   -7.8555    0.3409    0.0000 C   0  0  0  0  0  0  0  0  0  0  0  0
   -8.4029   -1.1627    0.0000 H   0  0  0  0  0  0  0  0  0  0  0  0
   -8.8839    1.5665    0.0000 C   0  0  0  0  0  0  0  0  0  0  0  0
  -10.4597    1.2887    0.0000 H   0  0  0  0  0  0  0  0  0  0  0  0
   -8.3368    3.0700    0.0000 C   0  0  0  0  0  0  0  0  0  0  0  0
   -9.3653    4.2957    0.0000 H   0  0  0  0  0  0  0  0  0  0  0  0
   -6.7611    3.3479    0.0000 C   0  0  0  0  0  0  0  0  0  0  0  0
   -6.2138    4.8513    0.0000 H   0  0  0  0  0  0  0  0  0  0  0  0
  1  2  1  0  0  0  0
  2  3  1  0  0  0  0
  3  4  1  0  0  0  0
  3  5  2  0  0  0  0
  5  6  1  0  0  0  0
  5  7  1  0  0  0  0
  7  8  1  0  0  0  0
  8  9  1  0  0  0  0
  9 10  1  0  0  0  0
  8 11  2  0  0  0  0
  7 12  2  0  0  0  0
 12 13  1  0  0  0  0
 12 14  1  0  0  0  0
 14  2  2  0  0  0  0
 14 15  1  0  0  0  0
  1 16  1  0  0  0  0
 16 17  1  0  0  0  0
 17 18  1  0  0  0  0
 17 19  2  0  0  0  0
 19 20  1  0  0  0  0
 19 21  1  0  0  0  0
 21 22  1  0  0  0  0
 21 23  2  0  0  0  0
 23 24  1  0  0  0  0
 23 25  1  0  0  0  0
 25 16  2  0  0  0  0
 25 26  1  0  0  0  0
M  END
> <ChemID>
101113

> <source_casrn>
6310-24-3

> <CAS>
6310-24-3

> <SMILES>
OC(=O)c1ccc(cc1)Sc1ccccc1

> <NAME>
4-(Phenylthio)-benzoic acid

> <preferred_name>
4-(Phenylthio)benzoic acid

> <iupac>
4-phenylsulfanylbenzoic acid

> <MPID>
101096

> <dsstox_substance_id>
DTXSID60212440

> <Canonical_QSARr>
OC(=O)c1ccc(cc1)Sc1ccccc1

> <InChI_Code_QSARr>
InChI=1S/C13H10O2S/c14-13(15)10-6-8-12(9-7-10)16-11-4-2-1-3-5-11/h1-9H,(H,14,15)

> <InChI Key_QSARr>
WRZVDYSYXLKRNN-UHFFFAOYSA-N

> <Salt_Solvent>
?

> <Ready_Biodeg>
1.0

$$$$
101115
  -INDIGO-08031722522D

 55 55  0  0  0  0  0  0  0  0999 V2000
    2.7713   -1.5999    0.0000 C   0  0  0  0  0  0  0  0  0  0  0  0
    4.3469   -1.3222    0.0000 H   0  0  0  0  0  0  0  0  0  0  0  0
    3.3185   -3.1035    0.0000 H   0  0  0  0  0  0  0  0  0  0  0  0
    2.7713    0.0000    0.0000 C   0  0  0  0  0  0  0  0  0  0  0  0
    3.3185    1.5036    0.0000 H   0  0  0  0  0  0  0  0  0  0  0  0
    4.3469    0.2779    0.0000 C   0  0  0  0  0  0  0  0  0  0  0  0
    5.9227    0.5557    0.0000 H   0  0  0  0  0  0  0  0  0  0  0  0
    4.8943    1.7813    0.0000 H   0  0  0  0  0  0  0  0  0  0  0  0
    5.3754   -0.9479    0.0000 H   0  0  0  0  0  0  0  0  0  0  0  0
    1.3856    0.8000    0.0000 C   0  0  0  0  0  0  0  0  0  0  0  0
    2.4141    2.0257    0.0000 H   0  0  0  0  0  0  0  0  0  0  0  0
    0.3571    2.0257    0.0000 H   0  0  0  0  0  0  0  0  0  0  0  0
    0.0000    0.0000    0.0000 C   0  0  0  0  0  0  0  0  0  0  0  0
   -0.5473    1.5036    0.0000 C   0  0  0  0  0  0  0  0  0  0  0  0
   -1.0944    3.0070    0.0000 H   0  0  0  0  0  0  0  0  0  0  0  0
   -2.1229    1.7813    0.0000 H   0  0  0  0  0  0  0  0  0  0  0  0
    0.2527    2.8891    0.0000 H   0  0  0  0  0  0  0  0  0  0  0  0
   -1.5758   -0.2779    0.0000 C   0  0  0  0  0  0  0  0  0  0  0  0
   -3.1514   -0.5558    0.0000 H   0  0  0  0  0  0  0  0  0  0  0  0
   -2.6042    0.9478    0.0000 H   0  0  0  0  0  0  0  0  0  0  0  0
   -2.3758   -1.6634    0.0000 H   0  0  0  0  0  0  0  0  0  0  0  0
    0.0000   -1.5999    0.0000 C   0  0  0  0  0  0  0  0  0  0  0  0
   -1.5758   -1.3222    0.0000 H   0  0  0  0  0  0  0  0  0  0  0  0
   -0.5473   -3.1035    0.0000 H   0  0  0  0  0  0  0  0  0  0  0  0
    1.3856   -2.4001    0.0000 C   0  0  0  0  0  0  0  0  0  0  0  0
    0.3571   -3.6256    0.0000 O   0  0  0  0  0  0  0  0  0  0  0  0
   -1.2429   -3.6256    0.0000 O   0  0  0  0  0  0  0  0  0  0  0  0
   -2.0429   -5.0113    0.0000 C   0  0  0  0  0  0  0  0  0  0  0  0
   -2.8429   -6.3969    0.0000 C   0  0  0  0  0  0  0  0  0  0  0  0
   -3.6427   -7.7826    0.0000 H   0  0  0  0  0  0  0  0  0  0  0  0
   -2.0429   -7.7826    0.0000 H   0  0  0  0  0  0  0  0  0  0  0  0
   -4.4427   -6.3969    0.0000 H   0  0  0  0  0  0  0  0  0  0  0  0
   -3.2684   -3.9829    0.0000 C   0  0  0  0  0  0  0  0  0  0  0  0
   -4.7720   -4.5300    0.0000 H   0  0  0  0  0  0  0  0  0  0  0  0
   -4.4942   -2.9543    0.0000 H   0  0  0  0  0  0  0  0  0  0  0  0
   -3.5463   -5.5586    0.0000 H   0  0  0  0  0  0  0  0  0  0  0  0
   -0.6572   -5.8113    0.0000 C   0  0  0  0  0  0  0  0  0  0  0  0
    0.7286   -6.6112    0.0000 H   0  0  0  0  0  0  0  0  0  0  0  0
   -0.6572   -7.4114    0.0000 H   0  0  0  0  0  0  0  0  0  0  0  0
    0.7286   -5.0113    0.0000 H   0  0  0  0  0  0  0  0  0  0  0  0
    2.4141   -3.6256    0.0000 O   0  0  0  0  0  0  0  0  0  0  0  0
    3.9899   -3.9035    0.0000 O   0  0  0  0  0  0  0  0  0  0  0  0
    5.0183   -5.1292    0.0000 C   0  0  0  0  0  0  0  0  0  0  0  0
    6.0468   -6.3549    0.0000 C   0  0  0  0  0  0  0  0  0  0  0  0
    7.0753   -7.5805    0.0000 H   0  0  0  0  0  0  0  0  0  0  0  0
    5.4995   -7.8584    0.0000 H   0  0  0  0  0  0  0  0  0  0  0  0
    7.6224   -6.0771    0.0000 H   0  0  0  0  0  0  0  0  0  0  0  0
    3.7926   -6.1576    0.0000 C   0  0  0  0  0  0  0  0  0  0  0  0
    2.5669   -7.1861    0.0000 H   0  0  0  0  0  0  0  0  0  0  0  0
    4.0704   -7.7333    0.0000 H   0  0  0  0  0  0  0  0  0  0  0  0
    2.2890   -5.6103    0.0000 H   0  0  0  0  0  0  0  0  0  0  0  0
    6.0468   -3.9035    0.0000 C   0  0  0  0  0  0  0  0  0  0  0  0
    7.6224   -4.1814    0.0000 H   0  0  0  0  0  0  0  0  0  0  0  0
    6.5939   -5.4071    0.0000 H   0  0  0  0  0  0  0  0  0  0  0  0
    7.0753   -2.6778    0.0000 H   0  0  0  0  0  0  0  0  0  0  0  0
  1  2  1  0  0  0  0
  1  3  1  0  0  0  0
  1  4  1  0  0  0  0
  4  5  1  0  0  0  0
  4  6  1  0  0  0  0
  6  7  1  0  0  0  0
  6  8  1  0  0  0  0
  6  9  1  0  0  0  0
  4 10  1  0  0  0  0
 10 11  1  0  0  0  0
 10 12  1  0  0  0  0
 10 13  1  0  0  0  0
 13 14  1  0  0  0  0
 14 15  1  0  0  0  0
 14 16  1  0  0  0  0
 14 17  1  0  0  0  0
 13 18  1  0  0  0  0
 18 19  1  0  0  0  0
 18 20  1  0  0  0  0
 18 21  1  0  0  0  0
 13 22  1  0  0  0  0
 22 23  1  0  0  0  0
 22 24  1  0  0  0  0
 22 25  1  0  0  0  0
 25  1  1  0  0  0  0
 25 26  1  0  0  0  0
 26 27  1  0  0  0  0
 27 28  1  0  0  0  0
 28 29  1  0  0  0  0
 29 30  1  0  0  0  0
 29 31  1  0  0  0  0
 29 32  1  0  0  0  0
 28 33  1  0  0  0  0
 33 34  1  0  0  0  0
 33 35  1  0  0  0  0
 33 36  1  0  0  0  0
 28 37  1  0  0  0  0
 37 38  1  0  0  0  0
 37 39  1  0  0  0  0
 37 40  1  0  0  0  0
 25 41  1  0  0  0  0
 41 42  1  0  0  0  0
 42 43  1  0  0  0  0
 43 44  1  0  0  0  0
 44 45  1  0  0  0  0
 44 46  1  0  0  0  0
 44 47  1  0  0  0  0
 43 48  1  0  0  0  0
 48 49  1  0  0  0  0
 48 50  1  0  0  0  0
 48 51  1  0  0  0  0
 43 52  1  0  0  0  0
 52 53  1  0  0  0  0
 52 54  1  0  0  0  0
 52 55  1  0  0  0  0
M  END
> <ChemID>
101115

> <source_casrn>
6731-36-8

> <CAS>
6731-36-8

> <SMILES>
O(OC(C)(C)C)C(OOC(C)(C)C)(CC(CC1(C)C)C)C1

> <NAME>
Peroxide, (3,3,5-trimethylcyclohexylidene)bis (1,1-dimethylethyl)

> <preferred_name>
1,1-Bis(tert-butylperoxy)-3,3,5-trimethylcyclohexane

> <iupac>
1,1-bis(tert-butylperoxy)-3,3,5-trimethylcyclohexane

> <MPID>
101097

> <dsstox_substance_id>
DTXSID4020165

> <Canonical_QSARr>
CC1(C)CC(C)CC(C1)(OOC(C)(C)C)OOC(C)(C)C

> <InChI_Code_QSARr>
InChI=1S/C17H34O4/c1-13-10-16(8,9)12-17(11-13,20-18-14(2,3)4)21-19-15(5,6)7/h13H,10-12H2,1-9H3

> <InChI Key_QSARr>
NALFRYPTRXKZPN-UHFFFAOYSA-N

> <Salt_Solvent>
?

> <Ready_Biodeg>
0.0

$$$$
101116
  -INDIGO-08031722522D

 15 14  0  0  0  0  0  0  0  0999 V2000
   -1.3857   -0.8000    0.0000 C   0  0  0  0  0  0  0  0  0  0  0  0
   -0.0001    0.0000    0.0000 C   0  0  0  0  0  0  0  0  0  0  0  0
    0.8000   -1.3856    0.0000 H   0  0  0  0  0  0  0  0  0  0  0  0
    1.3857    0.8000    0.0000 C   0  0  0  0  0  0  0  0  0  0  0  0
    0.7734    2.2782    0.0000 H   0  0  0  0  0  0  0  0  0  0  0  0
    1.9980    2.2782    0.0000 H   0  0  0  0  0  0  0  0  0  0  0  0
    2.7713    0.0000    0.0000 C   0  0  0  0  0  0  0  0  0  0  0  0
    4.1569    0.8000    0.0000 O   0  0  0  0  0  0  0  0  0  0  0  0
    5.5426    0.0000    0.0000 H   0  0  0  0  0  0  0  0  0  0  0  0
    2.7713   -1.6000    0.0000 O   0  0  0  0  0  0  0  0  0  0  0  0
   -0.8000    1.3856    0.0000 O   0  0  0  0  0  0  0  0  0  0  0  0
   -2.4000    1.3856    0.0000 H   0  0  0  0  0  0  0  0  0  0  0  0
   -2.7713    0.0000    0.0000 O   0  0  0  0  0  0  0  0  0  0  0  0
   -4.1569   -0.8000    0.0000 H   0  0  0  0  0  0  0  0  0  0  0  0
   -1.3857   -2.4000    0.0000 O   0  0  0  0  0  0  0  0  0  0  0  0
  1  2  1  0  0  0  0
  2  3  1  0  0  0  0
  2  4  1  0  0  0  0
  4  5  1  0  0  0  0
  4  6  1  0  0  0  0
  4  7  1  0  0  0  0
  7  8  1  0  0  0  0
  8  9  1  0  0  0  0
  7 10  2  0  0  0  0
  2 11  1  0  0  0  0
 11 12  1  0  0  0  0
  1 13  1  0  0  0  0
 13 14  1  0  0  0  0
  1 15  2  0  0  0  0
M  END
> <ChemID>
101116

> <source_casrn>
6915-15-7

> <CAS>
6915-15-7

> <SMILES>
OC(=O)C(O)CC(O)=O

> <NAME>
MALIC ACID

> <preferred_name>
Malic acid

> <iupac>
2-hydroxybutanedioic acid

> <MPID>
101098

> <dsstox_substance_id>
DTXSID0027640

> <Canonical_QSARr>
OC(=O)C(O)CC(O)=O

> <InChI_Code_QSARr>
InChI=1S/C4H6O5/c5-2(4(8)9)1-3(6)7/h2,5H,1H2,(H,6,7)(H,8,9)

> <InChI Key_QSARr>
BJEPYKJPYRNKOW-UHFFFAOYSA-N

> <Salt_Solvent>
?

> <Ready_Biodeg>
1.0

$$$$
101118
  -INDIGO-08031722522D

 17 17  0  0  0  0  0  0  0  0999 V2000
    0.0000   -0.0000    0.0000 C   0  0  0  0  0  0  0  0  0  0  0  0
    0.0000   -1.6000    0.0000 C   0  0  0  0  0  0  0  0  0  0  0  0
    1.3857   -2.4000    0.0000 Cl  0  0  0  0  0  0  0  0  0  0  0  0
   -1.3856   -2.4000    0.0000 C   0  0  0  0  0  0  0  0  0  0  0  0
   -1.3856   -4.0000    0.0000 H   0  0  0  0  0  0  0  0  0  0  0  0
   -2.7713   -1.6000    0.0000 C   0  0  0  0  0  0  0  0  0  0  0  0
   -4.1570   -2.4000    0.0000 H   0  0  0  0  0  0  0  0  0  0  0  0
   -2.7713   -0.0000    0.0000 C   0  0  0  0  0  0  0  0  0  0  0  0
   -4.1569    0.8000    0.0000 N   0  0  0  0  0  0  0  0  0  0  0  0
   -5.5426   -0.0000    0.0000 H   0  0  0  0  0  0  0  0  0  0  0  0
   -4.1569    2.4000    0.0000 H   0  0  0  0  0  0  0  0  0  0  0  0
   -1.3856    0.8000    0.0000 C   0  0  0  0  0  0  0  0  0  0  0  0
   -1.3856    2.4000    0.0000 H   0  0  0  0  0  0  0  0  0  0  0  0
    1.3857    0.8000    0.0000 C   0  0  0  0  0  0  0  0  0  0  0  0
    2.7713    1.6000    0.0000 H   0  0  0  0  0  0  0  0  0  0  0  0
    2.7713   -0.0000    0.0000 H   0  0  0  0  0  0  0  0  0  0  0  0
    1.3857    2.4000    0.0000 H   0  0  0  0  0  0  0  0  0  0  0  0
  1  2  1  0  0  0  0
  2  3  1  0  0  0  0
  2  4  2  0  0  0  0
  4  5  1  0  0  0  0
  4  6  1  0  0  0  0
  6  7  1  0  0  0  0
  6  8  2  0  0  0  0
  8  9  1  0  0  0  0
  9 10  1  0  0  0  0
  9 11  1  0  0  0  0
  8 12  1  0  0  0  0
 12  1  2  0  0  0  0
 12 13  1  0  0  0  0
  1 14  1  0  0  0  0
 14 15  1  0  0  0  0
 14 16  1  0  0  0  0
 14 17  1  0  0  0  0
M  END
> <ChemID>
101118

> <source_casrn>
7149-75-9

> <CAS>
7149-75-9

> <SMILES>
Cc1cc(N)ccc1Cl

> <NAME>
3-METHYL-4-CHLOROANILINE

> <preferred_name>
4-Chloro-3-methylaniline

> <iupac>
4-Chloro-3-methylaniline

> <MPID>
101100

> <dsstox_substance_id>
DTXSID5073377

> <Canonical_QSARr>
Cc1cc(N)ccc1Cl

> <InChI_Code_QSARr>
InChI=1S/C7H8ClN/c1-5-4-6(9)2-3-7(5)8/h2-4H,9H2,1H3

> <InChI Key_QSARr>
HIHCTGNZNHSZPP-UHFFFAOYSA-N

> <Salt_Solvent>
?

> <Ready_Biodeg>
0.0

$$$$
101119
  -INDIGO-08031722522D

113112  0  0  0  0  0  0  0  0999 V2000
    0.0004    0.0000    0.0000 C   0  0  0  0  0  0  0  0  0  0  0  0
    0.6126    1.4782    0.0000 H   0  0  0  0  0  0  0  0  0  0  0  0
   -0.6126    1.4782    0.0000 H   0  0  0  0  0  0  0  0  0  0  0  0
    1.3856   -0.8000    0.0000 C   0  0  0  0  0  0  0  0  0  0  0  0
    0.7733   -2.2782    0.0000 H   0  0  0  0  0  0  0  0  0  0  0  0
    1.9978   -2.2782    0.0000 H   0  0  0  0  0  0  0  0  0  0  0  0
    2.7715    0.0000    0.0000 C   0  0  0  0  0  0  0  0  0  0  0  0
    3.3837    1.4782    0.0000 H   0  0  0  0  0  0  0  0  0  0  0  0
    2.1593    1.4782    0.0000 H   0  0  0  0  0  0  0  0  0  0  0  0
    4.1567   -0.8000    0.0000 C   0  0  0  0  0  0  0  0  0  0  0  0
    3.5444   -2.2782    0.0000 H   0  0  0  0  0  0  0  0  0  0  0  0
    4.7689   -2.2782    0.0000 H   0  0  0  0  0  0  0  0  0  0  0  0
    5.5426    0.0000    0.0000 C   0  0  0  0  0  0  0  0  0  0  0  0
    6.1549    1.4782    0.0000 H   0  0  0  0  0  0  0  0  0  0  0  0
    4.9304    1.4782    0.0000 H   0  0  0  0  0  0  0  0  0  0  0  0
    6.9286   -0.8000    0.0000 C   0  0  0  0  0  0  0  0  0  0  0  0
    6.3155   -2.2782    0.0000 H   0  0  0  0  0  0  0  0  0  0  0  0
    7.5408   -2.2782    0.0000 H   0  0  0  0  0  0  0  0  0  0  0  0
    8.3137    0.0000    0.0000 C   0  0  0  0  0  0  0  0  0  0  0  0
    8.9260    1.4782    0.0000 H   0  0  0  0  0  0  0  0  0  0  0  0
    7.7015    1.4782    0.0000 H   0  0  0  0  0  0  0  0  0  0  0  0
    9.6997   -0.8000    0.0000 C   0  0  0  0  0  0  0  0  0  0  0  0
    9.0875   -2.2782    0.0000 H   0  0  0  0  0  0  0  0  0  0  0  0
   10.3119   -2.2782    0.0000 H   0  0  0  0  0  0  0  0  0  0  0  0
   11.0849    0.0000    0.0000 C   0  0  0  0  0  0  0  0  0  0  0  0
   11.6971    1.4782    0.0000 H   0  0  0  0  0  0  0  0  0  0  0  0
   10.4726    1.4782    0.0000 H   0  0  0  0  0  0  0  0  0  0  0  0
   12.4708   -0.8000    0.0000 C   0  0  0  0  0  0  0  0  0  0  0  0
   11.8586   -2.2782    0.0000 H   0  0  0  0  0  0  0  0  0  0  0  0
   13.0830   -2.2782    0.0000 H   0  0  0  0  0  0  0  0  0  0  0  0
   13.8568    0.0000    0.0000 C   0  0  0  0  0  0  0  0  0  0  0  0
   14.4690    1.4782    0.0000 H   0  0  0  0  0  0  0  0  0  0  0  0
   13.2437    1.4782    0.0000 H   0  0  0  0  0  0  0  0  0  0  0  0
   15.2419   -0.8000    0.0000 C   0  0  0  0  0  0  0  0  0  0  0  0
   14.6297   -2.2782    0.0000 H   0  0  0  0  0  0  0  0  0  0  0  0
   15.8542   -2.2782    0.0000 H   0  0  0  0  0  0  0  0  0  0  0  0
   16.6279    0.0000    0.0000 C   0  0  0  0  0  0  0  0  0  0  0  0
   17.2401    1.4782    0.0000 H   0  0  0  0  0  0  0  0  0  0  0  0
   16.0156    1.4782    0.0000 H   0  0  0  0  0  0  0  0  0  0  0  0
   18.0130   -0.8000    0.0000 C   0  0  0  0  0  0  0  0  0  0  0  0
   17.4008   -2.2782    0.0000 H   0  0  0  0  0  0  0  0  0  0  0  0
   18.6253   -2.2782    0.0000 H   0  0  0  0  0  0  0  0  0  0  0  0
   19.3990    0.0000    0.0000 C   0  0  0  0  0  0  0  0  0  0  0  0
   20.0112    1.4782    0.0000 H   0  0  0  0  0  0  0  0  0  0  0  0
   18.7868    1.4782    0.0000 H   0  0  0  0  0  0  0  0  0  0  0  0
   20.7849   -0.8000    0.0000 C   0  0  0  0  0  0  0  0  0  0  0  0
   20.1727   -2.2782    0.0000 H   0  0  0  0  0  0  0  0  0  0  0  0
   21.3972   -2.2782    0.0000 H   0  0  0  0  0  0  0  0  0  0  0  0
   22.1701    0.0000    0.0000 C   0  0  0  0  0  0  0  0  0  0  0  0
   22.7823    1.4782    0.0000 H   0  0  0  0  0  0  0  0  0  0  0  0
   21.5579    1.4782    0.0000 H   0  0  0  0  0  0  0  0  0  0  0  0
   23.5561   -0.8000    0.0000 C   0  0  0  0  0  0  0  0  0  0  0  0
   22.9438   -2.2782    0.0000 H   0  0  0  0  0  0  0  0  0  0  0  0
   24.1683   -2.2782    0.0000 H   0  0  0  0  0  0  0  0  0  0  0  0
   24.9412    0.0000    0.0000 C   0  0  0  0  0  0  0  0  0  0  0  0
   26.3272    0.8000    0.0000 H   0  0  0  0  0  0  0  0  0  0  0  0
   26.3272   -0.8000    0.0000 H   0  0  0  0  0  0  0  0  0  0  0  0
   24.9412    1.6000    0.0000 H   0  0  0  0  0  0  0  0  0  0  0  0
   -1.3856   -0.8000    0.0000 C   0  0  0  0  0  0  0  0  0  0  0  0
   -1.9978   -2.2782    0.0000 H   0  0  0  0  0  0  0  0  0  0  0  0
   -0.7733   -2.2782    0.0000 H   0  0  0  0  0  0  0  0  0  0  0  0
   -2.7715    0.0000    0.0000 C   0  0  0  0  0  0  0  0  0  0  0  0
   -2.1593    1.4782    0.0000 H   0  0  0  0  0  0  0  0  0  0  0  0
   -3.3837    1.4782    0.0000 H   0  0  0  0  0  0  0  0  0  0  0  0
   -4.1567   -0.8000    0.0000 C   0  0  0  0  0  0  0  0  0  0  0  0
   -4.7689   -2.2782    0.0000 H   0  0  0  0  0  0  0  0  0  0  0  0
   -3.5444   -2.2782    0.0000 H   0  0  0  0  0  0  0  0  0  0  0  0
   -5.5426    0.0000    0.0000 C   0  0  0  0  0  0  0  0  0  0  0  0
   -4.9304    1.4782    0.0000 H   0  0  0  0  0  0  0  0  0  0  0  0
   -6.1549    1.4782    0.0000 H   0  0  0  0  0  0  0  0  0  0  0  0
   -6.9286   -0.8000    0.0000 C   0  0  0  0  0  0  0  0  0  0  0  0
   -7.5408   -2.2782    0.0000 H   0  0  0  0  0  0  0  0  0  0  0  0
   -6.3155   -2.2782    0.0000 H   0  0  0  0  0  0  0  0  0  0  0  0
   -8.3137    0.0000    0.0000 C   0  0  0  0  0  0  0  0  0  0  0  0
   -7.7015    1.4782    0.0000 H   0  0  0  0  0  0  0  0  0  0  0  0
   -8.9260    1.4782    0.0000 H   0  0  0  0  0  0  0  0  0  0  0  0
   -9.6997   -0.8000    0.0000 C   0  0  0  0  0  0  0  0  0  0  0  0
  -10.3119   -2.2782    0.0000 H   0  0  0  0  0  0  0  0  0  0  0  0
   -9.0875   -2.2782    0.0000 H   0  0  0  0  0  0  0  0  0  0  0  0
  -11.0849    0.0000    0.0000 C   0  0  0  0  0  0  0  0  0  0  0  0
  -10.4726    1.4782    0.0000 H   0  0  0  0  0  0  0  0  0  0  0  0
  -11.6971    1.4782    0.0000 H   0  0  0  0  0  0  0  0  0  0  0  0
  -12.4708   -0.8000    0.0000 C   0  0  0  0  0  0  0  0  0  0  0  0
  -13.0830   -2.2782    0.0000 H   0  0  0  0  0  0  0  0  0  0  0  0
  -11.8586   -2.2782    0.0000 H   0  0  0  0  0  0  0  0  0  0  0  0
  -13.8568    0.0000    0.0000 C   0  0  0  0  0  0  0  0  0  0  0  0
  -13.2437    1.4782    0.0000 H   0  0  0  0  0  0  0  0  0  0  0  0
  -14.4690    1.4782    0.0000 H   0  0  0  0  0  0  0  0  0  0  0  0
  -15.2419   -0.8000    0.0000 C   0  0  0  0  0  0  0  0  0  0  0  0
  -15.8542   -2.2782    0.0000 H   0  0  0  0  0  0  0  0  0  0  0  0
  -14.6297   -2.2782    0.0000 H   0  0  0  0  0  0  0  0  0  0  0  0
  -16.6279    0.0000    0.0000 C   0  0  0  0  0  0  0  0  0  0  0  0
  -16.0156    1.4782    0.0000 H   0  0  0  0  0  0  0  0  0  0  0  0
  -17.2401    1.4782    0.0000 H   0  0  0  0  0  0  0  0  0  0  0  0
  -18.0130   -0.8000    0.0000 C   0  0  0  0  0  0  0  0  0  0  0  0
  -18.6253   -2.2782    0.0000 H   0  0  0  0  0  0  0  0  0  0  0  0
  -17.4008   -2.2782    0.0000 H   0  0  0  0  0  0  0  0  0  0  0  0
  -19.3990    0.0000    0.0000 C   0  0  0  0  0  0  0  0  0  0  0  0
  -18.7868    1.4782    0.0000 H   0  0  0  0  0  0  0  0  0  0  0  0
  -20.0112    1.4782    0.0000 H   0  0  0  0  0  0  0  0  0  0  0  0
  -20.7849   -0.8000    0.0000 C   0  0  0  0  0  0  0  0  0  0  0  0
  -21.3972   -2.2782    0.0000 H   0  0  0  0  0  0  0  0  0  0  0  0
  -20.1727   -2.2782    0.0000 H   0  0  0  0  0  0  0  0  0  0  0  0
  -22.1701    0.0000    0.0000 C   0  0  0  0  0  0  0  0  0  0  0  0
  -21.5579    1.4782    0.0000 H   0  0  0  0  0  0  0  0  0  0  0  0
  -22.7823    1.4782    0.0000 H   0  0  0  0  0  0  0  0  0  0  0  0
  -23.5561   -0.8000    0.0000 C   0  0  0  0  0  0  0  0  0  0  0  0
  -24.1683   -2.2782    0.0000 H   0  0  0  0  0  0  0  0  0  0  0  0
  -22.9438   -2.2782    0.0000 H   0  0  0  0  0  0  0  0  0  0  0  0
  -24.9412    0.0000    0.0000 C   0  0  0  0  0  0  0  0  0  0  0  0
  -26.3272    0.8000    0.0000 H   0  0  0  0  0  0  0  0  0  0  0  0
  -26.3272   -0.8000    0.0000 H   0  0  0  0  0  0  0  0  0  0  0  0
  -24.9412    1.6000    0.0000 H   0  0  0  0  0  0  0  0  0  0  0  0
  1  2  1  0  0  0  0
  1  3  1  0  0  0  0
  1  4  1  0  0  0  0
  4  5  1  0  0  0  0
  4  6  1  0  0  0  0
  4  7  1  0  0  0  0
  7  8  1  0  0  0  0
  7  9  1  0  0  0  0
  7 10  1  0  0  0  0
 10 11  1  0  0  0  0
 10 12  1  0  0  0  0
 10 13  1  0  0  0  0
 13 14  1  0  0  0  0
 13 15  1  0  0  0  0
 13 16  1  0  0  0  0
 16 17  1  0  0  0  0
 16 18  1  0  0  0  0
 16 19  1  0  0  0  0
 19 20  1  0  0  0  0
 19 21  1  0  0  0  0
 19 22  1  0  0  0  0
 22 23  1  0  0  0  0
 22 24  1  0  0  0  0
 22 25  1  0  0  0  0
 25 26  1  0  0  0  0
 25 27  1  0  0  0  0
 25 28  1  0  0  0  0
 28 29  1  0  0  0  0
 28 30  1  0  0  0  0
 28 31  1  0  0  0  0
 31 32  1  0  0  0  0
 31 33  1  0  0  0  0
 31 34  1  0  0  0  0
 34 35  1  0  0  0  0
 34 36  1  0  0  0  0
 34 37  1  0  0  0  0
 37 38  1  0  0  0  0
 37 39  1  0  0  0  0
 37 40  1  0  0  0  0
 40 41  1  0  0  0  0
 40 42  1  0  0  0  0
 40 43  1  0  0  0  0
 43 44  1  0  0  0  0
 43 45  1  0  0  0  0
 43 46  1  0  0  0  0
 46 47  1  0  0  0  0
 46 48  1  0  0  0  0
 46 49  1  0  0  0  0
 49 50  1  0  0  0  0
 49 51  1  0  0  0  0
 49 52  1  0  0  0  0
 52 53  1  0  0  0  0
 52 54  1  0  0  0  0
 52 55  1  0  0  0  0
 55 56  1  0  0  0  0
 55 57  1  0  0  0  0
 55 58  1  0  0  0  0
  1 59  1  0  0  0  0
 59 60  1  0  0  0  0
 59 61  1  0  0  0  0
 59 62  1  0  0  0  0
 62 63  1  0  0  0  0
 62 64  1  0  0  0  0
 62 65  1  0  0  0  0
 65 66  1  0  0  0  0
 65 67  1  0  0  0  0
 65 68  1  0  0  0  0
 68 69  1  0  0  0  0
 68 70  1  0  0  0  0
 68 71  1  0  0  0  0
 71 72  1  0  0  0  0
 71 73  1  0  0  0  0
 71 74  1  0  0  0  0
 74 75  1  0  0  0  0
 74 76  1  0  0  0  0
 74 77  1  0  0  0  0
 77 78  1  0  0  0  0
 77 79  1  0  0  0  0
 77 80  1  0  0  0  0
 80 81  1  0  0  0  0
 80 82  1  0  0  0  0
 80 83  1  0  0  0  0
 83 84  1  0  0  0  0
 83 85  1  0  0  0  0
 83 86  1  0  0  0  0
 86 87  1  0  0  0  0
 86 88  1  0  0  0  0
 86 89  1  0  0  0  0
 89 90  1  0  0  0  0
 89 91  1  0  0  0  0
 89 92  1  0  0  0  0
 92 93  1  0  0  0  0
 92 94  1  0  0  0  0
 92 95  1  0  0  0  0
 95 96  1  0  0  0  0
 95 97  1  0  0  0  0
 95 98  1  0  0  0  0
 98 99  1  0  0  0  0
 98100  1  0  0  0  0
 98101  1  0  0  0  0
101102  1  0  0  0  0
101103  1  0  0  0  0
101104  1  0  0  0  0
104105  1  0  0  0  0
104106  1  0  0  0  0
104107  1  0  0  0  0
107108  1  0  0  0  0
107109  1  0  0  0  0
107110  1  0  0  0  0
110111  1  0  0  0  0
110112  1  0  0  0  0
110113  1  0  0  0  0
M  END
> <ChemID>
101119

> <source_casrn>
7194-84-5

> <CAS>
7194-84-5

> <SMILES>
CCCCCCCCCCCCCCCCCCCCCCCCCCCCCCCCCCCCC

> <NAME>
Heptatriacontane

> <preferred_name>
Heptatriacontane

> <iupac>
Heptatriacontane

> <MPID>
101101

> <dsstox_substance_id>
DTXSID0064591

> <Canonical_QSARr>
CCCCCCCCCCCCCCCCCCCCCCCCCCCCCCCCCCCCC

> <InChI_Code_QSARr>
InChI=1S/C37H76/c1-3-5-7-9-11-13-15-17-19-21-23-25-27-29-31-33-35-37-36-34-32-30-28-26-24-22-20-18-16-14-12-10-8-6-4-2/h3-37H2,1-2H3

> <InChI Key_QSARr>
PXEZIKSRSYGOED-UHFFFAOYSA-N

> <Salt_Solvent>
?

> <Ready_Biodeg>
1.0

$$$$
101120
  -INDIGO-08031722522D

116115  0  0  0  0  0  0  0  0999 V2000
   -0.0003    0.0000    0.0000 C   0  0  0  0  0  0  0  0  0  0  0  0
    0.6124    1.4782    0.0000 H   0  0  0  0  0  0  0  0  0  0  0  0
   -0.6121    1.4782    0.0000 H   0  0  0  0  0  0  0  0  0  0  0  0
    1.3859   -0.8000    0.0000 C   0  0  0  0  0  0  0  0  0  0  0  0
    0.7732   -2.2782    0.0000 H   0  0  0  0  0  0  0  0  0  0  0  0
    1.9977   -2.2782    0.0000 H   0  0  0  0  0  0  0  0  0  0  0  0
    2.7712    0.0000    0.0000 C   0  0  0  0  0  0  0  0  0  0  0  0
    3.3839    1.4782    0.0000 H   0  0  0  0  0  0  0  0  0  0  0  0
    2.1594    1.4782    0.0000 H   0  0  0  0  0  0  0  0  0  0  0  0
    4.1565   -0.8000    0.0000 C   0  0  0  0  0  0  0  0  0  0  0  0
    3.5447   -2.2782    0.0000 H   0  0  0  0  0  0  0  0  0  0  0  0
    4.7692   -2.2782    0.0000 H   0  0  0  0  0  0  0  0  0  0  0  0
    5.5427    0.0000    0.0000 C   0  0  0  0  0  0  0  0  0  0  0  0
    6.1545    1.4782    0.0000 H   0  0  0  0  0  0  0  0  0  0  0  0
    4.9300    1.4782    0.0000 H   0  0  0  0  0  0  0  0  0  0  0  0
    6.9280   -0.8000    0.0000 C   0  0  0  0  0  0  0  0  0  0  0  0
    6.3162   -2.2782    0.0000 H   0  0  0  0  0  0  0  0  0  0  0  0
    7.5407   -2.2782    0.0000 H   0  0  0  0  0  0  0  0  0  0  0  0
    8.3142    0.0000    0.0000 C   0  0  0  0  0  0  0  0  0  0  0  0
    8.9260    1.4782    0.0000 H   0  0  0  0  0  0  0  0  0  0  0  0
    7.7015    1.4782    0.0000 H   0  0  0  0  0  0  0  0  0  0  0  0
    9.6995   -0.8000    0.0000 C   0  0  0  0  0  0  0  0  0  0  0  0
    9.0868   -2.2782    0.0000 H   0  0  0  0  0  0  0  0  0  0  0  0
   10.3122   -2.2782    0.0000 H   0  0  0  0  0  0  0  0  0  0  0  0
   11.0848    0.0000    0.0000 C   0  0  0  0  0  0  0  0  0  0  0  0
   11.6975    1.4782    0.0000 H   0  0  0  0  0  0  0  0  0  0  0  0
   10.4730    1.4782    0.0000 H   0  0  0  0  0  0  0  0  0  0  0  0
   12.4710   -0.8000    0.0000 C   0  0  0  0  0  0  0  0  0  0  0  0
   11.8583   -2.2782    0.0000 H   0  0  0  0  0  0  0  0  0  0  0  0
   13.0828   -2.2782    0.0000 H   0  0  0  0  0  0  0  0  0  0  0  0
   13.8563    0.0000    0.0000 C   0  0  0  0  0  0  0  0  0  0  0  0
   14.4690    1.4782    0.0000 H   0  0  0  0  0  0  0  0  0  0  0  0
   13.2444    1.4782    0.0000 H   0  0  0  0  0  0  0  0  0  0  0  0
   15.2424   -0.8000    0.0000 C   0  0  0  0  0  0  0  0  0  0  0  0
   14.6298   -2.2782    0.0000 H   0  0  0  0  0  0  0  0  0  0  0  0
   15.8543   -2.2782    0.0000 H   0  0  0  0  0  0  0  0  0  0  0  0
   16.6277    0.0000    0.0000 C   0  0  0  0  0  0  0  0  0  0  0  0
   17.2396    1.4782    0.0000 H   0  0  0  0  0  0  0  0  0  0  0  0
   16.0151    1.4782    0.0000 H   0  0  0  0  0  0  0  0  0  0  0  0
   18.0131   -0.8000    0.0000 C   0  0  0  0  0  0  0  0  0  0  0  0
   17.4012   -2.2782    0.0000 H   0  0  0  0  0  0  0  0  0  0  0  0
   18.6257   -2.2782    0.0000 H   0  0  0  0  0  0  0  0  0  0  0  0
   19.3992    0.0000    0.0000 C   0  0  0  0  0  0  0  0  0  0  0  0
   20.0111    1.4782    0.0000 H   0  0  0  0  0  0  0  0  0  0  0  0
   18.7865    1.4782    0.0000 H   0  0  0  0  0  0  0  0  0  0  0  0
   20.7845   -0.8000    0.0000 C   0  0  0  0  0  0  0  0  0  0  0  0
   20.1727   -2.2782    0.0000 H   0  0  0  0  0  0  0  0  0  0  0  0
   21.3972   -2.2782    0.0000 H   0  0  0  0  0  0  0  0  0  0  0  0
   22.1699    0.0000    0.0000 C   0  0  0  0  0  0  0  0  0  0  0  0
   22.7825    1.4782    0.0000 H   0  0  0  0  0  0  0  0  0  0  0  0
   21.5580    1.4782    0.0000 H   0  0  0  0  0  0  0  0  0  0  0  0
   23.5560   -0.8000    0.0000 C   0  0  0  0  0  0  0  0  0  0  0  0
   22.9433   -2.2782    0.0000 H   0  0  0  0  0  0  0  0  0  0  0  0
   24.1679   -2.2782    0.0000 H   0  0  0  0  0  0  0  0  0  0  0  0
   24.9413    0.0000    0.0000 C   0  0  0  0  0  0  0  0  0  0  0  0
   25.5540    1.4782    0.0000 H   0  0  0  0  0  0  0  0  0  0  0  0
   24.3295    1.4782    0.0000 H   0  0  0  0  0  0  0  0  0  0  0  0
   26.3275   -0.8000    0.0000 C   0  0  0  0  0  0  0  0  0  0  0  0
   27.7128   -1.6000    0.0000 H   0  0  0  0  0  0  0  0  0  0  0  0
   27.7128    0.0000    0.0000 H   0  0  0  0  0  0  0  0  0  0  0  0
   26.3275   -2.4000    0.0000 H   0  0  0  0  0  0  0  0  0  0  0  0
   -1.3856   -0.8000    0.0000 C   0  0  0  0  0  0  0  0  0  0  0  0
   -1.9983   -2.2782    0.0000 H   0  0  0  0  0  0  0  0  0  0  0  0
   -0.7737   -2.2782    0.0000 H   0  0  0  0  0  0  0  0  0  0  0  0
   -2.7709    0.0000    0.0000 C   0  0  0  0  0  0  0  0  0  0  0  0
   -2.1590    1.4782    0.0000 H   0  0  0  0  0  0  0  0  0  0  0  0
   -3.3836    1.4782    0.0000 H   0  0  0  0  0  0  0  0  0  0  0  0
   -4.1570   -0.8000    0.0000 C   0  0  0  0  0  0  0  0  0  0  0  0
   -4.7689   -2.2782    0.0000 H   0  0  0  0  0  0  0  0  0  0  0  0
   -3.5444   -2.2782    0.0000 H   0  0  0  0  0  0  0  0  0  0  0  0
   -5.5424    0.0000    0.0000 C   0  0  0  0  0  0  0  0  0  0  0  0
   -4.9305    1.4782    0.0000 H   0  0  0  0  0  0  0  0  0  0  0  0
   -6.1550    1.4782    0.0000 H   0  0  0  0  0  0  0  0  0  0  0  0
   -6.9285   -0.8000    0.0000 C   0  0  0  0  0  0  0  0  0  0  0  0
   -7.5404   -2.2782    0.0000 H   0  0  0  0  0  0  0  0  0  0  0  0
   -6.3158   -2.2782    0.0000 H   0  0  0  0  0  0  0  0  0  0  0  0
   -8.3138    0.0000    0.0000 C   0  0  0  0  0  0  0  0  0  0  0  0
   -7.7012    1.4782    0.0000 H   0  0  0  0  0  0  0  0  0  0  0  0
   -8.9265    1.4782    0.0000 H   0  0  0  0  0  0  0  0  0  0  0  0
   -9.6992   -0.8000    0.0000 C   0  0  0  0  0  0  0  0  0  0  0  0
  -10.3118   -2.2782    0.0000 H   0  0  0  0  0  0  0  0  0  0  0  0
   -9.0873   -2.2782    0.0000 H   0  0  0  0  0  0  0  0  0  0  0  0
  -11.0853    0.0000    0.0000 C   0  0  0  0  0  0  0  0  0  0  0  0
  -10.4726    1.4782    0.0000 H   0  0  0  0  0  0  0  0  0  0  0  0
  -11.6972    1.4782    0.0000 H   0  0  0  0  0  0  0  0  0  0  0  0
  -12.4706   -0.8000    0.0000 C   0  0  0  0  0  0  0  0  0  0  0  0
  -13.0833   -2.2782    0.0000 H   0  0  0  0  0  0  0  0  0  0  0  0
  -11.8588   -2.2782    0.0000 H   0  0  0  0  0  0  0  0  0  0  0  0
  -13.8568    0.0000    0.0000 C   0  0  0  0  0  0  0  0  0  0  0  0
  -13.2441    1.4782    0.0000 H   0  0  0  0  0  0  0  0  0  0  0  0
  -14.4686    1.4782    0.0000 H   0  0  0  0  0  0  0  0  0  0  0  0
  -15.2421   -0.8000    0.0000 C   0  0  0  0  0  0  0  0  0  0  0  0
  -15.8540   -2.2782    0.0000 H   0  0  0  0  0  0  0  0  0  0  0  0
  -14.6294   -2.2782    0.0000 H   0  0  0  0  0  0  0  0  0  0  0  0
  -16.6274    0.0000    0.0000 C   0  0  0  0  0  0  0  0  0  0  0  0
  -16.0156    1.4782    0.0000 H   0  0  0  0  0  0  0  0  0  0  0  0
  -17.2401    1.4782    0.0000 H   0  0  0  0  0  0  0  0  0  0  0  0
  -18.0136   -0.8000    0.0000 C   0  0  0  0  0  0  0  0  0  0  0  0
  -18.6254   -2.2782    0.0000 H   0  0  0  0  0  0  0  0  0  0  0  0
  -17.4009   -2.2782    0.0000 H   0  0  0  0  0  0  0  0  0  0  0  0
  -19.3989    0.0000    0.0000 C   0  0  0  0  0  0  0  0  0  0  0  0
  -18.7871    1.4782    0.0000 H   0  0  0  0  0  0  0  0  0  0  0  0
  -20.0116    1.4782    0.0000 H   0  0  0  0  0  0  0  0  0  0  0  0
  -20.7842   -0.8000    0.0000 C   0  0  0  0  0  0  0  0  0  0  0  0
  -21.3969   -2.2782    0.0000 H   0  0  0  0  0  0  0  0  0  0  0  0
  -20.1724   -2.2782    0.0000 H   0  0  0  0  0  0  0  0  0  0  0  0
  -22.1704    0.0000    0.0000 C   0  0  0  0  0  0  0  0  0  0  0  0
  -21.5577    1.4782    0.0000 H   0  0  0  0  0  0  0  0  0  0  0  0
  -22.7822    1.4782    0.0000 H   0  0  0  0  0  0  0  0  0  0  0  0
  -23.5557   -0.8000    0.0000 C   0  0  0  0  0  0  0  0  0  0  0  0
  -24.1684   -2.2782    0.0000 H   0  0  0  0  0  0  0  0  0  0  0  0
  -22.9439   -2.2782    0.0000 H   0  0  0  0  0  0  0  0  0  0  0  0
  -24.9418    0.0000    0.0000 C   0  0  0  0  0  0  0  0  0  0  0  0
  -26.3272    0.8000    0.0000 H   0  0  0  0  0  0  0  0  0  0  0  0
  -26.3272   -0.8000    0.0000 H   0  0  0  0  0  0  0  0  0  0  0  0
  -24.9418    1.6000    0.0000 H   0  0  0  0  0  0  0  0  0  0  0  0
  1  2  1  0  0  0  0
  1  3  1  0  0  0  0
  1  4  1  0  0  0  0
  4  5  1  0  0  0  0
  4  6  1  0  0  0  0
  4  7  1  0  0  0  0
  7  8  1  0  0  0  0
  7  9  1  0  0  0  0
  7 10  1  0  0  0  0
 10 11  1  0  0  0  0
 10 12  1  0  0  0  0
 10 13  1  0  0  0  0
 13 14  1  0  0  0  0
 13 15  1  0  0  0  0
 13 16  1  0  0  0  0
 16 17  1  0  0  0  0
 16 18  1  0  0  0  0
 16 19  1  0  0  0  0
 19 20  1  0  0  0  0
 19 21  1  0  0  0  0
 19 22  1  0  0  0  0
 22 23  1  0  0  0  0
 22 24  1  0  0  0  0
 22 25  1  0  0  0  0
 25 26  1  0  0  0  0
 25 27  1  0  0  0  0
 25 28  1  0  0  0  0
 28 29  1  0  0  0  0
 28 30  1  0  0  0  0
 28 31  1  0  0  0  0
 31 32  1  0  0  0  0
 31 33  1  0  0  0  0
 31 34  1  0  0  0  0
 34 35  1  0  0  0  0
 34 36  1  0  0  0  0
 34 37  1  0  0  0  0
 37 38  1  0  0  0  0
 37 39  1  0  0  0  0
 37 40  1  0  0  0  0
 40 41  1  0  0  0  0
 40 42  1  0  0  0  0
 40 43  1  0  0  0  0
 43 44  1  0  0  0  0
 43 45  1  0  0  0  0
 43 46  1  0  0  0  0
 46 47  1  0  0  0  0
 46 48  1  0  0  0  0
 46 49  1  0  0  0  0
 49 50  1  0  0  0  0
 49 51  1  0  0  0  0
 49 52  1  0  0  0  0
 52 53  1  0  0  0  0
 52 54  1  0  0  0  0
 52 55  1  0  0  0  0
 55 56  1  0  0  0  0
 55 57  1  0  0  0  0
 55 58  1  0  0  0  0
 58 59  1  0  0  0  0
 58 60  1  0  0  0  0
 58 61  1  0  0  0  0
  1 62  1  0  0  0  0
 62 63  1  0  0  0  0
 62 64  1  0  0  0  0
 62 65  1  0  0  0  0
 65 66  1  0  0  0  0
 65 67  1  0  0  0  0
 65 68  1  0  0  0  0
 68 69  1  0  0  0  0
 68 70  1  0  0  0  0
 68 71  1  0  0  0  0
 71 72  1  0  0  0  0
 71 73  1  0  0  0  0
 71 74  1  0  0  0  0
 74 75  1  0  0  0  0
 74 76  1  0  0  0  0
 74 77  1  0  0  0  0
 77 78  1  0  0  0  0
 77 79  1  0  0  0  0
 77 80  1  0  0  0  0
 80 81  1  0  0  0  0
 80 82  1  0  0  0  0
 80 83  1  0  0  0  0
 83 84  1  0  0  0  0
 83 85  1  0  0  0  0
 83 86  1  0  0  0  0
 86 87  1  0  0  0  0
 86 88  1  0  0  0  0
 86 89  1  0  0  0  0
 89 90  1  0  0  0  0
 89 91  1  0  0  0  0
 89 92  1  0  0  0  0
 92 93  1  0  0  0  0
 92 94  1  0  0  0  0
 92 95  1  0  0  0  0
 95 96  1  0  0  0  0
 95 97  1  0  0  0  0
 95 98  1  0  0  0  0
 98 99  1  0  0  0  0
 98100  1  0  0  0  0
 98101  1  0  0  0  0
101102  1  0  0  0  0
101103  1  0  0  0  0
101104  1  0  0  0  0
104105  1  0  0  0  0
104106  1  0  0  0  0
104107  1  0  0  0  0
107108  1  0  0  0  0
107109  1  0  0  0  0
107110  1  0  0  0  0
110111  1  0  0  0  0
110112  1  0  0  0  0
110113  1  0  0  0  0
113114  1  0  0  0  0
113115  1  0  0  0  0
113116  1  0  0  0  0
M  END
> <ChemID>
101120

> <source_casrn>
7194-85-6

> <CAS>
7194-85-6

> <SMILES>
CCCCCCCCCCCCCCCCCCCCCCCCCCCCCCCCCCCCCC

> <NAME>
Octatriacontane

> <preferred_name>
Octatriacontane

> <iupac>
Octatriacontane

> <MPID>
101102

> <dsstox_substance_id>
DTXSID5064592

> <Canonical_QSARr>
CCCCCCCCCCCCCCCCCCCCCCCCCCCCCCCCCCCCCC

> <InChI_Code_QSARr>
InChI=1S/C38H78/c1-3-5-7-9-11-13-15-17-19-21-23-25-27-29-31-33-35-37-38-36-34-32-30-28-26-24-22-20-18-16-14-12-10-8-6-4-2/h3-38H2,1-2H3

> <InChI Key_QSARr>
BVKCQBBZBGYNOP-UHFFFAOYSA-N

> <Salt_Solvent>
?

> <Ready_Biodeg>
1.0

$$$$
101122
  -INDIGO-08031722522D

 21 20  0  0  0  0  0  0  0  0999 V2000
   -1.3856    2.4000    0.0000 O   0  0  0  0  0  0  0  0  0  0  0  0
   -1.3856    0.8000    0.0000 C   0  0  0  0  0  0  0  0  0  0  0  0
    0.0001    0.0000    0.0000 C   0  0  0  0  0  0  0  0  0  0  0  0
   -0.6122   -1.4782    0.0000 H   0  0  0  0  0  0  0  0  0  0  0  0
    0.6122   -1.4782    0.0000 H   0  0  0  0  0  0  0  0  0  0  0  0
    1.3856    0.8000    0.0000 C   0  0  0  0  0  0  0  0  0  0  0  0
    1.3856    2.4000    0.0000 O   0  0  0  0  0  0  0  0  0  0  0  0
    2.7712    0.0000    0.0000 C   0  0  0  0  0  0  0  0  0  0  0  0
    2.1589   -1.4782    0.0000 H   0  0  0  0  0  0  0  0  0  0  0  0
    3.3836   -1.4782    0.0000 H   0  0  0  0  0  0  0  0  0  0  0  0
    4.1569    0.8000    0.0000 C   0  0  0  0  0  0  0  0  0  0  0  0
    5.5426    1.6000    0.0000 H   0  0  0  0  0  0  0  0  0  0  0  0
    5.5426    0.0000    0.0000 H   0  0  0  0  0  0  0  0  0  0  0  0
    4.1569    2.4000    0.0000 H   0  0  0  0  0  0  0  0  0  0  0  0
   -2.7712    0.0000    0.0000 C   0  0  0  0  0  0  0  0  0  0  0  0
   -3.3836   -1.4782    0.0000 H   0  0  0  0  0  0  0  0  0  0  0  0
   -2.1589   -1.4782    0.0000 H   0  0  0  0  0  0  0  0  0  0  0  0
   -4.1569    0.8000    0.0000 C   0  0  0  0  0  0  0  0  0  0  0  0
   -5.5426    1.6000    0.0000 H   0  0  0  0  0  0  0  0  0  0  0  0
   -5.5426    0.0000    0.0000 H   0  0  0  0  0  0  0  0  0  0  0  0
   -4.1569    2.4000    0.0000 H   0  0  0  0  0  0  0  0  0  0  0  0
  1  2  2  0  0  0  0
  2  3  1  0  0  0  0
  3  4  1  0  0  0  0
  3  5  1  0  0  0  0
  3  6  1  0  0  0  0
  6  7  2  0  0  0  0
  6  8  1  0  0  0  0
  8  9  1  0  0  0  0
  8 10  1  0  0  0  0
  8 11  1  0  0  0  0
 11 12  1  0  0  0  0
 11 13  1  0  0  0  0
 11 14  1  0  0  0  0
  2 15  1  0  0  0  0
 15 16  1  0  0  0  0
 15 17  1  0  0  0  0
 15 18  1  0  0  0  0
 18 19  1  0  0  0  0
 18 20  1  0  0  0  0
 18 21  1  0  0  0  0
M  END
> <ChemID>
101122

> <source_casrn>
7424-54-6

> <CAS>
7424-54-6

> <SMILES>
CCC(=O)CC(=O)CC

> <NAME>
3,5-Heptanedione

> <preferred_name>
3,5-Heptanedione

> <iupac>
heptane-3,5-dione

> <MPID>
101104

> <dsstox_substance_id>
DTXSID1064669

> <Canonical_QSARr>
CCC(=O)CC(=O)CC

> <InChI_Code_QSARr>
InChI=1S/C7H12O2/c1-3-6(8)5-7(9)4-2/h3-5H2,1-2H3

> <InChI Key_QSARr>
DGCTVLNZTFDPDJ-UHFFFAOYSA-N

> <Salt_Solvent>
?

> <Ready_Biodeg>
1.0

$$$$
101123
  -INDIGO-08031722522D

 22 22  0  0  0  0  0  0  0  0999 V2000
    1.3857    0.8000    0.0000 C   0  0  0  0  0  0  0  0  0  0  0  0
    1.3857    2.4000    0.0000 H   0  0  0  0  0  0  0  0  0  0  0  0
    0.0001   -0.0000    0.0000 C   0  0  0  0  0  0  0  0  0  0  0  0
   -1.3856    0.8000    0.0000 C   0  0  0  0  0  0  0  0  0  0  0  0
   -1.9979    2.2782    0.0000 H   0  0  0  0  0  0  0  0  0  0  0  0
   -0.7733    2.2782    0.0000 H   0  0  0  0  0  0  0  0  0  0  0  0
   -2.7713   -0.0000    0.0000 C   0  0  0  0  0  0  0  0  0  0  0  0
   -4.1569    0.8000    0.0000 H   0  0  0  0  0  0  0  0  0  0  0  0
   -4.1569   -0.8000    0.0000 H   0  0  0  0  0  0  0  0  0  0  0  0
   -2.7713    1.6000    0.0000 H   0  0  0  0  0  0  0  0  0  0  0  0
    0.0001   -1.6000    0.0000 C   0  0  0  0  0  0  0  0  0  0  0  0
   -1.3856   -2.4000    0.0000 H   0  0  0  0  0  0  0  0  0  0  0  0
    1.3857   -2.4000    0.0000 C   0  0  0  0  0  0  0  0  0  0  0  0
    1.3857   -4.0000    0.0000 H   0  0  0  0  0  0  0  0  0  0  0  0
    2.7712   -1.6000    0.0000 C   0  0  0  0  0  0  0  0  0  0  0  0
    4.1569   -2.4000    0.0000 H   0  0  0  0  0  0  0  0  0  0  0  0
    2.7712   -0.0000    0.0000 C   0  0  0  0  0  0  0  0  0  0  0  0
    4.1569    0.8000    0.0000 C   0  0  0  0  0  0  0  0  0  0  0  0
    4.1569    2.4000    0.0000 H   0  0  0  0  0  0  0  0  0  0  0  0
    5.5425   -0.0000    0.0000 C   0  0  0  0  0  0  0  0  0  0  0  0
    6.9282    0.8000    0.0000 H   0  0  0  0  0  0  0  0  0  0  0  0
    5.5425   -1.6000    0.0000 H   0  0  0  0  0  0  0  0  0  0  0  0
  1  2  1  0  0  0  0
  1  3  1  0  0  0  0
  3  4  1  0  0  0  0
  4  5  1  0  0  0  0
  4  6  1  0  0  0  0
  4  7  1  0  0  0  0
  7  8  1  0  0  0  0
  7  9  1  0  0  0  0
  7 10  1  0  0  0  0
  3 11  2  0  0  0  0
 11 12  1  0  0  0  0
 11 13  1  0  0  0  0
 13 14  1  0  0  0  0
 13 15  2  0  0  0  0
 15 16  1  0  0  0  0
 15 17  1  0  0  0  0
 17  1  2  0  0  0  0
 17 18  1  0  0  0  0
 18 19  1  0  0  0  0
 18 20  2  0  0  0  0
 20 21  1  0  0  0  0
 20 22  1  0  0  0  0
M  END
> <ChemID>
101123

> <source_casrn>
7525-62-4

> <CAS>
7525-62-4

> <SMILES>
CCc1cc(C=C)ccc1

> <NAME>
m-Ethylstyrene

> <preferred_name>
Benzene, 1-ethenyl-3-ethyl-

> <iupac>
1-ethenyl-3-ethylbenzene

> <MPID>
101105

> <dsstox_substance_id>
DTXSID7075266

> <Canonical_QSARr>
CCc1cc(C=C)ccc1

> <InChI_Code_QSARr>
InChI=1S/C10H12/c1-3-9-6-5-7-10(4-2)8-9/h3,5-8H,1,4H2,2H3

> <InChI Key_QSARr>
XHUZSRRCICJJCN-UHFFFAOYSA-N

> <Salt_Solvent>
?

> <Ready_Biodeg>
0.0

$$$$
101124
  -INDIGO-08031722522D

 59 58  0  0  0  0  0  0  0  0999 V2000
    9.4218    2.3757    0.0000 O   0  0  0  0  0  0  0  0  0  0  0  0
    9.6995    0.7999    0.0000 C   0  0  0  0  0  0  0  0  0  0  0  0
   11.2029    0.2528    0.0000 N   0  0  0  0  0  0  0  0  0  0  0  0
   12.4287    1.2813    0.0000 C   0  0  0  0  0  0  0  0  0  0  0  0
   13.6083    0.2003    0.0000 H   0  0  0  0  0  0  0  0  0  0  0  0
   14.0271    1.3510    0.0000 H   0  0  0  0  0  0  0  0  0  0  0  0
   12.1510    2.8569    0.0000 C   0  0  0  0  0  0  0  0  0  0  0  0
   10.9710    3.9378    0.0000 H   0  0  0  0  0  0  0  0  0  0  0  0
   10.5522    2.7872    0.0000 H   0  0  0  0  0  0  0  0  0  0  0  0
   13.3764    3.8854    0.0000 O   0  0  0  0  0  0  0  0  0  0  0  0
   13.0987    5.4611    0.0000 H   0  0  0  0  0  0  0  0  0  0  0  0
   11.4809   -1.3229    0.0000 C   0  0  0  0  0  0  0  0  0  0  0  0
   10.7422   -2.7422    0.0000 H   0  0  0  0  0  0  0  0  0  0  0  0
    9.9550   -1.8041    0.0000 H   0  0  0  0  0  0  0  0  0  0  0  0
   12.9843   -1.8702    0.0000 C   0  0  0  0  0  0  0  0  0  0  0  0
   12.6381   -3.4322    0.0000 H   0  0  0  0  0  0  0  0  0  0  0  0
   13.8440   -3.2196    0.0000 H   0  0  0  0  0  0  0  0  0  0  0  0
   14.2101   -0.8417    0.0000 O   0  0  0  0  0  0  0  0  0  0  0  0
   15.7135   -1.3889    0.0000 H   0  0  0  0  0  0  0  0  0  0  0  0
    8.3139   -0.0000    0.0000 C   0  0  0  0  0  0  0  0  0  0  0  0
    8.9262   -1.4782    0.0000 H   0  0  0  0  0  0  0  0  0  0  0  0
    7.7016   -1.4782    0.0000 H   0  0  0  0  0  0  0  0  0  0  0  0
    6.9280    0.7999    0.0000 C   0  0  0  0  0  0  0  0  0  0  0  0
    6.3157    2.2782    0.0000 H   0  0  0  0  0  0  0  0  0  0  0  0
    7.5403    2.2782    0.0000 H   0  0  0  0  0  0  0  0  0  0  0  0
    5.5425   -0.0000    0.0000 C   0  0  0  0  0  0  0  0  0  0  0  0
    6.1548   -1.4782    0.0000 H   0  0  0  0  0  0  0  0  0  0  0  0
    4.9302   -1.4782    0.0000 H   0  0  0  0  0  0  0  0  0  0  0  0
    4.1570    0.7999    0.0000 C   0  0  0  0  0  0  0  0  0  0  0  0
    3.5447    2.2782    0.0000 H   0  0  0  0  0  0  0  0  0  0  0  0
    4.7693    2.2782    0.0000 H   0  0  0  0  0  0  0  0  0  0  0  0
    2.7714   -0.0000    0.0000 C   0  0  0  0  0  0  0  0  0  0  0  0
    3.3837   -1.4782    0.0000 H   0  0  0  0  0  0  0  0  0  0  0  0
    2.1591   -1.4782    0.0000 H   0  0  0  0  0  0  0  0  0  0  0  0
    1.3855    0.7999    0.0000 C   0  0  0  0  0  0  0  0  0  0  0  0
    0.7732    2.2782    0.0000 H   0  0  0  0  0  0  0  0  0  0  0  0
    1.9978    2.2782    0.0000 H   0  0  0  0  0  0  0  0  0  0  0  0
    0.0000   -0.0000    0.0000 C   0  0  0  0  0  0  0  0  0  0  0  0
    0.6123   -1.4782    0.0000 H   0  0  0  0  0  0  0  0  0  0  0  0
   -0.6123   -1.4782    0.0000 H   0  0  0  0  0  0  0  0  0  0  0  0
   -1.3855    0.7999    0.0000 C   0  0  0  0  0  0  0  0  0  0  0  0
   -1.9978    2.2782    0.0000 H   0  0  0  0  0  0  0  0  0  0  0  0
   -0.7732    2.2782    0.0000 H   0  0  0  0  0  0  0  0  0  0  0  0
   -2.7715   -0.0000    0.0000 C   0  0  0  0  0  0  0  0  0  0  0  0
   -2.1592   -1.4782    0.0000 H   0  0  0  0  0  0  0  0  0  0  0  0
   -3.3838   -1.4782    0.0000 H   0  0  0  0  0  0  0  0  0  0  0  0
   -4.1570    0.7999    0.0000 C   0  0  0  0  0  0  0  0  0  0  0  0
   -4.7693    2.2782    0.0000 H   0  0  0  0  0  0  0  0  0  0  0  0
   -3.5447    2.2782    0.0000 H   0  0  0  0  0  0  0  0  0  0  0  0
   -5.5425   -0.0000    0.0000 C   0  0  0  0  0  0  0  0  0  0  0  0
   -4.9302   -1.4782    0.0000 H   0  0  0  0  0  0  0  0  0  0  0  0
   -6.1548   -1.4782    0.0000 H   0  0  0  0  0  0  0  0  0  0  0  0
   -6.9280    0.7999    0.0000 C   0  0  0  0  0  0  0  0  0  0  0  0
   -7.5403    2.2782    0.0000 H   0  0  0  0  0  0  0  0  0  0  0  0
   -6.3157    2.2782    0.0000 H   0  0  0  0  0  0  0  0  0  0  0  0
   -8.3140   -0.0000    0.0000 C   0  0  0  0  0  0  0  0  0  0  0  0
   -9.6995   -0.8000    0.0000 H   0  0  0  0  0  0  0  0  0  0  0  0
   -9.6995    0.7999    0.0000 H   0  0  0  0  0  0  0  0  0  0  0  0
   -8.3140   -1.6000    0.0000 H   0  0  0  0  0  0  0  0  0  0  0  0
  1  2  2  0  0  0  0
  2  3  1  0  0  0  0
  3  4  1  0  0  0  0
  4  5  1  0  0  0  0
  4  6  1  0  0  0  0
  4  7  1  0  0  0  0
  7  8  1  0  0  0  0
  7  9  1  0  0  0  0
  7 10  1  0  0  0  0
 10 11  1  0  0  0  0
  3 12  1  0  0  0  0
 12 13  1  0  0  0  0
 12 14  1  0  0  0  0
 12 15  1  0  0  0  0
 15 16  1  0  0  0  0
 15 17  1  0  0  0  0
 15 18  1  0  0  0  0
 18 19  1  0  0  0  0
  2 20  1  0  0  0  0
 20 21  1  0  0  0  0
 20 22  1  0  0  0  0
 20 23  1  0  0  0  0
 23 24  1  0  0  0  0
 23 25  1  0  0  0  0
 23 26  1  0  0  0  0
 26 27  1  0  0  0  0
 26 28  1  0  0  0  0
 26 29  1  0  0  0  0
 29 30  1  0  0  0  0
 29 31  1  0  0  0  0
 29 32  1  0  0  0  0
 32 33  1  0  0  0  0
 32 34  1  0  0  0  0
 32 35  1  0  0  0  0
 35 36  1  0  0  0  0
 35 37  1  0  0  0  0
 35 38  1  0  0  0  0
 38 39  1  0  0  0  0
 38 40  1  0  0  0  0
 38 41  1  0  0  0  0
 41 42  1  0  0  0  0
 41 43  1  0  0  0  0
 41 44  1  0  0  0  0
 44 45  1  0  0  0  0
 44 46  1  0  0  0  0
 44 47  1  0  0  0  0
 47 48  1  0  0  0  0
 47 49  1  0  0  0  0
 47 50  1  0  0  0  0
 50 51  1  0  0  0  0
 50 52  1  0  0  0  0
 50 53  1  0  0  0  0
 53 54  1  0  0  0  0
 53 55  1  0  0  0  0
 53 56  1  0  0  0  0
 56 57  1  0  0  0  0
 56 58  1  0  0  0  0
 56 59  1  0  0  0  0
M  END
> <ChemID>
101124

> <source_casrn>
7545-23-5

> <CAS>
7545-23-5

> <SMILES>
CCCCCCCCCCCCCC(=O)N(CCO)CCO

> <NAME>
Tetradecanamide, N,N-bis(2-hydroxyethyl)-

> <preferred_name>
N,N-Bis(2-hydroxyethyl)tetradecamide

> <iupac>
N,N-Bis(2-hydroxyethyl)tetradecanamide

> <MPID>
101106

> <dsstox_substance_id>
DTXSID1064740

> <Canonical_QSARr>
CCCCCCCCCCCCCC(=O)N(CCO)CCO

> <InChI_Code_QSARr>
InChI=1S/C18H37NO3/c1-2-3-4-5-6-7-8-9-10-11-12-13-18(22)19(14-16-20)15-17-21/h20-21H,2-17H2,1H3

> <InChI Key_QSARr>
SKDZEPBJPGSFHS-UHFFFAOYSA-N

> <Salt_Solvent>
?

> <Ready_Biodeg>
1.0

$$$$
101126
  -INDIGO-08031722522D

 23 22  0  0  0  0  0  0  0  0999 V2000
    0.0000   -0.0000    0.0000 C   0  0  0  0  0  0  0  0  0  0  0  0
    1.6000   -0.0000    0.0000 C   0  0  0  0  0  0  0  0  0  0  0  0
    2.8694    0.9740    0.0000 H   0  0  0  0  0  0  0  0  0  0  0  0
    1.8088    1.5863    0.0000 H   0  0  0  0  0  0  0  0  0  0  0  0
    2.8256   -1.0284    0.0000 C   0  0  0  0  0  0  0  0  0  0  0  0
    4.0053    0.0525    0.0000 H   0  0  0  0  0  0  0  0  0  0  0  0
    4.4241   -1.0983    0.0000 H   0  0  0  0  0  0  0  0  0  0  0  0
    2.5478   -2.6042    0.0000 O   0  0  0  0  0  0  0  0  0  0  0  0
    3.7735   -3.6326    0.0000 H   0  0  0  0  0  0  0  0  0  0  0  0
   -1.6000   -0.0000    0.0000 C   0  0  0  0  0  0  0  0  0  0  0  0
   -1.8089    1.5863    0.0000 H   0  0  0  0  0  0  0  0  0  0  0  0
   -2.8693    0.9740    0.0000 H   0  0  0  0  0  0  0  0  0  0  0  0
   -2.4000   -1.3856    0.0000 C   0  0  0  0  0  0  0  0  0  0  0  0
   -2.1912   -2.9719    0.0000 H   0  0  0  0  0  0  0  0  0  0  0  0
   -1.1306   -2.3596    0.0000 H   0  0  0  0  0  0  0  0  0  0  0  0
   -4.0000   -1.3856    0.0000 O   0  0  0  0  0  0  0  0  0  0  0  0
   -4.8000   -2.7713    0.0000 H   0  0  0  0  0  0  0  0  0  0  0  0
    0.0000    1.6000    0.0000 C   0  0  0  0  0  0  0  0  0  0  0  0
    0.0000    3.2000    0.0000 H   0  0  0  0  0  0  0  0  0  0  0  0
   -1.2256    2.6285    0.0000 H   0  0  0  0  0  0  0  0  0  0  0  0
    1.2257    2.6285    0.0000 H   0  0  0  0  0  0  0  0  0  0  0  0
    0.0000   -1.6000    0.0000 O   0  0  0  0  0  0  0  0  0  0  0  0
    1.3856   -2.4000    0.0000 H   0  0  0  0  0  0  0  0  0  0  0  0
  1  2  1  0  0  0  0
  2  3  1  0  0  0  0
  2  4  1  0  0  0  0
  2  5  1  0  0  0  0
  5  6  1  0  0  0  0
  5  7  1  0  0  0  0
  5  8  1  0  0  0  0
  8  9  1  0  0  0  0
  1 10  1  0  0  0  0
 10 11  1  0  0  0  0
 10 12  1  0  0  0  0
 10 13  1  0  0  0  0
 13 14  1  0  0  0  0
 13 15  1  0  0  0  0
 13 16  1  0  0  0  0
 16 17  1  0  0  0  0
  1 18  1  0  0  0  0
 18 19  1  0  0  0  0
 18 20  1  0  0  0  0
 18 21  1  0  0  0  0
  1 22  1  0  0  0  0
 22 23  1  0  0  0  0
M  END
> <ChemID>
101126

> <source_casrn>
7564-64-9

> <CAS>
7564-64-9

> <SMILES>
CC(O)(CCO)CCO

> <NAME>
1,3,5-Pentanetriol, 3-methyl-

> <preferred_name>
1,3,5-Pentanetriol, 3-methyl-

> <iupac>
3-Methylpentane-1,3,5-triol

> <MPID>
101108

> <dsstox_substance_id>
DTXSID1064742

> <Canonical_QSARr>
CC(O)(CCO)CCO

> <InChI_Code_QSARr>
InChI=1S/C6H14O3/c1-6(9,2-4-7)3-5-8/h7-9H,2-5H2,1H3

> <InChI Key_QSARr>
AHHQDHCTHYTBSV-UHFFFAOYSA-N

> <Salt_Solvent>
?

> <Ready_Biodeg>
0.0

$$$$
101128
  -INDIGO-08031722522D

 33 33  0  0  0  0  0  0  0  0999 V2000
   -0.0000    0.0000    0.0000 N   0  0  0  0  0  0  0  0  0  0  0  0
    0.7999   -1.3856    0.0000 C   0  0  0  0  0  0  0  0  0  0  0  0
    2.0257   -0.3573    0.0000 H   0  0  0  0  0  0  0  0  0  0  0  0
    2.0257   -2.4140    0.0000 H   0  0  0  0  0  0  0  0  0  0  0  0
   -0.0000   -2.7713    0.0000 N   0  0  0  0  0  0  0  0  0  0  0  0
    0.7999   -4.1569    0.0000 C   0  0  0  0  0  0  0  0  0  0  0  0
    2.2782   -4.7692    0.0000 H   0  0  0  0  0  0  0  0  0  0  0  0
    2.2782   -3.5446    0.0000 H   0  0  0  0  0  0  0  0  0  0  0  0
   -0.0000   -5.5426    0.0000 C   0  0  0  0  0  0  0  0  0  0  0  0
    0.7999   -6.9282    0.0000 H   0  0  0  0  0  0  0  0  0  0  0  0
   -0.8000   -6.9282    0.0000 H   0  0  0  0  0  0  0  0  0  0  0  0
    1.6001   -5.5426    0.0000 H   0  0  0  0  0  0  0  0  0  0  0  0
   -1.6000   -2.7713    0.0000 C   0  0  0  0  0  0  0  0  0  0  0  0
   -1.3221   -4.3469    0.0000 H   0  0  0  0  0  0  0  0  0  0  0  0
   -3.1035   -3.3185    0.0000 H   0  0  0  0  0  0  0  0  0  0  0  0
   -2.4000   -1.3856    0.0000 N   0  0  0  0  0  0  0  0  0  0  0  0
   -4.0001   -1.3856    0.0000 C   0  0  0  0  0  0  0  0  0  0  0  0
   -5.2693   -2.3596    0.0000 H   0  0  0  0  0  0  0  0  0  0  0  0
   -4.2089   -2.9719    0.0000 H   0  0  0  0  0  0  0  0  0  0  0  0
   -4.8000    0.0000    0.0000 C   0  0  0  0  0  0  0  0  0  0  0  0
   -6.4000    0.0000    0.0000 H   0  0  0  0  0  0  0  0  0  0  0  0
   -5.6000    1.3856    0.0000 H   0  0  0  0  0  0  0  0  0  0  0  0
   -5.6000   -1.3856    0.0000 H   0  0  0  0  0  0  0  0  0  0  0  0
   -1.6000    0.0000    0.0000 C   0  0  0  0  0  0  0  0  0  0  0  0
   -3.1035    0.5472    0.0000 H   0  0  0  0  0  0  0  0  0  0  0  0
   -1.3221    1.5756    0.0000 H   0  0  0  0  0  0  0  0  0  0  0  0
    0.7999    1.3856    0.0000 C   0  0  0  0  0  0  0  0  0  0  0  0
    0.5911    2.9720    0.0000 H   0  0  0  0  0  0  0  0  0  0  0  0
   -0.4693    2.3597    0.0000 H   0  0  0  0  0  0  0  0  0  0  0  0
    2.4000    1.3856    0.0000 C   0  0  0  0  0  0  0  0  0  0  0  0
    3.2000    2.7713    0.0000 H   0  0  0  0  0  0  0  0  0  0  0  0
    4.0000    1.3856    0.0000 H   0  0  0  0  0  0  0  0  0  0  0  0
    1.6001    2.7713    0.0000 H   0  0  0  0  0  0  0  0  0  0  0  0
  1  2  1  0  0  0  0
  2  3  1  0  0  0  0
  2  4  1  0  0  0  0
  2  5  1  0  0  0  0
  5  6  1  0  0  0  0
  6  7  1  0  0  0  0
  6  8  1  0  0  0  0
  6  9  1  0  0  0  0
  9 10  1  0  0  0  0
  9 11  1  0  0  0  0
  9 12  1  0  0  0  0
  5 13  1  0  0  0  0
 13 14  1  0  0  0  0
 13 15  1  0  0  0  0
 13 16  1  0  0  0  0
 16 17  1  0  0  0  0
 17 18  1  0  0  0  0
 17 19  1  0  0  0  0
 17 20  1  0  0  0  0
 20 21  1  0  0  0  0
 20 22  1  0  0  0  0
 20 23  1  0  0  0  0
 16 24  1  0  0  0  0
 24  1  1  0  0  0  0
 24 25  1  0  0  0  0
 24 26  1  0  0  0  0
  1 27  1  0  0  0  0
 27 28  1  0  0  0  0
 27 29  1  0  0  0  0
 27 30  1  0  0  0  0
 30 31  1  0  0  0  0
 30 32  1  0  0  0  0
 30 33  1  0  0  0  0
M  END
> <ChemID>
101128

> <source_casrn>
7779-27-3

> <CAS>
7779-27-3

> <SMILES>
CCN1CN(CN(C1)CC)CC

> <NAME>
1,3,5-Triazine, 1,3,5-triethylhexahydro-

> <preferred_name>
1,3,5-Triethylhexahydro-s-triazine

> <iupac>
1,3,5-triethyl-1,3,5-triazinane

> <MPID>
101109

> <dsstox_substance_id>
DTXSID1032511

> <Canonical_QSARr>
CCN1CN(CN(C1)CC)CC

> <InChI_Code_QSARr>
InChI=1S/C9H21N3/c1-4-10-7-11(5-2)9-12(6-3)8-10/h4-9H2,1-3H3

> <InChI Key_QSARr>
XYRTVIAPRQLSOW-UHFFFAOYSA-N

> <Salt_Solvent>
?

> <Ready_Biodeg>
1.0

$$$$
101129
  -INDIGO-08031722522D

 22 22  0  0  0  0  0  0  0  0999 V2000
   -2.7713   -0.0000    0.0000 O   0  0  0  0  0  0  0  0  0  0  0  0
   -1.3856    0.8000    0.0000 C   0  0  0  0  0  0  0  0  0  0  0  0
   -1.3856    2.4000    0.0000 O   0  0  0  0  0  0  0  0  0  0  0  0
   -0.0001   -0.0000    0.0000 C   0  0  0  0  0  0  0  0  0  0  0  0
    1.3856    0.8000    0.0000 C   0  0  0  0  0  0  0  0  0  0  0  0
    1.3856    2.4000    0.0000 H   0  0  0  0  0  0  0  0  0  0  0  0
    2.7713   -0.0000    0.0000 C   0  0  0  0  0  0  0  0  0  0  0  0
    4.1569    0.8000    0.0000 O   0  0  0  0  0  0  0  0  0  0  0  0
    5.5426   -0.0000    0.0000 H   0  0  0  0  0  0  0  0  0  0  0  0
    2.7713   -1.6000    0.0000 C   0  0  0  0  0  0  0  0  0  0  0  0
    4.1569   -2.4000    0.0000 H   0  0  0  0  0  0  0  0  0  0  0  0
    1.3856   -2.4000    0.0000 C   0  0  0  0  0  0  0  0  0  0  0  0
    1.3856   -4.0000    0.0000 H   0  0  0  0  0  0  0  0  0  0  0  0
   -0.0001   -1.6000    0.0000 C   0  0  0  0  0  0  0  0  0  0  0  0
   -1.3856   -2.4000    0.0000 H   0  0  0  0  0  0  0  0  0  0  0  0
   -4.1570    0.8000    0.0000 C   0  0  0  0  0  0  0  0  0  0  0  0
   -3.5446    2.2782    0.0000 H   0  0  0  0  0  0  0  0  0  0  0  0
   -4.7692    2.2782    0.0000 H   0  0  0  0  0  0  0  0  0  0  0  0
   -5.5425   -0.0000    0.0000 C   0  0  0  0  0  0  0  0  0  0  0  0
   -6.9282   -0.8000    0.0000 H   0  0  0  0  0  0  0  0  0  0  0  0
   -6.9282    0.8000    0.0000 H   0  0  0  0  0  0  0  0  0  0  0  0
   -5.5425   -1.6000    0.0000 H   0  0  0  0  0  0  0  0  0  0  0  0
  1  2  1  0  0  0  0
  2  3  2  0  0  0  0
  2  4  1  0  0  0  0
  4  5  1  0  0  0  0
  5  6  1  0  0  0  0
  5  7  2  0  0  0  0
  7  8  1  0  0  0  0
  8  9  1  0  0  0  0
  7 10  1  0  0  0  0
 10 11  1  0  0  0  0
 10 12  2  0  0  0  0
 12 13  1  0  0  0  0
 12 14  1  0  0  0  0
 14  4  2  0  0  0  0
 14 15  1  0  0  0  0
  1 16  1  0  0  0  0
 16 17  1  0  0  0  0
 16 18  1  0  0  0  0
 16 19  1  0  0  0  0
 19 20  1  0  0  0  0
 19 21  1  0  0  0  0
 19 22  1  0  0  0  0
M  END
> <ChemID>
101129

> <source_casrn>
7781-98-8

> <CAS>
7781-98-8

> <SMILES>
c1c(O)cccc1C(=O)OCC

> <NAME>
ETHYL-3-HYDROXYBENZOATE

> <preferred_name>
Ethyl 3-hydroxybenzoate

> <iupac>
Ethyl 3-hydroxybenzoate

> <MPID>
101110

> <dsstox_substance_id>
DTXSID10228435

> <Canonical_QSARr>
CCOC(=O)c1cccc(O)c1

> <InChI_Code_QSARr>
InChI=1S/C9H10O3/c1-2-12-9(11)7-4-3-5-8(10)6-7/h3-6,10H,2H2,1H3

> <InChI Key_QSARr>
MWSMNBYIEBRXAL-UHFFFAOYSA-N

> <Salt_Solvent>
?

> <Ready_Biodeg>
1.0

$$$$
101131
  -INDIGO-08031722522D

 26 26  0  0  0  0  0  0  0  0999 V2000
    5.2014    2.1362    0.0000 C   0  0  0  0  0  0  0  0  0  0  0  0
    6.0014    3.5219    0.0000 H   0  0  0  0  0  0  0  0  0  0  0  0
    6.0014    0.7506    0.0000 C   0  0  0  0  0  0  0  0  0  0  0  0
    7.6014    0.7506    0.0000 H   0  0  0  0  0  0  0  0  0  0  0  0
    5.2014   -0.6350    0.0000 C   0  0  0  0  0  0  0  0  0  0  0  0
    6.0014   -2.0207    0.0000 H   0  0  0  0  0  0  0  0  0  0  0  0
    3.6014   -0.6350    0.0000 C   0  0  0  0  0  0  0  0  0  0  0  0
    2.8014   -2.0207    0.0000 Cl  0  0  0  0  0  0  0  0  0  0  0  0
    2.8014    0.7506    0.0000 C   0  0  0  0  0  0  0  0  0  0  0  0
    1.2257    1.0284    0.0000 C   0  0  0  0  0  0  0  0  0  0  0  0
    1.5720    2.5906    0.0000 H   0  0  0  0  0  0  0  0  0  0  0  0
    0.3660    2.3779    0.0000 H   0  0  0  0  0  0  0  0  0  0  0  0
   -0.0001   -0.0000    0.0000 C   0  0  0  0  0  0  0  0  0  0  0  0
   -1.2257   -1.0285    0.0000 C   0  0  0  0  0  0  0  0  0  0  0  0
   -2.4513   -2.0569    0.0000 H   0  0  0  0  0  0  0  0  0  0  0  0
   -2.7292   -0.4812    0.0000 H   0  0  0  0  0  0  0  0  0  0  0  0
   -0.9478   -2.6041    0.0000 H   0  0  0  0  0  0  0  0  0  0  0  0
   -1.0285    1.2257    0.0000 C   0  0  0  0  0  0  0  0  0  0  0  0
   -2.0569    2.4513    0.0000 H   0  0  0  0  0  0  0  0  0  0  0  0
   -0.7506    2.8014    0.0000 H   0  0  0  0  0  0  0  0  0  0  0  0
   -2.6042    0.9478    0.0000 H   0  0  0  0  0  0  0  0  0  0  0  0
    1.0285   -1.2257    0.0000 N   0  0  0  0  0  0  0  0  0  0  0  0
    2.6042   -0.9479    0.0000 H   0  0  0  0  0  0  0  0  0  0  0  0
    0.4812   -2.7292    0.0000 H   0  0  0  0  0  0  0  0  0  0  0  0
    3.6014    2.1362    0.0000 C   0  0  0  0  0  0  0  0  0  0  0  0
    2.8014    3.5219    0.0000 H   0  0  0  0  0  0  0  0  0  0  0  0
  1  2  1  0  0  0  0
  1  3  1  0  0  0  0
  3  4  1  0  0  0  0
  3  5  2  0  0  0  0
  5  6  1  0  0  0  0
  5  7  1  0  0  0  0
  7  8  1  0  0  0  0
  7  9  2  0  0  0  0
  9 10  1  0  0  0  0
 10 11  1  0  0  0  0
 10 12  1  0  0  0  0
 10 13  1  0  0  0  0
 13 14  1  0  0  0  0
 14 15  1  0  0  0  0
 14 16  1  0  0  0  0
 14 17  1  0  0  0  0
 13 18  1  0  0  0  0
 18 19  1  0  0  0  0
 18 20  1  0  0  0  0
 18 21  1  0  0  0  0
 13 22  1  0  0  0  0
 22 23  1  0  0  0  0
 22 24  1  0  0  0  0
  9 25  1  0  0  0  0
 25  1  2  0  0  0  0
 25 26  1  0  0  0  0
M  END
> <ChemID>
101131

> <source_casrn>
10389-73-8

> <CAS>
10389-73-8

> <SMILES>
CC(C)(N)Cc1ccccc1Cl

> <NAME>
Clortermine

> <preferred_name>
Clortermine

> <iupac>
1-(2-chlorophenyl)-2-methylpropan-2-amine

> <MPID>
101112

> <dsstox_substance_id>
DTXSID0022850

> <Canonical_QSARr>
CC(C)(N)Cc1ccccc1Cl

> <InChI_Code_QSARr>
InChI=1S/C10H14ClN/c1-10(2,12)7-8-5-3-4-6-9(8)11/h3-6H,7,12H2,1-2H3

> <InChI Key_QSARr>
HXCXASJHZQXCKK-UHFFFAOYSA-N

> <Salt_Solvent>
?

> <Ready_Biodeg>
0.0

$$$$
101133
  -INDIGO-08031722522D

 20 20  0  0  0  0  0  0  0  0999 V2000
    2.7713   -0.0000    0.0000 C   0  0  0  0  0  0  0  0  0  0  0  0
    4.1569   -0.8000    0.0000 H   0  0  0  0  0  0  0  0  0  0  0  0
    4.1569    0.8000    0.0000 H   0  0  0  0  0  0  0  0  0  0  0  0
    2.7713   -1.6000    0.0000 H   0  0  0  0  0  0  0  0  0  0  0  0
    1.3856    0.8000    0.0000 N   0  0  0  0  0  0  0  0  0  0  0  0
    1.3856    2.4000    0.0000 H   0  0  0  0  0  0  0  0  0  0  0  0
   -0.0001   -0.0000    0.0000 C   0  0  0  0  0  0  0  0  0  0  0  0
   -0.0001   -1.6000    0.0000 C   0  0  0  0  0  0  0  0  0  0  0  0
    1.3856   -2.4000    0.0000 H   0  0  0  0  0  0  0  0  0  0  0  0
   -1.3856   -2.4000    0.0000 C   0  0  0  0  0  0  0  0  0  0  0  0
   -1.3856   -4.0000    0.0000 H   0  0  0  0  0  0  0  0  0  0  0  0
   -2.7712   -1.6000    0.0000 C   0  0  0  0  0  0  0  0  0  0  0  0
   -4.1569   -2.4000    0.0000 C   0  0  0  0  0  0  0  0  0  0  0  0
   -5.5425   -1.6000    0.0000 O   0  0  0  0  0  0  0  0  0  0  0  0
   -6.9282   -2.4000    0.0000 H   0  0  0  0  0  0  0  0  0  0  0  0
   -4.1569   -4.0000    0.0000 O   0  0  0  0  0  0  0  0  0  0  0  0
   -2.7712   -0.0000    0.0000 C   0  0  0  0  0  0  0  0  0  0  0  0
   -4.1569    0.8000    0.0000 H   0  0  0  0  0  0  0  0  0  0  0  0
   -1.3856    0.8000    0.0000 C   0  0  0  0  0  0  0  0  0  0  0  0
   -1.3856    2.4000    0.0000 H   0  0  0  0  0  0  0  0  0  0  0  0
  1  2  1  0  0  0  0
  1  3  1  0  0  0  0
  1  4  1  0  0  0  0
  1  5  1  0  0  0  0
  5  6  1  0  0  0  0
  5  7  1  0  0  0  0
  7  8  1  0  0  0  0
  8  9  1  0  0  0  0
  8 10  2  0  0  0  0
 10 11  1  0  0  0  0
 10 12  1  0  0  0  0
 12 13  1  0  0  0  0
 13 14  1  0  0  0  0
 14 15  1  0  0  0  0
 13 16  2  0  0  0  0
 12 17  2  0  0  0  0
 17 18  1  0  0  0  0
 17 19  1  0  0  0  0
 19  7  2  0  0  0  0
 19 20  1  0  0  0  0
M  END
> <ChemID>
101133

> <source_casrn>
10541-83-0

> <CAS>
10541-83-0

> <SMILES>
CNc1ccc(cc1)C(O)=O

> <NAME>
Benzoic acid, 4-(methylamino)-

> <preferred_name>
Benzoic acid, 4-(methylamino)-

> <iupac>
4-Methylaminobenzoic acid

> <MPID>
101114

> <dsstox_substance_id>
DTXSID8065117

> <Canonical_QSARr>
CNc1ccc(cc1)C(O)=O

> <InChI_Code_QSARr>
InChI=1S/C8H9NO2/c1-9-7-4-2-6(3-5-7)8(10)11/h2-5,9H,1H3,(H,10,11)

> <InChI Key_QSARr>
ZVIDMSBTYRSMAR-UHFFFAOYSA-N

> <Salt_Solvent>
?

> <Ready_Biodeg>
0.0

$$$$
101134
  -INDIGO-08031722522D

 23 24  0  0  0  0  0  0  0  0999 V2000
   -3.9179    1.3383    0.0000 N   0  0  0  0  0  0  0  0  0  0  0  0
   -3.9179    2.9383    0.0000 H   0  0  0  0  0  0  0  0  0  0  0  0
   -5.3035    0.5382    0.0000 C   0  0  0  0  0  0  0  0  0  0  0  0
   -5.3035   -1.0617    0.0000 O   0  0  0  0  0  0  0  0  0  0  0  0
   -6.6891    1.3383    0.0000 O   0  0  0  0  0  0  0  0  0  0  0  0
   -8.0749    0.5382    0.0000 C   0  0  0  0  0  0  0  0  0  0  0  0
   -9.4605   -0.2617    0.0000 H   0  0  0  0  0  0  0  0  0  0  0  0
   -9.4605    1.3383    0.0000 H   0  0  0  0  0  0  0  0  0  0  0  0
   -8.0749   -1.0617    0.0000 H   0  0  0  0  0  0  0  0  0  0  0  0
   -2.5323    0.5382    0.0000 C   0  0  0  0  0  0  0  0  0  0  0  0
   -2.3649   -1.0530    0.0000 N   0  0  0  0  0  0  0  0  0  0  0  0
   -0.8001   -1.3857    0.0000 C   0  0  0  0  0  0  0  0  0  0  0  0
   -0.0000    0.0000    0.0000 C   0  0  0  0  0  0  0  0  0  0  0  0
    1.6000    0.0000    0.0000 C   0  0  0  0  0  0  0  0  0  0  0  0
    2.4000    1.3856    0.0000 H   0  0  0  0  0  0  0  0  0  0  0  0
    2.4000   -1.3857    0.0000 C   0  0  0  0  0  0  0  0  0  0  0  0
    4.0000   -1.3857    0.0000 H   0  0  0  0  0  0  0  0  0  0  0  0
    1.6000   -2.7712    0.0000 C   0  0  0  0  0  0  0  0  0  0  0  0
    2.4000   -4.1569    0.0000 H   0  0  0  0  0  0  0  0  0  0  0  0
   -0.0000   -2.7712    0.0000 C   0  0  0  0  0  0  0  0  0  0  0  0
   -0.8001   -4.1569    0.0000 H   0  0  0  0  0  0  0  0  0  0  0  0
   -1.0706    1.1890    0.0000 N   0  0  0  0  0  0  0  0  0  0  0  0
   -0.7380    2.7541    0.0000 H   0  0  0  0  0  0  0  0  0  0  0  0
  1  2  1  0  0  0  0
  1  3  1  0  0  0  0
  3  4  2  0  0  0  0
  3  5  1  0  0  0  0
  5  6  1  0  0  0  0
  6  7  1  0  0  0  0
  6  8  1  0  0  0  0
  6  9  1  0  0  0  0
  1 10  1  0  0  0  0
 10 11  2  0  0  0  0
 11 12  1  0  0  0  0
 12 13  1  0  0  0  0
 13 14  2  0  0  0  0
 14 15  1  0  0  0  0
 14 16  1  0  0  0  0
 16 17  1  0  0  0  0
 16 18  2  0  0  0  0
 18 19  1  0  0  0  0
 18 20  1  0  0  0  0
 20 12  2  0  0  0  0
 20 21  1  0  0  0  0
 13 22  1  0  0  0  0
 22 10  1  0  0  0  0
 22 23  1  0  0  0  0
M  END
> <ChemID>
101134

> <source_casrn>
10605-21-7

> <CAS>
10605-21-7

> <SMILES>
COC(=O)Nc1[nH]c2ccccc2[n]1

> <NAME>
Carbendazim

> <preferred_name>
Carbendazim

> <iupac>
methyl 1H-benzimidazol-2-ylcarbamate

> <MPID>
101115

> <dsstox_substance_id>
DTXSID4024729

> <Canonical_QSARr>
COC(=O)Nc1[nH]c2ccccc2[n]1

> <InChI_Code_QSARr>
InChI=1S/C9H9N3O2/c1-14-9(13)12-8-10-6-4-2-3-5-7(6)11-8/h2-5H,1H3,(H2,10,11,12,13)

> <InChI Key_QSARr>
TWFZGCMQGLPBSX-UHFFFAOYSA-N

> <Salt_Solvent>
?

> <Ready_Biodeg>
0.0

$$$$
101135
  -INDIGO-08031722522D

 18 17  0  0  0  0  0  0  0  0999 V2000
    4.1569   -0.8000    0.0000 S   0  0  0  0  0  0  0  0  0  0  0  0
    5.5426    0.0000    0.0000 H   0  0  0  0  0  0  0  0  0  0  0  0
    2.7713    0.0000    0.0000 C   0  0  0  0  0  0  0  0  0  0  0  0
    2.7713    1.6000    0.0000 S   0  0  0  0  0  0  0  0  0  0  0  0
    1.3856   -0.8000    0.0000 N   0  0  0  0  0  0  0  0  0  0  0  0
    1.3856   -2.4000    0.0000 H   0  0  0  0  0  0  0  0  0  0  0  0
   -0.0001    0.0000    0.0000 C   0  0  0  0  0  0  0  0  0  0  0  0
    0.6123    1.4782    0.0000 H   0  0  0  0  0  0  0  0  0  0  0  0
   -0.6122    1.4782    0.0000 H   0  0  0  0  0  0  0  0  0  0  0  0
   -1.3856   -0.8000    0.0000 C   0  0  0  0  0  0  0  0  0  0  0  0
   -1.9979   -2.2782    0.0000 H   0  0  0  0  0  0  0  0  0  0  0  0
   -0.7734   -2.2782    0.0000 H   0  0  0  0  0  0  0  0  0  0  0  0
   -2.7713    0.0000    0.0000 N   0  0  0  0  0  0  0  0  0  0  0  0
   -2.7713    1.6000    0.0000 H   0  0  0  0  0  0  0  0  0  0  0  0
   -4.1570   -0.8000    0.0000 C   0  0  0  0  0  0  0  0  0  0  0  0
   -5.5425    0.0000    0.0000 S   0  0  0  0  0  0  0  0  0  0  0  0
   -6.9282   -0.8000    0.0000 H   0  0  0  0  0  0  0  0  0  0  0  0
   -4.1570   -2.4000    0.0000 S   0  0  0  0  0  0  0  0  0  0  0  0
  1  2  1  0  0  0  0
  1  3  1  0  0  0  0
  3  4  2  0  0  0  0
  3  5  1  0  0  0  0
  5  6  1  0  0  0  0
  5  7  1  0  0  0  0
  7  8  1  0  0  0  0
  7  9  1  0  0  0  0
  7 10  1  0  0  0  0
 10 11  1  0  0  0  0
 10 12  1  0  0  0  0
 10 13  1  0  0  0  0
 13 14  1  0  0  0  0
 13 15  1  0  0  0  0
 15 16  1  0  0  0  0
 16 17  1  0  0  0  0
 15 18  2  0  0  0  0
M  END
> <ChemID>
101135

> <source_casrn>
12427-38-2

> <CAS>
12427-38-2

> <SMILES>
[Mn+2].[S-]C(=S)NCCNC([S-])=S

> <NAME>
Maneb

> <preferred_name>
Maneb

> <iupac>
manganese(2+) ethane-1,2-diyldicarbamodithioate

> <MPID>
101116

> <dsstox_substance_id>
DTXSID9020794

> <Canonical_QSARr>
SC(=S)NCCNC(S)=S

> <InChI_Code_QSARr>
InChI=1S/C4H8N2S4/c7-3(8)5-1-2-6-4(9)10/h1-2H2,(H2,5,7,8)(H2,6,9,10)

> <InChI Key_QSARr>
AWYFNIZYMPNGAI-UHFFFAOYSA-N

> <Salt_Solvent>
[Mn+2]

> <Ready_Biodeg>
0.0

$$$$
101138
  -INDIGO-08031722522D

 22 23  0  0  0  0  0  0  0  0999 V2000
   -0.0001    0.0000    0.0000 C   0  0  0  0  0  0  0  0  0  0  0  0
    1.6001   -0.0000    0.0000 C   0  0  0  0  0  0  0  0  0  0  0  0
    2.4001   -1.3856    0.0000 C   0  0  0  0  0  0  0  0  0  0  0  0
    1.6001   -2.7713    0.0000 Cl  0  0  0  0  0  0  0  0  0  0  0  0
    4.0000   -1.3856    0.0000 C   0  0  0  0  0  0  0  0  0  0  0  0
    4.8000   -2.7713    0.0000 H   0  0  0  0  0  0  0  0  0  0  0  0
    4.8000    0.0000    0.0000 C   0  0  0  0  0  0  0  0  0  0  0  0
    6.4000    0.0000    0.0000 H   0  0  0  0  0  0  0  0  0  0  0  0
    4.0000    1.3856    0.0000 C   0  0  0  0  0  0  0  0  0  0  0  0
    4.8000    2.7713    0.0000 H   0  0  0  0  0  0  0  0  0  0  0  0
    2.4001    1.3856    0.0000 C   0  0  0  0  0  0  0  0  0  0  0  0
    1.6001    2.7713    0.0000 H   0  0  0  0  0  0  0  0  0  0  0  0
   -0.8001    1.3856    0.0000 C   0  0  0  0  0  0  0  0  0  0  0  0
   -0.0001    2.7713    0.0000 Cl  0  0  0  0  0  0  0  0  0  0  0  0
   -2.4000    1.3856    0.0000 C   0  0  0  0  0  0  0  0  0  0  0  0
   -3.2000    2.7713    0.0000 H   0  0  0  0  0  0  0  0  0  0  0  0
   -3.2000    0.0000    0.0000 C   0  0  0  0  0  0  0  0  0  0  0  0
   -4.8000   -0.0000    0.0000 H   0  0  0  0  0  0  0  0  0  0  0  0
   -2.4000   -1.3856    0.0000 C   0  0  0  0  0  0  0  0  0  0  0  0
   -3.2000   -2.7713    0.0000 H   0  0  0  0  0  0  0  0  0  0  0  0
   -0.8001   -1.3856    0.0000 C   0  0  0  0  0  0  0  0  0  0  0  0
   -0.0001   -2.7713    0.0000 H   0  0  0  0  0  0  0  0  0  0  0  0
  1  2  1  0  0  0  0
  2  3  1  0  0  0  0
  3  4  1  0  0  0  0
  3  5  2  0  0  0  0
  5  6  1  0  0  0  0
  5  7  1  0  0  0  0
  7  8  1  0  0  0  0
  7  9  2  0  0  0  0
  9 10  1  0  0  0  0
  9 11  1  0  0  0  0
 11  2  2  0  0  0  0
 11 12  1  0  0  0  0
  1 13  1  0  0  0  0
 13 14  1  0  0  0  0
 13 15  2  0  0  0  0
 15 16  1  0  0  0  0
 15 17  1  0  0  0  0
 17 18  1  0  0  0  0
 17 19  2  0  0  0  0
 19 20  1  0  0  0  0
 19 21  1  0  0  0  0
 21  1  2  0  0  0  0
 21 22  1  0  0  0  0
M  END
> <ChemID>
101138

> <source_casrn>
13029-08-8

> <CAS>
13029-08-8

> <SMILES>
Clc1ccccc1-c1ccccc1Cl

> <NAME>
2,2'-DICHLORO-1,1'-BIPHENYL

> <preferred_name>
2,2'-Dichlorobiphenyl

> <iupac>
2,2'-dichlorobiphenyl

> <MPID>
101119

> <dsstox_substance_id>
DTXSID4044533

> <Canonical_QSARr>
Clc1ccccc1-c1ccccc1Cl

> <InChI_Code_QSARr>
InChI=1S/C12H8Cl2/c13-11-7-3-1-5-9(11)10-6-2-4-8-12(10)14/h1-8H

> <InChI Key_QSARr>
JAYCNKDKIKZTAF-UHFFFAOYSA-N

> <Salt_Solvent>
?

> <Ready_Biodeg>
0.0

$$$$
101139
  -INDIGO-08031722522D

 11 10  0  0  0  0  0  0  0  0999 V2000
    1.3856    0.8000    0.0000 C   0  0  0  0  0  0  0  0  0  0  0  0
    2.7713    1.6000    0.0000 H   0  0  0  0  0  0  0  0  0  0  0  0
    2.7713    0.0000    0.0000 H   0  0  0  0  0  0  0  0  0  0  0  0
    0.0000    0.0000    0.0000 C   0  0  0  0  0  0  0  0  0  0  0  0
   -1.3856    0.8000    0.0000 C   0  0  0  0  0  0  0  0  0  0  0  0
   -2.7713    1.6000    0.0000 H   0  0  0  0  0  0  0  0  0  0  0  0
   -2.7713    0.0000    0.0000 H   0  0  0  0  0  0  0  0  0  0  0  0
   -1.3856    2.4000    0.0000 Cl  0  0  0  0  0  0  0  0  0  0  0  0
    0.6123   -1.4782    0.0000 Cl  0  0  0  0  0  0  0  0  0  0  0  0
   -0.6123   -1.4782    0.0000 Cl  0  0  0  0  0  0  0  0  0  0  0  0
    1.3856    2.4000    0.0000 Cl  0  0  0  0  0  0  0  0  0  0  0  0
  1  2  1  0  0  0  0
  1  3  1  0  0  0  0
  1  4  1  0  0  0  0
  4  5  1  0  0  0  0
  5  6  1  0  0  0  0
  5  7  1  0  0  0  0
  5  8  1  0  0  0  0
  4  9  1  0  0  0  0
  4 10  1  0  0  0  0
  1 11  1  0  0  0  0
M  END
> <ChemID>
101139

> <source_casrn>
13116-53-5

> <CAS>
13116-53-5

> <SMILES>
ClC(Cl)(CCl)CCl

> <NAME>
Propane, 1,2,2,3-tetrachloro-

> <preferred_name>
1,2,2,3-Tetrachloropropane

> <iupac>
1,2,2,3-tetrachloropropane

> <MPID>
101120

> <dsstox_substance_id>
DTXSID5051656

> <Canonical_QSARr>
ClC(Cl)(CCl)CCl

> <InChI_Code_QSARr>
InChI=1S/C3H4Cl4/c4-1-3(6,7)2-5/h1-2H2

> <InChI Key_QSARr>
UDPHJTAYHSSOQB-UHFFFAOYSA-N

> <Salt_Solvent>
?

> <Ready_Biodeg>
0.0

$$$$
101140
  -INDIGO-08031722522D

 60 62  0  0  0  0  0  0  0  0999 V2000
   -0.0001    0.0000    0.0000 C   0  0  0  0  0  0  0  0  0  0  0  0
    1.6001    0.0000    0.0000 C   0  0  0  0  0  0  0  0  0  0  0  0
    0.9492    1.4616    0.0000 H   0  0  0  0  0  0  0  0  0  0  0  0
    2.3999   -1.3856    0.0000 C   0  0  0  0  0  0  0  0  0  0  0  0
    3.3404   -2.6800    0.0000 H   0  0  0  0  0  0  0  0  0  0  0  0
    3.9650   -1.0530    0.0000 C   0  0  0  0  0  0  0  0  0  0  0  0
    4.1323    0.5382    0.0000 N   0  0  0  0  0  0  0  0  0  0  0  0
    2.6706    1.1890    0.0000 C   0  0  0  0  0  0  0  0  0  0  0  0
    2.3379    2.7540    0.0000 O   0  0  0  0  0  0  0  0  0  0  0  0
    5.5180    1.3382    0.0000 C   0  0  0  0  0  0  0  0  0  0  0  0
    6.1302    2.8165    0.0000 H   0  0  0  0  0  0  0  0  0  0  0  0
    4.9057    2.8165    0.0000 H   0  0  0  0  0  0  0  0  0  0  0  0
    6.9037    0.5382    0.0000 C   0  0  0  0  0  0  0  0  0  0  0  0
    6.1036   -0.8474    0.0000 H   0  0  0  0  0  0  0  0  0  0  0  0
    8.2891   -0.2618    0.0000 C   0  0  0  0  0  0  0  0  0  0  0  0
    7.4296   -1.6112    0.0000 H   0  0  0  0  0  0  0  0  0  0  0  0
    8.6355   -1.8238    0.0000 H   0  0  0  0  0  0  0  0  0  0  0  0
    9.8893   -0.2618    0.0000 C   0  0  0  0  0  0  0  0  0  0  0  0
   11.1586    0.7122    0.0000 H   0  0  0  0  0  0  0  0  0  0  0  0
   10.0982    1.3246    0.0000 H   0  0  0  0  0  0  0  0  0  0  0  0
   10.6891   -1.6474    0.0000 C   0  0  0  0  0  0  0  0  0  0  0  0
    9.4198   -2.6214    0.0000 H   0  0  0  0  0  0  0  0  0  0  0  0
   10.4802   -3.2337    0.0000 H   0  0  0  0  0  0  0  0  0  0  0  0
   12.2893   -1.6474    0.0000 C   0  0  0  0  0  0  0  0  0  0  0  0
   13.8892   -1.6474    0.0000 H   0  0  0  0  0  0  0  0  0  0  0  0
   13.0891   -3.0331    0.0000 H   0  0  0  0  0  0  0  0  0  0  0  0
   13.0891   -0.2618    0.0000 H   0  0  0  0  0  0  0  0  0  0  0  0
    7.7035    1.9239    0.0000 C   0  0  0  0  0  0  0  0  0  0  0  0
    9.1817    1.3116    0.0000 H   0  0  0  0  0  0  0  0  0  0  0  0
    9.1817    2.5362    0.0000 H   0  0  0  0  0  0  0  0  0  0  0  0
    6.9037    3.3095    0.0000 C   0  0  0  0  0  0  0  0  0  0  0  0
    7.7035    4.6952    0.0000 H   0  0  0  0  0  0  0  0  0  0  0  0
    6.1036    4.6952    0.0000 H   0  0  0  0  0  0  0  0  0  0  0  0
    8.5036    3.3095    0.0000 H   0  0  0  0  0  0  0  0  0  0  0  0
    5.1540   -2.1236    0.0000 O   0  0  0  0  0  0  0  0  0  0  0  0
    1.6001   -2.7713    0.0000 C   0  0  0  0  0  0  0  0  0  0  0  0
   -0.0001   -2.7713    0.0000 C   0  0  0  0  0  0  0  0  0  0  0  0
   -0.3509   -3.5755    0.0000 H   0  0  0  0  0  0  0  0  0  0  0  0
   -1.5035   -3.3185    0.0000 H   0  0  0  0  0  0  0  0  0  0  0  0
   -0.7999   -1.3856    0.0000 C   0  0  0  0  0  0  0  0  0  0  0  0
   -2.0257   -2.4141    0.0000 H   0  0  0  0  0  0  0  0  0  0  0  0
   -1.6719   -1.2877    0.0000 H   0  0  0  0  0  0  0  0  0  0  0  0
    2.3999   -4.1569    0.0000 C   0  0  0  0  0  0  0  0  0  0  0  0
    3.2000   -5.5426    0.0000 H   0  0  0  0  0  0  0  0  0  0  0  0
    1.6001   -5.5426    0.0000 H   0  0  0  0  0  0  0  0  0  0  0  0
    4.0001   -4.1569    0.0000 H   0  0  0  0  0  0  0  0  0  0  0  0
    0.5256   -2.2370    0.0000 C   0  0  0  0  0  0  0  0  0  0  0  0
    0.4233   -3.1084    0.0000 H   0  0  0  0  0  0  0  0  0  0  0  0
   -0.0744   -1.1977    0.0000 C   0  0  0  0  0  0  0  0  0  0  0  0
   -0.8803   -0.8506    0.0000 H   0  0  0  0  0  0  0  0  0  0  0  0
   -0.7999    1.3857    0.0000 C   0  0  0  0  0  0  0  0  0  0  0  0
    0.4257    2.4141    0.0000 H   0  0  0  0  0  0  0  0  0  0  0  0
   -1.3471    2.8891    0.0000 C   0  0  0  0  0  0  0  0  0  0  0  0
   -1.8944    4.3927    0.0000 H   0  0  0  0  0  0  0  0  0  0  0  0
   -2.9231    3.1670    0.0000 H   0  0  0  0  0  0  0  0  0  0  0  0
   -0.3187    4.1148    0.0000 H   0  0  0  0  0  0  0  0  0  0  0  0
   -2.1856    0.5857    0.0000 C   0  0  0  0  0  0  0  0  0  0  0  0
   -3.5713    1.3857    0.0000 H   0  0  0  0  0  0  0  0  0  0  0  0
   -3.5713   -0.2143    0.0000 H   0  0  0  0  0  0  0  0  0  0  0  0
   -2.1856    2.1857    0.0000 H   0  0  0  0  0  0  0  0  0  0  0  0
  1  2  1  0  0  0  0
  2  3  1  0  0  0  0
  2  4  1  0  0  0  0
  4  5  1  0  0  0  0
  4  6  1  0  0  0  0
  6  7  1  0  0  0  0
  7  8  1  0  0  0  0
  8  2  1  0  0  0  0
  8  9  2  0  0  0  0
  7 10  1  0  0  0  0
 10 11  1  0  0  0  0
 10 12  1  0  0  0  0
 10 13  1  0  0  0  0
 13 14  1  0  0  0  0
 13 15  1  0  0  0  0
 15 16  1  0  0  0  0
 15 17  1  0  0  0  0
 15 18  1  0  0  0  0
 18 19  1  0  0  0  0
 18 20  1  0  0  0  0
 18 21  1  0  0  0  0
 21 22  1  0  0  0  0
 21 23  1  0  0  0  0
 21 24  1  0  0  0  0
 24 25  1  0  0  0  0
 24 26  1  0  0  0  0
 24 27  1  0  0  0  0
 13 28  1  0  0  0  0
 28 29  1  0  0  0  0
 28 30  1  0  0  0  0
 28 31  1  0  0  0  0
 31 32  1  0  0  0  0
 31 33  1  0  0  0  0
 31 34  1  0  0  0  0
  6 35  2  0  0  0  0
  4 36  1  0  0  0  0
 36 37  1  0  0  0  0
 37 38  1  0  0  0  0
 37 39  1  0  0  0  0
 37 40  1  0  0  0  0
 40  1  1  0  0  0  0
 40 41  1  0  0  0  0
 40 42  1  0  0  0  0
 36 43  1  0  0  0  0
 43 44  1  0  0  0  0
 43 45  1  0  0  0  0
 43 46  1  0  0  0  0
 36 47  1  0  0  0  0
 47 48  1  0  0  0  0
 47 49  2  0  0  0  0
 49  1  1  0  0  0  0
 49 50  1  0  0  0  0
  1 51  1  0  0  0  0
 51 52  1  0  0  0  0
 51 53  1  0  0  0  0
 53 54  1  0  0  0  0
 53 55  1  0  0  0  0
 53 56  1  0  0  0  0
 51 57  1  0  0  0  0
 57 58  1  0  0  0  0
 57 59  1  0  0  0  0
 57 60  1  0  0  0  0
M  END
> <ChemID>
101140

> <source_casrn>
13358-11-7

> <CAS>
13358-11-7

> <SMILES>
C1=CC(C(C)C)(CC2)C3C(=O)N(CC(CC)CCCC)C(=O)C3C12C

> <NAME>
N(2-EtHexyl)-1-isopropyl-4-methylbicyclo[2.2.2]-octa-5-ene-2,3-dicarb

> <preferred_name>
N-(2-Ethylhexyl)-1-isopropyl-4-methylbiclyclo[2:2:2]oct-5-ene-2,3-dicarboximide

> <iupac>
2-(2-ethylhexyl)-4-methyl-7-(propan-2-yl)-3a,4,7,7a-tetrahydro-1H-4,7-ethanoisoindole-1,3(2H)-dione

> <MPID>
101121

> <dsstox_substance_id>
DTXSID9042176

> <Canonical_QSARr>
CC12CCC(C=C1)(C1C2C(=O)N(CC(CCCC)CC)C1=O)C(C)C

> <InChI_Code_QSARr>
InChI=1S/C22H35NO2/c1-6-8-9-16(7-2)14-23-19(24)17-18(20(23)25)22(15(3)4)12-10-21(17,5)11-13-22/h10,12,15-18H,6-9,11,13-14H2,1-5H3

> <InChI Key_QSARr>
MVKYQJHRHHQPDM-UHFFFAOYSA-N

> <Salt_Solvent>
?

> <Ready_Biodeg>
0.0

$$$$
101142
  -INDIGO-08031722522D

 42 46  0  0  0  0  0  0  0  0999 V2000
    0.0001    0.0000    0.0000 C   0  0  0  0  0  0  0  0  0  0  0  0
    0.0419    1.5995    0.0000 H   0  0  0  0  0  0  0  0  0  0  0  0
   -1.3418    0.8714    0.0000 C   0  0  0  0  0  0  0  0  0  0  0  0
   -0.5907    2.2841    0.0000 H   0  0  0  0  0  0  0  0  0  0  0  0
   -2.0682    2.2970    0.0000 H   0  0  0  0  0  0  0  0  0  0  0  0
   -2.9069    0.5388    0.0000 C   0  0  0  0  0  0  0  0  0  0  0  0
   -3.1019    2.1269    0.0000 H   0  0  0  0  0  0  0  0  0  0  0  0
   -4.1678    1.5238    0.0000 H   0  0  0  0  0  0  0  0  0  0  0  0
   -3.7783   -0.8031    0.0000 C   0  0  0  0  0  0  0  0  0  0  0  0
   -4.4672    0.6410    0.0000 H   0  0  0  0  0  0  0  0  0  0  0  0
   -3.4458   -2.3682    0.0000 C   0  0  0  0  0  0  0  0  0  0  0  0
   -3.4876   -3.9676    0.0000 H   0  0  0  0  0  0  0  0  0  0  0  0
   -4.8313   -3.1682    0.0000 C   0  0  0  0  0  0  0  0  0  0  0  0
   -6.4225   -3.0009    0.0000 C   0  0  0  0  0  0  0  0  0  0  0  0
   -7.4931   -4.1899    0.0000 Cl  0  0  0  0  0  0  0  0  0  0  0  0
   -6.7553   -1.4358    0.0000 C   0  0  0  0  0  0  0  0  0  0  0  0
   -8.2169   -0.7851    0.0000 Cl  0  0  0  0  0  0  0  0  0  0  0  0
   -5.3695   -0.6359    0.0000 C   0  0  0  0  0  0  0  0  0  0  0  0
   -5.7023    0.9291    0.0000 Cl  0  0  0  0  0  0  0  0  0  0  0  0
   -6.0204   -2.0975    0.0000 C   0  0  0  0  0  0  0  0  0  0  0  0
   -7.5960   -1.8197    0.0000 Cl  0  0  0  0  0  0  0  0  0  0  0  0
   -7.3468   -2.9923    0.0000 Cl  0  0  0  0  0  0  0  0  0  0  0  0
   -4.4987   -4.7332    0.0000 Cl  0  0  0  0  0  0  0  0  0  0  0  0
   -2.1038   -3.2396    0.0000 C   0  0  0  0  0  0  0  0  0  0  0  0
   -2.8550   -4.6523    0.0000 H   0  0  0  0  0  0  0  0  0  0  0  0
   -1.3775   -4.6652    0.0000 H   0  0  0  0  0  0  0  0  0  0  0  0
   -0.5388   -2.9069    0.0000 C   0  0  0  0  0  0  0  0  0  0  0  0
   -0.3438   -4.4950    0.0000 H   0  0  0  0  0  0  0  0  0  0  0  0
    0.7221   -3.8919    0.0000 H   0  0  0  0  0  0  0  0  0  0  0  0
    0.3326   -1.5651    0.0000 C   0  0  0  0  0  0  0  0  0  0  0  0
    1.0215   -3.0092    0.0000 H   0  0  0  0  0  0  0  0  0  0  0  0
    1.9239   -1.7323    0.0000 C   0  0  0  0  0  0  0  0  0  0  0  0
    3.3096   -0.9323    0.0000 C   0  0  0  0  0  0  0  0  0  0  0  0
    2.9768    0.6328    0.0000 C   0  0  0  0  0  0  0  0  0  0  0  0
    4.0474    1.8217    0.0000 Cl  0  0  0  0  0  0  0  0  0  0  0  0
    1.3856    0.8000    0.0000 C   0  0  0  0  0  0  0  0  0  0  0  0
    2.5747   -0.2706    0.0000 C   0  0  0  0  0  0  0  0  0  0  0  0
    4.1503   -0.5484    0.0000 Cl  0  0  0  0  0  0  0  0  0  0  0  0
    3.9012    0.6241    0.0000 Cl  0  0  0  0  0  0  0  0  0  0  0  0
    1.0530    2.3650    0.0000 Cl  0  0  0  0  0  0  0  0  0  0  0  0
    4.7712   -1.5830    0.0000 Cl  0  0  0  0  0  0  0  0  0  0  0  0
    2.2566   -3.2973    0.0000 Cl  0  0  0  0  0  0  0  0  0  0  0  0
  1  2  1  0  0  0  0
  1  3  1  0  0  0  0
  3  4  1  0  0  0  0
  3  5  1  0  0  0  0
  3  6  1  0  0  0  0
  6  7  1  0  0  0  0
  6  8  1  0  0  0  0
  6  9  1  0  0  0  0
  9 10  1  0  0  0  0
  9 11  1  0  0  0  0
 11 12  1  0  0  0  0
 11 13  1  0  0  0  0
 13 14  1  0  0  0  0
 14 15  1  0  0  0  0
 14 16  2  0  0  0  0
 16 17  1  0  0  0  0
 16 18  1  0  0  0  0
 18  9  1  0  0  0  0
 18 19  1  0  0  0  0
 18 20  1  0  0  0  0
 20 13  1  0  0  0  0
 20 21  1  0  0  0  0
 20 22  1  0  0  0  0
 13 23  1  0  0  0  0
 11 24  1  0  0  0  0
 24 25  1  0  0  0  0
 24 26  1  0  0  0  0
 24 27  1  0  0  0  0
 27 28  1  0  0  0  0
 27 29  1  0  0  0  0
 27 30  1  0  0  0  0
 30  1  1  0  0  0  0
 30 31  1  0  0  0  0
 30 32  1  0  0  0  0
 32 33  1  0  0  0  0
 33 34  2  0  0  0  0
 34 35  1  0  0  0  0
 34 36  1  0  0  0  0
 36  1  1  0  0  0  0
 36 37  1  0  0  0  0
 37 32  1  0  0  0  0
 37 38  1  0  0  0  0
 37 39  1  0  0  0  0
 36 40  1  0  0  0  0
 33 41  1  0  0  0  0
 32 42  1  0  0  0  0
M  END
> <ChemID>
101142

> <source_casrn>
13560-89-9

> <CAS>
13560-89-9

> <SMILES>
C(=C(C(C1(Cl)Cl)(C(C2CCC(C(C(=C(C34Cl)Cl)Cl)(C3(Cl)Cl)Cl)C4C5)C5)Cl)Cl)(C12Cl)Cl

> <NAME>
1,4:7,10-Dimethanodibenzo a,e cyclooctene, 1,2,3,4,7,8,9,10,13,13,14,

> <preferred_name>
1,4:7,10-Dimethanodibenzo[a,e]cyclooctene, 1,2,3,4,7,8,9,10,13,13,14,14-dodecachloro-1,4,4a,5,6,6a,7,10,10a,11,12,12a-dodecahydro-

> <iupac>
1,2,3,4,7,8,9,10,13,13,14,14-dodecachloro-1,4,4a,5,6,6a,7,10,10a,11,12,12a-dodecahydro-1,4:7,10-dimethanodibenzo[a,e][8]annulene

> <MPID>
101123

> <dsstox_substance_id>
DTXSID7027750

> <Canonical_QSARr>
ClC1(Cl)C2(Cl)C3CCC4C(CCC3C1(Cl)C(Cl)=C2Cl)C1(Cl)C(Cl)=C(Cl)C4(Cl)C1(Cl)Cl

> <InChI_Code_QSARr>
InChI=1S/C18H12Cl12/c19-9-10(20)15(25)7-3-4-8-6(2-1-5(7)13(9,23)17(15,27)28)14(24)11(21)12(22)16(8,26)18(14,29)30/h5-8H,1-4H2

> <InChI Key_QSARr>
UGQQAJOWXNCOPY-UHFFFAOYSA-N

> <Salt_Solvent>
?

> <Ready_Biodeg>
0.0

$$$$
101143
  -INDIGO-08031722522D

 25 24  0  0  0  0  0  0  0  0999 V2000
   -2.6284   -1.2257    0.0000 C   0  0  0  0  0  0  0  0  0  0  0  0
   -2.0813   -2.7292    0.0000 O   0  0  0  0  0  0  0  0  0  0  0  0
   -1.5999   -0.0000    0.0000 O   0  0  0  0  0  0  0  0  0  0  0  0
   -0.0000   -0.0000    0.0000 C   0  0  0  0  0  0  0  0  0  0  0  0
    1.6000   -0.0000    0.0000 H   0  0  0  0  0  0  0  0  0  0  0  0
   -0.0000   -1.6000    0.0000 C   0  0  0  0  0  0  0  0  0  0  0  0
   -1.5863   -1.8089    0.0000 H   0  0  0  0  0  0  0  0  0  0  0  0
   -0.9740   -2.8694    0.0000 H   0  0  0  0  0  0  0  0  0  0  0  0
    1.3857   -2.4000    0.0000 C   0  0  0  0  0  0  0  0  0  0  0  0
    2.7713   -3.2000    0.0000 H   0  0  0  0  0  0  0  0  0  0  0  0
    1.3857   -4.0000    0.0000 H   0  0  0  0  0  0  0  0  0  0  0  0
    2.7713   -1.6000    0.0000 H   0  0  0  0  0  0  0  0  0  0  0  0
   -0.0000    1.6000    0.0000 C   0  0  0  0  0  0  0  0  0  0  0  0
   -0.0000    3.2000    0.0000 H   0  0  0  0  0  0  0  0  0  0  0  0
    1.3857    2.4000    0.0000 H   0  0  0  0  0  0  0  0  0  0  0  0
   -1.3856    2.4000    0.0000 H   0  0  0  0  0  0  0  0  0  0  0  0
   -4.2041   -0.9478    0.0000 C   0  0  0  0  0  0  0  0  0  0  0  0
   -4.1343    0.6507    0.0000 H   0  0  0  0  0  0  0  0  0  0  0  0
   -5.2852    0.2318    0.0000 H   0  0  0  0  0  0  0  0  0  0  0  0
   -5.2326   -2.1735    0.0000 C   0  0  0  0  0  0  0  0  0  0  0  0
   -6.8083   -1.8956    0.0000 C   0  0  0  0  0  0  0  0  0  0  0  0
   -8.3840   -1.6178    0.0000 H   0  0  0  0  0  0  0  0  0  0  0  0
   -7.8367   -3.1213    0.0000 H   0  0  0  0  0  0  0  0  0  0  0  0
   -7.3555   -0.3921    0.0000 H   0  0  0  0  0  0  0  0  0  0  0  0
   -4.6853   -3.6770    0.0000 O   0  0  0  0  0  0  0  0  0  0  0  0
  1  2  2  0  0  0  0
  1  3  1  0  0  0  0
  3  4  1  0  0  0  0
  4  5  1  0  0  0  0
  4  6  1  0  0  0  0
  6  7  1  0  0  0  0
  6  8  1  0  0  0  0
  6  9  1  0  0  0  0
  9 10  1  0  0  0  0
  9 11  1  0  0  0  0
  9 12  1  0  0  0  0
  4 13  1  0  0  0  0
 13 14  1  0  0  0  0
 13 15  1  0  0  0  0
 13 16  1  0  0  0  0
  1 17  1  0  0  0  0
 17 18  1  0  0  0  0
 17 19  1  0  0  0  0
 17 20  1  0  0  0  0
 20 21  1  0  0  0  0
 21 22  1  0  0  0  0
 21 23  1  0  0  0  0
 21 24  1  0  0  0  0
 20 25  2  0  0  0  0
M  END
> <ChemID>
101143

> <source_casrn>
13562-76-0

> <CAS>
13562-76-0

> <SMILES>
O=C(OC(C)CC)CC(=O)C

> <NAME>
BUTANOIC ACID, 3-OXO-, 1-METHYLPROPYL ESTER

> <preferred_name>


> <iupac>


> <MPID>
101124

> <dsstox_substance_id>
DTXSID30875763

> <Canonical_QSARr>
CC(=O)CC(=O)OC(C)CC

> <InChI_Code_QSARr>
InChI=1S/C8H14O3/c1-4-7(3)11-8(10)5-6(2)9/h7H,4-5H2,1-3H3

> <InChI Key_QSARr>
QSTNBMLCULGCQE-UHFFFAOYSA-N

> <Salt_Solvent>
?

> <Ready_Biodeg>
1.0

$$$$
101144
  -INDIGO-08031722522D

 22 23  0  0  0  0  0  0  0  0999 V2000
   -0.0001    0.0000    0.0000 C   0  0  0  0  0  0  0  0  0  0  0  0
    1.6001   -0.0000    0.0000 C   0  0  0  0  0  0  0  0  0  0  0  0
    2.4001   -1.3856    0.0000 C   0  0  0  0  0  0  0  0  0  0  0  0
    1.6001   -2.7713    0.0000 Br  0  0  0  0  0  0  0  0  0  0  0  0
    4.0000   -1.3856    0.0000 C   0  0  0  0  0  0  0  0  0  0  0  0
    4.8000   -2.7713    0.0000 Br  0  0  0  0  0  0  0  0  0  0  0  0
    4.8000    0.0000    0.0000 C   0  0  0  0  0  0  0  0  0  0  0  0
    6.4000    0.0000    0.0000 Br  0  0  0  0  0  0  0  0  0  0  0  0
    4.0000    1.3856    0.0000 C   0  0  0  0  0  0  0  0  0  0  0  0
    4.8000    2.7713    0.0000 Br  0  0  0  0  0  0  0  0  0  0  0  0
    2.4001    1.3856    0.0000 C   0  0  0  0  0  0  0  0  0  0  0  0
    1.6001    2.7713    0.0000 Br  0  0  0  0  0  0  0  0  0  0  0  0
   -0.8001    1.3856    0.0000 C   0  0  0  0  0  0  0  0  0  0  0  0
   -0.0001    2.7713    0.0000 Br  0  0  0  0  0  0  0  0  0  0  0  0
   -2.4000    1.3856    0.0000 C   0  0  0  0  0  0  0  0  0  0  0  0
   -3.2000    2.7713    0.0000 Br  0  0  0  0  0  0  0  0  0  0  0  0
   -3.2000    0.0000    0.0000 C   0  0  0  0  0  0  0  0  0  0  0  0
   -4.8000   -0.0000    0.0000 Br  0  0  0  0  0  0  0  0  0  0  0  0
   -2.4000   -1.3856    0.0000 C   0  0  0  0  0  0  0  0  0  0  0  0
   -3.2000   -2.7713    0.0000 Br  0  0  0  0  0  0  0  0  0  0  0  0
   -0.8001   -1.3856    0.0000 C   0  0  0  0  0  0  0  0  0  0  0  0
   -0.0001   -2.7713    0.0000 Br  0  0  0  0  0  0  0  0  0  0  0  0
  1  2  1  0  0  0  0
  2  3  1  0  0  0  0
  3  4  1  0  0  0  0
  3  5  2  0  0  0  0
  5  6  1  0  0  0  0
  5  7  1  0  0  0  0
  7  8  1  0  0  0  0
  7  9  2  0  0  0  0
  9 10  1  0  0  0  0
  9 11  1  0  0  0  0
 11  2  2  0  0  0  0
 11 12  1  0  0  0  0
  1 13  1  0  0  0  0
 13 14  1  0  0  0  0
 13 15  2  0  0  0  0
 15 16  1  0  0  0  0
 15 17  1  0  0  0  0
 17 18  1  0  0  0  0
 17 19  2  0  0  0  0
 19 20  1  0  0  0  0
 19 21  1  0  0  0  0
 21  1  2  0  0  0  0
 21 22  1  0  0  0  0
M  END
> <ChemID>
101144

> <source_casrn>
13654-09-6

> <CAS>
13654-09-6

> <SMILES>
Brc1c(-c2c(Br)c(Br)c(Br)c(Br)c2Br)c(Br)c(Br)c(Br)c1Br

> <NAME>
1,1'-Biphenyl, 2,2',3,3',4,4',5,5',6,6'-decabromo-

> <preferred_name>
1,1'-Biphenyl, 2,2',3,3',4,4',5,5',6,6'-decabromo-

> <iupac>
1,2,3,4,5-pentabromo-6-(2,3,4,5,6-pentabromophenyl)benzene

> <MPID>
101125

> <dsstox_substance_id>
DTXSID9065572

> <Canonical_QSARr>
Brc1c(-c2c(Br)c(Br)c(Br)c(Br)c2Br)c(Br)c(Br)c(Br)c1Br

> <InChI_Code_QSARr>
InChI=1S/C12Br10/c13-3-1(4(14)8(18)11(21)7(3)17)2-5(15)9(19)12(22)10(20)6(2)16

> <InChI Key_QSARr>
AQPHBYQUCKHJLT-UHFFFAOYSA-N

> <Salt_Solvent>
?

> <Ready_Biodeg>
0.0

$$$$
101146
  -INDIGO-08031722522D

 35 34  0  0  0  0  0  0  0  0999 V2000
   -0.0000    3.2000    0.0000 O   0  0  0  0  0  0  0  0  0  0  0  0
   -1.3857    2.3999    0.0000 P   0  0  0  0  0  0  0  0  0  0  0  0
   -1.3857    4.0000    0.0000 O   0  0  0  0  0  0  0  0  0  0  0  0
   -0.1600    5.0285    0.0000 C   0  0  0  0  0  0  0  0  0  0  0  0
    0.8685    3.8028    0.0000 H   0  0  0  0  0  0  0  0  0  0  0  0
    1.0657    6.0569    0.0000 C   0  0  0  0  0  0  0  0  0  0  0  0
    2.2914    7.0854    0.0000 H   0  0  0  0  0  0  0  0  0  0  0  0
    0.7878    7.6326    0.0000 H   0  0  0  0  0  0  0  0  0  0  0  0
    2.5691    5.5097    0.0000 Cl  0  0  0  0  0  0  0  0  0  0  0  0
   -1.1885    6.2541    0.0000 C   0  0  0  0  0  0  0  0  0  0  0  0
   -2.2169    7.4798    0.0000 H   0  0  0  0  0  0  0  0  0  0  0  0
   -2.7641    5.9764    0.0000 H   0  0  0  0  0  0  0  0  0  0  0  0
   -0.6413    7.7576    0.0000 Cl  0  0  0  0  0  0  0  0  0  0  0  0
   -2.7712    3.2000    0.0000 O   0  0  0  0  0  0  0  0  0  0  0  0
   -4.1569    2.3999    0.0000 C   0  0  0  0  0  0  0  0  0  0  0  0
   -3.3569    1.0143    0.0000 H   0  0  0  0  0  0  0  0  0  0  0  0
   -5.5425    1.6000    0.0000 C   0  0  0  0  0  0  0  0  0  0  0  0
   -6.9282    0.8000    0.0000 H   0  0  0  0  0  0  0  0  0  0  0  0
   -6.9282    2.3999    0.0000 H   0  0  0  0  0  0  0  0  0  0  0  0
   -5.5425   -0.0001    0.0000 Cl  0  0  0  0  0  0  0  0  0  0  0  0
   -4.7041    3.9035    0.0000 C   0  0  0  0  0  0  0  0  0  0  0  0
   -6.2799    4.1814    0.0000 H   0  0  0  0  0  0  0  0  0  0  0  0
   -5.7326    2.6778    0.0000 H   0  0  0  0  0  0  0  0  0  0  0  0
   -5.2514    5.4071    0.0000 Cl  0  0  0  0  0  0  0  0  0  0  0  0
   -0.0000    1.6000    0.0000 O   0  0  0  0  0  0  0  0  0  0  0  0
   -0.0000   -0.0001    0.0000 C   0  0  0  0  0  0  0  0  0  0  0  0
   -0.0000   -1.6000    0.0000 H   0  0  0  0  0  0  0  0  0  0  0  0
    1.6000   -0.0001    0.0000 C   0  0  0  0  0  0  0  0  0  0  0  0
    3.2000   -0.0001    0.0000 H   0  0  0  0  0  0  0  0  0  0  0  0
    2.4001   -1.3857    0.0000 H   0  0  0  0  0  0  0  0  0  0  0  0
    2.4001    1.3857    0.0000 Cl  0  0  0  0  0  0  0  0  0  0  0  0
   -1.6001   -0.0001    0.0000 C   0  0  0  0  0  0  0  0  0  0  0  0
   -3.1999   -0.0001    0.0000 H   0  0  0  0  0  0  0  0  0  0  0  0
   -2.4000   -1.3857    0.0000 H   0  0  0  0  0  0  0  0  0  0  0  0
   -2.4000    1.3857    0.0000 Cl  0  0  0  0  0  0  0  0  0  0  0  0
  1  2  2  0  0  0  0
  2  3  1  0  0  0  0
  3  4  1  0  0  0  0
  4  5  1  0  0  0  0
  4  6  1  0  0  0  0
  6  7  1  0  0  0  0
  6  8  1  0  0  0  0
  6  9  1  0  0  0  0
  4 10  1  0  0  0  0
 10 11  1  0  0  0  0
 10 12  1  0  0  0  0
 10 13  1  0  0  0  0
  2 14  1  0  0  0  0
 14 15  1  0  0  0  0
 15 16  1  0  0  0  0
 15 17  1  0  0  0  0
 17 18  1  0  0  0  0
 17 19  1  0  0  0  0
 17 20  1  0  0  0  0
 15 21  1  0  0  0  0
 21 22  1  0  0  0  0
 21 23  1  0  0  0  0
 21 24  1  0  0  0  0
  2 25  1  0  0  0  0
 25 26  1  0  0  0  0
 26 27  1  0  0  0  0
 26 28  1  0  0  0  0
 28 29  1  0  0  0  0
 28 30  1  0  0  0  0
 28 31  1  0  0  0  0
 26 32  1  0  0  0  0
 32 33  1  0  0  0  0
 32 34  1  0  0  0  0
 32 35  1  0  0  0  0
M  END
> <ChemID>
101146

> <source_casrn>
13674-87-8

> <CAS>
13674-87-8

> <SMILES>
O=P(OC(CCl)CCl)(OC(CCl)CCl)OC(CCl)CCl

> <NAME>
2-Propanol, 1,3-dichloro-, phosphate (3:1)

> <preferred_name>
TDCPP

> <iupac>
C9H15Cl6O4P

> <MPID>
101127

> <dsstox_substance_id>
DTXSID9026261

> <Canonical_QSARr>
O=P(OC(CCl)CCl)(OC(CCl)CCl)OC(CCl)CCl

> <InChI_Code_QSARr>
InChI=1S/C9H15Cl6O4P/c10-1-7(2-11)17-20(16,18-8(3-12)4-13)19-9(5-14)6-15/h7-9H,1-6H2

> <InChI Key_QSARr>
ASLWPAWFJZFCKF-UHFFFAOYSA-N

> <Salt_Solvent>
?

> <Ready_Biodeg>
0.0

$$$$
101147
  -INDIGO-08031722522D

 30 31  0  0  0  0  0  0  0  0999 V2000
    0.0000    2.7713    0.0000 C   0  0  0  0  0  0  0  0  0  0  0  0
    0.8000    4.1569    0.0000 H   0  0  0  0  0  0  0  0  0  0  0  0
   -0.8000    4.1569    0.0000 H   0  0  0  0  0  0  0  0  0  0  0  0
    1.6000    2.7713    0.0000 H   0  0  0  0  0  0  0  0  0  0  0  0
   -0.8000    1.3856    0.0000 C   0  0  0  0  0  0  0  0  0  0  0  0
   -2.4000    1.3856    0.0000 C   0  0  0  0  0  0  0  0  0  0  0  0
   -3.2000    2.7713    0.0000 Cl  0  0  0  0  0  0  0  0  0  0  0  0
   -3.2000   -0.0000    0.0000 C   0  0  0  0  0  0  0  0  0  0  0  0
   -4.8000   -0.0000    0.0000 H   0  0  0  0  0  0  0  0  0  0  0  0
   -2.4000   -1.3856    0.0000 C   0  0  0  0  0  0  0  0  0  0  0  0
   -3.2000   -2.7712    0.0000 H   0  0  0  0  0  0  0  0  0  0  0  0
   -0.8000   -1.3856    0.0000 C   0  0  0  0  0  0  0  0  0  0  0  0
    0.0000   -2.7712    0.0000 H   0  0  0  0  0  0  0  0  0  0  0  0
    0.0000   -0.0000    0.0000 C   0  0  0  0  0  0  0  0  0  0  0  0
    1.6000   -0.0000    0.0000 N   0  0  0  0  0  0  0  0  0  0  0  0
    2.1473    1.5035    0.0000 H   0  0  0  0  0  0  0  0  0  0  0  0
    2.8256   -1.0285    0.0000 C   0  0  0  0  0  0  0  0  0  0  0  0
    4.3291   -0.4812    0.0000 C   0  0  0  0  0  0  0  0  0  0  0  0
    4.6071    1.0945    0.0000 C   0  0  0  0  0  0  0  0  0  0  0  0
    6.1104    1.6417    0.0000 O   0  0  0  0  0  0  0  0  0  0  0  0
    7.3362    0.6132    0.0000 H   0  0  0  0  0  0  0  0  0  0  0  0
    3.3814    2.1230    0.0000 O   0  0  0  0  0  0  0  0  0  0  0  0
    5.5549   -1.5097    0.0000 C   0  0  0  0  0  0  0  0  0  0  0  0
    7.0584   -0.9625    0.0000 H   0  0  0  0  0  0  0  0  0  0  0  0
    5.2769   -3.0853    0.0000 C   0  0  0  0  0  0  0  0  0  0  0  0
    6.5027   -4.1138    0.0000 H   0  0  0  0  0  0  0  0  0  0  0  0
    3.7736   -3.6326    0.0000 C   0  0  0  0  0  0  0  0  0  0  0  0
    3.4956   -5.2083    0.0000 H   0  0  0  0  0  0  0  0  0  0  0  0
    2.5478   -2.6042    0.0000 C   0  0  0  0  0  0  0  0  0  0  0  0
    1.0443   -3.1513    0.0000 H   0  0  0  0  0  0  0  0  0  0  0  0
  1  2  1  0  0  0  0
  1  3  1  0  0  0  0
  1  4  1  0  0  0  0
  1  5  1  0  0  0  0
  5  6  1  0  0  0  0
  6  7  1  0  0  0  0
  6  8  2  0  0  0  0
  8  9  1  0  0  0  0
  8 10  1  0  0  0  0
 10 11  1  0  0  0  0
 10 12  2  0  0  0  0
 12 13  1  0  0  0  0
 12 14  1  0  0  0  0
 14  5  2  0  0  0  0
 14 15  1  0  0  0  0
 15 16  1  0  0  0  0
 15 17  1  0  0  0  0
 17 18  1  0  0  0  0
 18 19  1  0  0  0  0
 19 20  1  0  0  0  0
 20 21  1  0  0  0  0
 19 22  2  0  0  0  0
 18 23  2  0  0  0  0
 23 24  1  0  0  0  0
 23 25  1  0  0  0  0
 25 26  1  0  0  0  0
 25 27  2  0  0  0  0
 27 28  1  0  0  0  0
 27 29  1  0  0  0  0
 29 17  2  0  0  0  0
 29 30  1  0  0  0  0
M  END
> <ChemID>
101147

> <source_casrn>
13710-19-5

> <CAS>
13710-19-5

> <SMILES>
Cc1c(Cl)cccc1Nc1ccccc1C(O)=O

> <NAME>
Tolfenamic acid

> <preferred_name>
Tolfenamic acid

> <iupac>
2-[(3-chloro-2-methylphenyl)amino]benzoic acid

> <MPID>
101128

> <dsstox_substance_id>
DTXSID1045409

> <Canonical_QSARr>
Cc1c(Cl)cccc1Nc1ccccc1C(O)=O

> <InChI_Code_QSARr>
InChI=1S/C14H12ClNO2/c1-9-11(15)6-4-8-12(9)16-13-7-3-2-5-10(13)14(17)18/h2-8,16H,1H3,(H,17,18)

> <InChI Key_QSARr>
YEZNLOUZAIOMLT-UHFFFAOYSA-N

> <Salt_Solvent>
?

> <Ready_Biodeg>
0.0

$$$$
101148
  -INDIGO-08031722522D

 39 41  0  0  0  0  0  0  0  0999 V2000
    5.5425   -0.0000    0.0000 C   0  0  0  0  0  0  0  0  0  0  0  0
    6.9281    0.8000    0.0000 C   0  0  0  0  0  0  0  0  0  0  0  0
    6.9281    2.4000    0.0000 O   0  0  0  0  0  0  0  0  0  0  0  0
    8.3140   -0.0000    0.0000 C   0  0  0  0  0  0  0  0  0  0  0  0
    9.6996    0.8000    0.0000 C   0  0  0  0  0  0  0  0  0  0  0  0
    9.6996    2.4000    0.0000 H   0  0  0  0  0  0  0  0  0  0  0  0
   11.0852   -0.0000    0.0000 C   0  0  0  0  0  0  0  0  0  0  0  0
   12.4708    0.8000    0.0000 H   0  0  0  0  0  0  0  0  0  0  0  0
   11.0852   -1.6000    0.0000 C   0  0  0  0  0  0  0  0  0  0  0  0
   12.4708   -2.4000    0.0000 H   0  0  0  0  0  0  0  0  0  0  0  0
    9.6996   -2.4000    0.0000 C   0  0  0  0  0  0  0  0  0  0  0  0
    9.6996   -4.0000    0.0000 H   0  0  0  0  0  0  0  0  0  0  0  0
    8.3140   -1.6000    0.0000 C   0  0  0  0  0  0  0  0  0  0  0  0
    6.9281   -2.4000    0.0000 C   0  0  0  0  0  0  0  0  0  0  0  0
    6.9281   -4.0000    0.0000 O   0  0  0  0  0  0  0  0  0  0  0  0
    5.5425   -1.6000    0.0000 C   0  0  0  0  0  0  0  0  0  0  0  0
    4.1569   -2.4000    0.0000 C   0  0  0  0  0  0  0  0  0  0  0  0
    4.1569   -4.0000    0.0000 H   0  0  0  0  0  0  0  0  0  0  0  0
    2.7713   -1.6000    0.0000 C   0  0  0  0  0  0  0  0  0  0  0  0
    1.3857   -2.4000    0.0000 H   0  0  0  0  0  0  0  0  0  0  0  0
    2.7713   -0.0000    0.0000 C   0  0  0  0  0  0  0  0  0  0  0  0
    1.3857    0.8000    0.0000 C   0  0  0  0  0  0  0  0  0  0  0  0
    1.9978    2.2782    0.0000 H   0  0  0  0  0  0  0  0  0  0  0  0
    0.7733    2.2782    0.0000 H   0  0  0  0  0  0  0  0  0  0  0  0
    0.0001   -0.0000    0.0000 C   0  0  0  0  0  0  0  0  0  0  0  0
   -0.6123   -1.4782    0.0000 H   0  0  0  0  0  0  0  0  0  0  0  0
    0.6122   -1.4782    0.0000 H   0  0  0  0  0  0  0  0  0  0  0  0
   -1.3858    0.8000    0.0000 C   0  0  0  0  0  0  0  0  0  0  0  0
   -0.7734    2.2782    0.0000 H   0  0  0  0  0  0  0  0  0  0  0  0
   -1.9979    2.2782    0.0000 H   0  0  0  0  0  0  0  0  0  0  0  0
   -2.7714   -0.0000    0.0000 C   0  0  0  0  0  0  0  0  0  0  0  0
   -3.3835   -1.4782    0.0000 H   0  0  0  0  0  0  0  0  0  0  0  0
   -2.1590   -1.4782    0.0000 H   0  0  0  0  0  0  0  0  0  0  0  0
   -4.1570    0.8000    0.0000 C   0  0  0  0  0  0  0  0  0  0  0  0
   -5.5426    1.6000    0.0000 H   0  0  0  0  0  0  0  0  0  0  0  0
   -5.5426   -0.0000    0.0000 H   0  0  0  0  0  0  0  0  0  0  0  0
   -4.1570    2.4000    0.0000 H   0  0  0  0  0  0  0  0  0  0  0  0
    4.1569    0.8000    0.0000 C   0  0  0  0  0  0  0  0  0  0  0  0
    4.1569    2.4000    0.0000 H   0  0  0  0  0  0  0  0  0  0  0  0
  1  2  1  0  0  0  0
  2  3  2  0  0  0  0
  2  4  1  0  0  0  0
  4  5  1  0  0  0  0
  5  6  1  0  0  0  0
  5  7  2  0  0  0  0
  7  8  1  0  0  0  0
  7  9  1  0  0  0  0
  9 10  1  0  0  0  0
  9 11  2  0  0  0  0
 11 12  1  0  0  0  0
 11 13  1  0  0  0  0
 13  4  2  0  0  0  0
 13 14  1  0  0  0  0
 14 15  2  0  0  0  0
 14 16  1  0  0  0  0
 16  1  1  0  0  0  0
 16 17  2  0  0  0  0
 17 18  1  0  0  0  0
 17 19  1  0  0  0  0
 19 20  1  0  0  0  0
 19 21  2  0  0  0  0
 21 22  1  0  0  0  0
 22 23  1  0  0  0  0
 22 24  1  0  0  0  0
 22 25  1  0  0  0  0
 25 26  1  0  0  0  0
 25 27  1  0  0  0  0
 25 28  1  0  0  0  0
 28 29  1  0  0  0  0
 28 30  1  0  0  0  0
 28 31  1  0  0  0  0
 31 32  1  0  0  0  0
 31 33  1  0  0  0  0
 31 34  1  0  0  0  0
 34 35  1  0  0  0  0
 34 36  1  0  0  0  0
 34 37  1  0  0  0  0
 21 38  1  0  0  0  0
 38  1  2  0  0  0  0
 38 39  1  0  0  0  0
M  END
> <ChemID>
101148

> <source_casrn>
13936-21-5

> <CAS>
13936-21-5

> <SMILES>
CCCCCc1cc2c(cc1)C(=O)c1ccccc1C2=O

> <NAME>
9,10-Anthracenedione, 2-pentyl-

> <preferred_name>
9,10-Anthracenedione, 2-pentyl-

> <iupac>
2-pentylanthracene-9,10-dione

> <MPID>
101129

> <dsstox_substance_id>
DTXSID1065681

> <Canonical_QSARr>
CCCCCc1cc2c(cc1)C(=O)c1ccccc1C2=O

> <InChI_Code_QSARr>
InChI=1S/C19H18O2/c1-2-3-4-7-13-10-11-16-17(12-13)19(21)15-9-6-5-8-14(15)18(16)20/h5-6,8-12H,2-4,7H2,1H3

> <InChI Key_QSARr>
UMWZLYTVXQBTTE-UHFFFAOYSA-N

> <Salt_Solvent>
?

> <Ready_Biodeg>
0.0

$$$$
101150
  -INDIGO-08031722522D

104103  0  0  0  0  0  0  0  0999 V2000
   -0.0002    0.0000    0.0000 C   0  0  0  0  0  0  0  0  0  0  0  0
    0.6125    1.4782    0.0000 H   0  0  0  0  0  0  0  0  0  0  0  0
   -0.6122    1.4782    0.0000 H   0  0  0  0  0  0  0  0  0  0  0  0
    1.3859   -0.8000    0.0000 C   0  0  0  0  0  0  0  0  0  0  0  0
    0.7731   -2.2782    0.0000 H   0  0  0  0  0  0  0  0  0  0  0  0
    1.9979   -2.2782    0.0000 H   0  0  0  0  0  0  0  0  0  0  0  0
    2.7712    0.0000    0.0000 C   0  0  0  0  0  0  0  0  0  0  0  0
    3.3839    1.4782    0.0000 H   0  0  0  0  0  0  0  0  0  0  0  0
    2.1592    1.4782    0.0000 H   0  0  0  0  0  0  0  0  0  0  0  0
    4.1572   -0.8000    0.0000 C   0  0  0  0  0  0  0  0  0  0  0  0
    3.5445   -2.2782    0.0000 H   0  0  0  0  0  0  0  0  0  0  0  0
    4.7692   -2.2782    0.0000 H   0  0  0  0  0  0  0  0  0  0  0  0
    5.5426    0.0000    0.0000 C   0  0  0  0  0  0  0  0  0  0  0  0
    6.1546    1.4782    0.0000 H   0  0  0  0  0  0  0  0  0  0  0  0
    4.9306    1.4782    0.0000 H   0  0  0  0  0  0  0  0  0  0  0  0
    6.9279   -0.8000    0.0000 C   0  0  0  0  0  0  0  0  0  0  0  0
    6.3159   -2.2782    0.0000 H   0  0  0  0  0  0  0  0  0  0  0  0
    7.5406   -2.2782    0.0000 H   0  0  0  0  0  0  0  0  0  0  0  0
    8.3139    0.0000    0.0000 C   0  0  0  0  0  0  0  0  0  0  0  0
    8.9259    1.4782    0.0000 H   0  0  0  0  0  0  0  0  0  0  0  0
    7.7012    1.4782    0.0000 H   0  0  0  0  0  0  0  0  0  0  0  0
    9.6993   -0.8000    0.0000 C   0  0  0  0  0  0  0  0  0  0  0  0
    9.0873   -2.2782    0.0000 H   0  0  0  0  0  0  0  0  0  0  0  0
   10.3120   -2.2782    0.0000 H   0  0  0  0  0  0  0  0  0  0  0  0
   11.0853    0.0000    0.0000 C   0  0  0  0  0  0  0  0  0  0  0  0
   11.6973    1.4782    0.0000 H   0  0  0  0  0  0  0  0  0  0  0  0
   10.4726    1.4782    0.0000 H   0  0  0  0  0  0  0  0  0  0  0  0
   12.4707   -0.8000    0.0000 C   0  0  0  0  0  0  0  0  0  0  0  0
   11.8587   -2.2782    0.0000 H   0  0  0  0  0  0  0  0  0  0  0  0
   13.0834   -2.2782    0.0000 H   0  0  0  0  0  0  0  0  0  0  0  0
   13.8567    0.0000    0.0000 C   0  0  0  0  0  0  0  0  0  0  0  0
   14.4687    1.4782    0.0000 H   0  0  0  0  0  0  0  0  0  0  0  0
   13.2440    1.4782    0.0000 H   0  0  0  0  0  0  0  0  0  0  0  0
   15.2420   -0.8000    0.0000 C   0  0  0  0  0  0  0  0  0  0  0  0
   14.6301   -2.2782    0.0000 H   0  0  0  0  0  0  0  0  0  0  0  0
   15.8540   -2.2782    0.0000 H   0  0  0  0  0  0  0  0  0  0  0  0
   16.6274    0.0000    0.0000 C   0  0  0  0  0  0  0  0  0  0  0  0
   17.2401    1.4782    0.0000 H   0  0  0  0  0  0  0  0  0  0  0  0
   16.0154    1.4782    0.0000 H   0  0  0  0  0  0  0  0  0  0  0  0
   18.0134   -0.8000    0.0000 C   0  0  0  0  0  0  0  0  0  0  0  0
   17.4007   -2.2782    0.0000 H   0  0  0  0  0  0  0  0  0  0  0  0
   18.6254   -2.2782    0.0000 H   0  0  0  0  0  0  0  0  0  0  0  0
   19.3988    0.0000    0.0000 C   0  0  0  0  0  0  0  0  0  0  0  0
   20.0115    1.4782    0.0000 H   0  0  0  0  0  0  0  0  0  0  0  0
   18.7868    1.4782    0.0000 H   0  0  0  0  0  0  0  0  0  0  0  0
   20.7848   -0.8000    0.0000 C   0  0  0  0  0  0  0  0  0  0  0  0
   20.1721   -2.2782    0.0000 H   0  0  0  0  0  0  0  0  0  0  0  0
   21.3968   -2.2782    0.0000 H   0  0  0  0  0  0  0  0  0  0  0  0
   22.1701    0.0000    0.0000 C   0  0  0  0  0  0  0  0  0  0  0  0
   22.7829    1.4782    0.0000 H   0  0  0  0  0  0  0  0  0  0  0  0
   21.5581    1.4782    0.0000 H   0  0  0  0  0  0  0  0  0  0  0  0
   23.5562   -0.8000    0.0000 C   0  0  0  0  0  0  0  0  0  0  0  0
   24.9415   -1.6000    0.0000 H   0  0  0  0  0  0  0  0  0  0  0  0
   24.9415    0.0000    0.0000 H   0  0  0  0  0  0  0  0  0  0  0  0
   23.5562   -2.4000    0.0000 H   0  0  0  0  0  0  0  0  0  0  0  0
   -1.3855   -0.8000    0.0000 C   0  0  0  0  0  0  0  0  0  0  0  0
   -1.9983   -2.2782    0.0000 H   0  0  0  0  0  0  0  0  0  0  0  0
   -0.7735   -2.2782    0.0000 H   0  0  0  0  0  0  0  0  0  0  0  0
   -2.7716    0.0000    0.0000 C   0  0  0  0  0  0  0  0  0  0  0  0
   -2.1589    1.4782    0.0000 H   0  0  0  0  0  0  0  0  0  0  0  0
   -3.3836    1.4782    0.0000 H   0  0  0  0  0  0  0  0  0  0  0  0
   -4.1569   -0.8000    0.0000 C   0  0  0  0  0  0  0  0  0  0  0  0
   -4.7689   -2.2782    0.0000 H   0  0  0  0  0  0  0  0  0  0  0  0
   -3.5449   -2.2782    0.0000 H   0  0  0  0  0  0  0  0  0  0  0  0
   -5.5422    0.0000    0.0000 C   0  0  0  0  0  0  0  0  0  0  0  0
   -4.9302    1.4782    0.0000 H   0  0  0  0  0  0  0  0  0  0  0  0
   -6.1550    1.4782    0.0000 H   0  0  0  0  0  0  0  0  0  0  0  0
   -6.9283   -0.8000    0.0000 C   0  0  0  0  0  0  0  0  0  0  0  0
   -7.5403   -2.2782    0.0000 H   0  0  0  0  0  0  0  0  0  0  0  0
   -6.3156   -2.2782    0.0000 H   0  0  0  0  0  0  0  0  0  0  0  0
   -8.3136    0.0000    0.0000 C   0  0  0  0  0  0  0  0  0  0  0  0
   -7.7016    1.4782    0.0000 H   0  0  0  0  0  0  0  0  0  0  0  0
   -8.9264    1.4782    0.0000 H   0  0  0  0  0  0  0  0  0  0  0  0
   -9.6997   -0.8000    0.0000 C   0  0  0  0  0  0  0  0  0  0  0  0
  -10.3117   -2.2782    0.0000 H   0  0  0  0  0  0  0  0  0  0  0  0
   -9.0870   -2.2782    0.0000 H   0  0  0  0  0  0  0  0  0  0  0  0
  -11.0850    0.0000    0.0000 C   0  0  0  0  0  0  0  0  0  0  0  0
  -10.4730    1.4782    0.0000 H   0  0  0  0  0  0  0  0  0  0  0  0
  -11.6978    1.4782    0.0000 H   0  0  0  0  0  0  0  0  0  0  0  0
  -12.4711   -0.8000    0.0000 C   0  0  0  0  0  0  0  0  0  0  0  0
  -13.0831   -2.2782    0.0000 H   0  0  0  0  0  0  0  0  0  0  0  0
  -11.8583   -2.2782    0.0000 H   0  0  0  0  0  0  0  0  0  0  0  0
  -13.8564    0.0000    0.0000 C   0  0  0  0  0  0  0  0  0  0  0  0
  -13.2444    1.4782    0.0000 H   0  0  0  0  0  0  0  0  0  0  0  0
  -14.4684    1.4782    0.0000 H   0  0  0  0  0  0  0  0  0  0  0  0
  -15.2417   -0.8000    0.0000 C   0  0  0  0  0  0  0  0  0  0  0  0
  -15.8545   -2.2782    0.0000 H   0  0  0  0  0  0  0  0  0  0  0  0
  -14.6297   -2.2782    0.0000 H   0  0  0  0  0  0  0  0  0  0  0  0
  -16.6278    0.0000    0.0000 C   0  0  0  0  0  0  0  0  0  0  0  0
  -16.0151    1.4782    0.0000 H   0  0  0  0  0  0  0  0  0  0  0  0
  -17.2398    1.4782    0.0000 H   0  0  0  0  0  0  0  0  0  0  0  0
  -18.0131   -0.8000    0.0000 C   0  0  0  0  0  0  0  0  0  0  0  0
  -18.6259   -2.2782    0.0000 H   0  0  0  0  0  0  0  0  0  0  0  0
  -17.4011   -2.2782    0.0000 H   0  0  0  0  0  0  0  0  0  0  0  0
  -19.3992    0.0000    0.0000 C   0  0  0  0  0  0  0  0  0  0  0  0
  -18.7864    1.4782    0.0000 H   0  0  0  0  0  0  0  0  0  0  0  0
  -20.0112    1.4782    0.0000 H   0  0  0  0  0  0  0  0  0  0  0  0
  -20.7845   -0.8000    0.0000 C   0  0  0  0  0  0  0  0  0  0  0  0
  -21.3972   -2.2782    0.0000 H   0  0  0  0  0  0  0  0  0  0  0  0
  -20.1725   -2.2782    0.0000 H   0  0  0  0  0  0  0  0  0  0  0  0
  -22.1706    0.0000    0.0000 C   0  0  0  0  0  0  0  0  0  0  0  0
  -23.5559    0.8000    0.0000 H   0  0  0  0  0  0  0  0  0  0  0  0
  -23.5559   -0.8000    0.0000 H   0  0  0  0  0  0  0  0  0  0  0  0
  -22.1706    1.6000    0.0000 H   0  0  0  0  0  0  0  0  0  0  0  0
  1  2  1  0  0  0  0
  1  3  1  0  0  0  0
  1  4  1  0  0  0  0
  4  5  1  0  0  0  0
  4  6  1  0  0  0  0
  4  7  1  0  0  0  0
  7  8  1  0  0  0  0
  7  9  1  0  0  0  0
  7 10  1  0  0  0  0
 10 11  1  0  0  0  0
 10 12  1  0  0  0  0
 10 13  1  0  0  0  0
 13 14  1  0  0  0  0
 13 15  1  0  0  0  0
 13 16  1  0  0  0  0
 16 17  1  0  0  0  0
 16 18  1  0  0  0  0
 16 19  1  0  0  0  0
 19 20  1  0  0  0  0
 19 21  1  0  0  0  0
 19 22  1  0  0  0  0
 22 23  1  0  0  0  0
 22 24  1  0  0  0  0
 22 25  1  0  0  0  0
 25 26  1  0  0  0  0
 25 27  1  0  0  0  0
 25 28  1  0  0  0  0
 28 29  1  0  0  0  0
 28 30  1  0  0  0  0
 28 31  1  0  0  0  0
 31 32  1  0  0  0  0
 31 33  1  0  0  0  0
 31 34  1  0  0  0  0
 34 35  1  0  0  0  0
 34 36  1  0  0  0  0
 34 37  1  0  0  0  0
 37 38  1  0  0  0  0
 37 39  1  0  0  0  0
 37 40  1  0  0  0  0
 40 41  1  0  0  0  0
 40 42  1  0  0  0  0
 40 43  1  0  0  0  0
 43 44  1  0  0  0  0
 43 45  1  0  0  0  0
 43 46  1  0  0  0  0
 46 47  1  0  0  0  0
 46 48  1  0  0  0  0
 46 49  1  0  0  0  0
 49 50  1  0  0  0  0
 49 51  1  0  0  0  0
 49 52  1  0  0  0  0
 52 53  1  0  0  0  0
 52 54  1  0  0  0  0
 52 55  1  0  0  0  0
  1 56  1  0  0  0  0
 56 57  1  0  0  0  0
 56 58  1  0  0  0  0
 56 59  1  0  0  0  0
 59 60  1  0  0  0  0
 59 61  1  0  0  0  0
 59 62  1  0  0  0  0
 62 63  1  0  0  0  0
 62 64  1  0  0  0  0
 62 65  1  0  0  0  0
 65 66  1  0  0  0  0
 65 67  1  0  0  0  0
 65 68  1  0  0  0  0
 68 69  1  0  0  0  0
 68 70  1  0  0  0  0
 68 71  1  0  0  0  0
 71 72  1  0  0  0  0
 71 73  1  0  0  0  0
 71 74  1  0  0  0  0
 74 75  1  0  0  0  0
 74 76  1  0  0  0  0
 74 77  1  0  0  0  0
 77 78  1  0  0  0  0
 77 79  1  0  0  0  0
 77 80  1  0  0  0  0
 80 81  1  0  0  0  0
 80 82  1  0  0  0  0
 80 83  1  0  0  0  0
 83 84  1  0  0  0  0
 83 85  1  0  0  0  0
 83 86  1  0  0  0  0
 86 87  1  0  0  0  0
 86 88  1  0  0  0  0
 86 89  1  0  0  0  0
 89 90  1  0  0  0  0
 89 91  1  0  0  0  0
 89 92  1  0  0  0  0
 92 93  1  0  0  0  0
 92 94  1  0  0  0  0
 92 95  1  0  0  0  0
 95 96  1  0  0  0  0
 95 97  1  0  0  0  0
 95 98  1  0  0  0  0
 98 99  1  0  0  0  0
 98100  1  0  0  0  0
 98101  1  0  0  0  0
101102  1  0  0  0  0
101103  1  0  0  0  0
101104  1  0  0  0  0
M  END
> <ChemID>
101150

> <source_casrn>
14167-59-0

> <CAS>
14167-59-0

> <SMILES>
CCCCCCCCCCCCCCCCCCCCCCCCCCCCCCCCCC

> <NAME>
TETRATRIACONTANE

> <preferred_name>
Tetratriacontane

> <iupac>
Tetratriacontane

> <MPID>
101131

> <dsstox_substance_id>
DTXSID7058622

> <Canonical_QSARr>
CCCCCCCCCCCCCCCCCCCCCCCCCCCCCCCCCC

> <InChI_Code_QSARr>
InChI=1S/C34H70/c1-3-5-7-9-11-13-15-17-19-21-23-25-27-29-31-33-34-32-30-28-26-24-22-20-18-16-14-12-10-8-6-4-2/h3-34H2,1-2H3

> <InChI Key_QSARr>
GWVDBZWVFGFBCN-UHFFFAOYSA-N

> <Salt_Solvent>
?

> <Ready_Biodeg>
1.0

$$$$
101151
  -INDIGO-08031722522D

 34 34  0  0  0  0  0  0  0  0999 V2000
    8.3138    0.0000    0.0000 C   0  0  0  0  0  0  0  0  0  0  0  0
    9.6995    0.8000    0.0000 H   0  0  0  0  0  0  0  0  0  0  0  0
    8.3138   -1.6000    0.0000 C   0  0  0  0  0  0  0  0  0  0  0  0
    9.6995   -2.4001    0.0000 H   0  0  0  0  0  0  0  0  0  0  0  0
    6.9283   -2.4001    0.0000 C   0  0  0  0  0  0  0  0  0  0  0  0
    6.9283   -4.0000    0.0000 H   0  0  0  0  0  0  0  0  0  0  0  0
    5.5426   -1.6000    0.0000 C   0  0  0  0  0  0  0  0  0  0  0  0
    4.1569   -2.4001    0.0000 H   0  0  0  0  0  0  0  0  0  0  0  0
    5.5426    0.0000    0.0000 C   0  0  0  0  0  0  0  0  0  0  0  0
    4.1569    0.8000    0.0000 C   0  0  0  0  0  0  0  0  0  0  0  0
    4.1569    2.4000    0.0000 C   0  0  0  0  0  0  0  0  0  0  0  0
    4.1569    4.0000    0.0000 N   0  0  0  0  0  0  0  0  0  0  0  0
    2.7712    0.0000    0.0000 N   0  0  0  0  0  0  0  0  0  0  0  0
    1.3857    0.8000    0.0000 O   0  0  0  0  0  0  0  0  0  0  0  0
    0.0000    0.0000    0.0000 P   0  0  0  0  0  0  0  0  0  0  0  0
   -1.3857   -0.8000    0.0000 O   0  0  0  0  0  0  0  0  0  0  0  0
   -2.7714    0.0000    0.0000 C   0  0  0  0  0  0  0  0  0  0  0  0
   -2.1590    1.4782    0.0000 H   0  0  0  0  0  0  0  0  0  0  0  0
   -3.3835    1.4782    0.0000 H   0  0  0  0  0  0  0  0  0  0  0  0
   -4.1569   -0.8000    0.0000 C   0  0  0  0  0  0  0  0  0  0  0  0
   -5.5426   -1.6000    0.0000 H   0  0  0  0  0  0  0  0  0  0  0  0
   -5.5426    0.0000    0.0000 H   0  0  0  0  0  0  0  0  0  0  0  0
   -4.1569   -2.4001    0.0000 H   0  0  0  0  0  0  0  0  0  0  0  0
   -1.3857    0.8000    0.0000 O   0  0  0  0  0  0  0  0  0  0  0  0
   -1.3857    2.4000    0.0000 C   0  0  0  0  0  0  0  0  0  0  0  0
    0.2007    2.6088    0.0000 H   0  0  0  0  0  0  0  0  0  0  0  0
   -0.4116    3.6694    0.0000 H   0  0  0  0  0  0  0  0  0  0  0  0
   -2.7714    3.2001    0.0000 C   0  0  0  0  0  0  0  0  0  0  0  0
   -4.1569    4.0000    0.0000 H   0  0  0  0  0  0  0  0  0  0  0  0
   -2.7714    4.8000    0.0000 H   0  0  0  0  0  0  0  0  0  0  0  0
   -4.1569    2.4000    0.0000 H   0  0  0  0  0  0  0  0  0  0  0  0
    0.0000   -1.6000    0.0000 S   0  0  0  0  0  0  0  0  0  0  0  0
    6.9283    0.8000    0.0000 C   0  0  0  0  0  0  0  0  0  0  0  0
    6.9283    2.4000    0.0000 H   0  0  0  0  0  0  0  0  0  0  0  0
  1  2  1  0  0  0  0
  1  3  1  0  0  0  0
  3  4  1  0  0  0  0
  3  5  2  0  0  0  0
  5  6  1  0  0  0  0
  5  7  1  0  0  0  0
  7  8  1  0  0  0  0
  7  9  2  0  0  0  0
  9 10  1  0  0  0  0
 10 11  1  0  0  0  0
 11 12  3  0  0  0  0
 10 13  2  0  0  0  0
 13 14  1  0  0  0  0
 14 15  1  0  0  0  0
 15 16  1  0  0  0  0
 16 17  1  0  0  0  0
 17 18  1  0  0  0  0
 17 19  1  0  0  0  0
 17 20  1  0  0  0  0
 20 21  1  0  0  0  0
 20 22  1  0  0  0  0
 20 23  1  0  0  0  0
 15 24  1  0  0  0  0
 24 25  1  0  0  0  0
 25 26  1  0  0  0  0
 25 27  1  0  0  0  0
 25 28  1  0  0  0  0
 28 29  1  0  0  0  0
 28 30  1  0  0  0  0
 28 31  1  0  0  0  0
 15 32  2  0  0  0  0
  9 33  1  0  0  0  0
 33  1  2  0  0  0  0
 33 34  1  0  0  0  0
M  END
> <ChemID>
101151

> <source_casrn>
14816-18-3

> <CAS>
14816-18-3

> <SMILES>
CCOP(=S)(O/N=C(\C#N)/c1ccccc1)OCC

> <NAME>
Phoxim

> <preferred_name>
Phoxim

> <iupac>
4-ethoxy-7-phenyl-3,5-dioxa-6-aza-4-phosphaoct-6-ene-8-nitrile 4-sulfide

> <MPID>
101132

> <dsstox_substance_id>
DTXSID8034324

> <Canonical_QSARr>
CCOP(=S)(ON=C(C#N)c1ccccc1)OCC

> <InChI_Code_QSARr>
InChI=1S/C12H15N2O3PS/c1-3-15-18(19,16-4-2)17-14-12(10-13)11-8-6-5-7-9-11/h5-9H,3-4H2,1-2H3/b14-12+

> <InChI Key_QSARr>
ATROHALUCMTWTB-WYMLVPIESA-N

> <Salt_Solvent>
?

> <Ready_Biodeg>
0.0

$$$$
101152
  -INDIGO-08031722522D

 11 10  0  0  0  0  0  0  0  0999 V2000
   -0.6123   -1.4782    0.0000 Cl  0  0  0  0  0  0  0  0  0  0  0  0
    0.0000    0.0000    0.0000 C   0  0  0  0  0  0  0  0  0  0  0  0
    0.6123   -1.4782    0.0000 H   0  0  0  0  0  0  0  0  0  0  0  0
   -1.3856    0.8000    0.0000 C   0  0  0  0  0  0  0  0  0  0  0  0
   -2.7713    1.6000    0.0000 H   0  0  0  0  0  0  0  0  0  0  0  0
   -2.7713    0.0000    0.0000 Cl  0  0  0  0  0  0  0  0  0  0  0  0
   -1.3856    2.4000    0.0000 Cl  0  0  0  0  0  0  0  0  0  0  0  0
    1.3856    0.8000    0.0000 C   0  0  0  0  0  0  0  0  0  0  0  0
    2.7713    1.6000    0.0000 H   0  0  0  0  0  0  0  0  0  0  0  0
    2.7713    0.0000    0.0000 Cl  0  0  0  0  0  0  0  0  0  0  0  0
    1.3856    2.4000    0.0000 Cl  0  0  0  0  0  0  0  0  0  0  0  0
  1  2  1  0  0  0  0
  2  3  1  0  0  0  0
  2  4  1  0  0  0  0
  4  5  1  0  0  0  0
  4  6  1  0  0  0  0
  4  7  1  0  0  0  0
  2  8  1  0  0  0  0
  8  9  1  0  0  0  0
  8 10  1  0  0  0  0
  8 11  1  0  0  0  0
M  END
> <ChemID>
101152

> <source_casrn>
15104-61-7

> <CAS>
15104-61-7

> <SMILES>
ClC(C(Cl)Cl)C(Cl)Cl

> <NAME>
1,1,2,3,3-Pentachloropropane

> <preferred_name>
Propane, 1,1,2,3,3-pentachloro-

> <iupac>
1,1,2,3,3-PENTACHLOROPROPANE

> <MPID>
101133

> <dsstox_substance_id>
DTXSID20164698

> <Canonical_QSARr>
ClC(C(Cl)Cl)C(Cl)Cl

> <InChI_Code_QSARr>
InChI=1S/C3H3Cl5/c4-1(2(5)6)3(7)8/h1-3H

> <InChI Key_QSARr>
PANVCEBTPSTUEL-UHFFFAOYSA-N

> <Salt_Solvent>
?

> <Ready_Biodeg>
0.0

$$$$
101156
  -INDIGO-08031722522D

 38 38  0  0  0  0  0  0  0  0999 V2000
    0.8000    1.3857    0.0000 C   0  0  0  0  0  0  0  0  0  0  0  0
    2.4000    1.3857    0.0000 C   0  0  0  0  0  0  0  0  0  0  0  0
    3.6693    0.4116    0.0000 H   0  0  0  0  0  0  0  0  0  0  0  0
    2.6088   -0.2007    0.0000 H   0  0  0  0  0  0  0  0  0  0  0  0
    3.2000    2.7712    0.0000 C   0  0  0  0  0  0  0  0  0  0  0  0
    4.0001    4.1569    0.0000 H   0  0  0  0  0  0  0  0  0  0  0  0
    4.8001    2.7712    0.0000 H   0  0  0  0  0  0  0  0  0  0  0  0
    2.4000    4.1569    0.0000 H   0  0  0  0  0  0  0  0  0  0  0  0
   -0.0000    2.7712    0.0000 C   0  0  0  0  0  0  0  0  0  0  0  0
    0.8000    4.1569    0.0000 H   0  0  0  0  0  0  0  0  0  0  0  0
   -1.6001    2.7712    0.0000 C   0  0  0  0  0  0  0  0  0  0  0  0
   -2.3999    4.1569    0.0000 H   0  0  0  0  0  0  0  0  0  0  0  0
   -2.3999    1.3857    0.0000 C   0  0  0  0  0  0  0  0  0  0  0  0
   -4.0000    1.3857    0.0000 H   0  0  0  0  0  0  0  0  0  0  0  0
   -1.6001   -0.0000    0.0000 C   0  0  0  0  0  0  0  0  0  0  0  0
   -2.6284   -1.2256    0.0000 C   0  0  0  0  0  0  0  0  0  0  0  0
   -1.5475   -2.4053    0.0000 H   0  0  0  0  0  0  0  0  0  0  0  0
   -2.6983   -2.8242    0.0000 H   0  0  0  0  0  0  0  0  0  0  0  0
   -4.2042   -0.9478    0.0000 C   0  0  0  0  0  0  0  0  0  0  0  0
   -5.7798   -0.6701    0.0000 H   0  0  0  0  0  0  0  0  0  0  0  0
   -5.2326   -2.1736    0.0000 H   0  0  0  0  0  0  0  0  0  0  0  0
   -4.7513    0.5557    0.0000 H   0  0  0  0  0  0  0  0  0  0  0  0
   -0.0000   -0.0000    0.0000 C   0  0  0  0  0  0  0  0  0  0  0  0
    0.8000   -1.3856    0.0000 N   0  0  0  0  0  0  0  0  0  0  0  0
    2.3034   -1.9329    0.0000 C   0  0  0  0  0  0  0  0  0  0  0  0
    3.1632   -3.2822    0.0000 H   0  0  0  0  0  0  0  0  0  0  0  0
    1.9573   -3.4950    0.0000 H   0  0  0  0  0  0  0  0  0  0  0  0
    3.5291   -0.9044    0.0000 O   0  0  0  0  0  0  0  0  0  0  0  0
    5.0327   -1.4516    0.0000 C   0  0  0  0  0  0  0  0  0  0  0  0
    6.5362   -1.9988    0.0000 H   0  0  0  0  0  0  0  0  0  0  0  0
    6.2584   -0.4232    0.0000 H   0  0  0  0  0  0  0  0  0  0  0  0
    5.3105   -3.0273    0.0000 H   0  0  0  0  0  0  0  0  0  0  0  0
   -0.4257   -2.4140    0.0000 C   0  0  0  0  0  0  0  0  0  0  0  0
   -1.6514   -1.3856    0.0000 O   0  0  0  0  0  0  0  0  0  0  0  0
   -0.4257   -4.0141    0.0000 C   0  0  0  0  0  0  0  0  0  0  0  0
   -0.4257   -5.6141    0.0000 H   0  0  0  0  0  0  0  0  0  0  0  0
   -1.8113   -4.8140    0.0000 H   0  0  0  0  0  0  0  0  0  0  0  0
    0.9599   -4.8140    0.0000 Cl  0  0  0  0  0  0  0  0  0  0  0  0
  1  2  1  0  0  0  0
  2  3  1  0  0  0  0
  2  4  1  0  0  0  0
  2  5  1  0  0  0  0
  5  6  1  0  0  0  0
  5  7  1  0  0  0  0
  5  8  1  0  0  0  0
  1  9  1  0  0  0  0
  9 10  1  0  0  0  0
  9 11  2  0  0  0  0
 11 12  1  0  0  0  0
 11 13  1  0  0  0  0
 13 14  1  0  0  0  0
 13 15  2  0  0  0  0
 15 16  1  0  0  0  0
 16 17  1  0  0  0  0
 16 18  1  0  0  0  0
 16 19  1  0  0  0  0
 19 20  1  0  0  0  0
 19 21  1  0  0  0  0
 19 22  1  0  0  0  0
 15 23  1  0  0  0  0
 23  1  2  0  0  0  0
 23 24  1  0  0  0  0
 24 25  1  0  0  0  0
 25 26  1  0  0  0  0
 25 27  1  0  0  0  0
 25 28  1  0  0  0  0
 28 29  1  0  0  0  0
 29 30  1  0  0  0  0
 29 31  1  0  0  0  0
 29 32  1  0  0  0  0
 24 33  1  0  0  0  0
 33 34  2  0  0  0  0
 33 35  1  0  0  0  0
 35 36  1  0  0  0  0
 35 37  1  0  0  0  0
 35 38  1  0  0  0  0
M  END
> <ChemID>
101156

> <source_casrn>
15972-60-8

> <CAS>
15972-60-8

> <SMILES>
COCN(C(=O)CCl)c1c(CC)cccc1CC

> <NAME>
Alachlor

> <preferred_name>
Alachlor

> <iupac>
2-chloro-N-(2,6-diethylphenyl)-N-(methoxymethyl)acetamide

> <MPID>
101135

> <dsstox_substance_id>
DTXSID1022265

> <Canonical_QSARr>
COCN(C(=O)CCl)c1c(CC)cccc1CC

> <InChI_Code_QSARr>
InChI=1S/C14H20ClNO2/c1-4-11-7-6-8-12(5-2)14(11)16(10-18-3)13(17)9-15/h6-8H,4-5,9-10H2,1-3H3

> <InChI Key_QSARr>
XCSGPAVHZFQHGE-UHFFFAOYSA-N

> <Salt_Solvent>
?

> <Ready_Biodeg>
0.0

$$$$
101157
  -INDIGO-08031722522D

 11 11  0  0  0  0  0  0  0  0999 V2000
   -2.7713    0.0000    0.0000 Cl  0  0  0  0  0  0  0  0  0  0  0  0
   -1.3856   -0.8000    0.0000 C   0  0  0  0  0  0  0  0  0  0  0  0
    0.0000    0.0000    0.0000 C   0  0  0  0  0  0  0  0  0  0  0  0
    0.0000    1.6000    0.0000 H   0  0  0  0  0  0  0  0  0  0  0  0
    1.3856   -0.8000    0.0000 C   0  0  0  0  0  0  0  0  0  0  0  0
    2.7713    0.0000    0.0000 Cl  0  0  0  0  0  0  0  0  0  0  0  0
    1.3856   -2.4000    0.0000 C   0  0  0  0  0  0  0  0  0  0  0  0
    2.7713   -3.2000    0.0000 H   0  0  0  0  0  0  0  0  0  0  0  0
    0.0000   -3.2000    0.0000 N   0  0  0  0  0  0  0  0  0  0  0  0
   -1.3856   -2.4000    0.0000 C   0  0  0  0  0  0  0  0  0  0  0  0
   -2.7713   -3.2000    0.0000 Cl  0  0  0  0  0  0  0  0  0  0  0  0
  1  2  1  0  0  0  0
  2  3  1  0  0  0  0
  3  4  1  0  0  0  0
  3  5  2  0  0  0  0
  5  6  1  0  0  0  0
  5  7  1  0  0  0  0
  7  8  1  0  0  0  0
  7  9  2  0  0  0  0
  9 10  1  0  0  0  0
 10  2  2  0  0  0  0
 10 11  1  0  0  0  0
M  END
> <ChemID>
101157

> <source_casrn>
16063-70-0

> <CAS>
16063-70-0

> <SMILES>
Clc1c[n]c(Cl)c(Cl)c1

> <NAME>
2,3,5-Trichloropyridine

> <preferred_name>
Pyridine, 2,3,5-trichloro-

> <iupac>
2,3,5-TRICHLOROPYRIDINE

> <MPID>
101136

> <dsstox_substance_id>
DTXSID40166952

> <Canonical_QSARr>
Clc1c[n]c(Cl)c(Cl)c1

> <InChI_Code_QSARr>
InChI=1S/C5H2Cl3N/c6-3-1-4(7)5(8)9-2-3/h1-2H

> <InChI Key_QSARr>
CNLIIAKAAMFCJG-UHFFFAOYSA-N

> <Salt_Solvent>
?

> <Ready_Biodeg>
0.0

$$$$
101159
  -INDIGO-08031722522D

 42 44  0  0  0  0  0  0  0  0999 V2000
   -1.1078    2.3757    0.0000 O   0  0  0  0  0  0  0  0  0  0  0  0
   -1.3856    0.8000    0.0000 C   0  0  0  0  0  0  0  0  0  0  0  0
   -2.7712    0.0001    0.0000 C   0  0  0  0  0  0  0  0  0  0  0  0
   -2.7712   -1.6001    0.0000 C   0  0  0  0  0  0  0  0  0  0  0  0
   -4.1569   -2.4000    0.0000 C   0  0  0  0  0  0  0  0  0  0  0  0
   -4.1569   -4.0000    0.0000 H   0  0  0  0  0  0  0  0  0  0  0  0
   -5.5425   -1.6001    0.0000 C   0  0  0  0  0  0  0  0  0  0  0  0
   -6.9282   -2.4000    0.0000 H   0  0  0  0  0  0  0  0  0  0  0  0
   -5.5425    0.0001    0.0000 C   0  0  0  0  0  0  0  0  0  0  0  0
   -6.9282    0.8000    0.0000 H   0  0  0  0  0  0  0  0  0  0  0  0
   -4.1569    0.8000    0.0000 C   0  0  0  0  0  0  0  0  0  0  0  0
   -4.1569    2.4000    0.0000 O   0  0  0  0  0  0  0  0  0  0  0  0
   -5.5425    3.2000    0.0000 C   0  0  0  0  0  0  0  0  0  0  0  0
   -6.9282    2.4000    0.0000 O   0  0  0  0  0  0  0  0  0  0  0  0
   -5.5425    4.7999    0.0000 C   0  0  0  0  0  0  0  0  0  0  0  0
   -6.9282    5.6001    0.0000 H   0  0  0  0  0  0  0  0  0  0  0  0
   -5.5425    6.4000    0.0000 H   0  0  0  0  0  0  0  0  0  0  0  0
   -6.9282    4.0000    0.0000 H   0  0  0  0  0  0  0  0  0  0  0  0
   -1.3856   -2.4000    0.0000 C   0  0  0  0  0  0  0  0  0  0  0  0
   -1.3856   -4.0000    0.0000 H   0  0  0  0  0  0  0  0  0  0  0  0
   -0.0001   -1.6001    0.0000 C   0  0  0  0  0  0  0  0  0  0  0  0
   -0.0001    0.0001    0.0000 C   0  0  0  0  0  0  0  0  0  0  0  0
    1.3856    0.8000    0.0000 C   0  0  0  0  0  0  0  0  0  0  0  0
    1.3856    2.4000    0.0000 O   0  0  0  0  0  0  0  0  0  0  0  0
    2.7713    3.2000    0.0000 C   0  0  0  0  0  0  0  0  0  0  0  0
    4.1569    2.4000    0.0000 O   0  0  0  0  0  0  0  0  0  0  0  0
    2.7713    4.7999    0.0000 C   0  0  0  0  0  0  0  0  0  0  0  0
    2.7713    6.4000    0.0000 H   0  0  0  0  0  0  0  0  0  0  0  0
    4.1569    5.6001    0.0000 H   0  0  0  0  0  0  0  0  0  0  0  0
    1.3856    5.6001    0.0000 H   0  0  0  0  0  0  0  0  0  0  0  0
    2.7713    0.0001    0.0000 C   0  0  0  0  0  0  0  0  0  0  0  0
    4.1569    0.8000    0.0000 H   0  0  0  0  0  0  0  0  0  0  0  0
    2.7713   -1.6001    0.0000 C   0  0  0  0  0  0  0  0  0  0  0  0
    4.1569   -2.4000    0.0000 H   0  0  0  0  0  0  0  0  0  0  0  0
    1.3856   -2.4000    0.0000 C   0  0  0  0  0  0  0  0  0  0  0  0
    1.3856   -4.0000    0.0000 H   0  0  0  0  0  0  0  0  0  0  0  0
   -2.1362    3.6014    0.0000 C   0  0  0  0  0  0  0  0  0  0  0  0
   -3.7120    3.3235    0.0000 O   0  0  0  0  0  0  0  0  0  0  0  0
   -1.5890    5.1049    0.0000 C   0  0  0  0  0  0  0  0  0  0  0  0
   -1.0418    6.6084    0.0000 H   0  0  0  0  0  0  0  0  0  0  0  0
   -0.0133    5.3827    0.0000 H   0  0  0  0  0  0  0  0  0  0  0  0
   -2.6175    6.3306    0.0000 H   0  0  0  0  0  0  0  0  0  0  0  0
  1  2  1  0  0  0  0
  2  3  1  0  0  0  0
  3  4  1  0  0  0  0
  4  5  2  0  0  0  0
  5  6  1  0  0  0  0
  5  7  1  0  0  0  0
  7  8  1  0  0  0  0
  7  9  2  0  0  0  0
  9 10  1  0  0  0  0
  9 11  1  0  0  0  0
 11  3  2  0  0  0  0
 11 12  1  0  0  0  0
 12 13  1  0  0  0  0
 13 14  2  0  0  0  0
 13 15  1  0  0  0  0
 15 16  1  0  0  0  0
 15 17  1  0  0  0  0
 15 18  1  0  0  0  0
  4 19  1  0  0  0  0
 19 20  1  0  0  0  0
 19 21  2  0  0  0  0
 21 22  1  0  0  0  0
 22  2  2  0  0  0  0
 22 23  1  0  0  0  0
 23 24  1  0  0  0  0
 24 25  1  0  0  0  0
 25 26  2  0  0  0  0
 25 27  1  0  0  0  0
 27 28  1  0  0  0  0
 27 29  1  0  0  0  0
 27 30  1  0  0  0  0
 23 31  2  0  0  0  0
 31 32  1  0  0  0  0
 31 33  1  0  0  0  0
 33 34  1  0  0  0  0
 33 35  2  0  0  0  0
 35 21  1  0  0  0  0
 35 36  1  0  0  0  0
  1 37  1  0  0  0  0
 37 38  2  0  0  0  0
 37 39  1  0  0  0  0
 39 40  1  0  0  0  0
 39 41  1  0  0  0  0
 39 42  1  0  0  0  0
M  END
> <ChemID>
101159

> <source_casrn>
16203-97-7

> <CAS>
16203-97-7

> <SMILES>
CC(=O)Oc1c2c(cccc2cc2cccc(OC(C)=O)c21)OC(C)=O

> <NAME>
1,8,9-Triacetoxyanthracene

> <preferred_name>
Anthralin triacetate

> <iupac>
(1,8-diacetyloxyanthracen-9-yl) acetate

> <MPID>
101137

> <dsstox_substance_id>
DTXSID20167301

> <Canonical_QSARr>
CC(=O)Oc1c2c(cccc2cc2cccc(OC(C)=O)c21)OC(C)=O

> <InChI_Code_QSARr>
InChI=1S/C20H16O6/c1-11(21)24-16-8-4-6-14-10-15-7-5-9-17(25-12(2)22)19(15)20(18(14)16)26-13(3)23/h4-10H,1-3H3

> <InChI Key_QSARr>
IPWOSICBVUXMML-UHFFFAOYSA-N

> <Salt_Solvent>
?

> <Ready_Biodeg>
0.0

$$$$
101161
  -INDIGO-08031722522D

 38 38  0  0  0  0  0  0  0  0999 V2000
    9.6995    2.4000    0.0000 N   0  0  0  0  0  0  0  0  0  0  0  0
   11.0851    1.6000    0.0000 H   0  0  0  0  0  0  0  0  0  0  0  0
    9.6995    4.0000    0.0000 H   0  0  0  0  0  0  0  0  0  0  0  0
    8.3139    1.6000    0.0000 C   0  0  0  0  0  0  0  0  0  0  0  0
    6.9283    2.4000    0.0000 C   0  0  0  0  0  0  0  0  0  0  0  0
    6.9283    4.0000    0.0000 H   0  0  0  0  0  0  0  0  0  0  0  0
    5.5425    1.6000    0.0000 C   0  0  0  0  0  0  0  0  0  0  0  0
    4.1569    2.4000    0.0000 H   0  0  0  0  0  0  0  0  0  0  0  0
    5.5425    0.0000    0.0000 C   0  0  0  0  0  0  0  0  0  0  0  0
    4.1569   -0.8000    0.0000 C   0  0  0  0  0  0  0  0  0  0  0  0
    4.7693   -2.2782    0.0000 H   0  0  0  0  0  0  0  0  0  0  0  0
    3.5447   -2.2782    0.0000 H   0  0  0  0  0  0  0  0  0  0  0  0
    2.7713    0.0000    0.0000 C   0  0  0  0  0  0  0  0  0  0  0  0
    2.1589    1.4782    0.0000 H   0  0  0  0  0  0  0  0  0  0  0  0
    3.3837    1.4782    0.0000 H   0  0  0  0  0  0  0  0  0  0  0  0
    1.3857   -0.8000    0.0000 C   0  0  0  0  0  0  0  0  0  0  0  0
    1.9981   -2.2782    0.0000 H   0  0  0  0  0  0  0  0  0  0  0  0
    0.7733   -2.2782    0.0000 H   0  0  0  0  0  0  0  0  0  0  0  0
    0.0001    0.0000    0.0000 C   0  0  0  0  0  0  0  0  0  0  0  0
   -0.6123    1.4782    0.0000 H   0  0  0  0  0  0  0  0  0  0  0  0
    0.6122    1.4782    0.0000 H   0  0  0  0  0  0  0  0  0  0  0  0
   -1.3855   -0.8000    0.0000 C   0  0  0  0  0  0  0  0  0  0  0  0
   -0.7734   -2.2782    0.0000 H   0  0  0  0  0  0  0  0  0  0  0  0
   -1.9979   -2.2782    0.0000 H   0  0  0  0  0  0  0  0  0  0  0  0
   -2.7714    0.0000    0.0000 C   0  0  0  0  0  0  0  0  0  0  0  0
   -3.3835    1.4782    0.0000 H   0  0  0  0  0  0  0  0  0  0  0  0
   -2.1590    1.4782    0.0000 H   0  0  0  0  0  0  0  0  0  0  0  0
   -4.1570   -0.8000    0.0000 C   0  0  0  0  0  0  0  0  0  0  0  0
   -3.5446   -2.2782    0.0000 H   0  0  0  0  0  0  0  0  0  0  0  0
   -4.7691   -2.2782    0.0000 H   0  0  0  0  0  0  0  0  0  0  0  0
   -5.5426    0.0000    0.0000 C   0  0  0  0  0  0  0  0  0  0  0  0
   -6.9282    0.8000    0.0000 H   0  0  0  0  0  0  0  0  0  0  0  0
   -6.9282   -0.8000    0.0000 H   0  0  0  0  0  0  0  0  0  0  0  0
   -5.5426    1.6000    0.0000 H   0  0  0  0  0  0  0  0  0  0  0  0
    6.9283   -0.8000    0.0000 C   0  0  0  0  0  0  0  0  0  0  0  0
    6.9283   -2.4000    0.0000 H   0  0  0  0  0  0  0  0  0  0  0  0
    8.3139    0.0000    0.0000 C   0  0  0  0  0  0  0  0  0  0  0  0
    9.6995   -0.8000    0.0000 H   0  0  0  0  0  0  0  0  0  0  0  0
  1  2  1  0  0  0  0
  1  3  1  0  0  0  0
  1  4  1  0  0  0  0
  4  5  1  0  0  0  0
  5  6  1  0  0  0  0
  5  7  2  0  0  0  0
  7  8  1  0  0  0  0
  7  9  1  0  0  0  0
  9 10  1  0  0  0  0
 10 11  1  0  0  0  0
 10 12  1  0  0  0  0
 10 13  1  0  0  0  0
 13 14  1  0  0  0  0
 13 15  1  0  0  0  0
 13 16  1  0  0  0  0
 16 17  1  0  0  0  0
 16 18  1  0  0  0  0
 16 19  1  0  0  0  0
 19 20  1  0  0  0  0
 19 21  1  0  0  0  0
 19 22  1  0  0  0  0
 22 23  1  0  0  0  0
 22 24  1  0  0  0  0
 22 25  1  0  0  0  0
 25 26  1  0  0  0  0
 25 27  1  0  0  0  0
 25 28  1  0  0  0  0
 28 29  1  0  0  0  0
 28 30  1  0  0  0  0
 28 31  1  0  0  0  0
 31 32  1  0  0  0  0
 31 33  1  0  0  0  0
 31 34  1  0  0  0  0
  9 35  2  0  0  0  0
 35 36  1  0  0  0  0
 35 37  1  0  0  0  0
 37  4  2  0  0  0  0
 37 38  1  0  0  0  0
M  END
> <ChemID>
101161

> <source_casrn>
16245-79-7

> <CAS>
16245-79-7

> <SMILES>
CCCCCCCCc1ccc(N)cc1

> <NAME>
4-Octylaniline

> <preferred_name>
4-Octylaniline

> <iupac>
4-octylaniline

> <MPID>
101139

> <dsstox_substance_id>
DTXSID6022266

> <Canonical_QSARr>
CCCCCCCCc1ccc(N)cc1

> <InChI_Code_QSARr>
InChI=1S/C14H23N/c1-2-3-4-5-6-7-8-13-9-11-14(15)12-10-13/h9-12H,2-8,15H2,1H3

> <InChI Key_QSARr>
ORKQJTBYQZITLA-UHFFFAOYSA-N

> <Salt_Solvent>
?

> <Ready_Biodeg>
1.0

$$$$
101162
  -INDIGO-08031722522D

 13 13  0  0  0  0  0  0  0  0999 V2000
    2.4000    1.3856    0.0000 N   0  0  0  0  0  0  0  0  0  0  0  0
    3.2000    2.7713    0.0000 H   0  0  0  0  0  0  0  0  0  0  0  0
    3.2000   -0.0000    0.0000 C   0  0  0  0  0  0  0  0  0  0  0  0
    4.8000   -0.0000    0.0000 H   0  0  0  0  0  0  0  0  0  0  0  0
    2.4000   -1.3856    0.0000 C   0  0  0  0  0  0  0  0  0  0  0  0
    3.2000   -2.7713    0.0000 H   0  0  0  0  0  0  0  0  0  0  0  0
    0.8000   -1.3856    0.0000 C   0  0  0  0  0  0  0  0  0  0  0  0
    0.0000   -2.7713    0.0000 H   0  0  0  0  0  0  0  0  0  0  0  0
    0.0000    0.0000    0.0000 C   0  0  0  0  0  0  0  0  0  0  0  0
   -1.6000    0.0000    0.0000 O   0  0  0  0  0  0  0  0  0  0  0  0
   -2.4000   -1.3856    0.0000 H   0  0  0  0  0  0  0  0  0  0  0  0
    0.8000    1.3856    0.0000 C   0  0  0  0  0  0  0  0  0  0  0  0
    0.0000    2.7713    0.0000 O   0  0  0  0  0  0  0  0  0  0  0  0
  1  2  1  0  0  0  0
  1  3  1  0  0  0  0
  3  4  1  0  0  0  0
  3  5  2  0  0  0  0
  5  6  1  0  0  0  0
  5  7  1  0  0  0  0
  7  8  1  0  0  0  0
  7  9  2  0  0  0  0
  9 10  1  0  0  0  0
 10 11  1  0  0  0  0
  9 12  1  0  0  0  0
 12  1  1  0  0  0  0
 12 13  2  0  0  0  0
M  END
> <ChemID>
101162

> <source_casrn>
16867-04-2

> <CAS>
16867-04-2

> <SMILES>
OC1=CC=CNC1=O

> <NAME>
2,3-DIHYDROXYPYRIDINE

> <preferred_name>
3-Hydroxy-2-pyridone

> <iupac>
C5H5NO2

> <MPID>
101140

> <dsstox_substance_id>
DTXSID0051782

> <Canonical_QSARr>
OC1=CC=CNC1=O

> <InChI_Code_QSARr>
InChI=1S/C5H5NO2/c7-4-2-1-3-6-5(4)8/h1-3,7H,(H,6,8)

> <InChI Key_QSARr>
GGOZGYRTNQBSSA-UHFFFAOYSA-N

> <Salt_Solvent>
?

> <Ready_Biodeg>
0.0

$$$$
101163
  -INDIGO-08031722522D

 14 13  0  0  0  0  0  0  0  0999 V2000
   -1.3857    0.8000    0.0000 C   0  0  0  0  0  0  0  0  0  0  0  0
   -1.3857    2.4000    0.0000 O   0  0  0  0  0  0  0  0  0  0  0  0
   -2.7713    0.0000    0.0000 O   0  0  0  0  0  0  0  0  0  0  0  0
   -4.1569    0.8000    0.0000 C   0  0  0  0  0  0  0  0  0  0  0  0
   -5.5426    1.6000    0.0000 H   0  0  0  0  0  0  0  0  0  0  0  0
   -5.5426    0.0000    0.0000 H   0  0  0  0  0  0  0  0  0  0  0  0
   -4.1569    2.4000    0.0000 H   0  0  0  0  0  0  0  0  0  0  0  0
    0.0000    0.0000    0.0000 C   0  0  0  0  0  0  0  0  0  0  0  0
    0.6122   -1.4782    0.0000 H   0  0  0  0  0  0  0  0  0  0  0  0
    1.3856    0.8000    0.0000 C   0  0  0  0  0  0  0  0  0  0  0  0
    2.7713    1.6000    0.0000 H   0  0  0  0  0  0  0  0  0  0  0  0
    2.7713    0.0000    0.0000 H   0  0  0  0  0  0  0  0  0  0  0  0
    1.3856    2.4000    0.0000 H   0  0  0  0  0  0  0  0  0  0  0  0
   -0.6122   -1.4782    0.0000 Cl  0  0  0  0  0  0  0  0  0  0  0  0
  1  2  2  0  0  0  0
  1  3  1  0  0  0  0
  3  4  1  0  0  0  0
  4  5  1  0  0  0  0
  4  6  1  0  0  0  0
  4  7  1  0  0  0  0
  1  8  1  0  0  0  0
  8  9  1  0  0  0  0
  8 10  1  0  0  0  0
 10 11  1  0  0  0  0
 10 12  1  0  0  0  0
 10 13  1  0  0  0  0
  8 14  1  0  0  0  0
M  END
> <ChemID>
101163

> <source_casrn>
17639-93-9

> <CAS>
NOCAS_864786

> <SMILES>
O=C(OC)C(Cl)C

> <NAME>
Propanoic acid, 2-chloro-, methyl ester

> <preferred_name>


> <iupac>


> <MPID>
101141

> <dsstox_substance_id>
DTXSID60864786

> <Canonical_QSARr>
COC(=O)C(C)Cl

> <InChI_Code_QSARr>
InChI=1S/C4H7ClO2/c1-3(5)4(6)7-2/h3H,1-2H3

> <InChI Key_QSARr>
JLEJCNOTNLZCHQ-UHFFFAOYSA-N

> <Salt_Solvent>
?

> <Ready_Biodeg>
1.0

$$$$
101165
  -INDIGO-08031722522D

 41 41  0  0  0  0  0  0  0  0999 V2000
    2.4000    1.3857    0.0000 C   0  0  0  0  0  0  0  0  0  0  0  0
    2.1221    2.9613    0.0000 N   0  0  0  0  0  0  0  0  0  0  0  0
    3.3478    3.9898    0.0000 O   0  0  0  0  0  0  0  0  0  0  0  0
    0.6186    3.5085    0.0000 O   0  0  0  0  0  0  0  0  0  0  0  0
    1.6000    0.0000    0.0000 C   0  0  0  0  0  0  0  0  0  0  0  0
    0.0000    0.0000    0.0000 N   0  0  0  0  0  0  0  0  0  0  0  0
   -0.8000   -1.3856    0.0000 C   0  0  0  0  0  0  0  0  0  0  0  0
   -0.5912   -2.9720    0.0000 H   0  0  0  0  0  0  0  0  0  0  0  0
    0.4694   -2.3597    0.0000 H   0  0  0  0  0  0  0  0  0  0  0  0
   -2.1856   -2.1857    0.0000 C   0  0  0  0  0  0  0  0  0  0  0  0
   -3.1597   -0.9163    0.0000 H   0  0  0  0  0  0  0  0  0  0  0  0
   -3.7719   -1.9768    0.0000 H   0  0  0  0  0  0  0  0  0  0  0  0
   -2.1856   -3.7857    0.0000 C   0  0  0  0  0  0  0  0  0  0  0  0
   -2.1856   -5.3856    0.0000 H   0  0  0  0  0  0  0  0  0  0  0  0
   -3.5713   -4.5857    0.0000 H   0  0  0  0  0  0  0  0  0  0  0  0
   -0.8000   -4.5857    0.0000 H   0  0  0  0  0  0  0  0  0  0  0  0
   -0.8000    1.3857    0.0000 C   0  0  0  0  0  0  0  0  0  0  0  0
    0.4694    2.3597    0.0000 H   0  0  0  0  0  0  0  0  0  0  0  0
   -0.5912    2.9719    0.0000 H   0  0  0  0  0  0  0  0  0  0  0  0
   -2.4000    1.3857    0.0000 C   0  0  0  0  0  0  0  0  0  0  0  0
   -3.6694    0.4117    0.0000 H   0  0  0  0  0  0  0  0  0  0  0  0
   -2.3303   -0.2128    0.0000 H   0  0  0  0  0  0  0  0  0  0  0  0
   -3.2000    2.7713    0.0000 C   0  0  0  0  0  0  0  0  0  0  0  0
   -4.0000    4.1569    0.0000 H   0  0  0  0  0  0  0  0  0  0  0  0
   -4.8000    2.7713    0.0000 H   0  0  0  0  0  0  0  0  0  0  0  0
   -2.4000    4.1569    0.0000 H   0  0  0  0  0  0  0  0  0  0  0  0
    2.4000   -1.3856    0.0000 C   0  0  0  0  0  0  0  0  0  0  0  0
    2.1221   -2.9614    0.0000 N   0  0  0  0  0  0  0  0  0  0  0  0
    0.6186   -3.5086    0.0000 O   0  0  0  0  0  0  0  0  0  0  0  0
    3.3478   -3.9898    0.0000 O   0  0  0  0  0  0  0  0  0  0  0  0
    4.0000   -1.3856    0.0000 C   0  0  0  0  0  0  0  0  0  0  0  0
    4.8000   -2.7712    0.0000 H   0  0  0  0  0  0  0  0  0  0  0  0
    4.8000    0.0000    0.0000 C   0  0  0  0  0  0  0  0  0  0  0  0
    6.4000    0.0000    0.0000 S   0  0  0  0  0  0  0  0  0  0  0  0
    6.4000    1.6000    0.0000 O   0  0  0  0  0  0  0  0  0  0  0  0
    6.4000   -1.6001    0.0000 O   0  0  0  0  0  0  0  0  0  0  0  0
    8.0000    0.0000    0.0000 N   0  0  0  0  0  0  0  0  0  0  0  0
    8.8000   -1.3856    0.0000 H   0  0  0  0  0  0  0  0  0  0  0  0
    8.8000    1.3857    0.0000 H   0  0  0  0  0  0  0  0  0  0  0  0
    4.0000    1.3857    0.0000 C   0  0  0  0  0  0  0  0  0  0  0  0
    4.8000    2.7713    0.0000 H   0  0  0  0  0  0  0  0  0  0  0  0
  1  2  1  0  0  0  0
  2  3  1  0  0  0  0
  2  4  2  0  0  0  0
  1  5  1  0  0  0  0
  5  6  1  0  0  0  0
  6  7  1  0  0  0  0
  7  8  1  0  0  0  0
  7  9  1  0  0  0  0
  7 10  1  0  0  0  0
 10 11  1  0  0  0  0
 10 12  1  0  0  0  0
 10 13  1  0  0  0  0
 13 14  1  0  0  0  0
 13 15  1  0  0  0  0
 13 16  1  0  0  0  0
  6 17  1  0  0  0  0
 17 18  1  0  0  0  0
 17 19  1  0  0  0  0
 17 20  1  0  0  0  0
 20 21  1  0  0  0  0
 20 22  1  0  0  0  0
 20 23  1  0  0  0  0
 23 24  1  0  0  0  0
 23 25  1  0  0  0  0
 23 26  1  0  0  0  0
  5 27  2  0  0  0  0
 27 28  1  0  0  0  0
 28 29  1  0  0  0  0
 28 30  2  0  0  0  0
 27 31  1  0  0  0  0
 31 32  1  0  0  0  0
 31 33  2  0  0  0  0
 33 34  1  0  0  0  0
 34 35  2  0  0  0  0
 34 36  2  0  0  0  0
 34 37  1  0  0  0  0
 37 38  1  0  0  0  0
 37 39  1  0  0  0  0
 33 40  1  0  0  0  0
 40  1  2  0  0  0  0
 40 41  1  0  0  0  0
M  CHG  4   2   1   3  -1  28   1  29  -1
M  END
> <ChemID>
101165

> <source_casrn>
19044-88-3

> <CAS>
19044-88-3

> <SMILES>
CCCN(CCC)c1c(cc(cc1[N+]([O-])=O)S(N)(=O)=O)[N+]([O-])=O

> <NAME>
ORYZALIN

> <preferred_name>
Oryzalin

> <iupac>
4-(dipropylamino)-3,5-dinitrobenzenesulfonamide

> <MPID>
101143

> <dsstox_substance_id>
DTXSID8024238

> <Canonical_QSARr>
CCCN(CCC)c1c(cc(cc1[N+]([O-])=O)S(N)(=O)=O)[N+]([O-])=O

> <InChI_Code_QSARr>
InChI=1S/C12H18N4O6S/c1-3-5-14(6-4-2)12-10(15(17)18)7-9(23(13,21)22)8-11(12)16(19)20/h7-8H,3-6H2,1-2H3,(H2,13,21,22)

> <InChI Key_QSARr>
UNAHYJYOSSSJHH-UHFFFAOYSA-N

> <Salt_Solvent>
?

> <Ready_Biodeg>
0.0

$$$$
101166
  -INDIGO-08031722522D

 24 25  0  0  0  0  0  0  0  0999 V2000
    0.0000    0.0000    0.0000 C   0  0  0  0  0  0  0  0  0  0  0  0
    0.1672    1.5913    0.0000 H   0  0  0  0  0  0  0  0  0  0  0  0
    1.5216    0.4944    0.0000 C   0  0  0  0  0  0  0  0  0  0  0  0
    2.0161    2.0161    0.0000 O   0  0  0  0  0  0  0  0  0  0  0  0
    2.4621   -0.8000    0.0000 O   0  0  0  0  0  0  0  0  0  0  0  0
    1.5216   -2.0944    0.0000 C   0  0  0  0  0  0  0  0  0  0  0  0
    2.0161   -3.6161    0.0000 O   0  0  0  0  0  0  0  0  0  0  0  0
    0.0000   -1.6000    0.0000 C   0  0  0  0  0  0  0  0  0  0  0  0
    0.1672   -3.1913    0.0000 H   0  0  0  0  0  0  0  0  0  0  0  0
   -1.3856   -2.4000    0.0000 C   0  0  0  0  0  0  0  0  0  0  0  0
   -0.8384   -3.9035    0.0000 H   0  0  0  0  0  0  0  0  0  0  0  0
   -2.4141   -3.6257    0.0000 H   0  0  0  0  0  0  0  0  0  0  0  0
   -2.7713   -1.6000    0.0000 C   0  0  0  0  0  0  0  0  0  0  0  0
   -3.3185   -3.1035    0.0000 H   0  0  0  0  0  0  0  0  0  0  0  0
   -4.3470   -1.3222    0.0000 H   0  0  0  0  0  0  0  0  0  0  0  0
   -2.7713    0.0000    0.0000 C   0  0  0  0  0  0  0  0  0  0  0  0
   -3.3185    1.5035    0.0000 H   0  0  0  0  0  0  0  0  0  0  0  0
   -4.3470    0.2779    0.0000 C   0  0  0  0  0  0  0  0  0  0  0  0
   -5.9227    0.5557    0.0000 H   0  0  0  0  0  0  0  0  0  0  0  0
   -4.8943    1.7814    0.0000 H   0  0  0  0  0  0  0  0  0  0  0  0
   -5.3754   -0.9478    0.0000 H   0  0  0  0  0  0  0  0  0  0  0  0
   -1.3856    0.8000    0.0000 C   0  0  0  0  0  0  0  0  0  0  0  0
   -2.4141    2.0257    0.0000 H   0  0  0  0  0  0  0  0  0  0  0  0
   -0.8384    2.3035    0.0000 H   0  0  0  0  0  0  0  0  0  0  0  0
  1  2  1  0  0  0  0
  1  3  1  0  0  0  0
  3  4  2  0  0  0  0
  3  5  1  0  0  0  0
  5  6  1  0  0  0  0
  6  7  2  0  0  0  0
  6  8  1  0  0  0  0
  8  1  1  0  0  0  0
  8  9  1  0  0  0  0
  8 10  1  0  0  0  0
 10 11  1  0  0  0  0
 10 12  1  0  0  0  0
 10 13  1  0  0  0  0
 13 14  1  0  0  0  0
 13 15  1  0  0  0  0
 13 16  1  0  0  0  0
 16 17  1  0  0  0  0
 16 18  1  0  0  0  0
 18 19  1  0  0  0  0
 18 20  1  0  0  0  0
 18 21  1  0  0  0  0
 16 22  1  0  0  0  0
 22  1  1  0  0  0  0
 22 23  1  0  0  0  0
 22 24  1  0  0  0  0
M  END
> <ChemID>
101166

> <source_casrn>
19438-60-9

> <CAS>
19438-60-9

> <SMILES>
CC1CC2C(CC1)C(=O)OC2=O

> <NAME>
1,3-Isobenzofurandione, hexahydro-5-methyl-

> <preferred_name>
4-Methyl-1,2-cyclohexanedicarboxylic anhydride

> <iupac>
C9H12O3

> <MPID>
101144

> <dsstox_substance_id>
DTXSID8044333

> <Canonical_QSARr>
CC1CC2C(CC1)C(=O)OC2=O

> <InChI_Code_QSARr>
InChI=1S/C9H12O3/c1-5-2-3-6-7(4-5)9(11)12-8(6)10/h5-7H,2-4H2,1H3

> <InChI Key_QSARr>
FKBMTBAXDISZGN-UHFFFAOYSA-N

> <Salt_Solvent>
?

> <Ready_Biodeg>
0.0

$$$$
101167
  -INDIGO-08031722522D

 40 43  0  0  0  0  0  0  0  0999 V2000
    0.0001    2.7713    0.0000 O   0  0  0  0  0  0  0  0  0  0  0  0
   -0.8000    1.3856    0.0000 C   0  0  0  0  0  0  0  0  0  0  0  0
   -2.4001    1.3856    0.0000 C   0  0  0  0  0  0  0  0  0  0  0  0
   -3.1999    2.7713    0.0000 C   0  0  0  0  0  0  0  0  0  0  0  0
   -4.8001    2.7713    0.0000 C   0  0  0  0  0  0  0  0  0  0  0  0
   -5.6001    4.1570    0.0000 H   0  0  0  0  0  0  0  0  0  0  0  0
   -5.6001    1.3856    0.0000 C   0  0  0  0  0  0  0  0  0  0  0  0
   -7.2000    1.3856    0.0000 H   0  0  0  0  0  0  0  0  0  0  0  0
   -4.8001    0.0000    0.0000 C   0  0  0  0  0  0  0  0  0  0  0  0
   -5.6001   -1.3856    0.0000 O   0  0  0  0  0  0  0  0  0  0  0  0
   -7.2000   -1.3856    0.0000 H   0  0  0  0  0  0  0  0  0  0  0  0
   -3.1999    0.0000    0.0000 C   0  0  0  0  0  0  0  0  0  0  0  0
   -2.4001   -1.3856    0.0000 C   0  0  0  0  0  0  0  0  0  0  0  0
   -3.1999   -2.7713    0.0000 O   0  0  0  0  0  0  0  0  0  0  0  0
   -0.8000   -1.3856    0.0000 C   0  0  0  0  0  0  0  0  0  0  0  0
    0.0001    0.0000    0.0000 C   0  0  0  0  0  0  0  0  0  0  0  0
    1.5999    0.0000    0.0000 C   0  0  0  0  0  0  0  0  0  0  0  0
    2.4000   -1.3856    0.0000 C   0  0  0  0  0  0  0  0  0  0  0  0
    3.9999   -1.3856    0.0000 H   0  0  0  0  0  0  0  0  0  0  0  0
    1.5999   -2.7713    0.0000 C   0  0  0  0  0  0  0  0  0  0  0  0
    2.4000   -4.1569    0.0000 H   0  0  0  0  0  0  0  0  0  0  0  0
    0.0001   -2.7713    0.0000 C   0  0  0  0  0  0  0  0  0  0  0  0
   -0.8000   -4.1569    0.0000 O   0  0  0  0  0  0  0  0  0  0  0  0
    0.0001   -5.5426    0.0000 H   0  0  0  0  0  0  0  0  0  0  0  0
    2.4000    1.3856    0.0000 N   0  0  0  0  0  0  0  0  0  0  0  0
    1.5999    2.7713    0.0000 H   0  0  0  0  0  0  0  0  0  0  0  0
    3.9034    1.9329    0.0000 C   0  0  0  0  0  0  0  0  0  0  0  0
    5.1292    0.9044    0.0000 C   0  0  0  0  0  0  0  0  0  0  0  0
    4.8514   -0.6712    0.0000 H   0  0  0  0  0  0  0  0  0  0  0  0
    6.6326    1.4517    0.0000 C   0  0  0  0  0  0  0  0  0  0  0  0
    7.8584    0.4232    0.0000 H   0  0  0  0  0  0  0  0  0  0  0  0
    6.9106    3.0274    0.0000 C   0  0  0  0  0  0  0  0  0  0  0  0
    8.4140    3.5745    0.0000 H   0  0  0  0  0  0  0  0  0  0  0  0
    5.6848    4.0559    0.0000 C   0  0  0  0  0  0  0  0  0  0  0  0
    5.9626    5.6315    0.0000 H   0  0  0  0  0  0  0  0  0  0  0  0
    4.1814    3.5085    0.0000 C   0  0  0  0  0  0  0  0  0  0  0  0
    2.9556    4.5370    0.0000 H   0  0  0  0  0  0  0  0  0  0  0  0
   -2.4001    4.1570    0.0000 N   0  0  0  0  0  0  0  0  0  0  0  0
   -3.1999    5.5425    0.0000 O   0  0  0  0  0  0  0  0  0  0  0  0
   -0.8000    4.1570    0.0000 O   0  0  0  0  0  0  0  0  0  0  0  0
  1  2  2  0  0  0  0
  2  3  1  0  0  0  0
  3  4  1  0  0  0  0
  4  5  2  0  0  0  0
  5  6  1  0  0  0  0
  5  7  1  0  0  0  0
  7  8  1  0  0  0  0
  7  9  2  0  0  0  0
  9 10  1  0  0  0  0
 10 11  1  0  0  0  0
  9 12  1  0  0  0  0
 12  3  2  0  0  0  0
 12 13  1  0  0  0  0
 13 14  2  0  0  0  0
 13 15  1  0  0  0  0
 15 16  1  0  0  0  0
 16  2  1  0  0  0  0
 16 17  2  0  0  0  0
 17 18  1  0  0  0  0
 18 19  1  0  0  0  0
 18 20  2  0  0  0  0
 20 21  1  0  0  0  0
 20 22  1  0  0  0  0
 22 15  2  0  0  0  0
 22 23  1  0  0  0  0
 23 24  1  0  0  0  0
 17 25  1  0  0  0  0
 25 26  1  0  0  0  0
 25 27  1  0  0  0  0
 27 28  1  0  0  0  0
 28 29  1  0  0  0  0
 28 30  2  0  0  0  0
 30 31  1  0  0  0  0
 30 32  1  0  0  0  0
 32 33  1  0  0  0  0
 32 34  2  0  0  0  0
 34 35  1  0  0  0  0
 34 36  1  0  0  0  0
 36 27  2  0  0  0  0
 36 37  1  0  0  0  0
  4 38  1  0  0  0  0
 38 39  2  0  0  0  0
 38 40  1  0  0  0  0
M  CHG  2  38   1  40  -1
M  END
> <ChemID>
101167

> <source_casrn>
20241-76-3

> <CAS>
20241-76-3

> <SMILES>
[O-][N+](=O)c1ccc(O)c2c1C(=O)c1c(C2=O)c(O)ccc1Nc1ccccc1

> <NAME>
9,10-Anthracenedione, 1,8-dihydroxy-4-nitro-5-(phenylamino)-

> <preferred_name>
1-Anilino-4,5-dihydroxy-8-nitroanthraquinone

> <iupac>
1,8-dihydroxy-4-nitro-5-(phenylamino)anthracene-9,10-dione

> <MPID>
101145

> <dsstox_substance_id>
DTXSID1066578

> <Canonical_QSARr>
[O-][N+](=O)c1ccc(O)c2c1C(=O)c1c(C2=O)c(O)ccc1Nc1ccccc1

> <InChI_Code_QSARr>
InChI=1S/C20H12N2O6/c23-13-8-6-11(21-10-4-2-1-3-5-10)15-17(13)20(26)18-14(24)9-7-12(22(27)28)16(18)19(15)25/h1-9,21,23-24H

> <InChI Key_QSARr>
DYALWCKAJBVSBZ-UHFFFAOYSA-N

> <Salt_Solvent>
?

> <Ready_Biodeg>
0.0

$$$$
101169
  -INDIGO-08031722522D

 24 23  0  0  0  0  0  0  0  0999 V2000
   -2.7714    0.0000    0.0000 C   0  0  0  0  0  0  0  0  0  0  0  0
   -2.7714   -1.6000    0.0000 O   0  0  0  0  0  0  0  0  0  0  0  0
   -1.3857    0.8000    0.0000 O   0  0  0  0  0  0  0  0  0  0  0  0
    0.0000    0.0000    0.0000 C   0  0  0  0  0  0  0  0  0  0  0  0
    0.6124   -1.4782    0.0000 H   0  0  0  0  0  0  0  0  0  0  0  0
   -0.6124   -1.4782    0.0000 H   0  0  0  0  0  0  0  0  0  0  0  0
    1.3857    0.8000    0.0000 C   0  0  0  0  0  0  0  0  0  0  0  0
    1.3857    2.4000    0.0000 H   0  0  0  0  0  0  0  0  0  0  0  0
    2.7712    0.0000    0.0000 C   0  0  0  0  0  0  0  0  0  0  0  0
    2.7712   -1.6000    0.0000 H   0  0  0  0  0  0  0  0  0  0  0  0
    4.1569    0.8000    0.0000 C   0  0  0  0  0  0  0  0  0  0  0  0
    3.5445    2.2782    0.0000 H   0  0  0  0  0  0  0  0  0  0  0  0
    4.7693    2.2782    0.0000 H   0  0  0  0  0  0  0  0  0  0  0  0
    5.5426    0.0000    0.0000 O   0  0  0  0  0  0  0  0  0  0  0  0
    6.9283    0.8000    0.0000 C   0  0  0  0  0  0  0  0  0  0  0  0
    6.9283    2.4000    0.0000 O   0  0  0  0  0  0  0  0  0  0  0  0
    8.3138    0.0000    0.0000 C   0  0  0  0  0  0  0  0  0  0  0  0
    9.6995   -0.8000    0.0000 H   0  0  0  0  0  0  0  0  0  0  0  0
    9.6995    0.8000    0.0000 H   0  0  0  0  0  0  0  0  0  0  0  0
    8.3138   -1.6000    0.0000 Br  0  0  0  0  0  0  0  0  0  0  0  0
   -4.1569    0.8000    0.0000 C   0  0  0  0  0  0  0  0  0  0  0  0
   -5.5426    1.6000    0.0000 H   0  0  0  0  0  0  0  0  0  0  0  0
   -5.5426    0.0000    0.0000 H   0  0  0  0  0  0  0  0  0  0  0  0
   -4.1569    2.4000    0.0000 Br  0  0  0  0  0  0  0  0  0  0  0  0
  1  2  2  0  0  0  0
  1  3  1  0  0  0  0
  3  4  1  0  0  0  0
  4  5  1  0  0  0  0
  4  6  1  0  0  0  0
  4  7  1  0  0  0  0
  7  8  1  0  0  0  0
  7  9  2  0  0  0  0
  9 10  1  0  0  0  0
  9 11  1  0  0  0  0
 11 12  1  0  0  0  0
 11 13  1  0  0  0  0
 11 14  1  0  0  0  0
 14 15  1  0  0  0  0
 15 16  2  0  0  0  0
 15 17  1  0  0  0  0
 17 18  1  0  0  0  0
 17 19  1  0  0  0  0
 17 20  1  0  0  0  0
  1 21  1  0  0  0  0
 21 22  1  0  0  0  0
 21 23  1  0  0  0  0
 21 24  1  0  0  0  0
M  END
> <ChemID>
101169

> <source_casrn>
20679-58-7

> <CAS>
20679-58-7

> <SMILES>
BrCC(=O)OCC=CCOC(=O)CBr

> <NAME>
ACETIC ACID, BROMO-, 2-BUTENE-1,4-DIYL ESTER

> <preferred_name>
1,4-Bis(bromoacetoxy)-2-butene

> <iupac>
(2E)-but-2-ene-1,4-diyl bis(bromoacetate)

> <MPID>
101147

> <dsstox_substance_id>
DTXSID0034308

> <Canonical_QSARr>
O=C(CBr)OCC=CCOC(=O)CBr

> <InChI_Code_QSARr>
InChI=1S/C8H10Br2O4/c9-5-7(11)13-3-1-2-4-14-8(12)6-10/h1-2H,3-6H2/b2-1+

> <InChI Key_QSARr>
SIHKVAXULDBIIY-OWOJBTEDSA-N

> <Salt_Solvent>
?

> <Ready_Biodeg>
1.0

$$$$
101170
  -INDIGO-08031722522D

 20 21  0  0  0  0  0  0  0  0999 V2000
    5.8891    2.7239    0.0000 S   0  0  0  0  0  0  0  0  0  0  0  0
    7.2749    1.9238    0.0000 C   0  0  0  0  0  0  0  0  0  0  0  0
    8.6605    1.1239    0.0000 N   0  0  0  0  0  0  0  0  0  0  0  0
    4.5035    1.9238    0.0000 C   0  0  0  0  0  0  0  0  0  0  0  0
    5.1158    0.4457    0.0000 H   0  0  0  0  0  0  0  0  0  0  0  0
    3.8912    0.4457    0.0000 H   0  0  0  0  0  0  0  0  0  0  0  0
    3.1179    2.7239    0.0000 S   0  0  0  0  0  0  0  0  0  0  0  0
    1.7323    1.9238    0.0000 C   0  0  0  0  0  0  0  0  0  0  0  0
    0.2706    2.5746    0.0000 N   0  0  0  0  0  0  0  0  0  0  0  0
   -0.8000    1.3856    0.0000 C   0  0  0  0  0  0  0  0  0  0  0  0
    0.0001   -0.0000    0.0000 C   0  0  0  0  0  0  0  0  0  0  0  0
   -0.8000   -1.3856    0.0000 C   0  0  0  0  0  0  0  0  0  0  0  0
    0.0001   -2.7713    0.0000 H   0  0  0  0  0  0  0  0  0  0  0  0
   -2.4000   -1.3856    0.0000 C   0  0  0  0  0  0  0  0  0  0  0  0
   -3.2000   -2.7713    0.0000 H   0  0  0  0  0  0  0  0  0  0  0  0
   -3.2000   -0.0000    0.0000 C   0  0  0  0  0  0  0  0  0  0  0  0
   -4.8000   -0.0000    0.0000 H   0  0  0  0  0  0  0  0  0  0  0  0
   -2.4000    1.3856    0.0000 C   0  0  0  0  0  0  0  0  0  0  0  0
   -3.2000    2.7713    0.0000 H   0  0  0  0  0  0  0  0  0  0  0  0
    1.5649    0.3327    0.0000 S   0  0  0  0  0  0  0  0  0  0  0  0
  1  2  1  0  0  0  0
  2  3  3  0  0  0  0
  1  4  1  0  0  0  0
  4  5  1  0  0  0  0
  4  6  1  0  0  0  0
  4  7  1  0  0  0  0
  7  8  1  0  0  0  0
  8  9  2  0  0  0  0
  9 10  1  0  0  0  0
 10 11  1  0  0  0  0
 11 12  2  0  0  0  0
 12 13  1  0  0  0  0
 12 14  1  0  0  0  0
 14 15  1  0  0  0  0
 14 16  2  0  0  0  0
 16 17  1  0  0  0  0
 16 18  1  0  0  0  0
 18 10  2  0  0  0  0
 18 19  1  0  0  0  0
 11 20  1  0  0  0  0
 20  8  1  0  0  0  0
M  END
> <ChemID>
101170

> <source_casrn>
21564-17-0

> <CAS>
21564-17-0

> <SMILES>
c1ccc2N=C(SCSC(#N))Sc2c1

> <NAME>
2-(Thiocyanatemethylthio)benzothiazole

> <preferred_name>
2-(Thiocyanomethylthio)benzothiazole

> <iupac>
(1,3-benzothiazol-2-ylsulfanyl)methyl thiocyanate

> <MPID>
101148

> <dsstox_substance_id>
DTXSID6032647

> <Canonical_QSARr>
N#CSCSc1[n]c2ccccc2[s]1

> <InChI_Code_QSARr>
InChI=1S/C9H6N2S3/c10-5-12-6-13-9-11-7-3-1-2-4-8(7)14-9/h1-4H,6H2

> <InChI Key_QSARr>
TUBQDCKAWGHZPF-UHFFFAOYSA-N

> <Salt_Solvent>
?

> <Ready_Biodeg>
0.0

$$$$
101172
  -INDIGO-08031722522D

 33 32  0  0  0  0  0  0  0  0999 V2000
    1.6000   -0.0000    0.0000 O   0  0  0  0  0  0  0  0  0  0  0  0
    2.8256    1.0284    0.0000 C   0  0  0  0  0  0  0  0  0  0  0  0
    4.3292    0.4812    0.0000 O   0  0  0  0  0  0  0  0  0  0  0  0
    5.5548    1.5096    0.0000 C   0  0  0  0  0  0  0  0  0  0  0  0
    7.0584    0.9624    0.0000 O   0  0  0  0  0  0  0  0  0  0  0  0
    8.2840    1.9909    0.0000 C   0  0  0  0  0  0  0  0  0  0  0  0
    9.5098    3.0194    0.0000 C   0  0  0  0  0  0  0  0  0  0  0  0
   10.7354    4.0479    0.0000 H   0  0  0  0  0  0  0  0  0  0  0  0
   11.0132    2.4721    0.0000 H   0  0  0  0  0  0  0  0  0  0  0  0
    9.5098    4.6194    0.0000 H   0  0  0  0  0  0  0  0  0  0  0  0
    9.3124    0.7652    0.0000 C   0  0  0  0  0  0  0  0  0  0  0  0
   10.3409   -0.4604    0.0000 H   0  0  0  0  0  0  0  0  0  0  0  0
    8.7653   -0.7382    0.0000 H   0  0  0  0  0  0  0  0  0  0  0  0
   10.8883    1.0430    0.0000 H   0  0  0  0  0  0  0  0  0  0  0  0
    7.2556    3.2166    0.0000 C   0  0  0  0  0  0  0  0  0  0  0  0
    6.0300    4.2451    0.0000 H   0  0  0  0  0  0  0  0  0  0  0  0
    7.5334    4.7923    0.0000 H   0  0  0  0  0  0  0  0  0  0  0  0
    8.7592    3.7638    0.0000 H   0  0  0  0  0  0  0  0  0  0  0  0
    5.2770    3.0854    0.0000 O   0  0  0  0  0  0  0  0  0  0  0  0
    2.5477    2.6042    0.0000 O   0  0  0  0  0  0  0  0  0  0  0  0
    0.0001   -0.0000    0.0000 C   0  0  0  0  0  0  0  0  0  0  0  0
    0.0001    1.6000    0.0000 C   0  0  0  0  0  0  0  0  0  0  0  0
    0.0001    3.2000    0.0000 H   0  0  0  0  0  0  0  0  0  0  0  0
   -1.3856    2.4000    0.0000 H   0  0  0  0  0  0  0  0  0  0  0  0
    1.3857    2.4000    0.0000 H   0  0  0  0  0  0  0  0  0  0  0  0
   -1.6001   -0.0000    0.0000 C   0  0  0  0  0  0  0  0  0  0  0  0
   -3.2000   -0.0000    0.0000 H   0  0  0  0  0  0  0  0  0  0  0  0
   -2.3999   -1.3857    0.0000 H   0  0  0  0  0  0  0  0  0  0  0  0
   -2.3999    1.3856    0.0000 H   0  0  0  0  0  0  0  0  0  0  0  0
    0.0001   -1.6000    0.0000 C   0  0  0  0  0  0  0  0  0  0  0  0
    0.0001   -3.2000    0.0000 H   0  0  0  0  0  0  0  0  0  0  0  0
    1.3857   -2.4000    0.0000 H   0  0  0  0  0  0  0  0  0  0  0  0
   -1.3856   -2.4000    0.0000 H   0  0  0  0  0  0  0  0  0  0  0  0
  1  2  1  0  0  0  0
  2  3  1  0  0  0  0
  3  4  1  0  0  0  0
  4  5  1  0  0  0  0
  5  6  1  0  0  0  0
  6  7  1  0  0  0  0
  7  8  1  0  0  0  0
  7  9  1  0  0  0  0
  7 10  1  0  0  0  0
  6 11  1  0  0  0  0
 11 12  1  0  0  0  0
 11 13  1  0  0  0  0
 11 14  1  0  0  0  0
  6 15  1  0  0  0  0
 15 16  1  0  0  0  0
 15 17  1  0  0  0  0
 15 18  1  0  0  0  0
  4 19  2  0  0  0  0
  2 20  2  0  0  0  0
  1 21  1  0  0  0  0
 21 22  1  0  0  0  0
 22 23  1  0  0  0  0
 22 24  1  0  0  0  0
 22 25  1  0  0  0  0
 21 26  1  0  0  0  0
 26 27  1  0  0  0  0
 26 28  1  0  0  0  0
 26 29  1  0  0  0  0
 21 30  1  0  0  0  0
 30 31  1  0  0  0  0
 30 32  1  0  0  0  0
 30 33  1  0  0  0  0
M  END
> <ChemID>
101172

> <source_casrn>
24424-99-5

> <CAS>
24424-99-5

> <SMILES>
CC(C)(C)OC(=O)OC(=O)OC(C)(C)C

> <NAME>
Di-t-butyl dicarbonate

> <preferred_name>
Di-tert-butyl dicarbonate

> <iupac>
di-tert-butyl dicarbonate

> <MPID>
101149

> <dsstox_substance_id>
DTXSID4051904

> <Canonical_QSARr>
CC(C)(C)OC(=O)OC(=O)OC(C)(C)C

> <InChI_Code_QSARr>
InChI=1S/C10H18O5/c1-9(2,3)14-7(11)13-8(12)15-10(4,5)6/h1-6H3

> <InChI Key_QSARr>
DYHSDKLCOJIUFX-UHFFFAOYSA-N

> <Salt_Solvent>
?

> <Ready_Biodeg>
1.0

$$$$
101182
  -INDIGO-08031722522D

 78 78  0  0  0  0  0  0  0  0999 V2000
  -11.2001    8.3139    0.0000 C   0  0  0  0  0  0  0  0  0  0  0  0
   -9.6000    8.3139    0.0000 H   0  0  0  0  0  0  0  0  0  0  0  0
  -11.9999    9.6994    0.0000 C   0  0  0  0  0  0  0  0  0  0  0  0
  -11.2001   11.0851    0.0000 H   0  0  0  0  0  0  0  0  0  0  0  0
  -13.6001    9.6994    0.0000 C   0  0  0  0  0  0  0  0  0  0  0  0
  -14.3999   11.0851    0.0000 H   0  0  0  0  0  0  0  0  0  0  0  0
  -14.3999    8.3139    0.0000 C   0  0  0  0  0  0  0  0  0  0  0  0
  -16.0000    8.3139    0.0000 H   0  0  0  0  0  0  0  0  0  0  0  0
  -13.6001    6.9281    0.0000 C   0  0  0  0  0  0  0  0  0  0  0  0
  -14.3999    5.5426    0.0000 C   0  0  0  0  0  0  0  0  0  0  0  0
  -13.6001    4.1568    0.0000 O   0  0  0  0  0  0  0  0  0  0  0  0
  -16.0000    5.5426    0.0000 O   0  0  0  0  0  0  0  0  0  0  0  0
  -16.7998    4.1568    0.0000 C   0  0  0  0  0  0  0  0  0  0  0  0
  -15.5307    3.1830    0.0000 H   0  0  0  0  0  0  0  0  0  0  0  0
  -16.5910    2.5706    0.0000 H   0  0  0  0  0  0  0  0  0  0  0  0
  -18.4000    4.1568    0.0000 C   0  0  0  0  0  0  0  0  0  0  0  0
  -19.6696    5.1309    0.0000 H   0  0  0  0  0  0  0  0  0  0  0  0
  -18.6088    5.7433    0.0000 H   0  0  0  0  0  0  0  0  0  0  0  0
  -19.1998    2.7713    0.0000 C   0  0  0  0  0  0  0  0  0  0  0  0
  -17.9307    1.7972    0.0000 H   0  0  0  0  0  0  0  0  0  0  0  0
  -18.9909    1.1851    0.0000 H   0  0  0  0  0  0  0  0  0  0  0  0
  -20.7999    2.7713    0.0000 C   0  0  0  0  0  0  0  0  0  0  0  0
  -22.0695    3.7454    0.0000 H   0  0  0  0  0  0  0  0  0  0  0  0
  -21.0088    4.3576    0.0000 H   0  0  0  0  0  0  0  0  0  0  0  0
  -21.6002    1.3856    0.0000 C   0  0  0  0  0  0  0  0  0  0  0  0
  -20.3306    0.4117    0.0000 H   0  0  0  0  0  0  0  0  0  0  0  0
  -21.3914   -0.2007    0.0000 H   0  0  0  0  0  0  0  0  0  0  0  0
  -23.1999    1.3856    0.0000 C   0  0  0  0  0  0  0  0  0  0  0  0
  -24.4694    2.3597    0.0000 H   0  0  0  0  0  0  0  0  0  0  0  0
  -23.4087    2.9720    0.0000 H   0  0  0  0  0  0  0  0  0  0  0  0
  -24.0002    0.0000    0.0000 C   0  0  0  0  0  0  0  0  0  0  0  0
  -22.7306   -0.9740    0.0000 H   0  0  0  0  0  0  0  0  0  0  0  0
  -23.7913   -1.5862    0.0000 H   0  0  0  0  0  0  0  0  0  0  0  0
  -25.5998    0.0000    0.0000 C   0  0  0  0  0  0  0  0  0  0  0  0
  -25.3223    1.5757    0.0000 H   0  0  0  0  0  0  0  0  0  0  0  0
  -27.1756    0.2779    0.0000 C   0  0  0  0  0  0  0  0  0  0  0  0
  -28.7514    0.5557    0.0000 H   0  0  0  0  0  0  0  0  0  0  0  0
  -28.2042   -0.9477    0.0000 H   0  0  0  0  0  0  0  0  0  0  0  0
  -27.7228    1.7814    0.0000 H   0  0  0  0  0  0  0  0  0  0  0  0
  -25.8778   -1.5758    0.0000 C   0  0  0  0  0  0  0  0  0  0  0  0
  -26.1557   -3.1514    0.0000 H   0  0  0  0  0  0  0  0  0  0  0  0
  -24.6520   -2.6042    0.0000 H   0  0  0  0  0  0  0  0  0  0  0  0
  -27.3815   -2.1230    0.0000 H   0  0  0  0  0  0  0  0  0  0  0  0
  -11.9999    6.9281    0.0000 C   0  0  0  0  0  0  0  0  0  0  0  0
  -11.2001    5.5426    0.0000 C   0  0  0  0  0  0  0  0  0  0  0  0
   -9.6000    5.5426    0.0000 O   0  0  0  0  0  0  0  0  0  0  0  0
   -8.8002    4.1568    0.0000 C   0  0  0  0  0  0  0  0  0  0  0  0
   -9.0090    2.5706    0.0000 H   0  0  0  0  0  0  0  0  0  0  0  0
  -10.0693    3.1830    0.0000 H   0  0  0  0  0  0  0  0  0  0  0  0
   -7.2000    4.1568    0.0000 C   0  0  0  0  0  0  0  0  0  0  0  0
   -6.9912    5.7433    0.0000 H   0  0  0  0  0  0  0  0  0  0  0  0
   -5.9305    5.1309    0.0000 H   0  0  0  0  0  0  0  0  0  0  0  0
   -6.4002    2.7713    0.0000 C   0  0  0  0  0  0  0  0  0  0  0  0
   -6.6091    1.1851    0.0000 H   0  0  0  0  0  0  0  0  0  0  0  0
   -7.6693    1.7972    0.0000 H   0  0  0  0  0  0  0  0  0  0  0  0
   -4.8001    2.7713    0.0000 C   0  0  0  0  0  0  0  0  0  0  0  0
   -4.5912    4.3576    0.0000 H   0  0  0  0  0  0  0  0  0  0  0  0
   -3.5305    3.7454    0.0000 H   0  0  0  0  0  0  0  0  0  0  0  0
   -3.9998    1.3856    0.0000 C   0  0  0  0  0  0  0  0  0  0  0  0
   -4.2086   -0.2007    0.0000 H   0  0  0  0  0  0  0  0  0  0  0  0
   -5.2694    0.4117    0.0000 H   0  0  0  0  0  0  0  0  0  0  0  0
   -2.4001    1.3856    0.0000 C   0  0  0  0  0  0  0  0  0  0  0  0
   -2.1913    2.9720    0.0000 H   0  0  0  0  0  0  0  0  0  0  0  0
   -1.1306    2.3597    0.0000 H   0  0  0  0  0  0  0  0  0  0  0  0
   -1.5998    0.0000    0.0000 C   0  0  0  0  0  0  0  0  0  0  0  0
   -1.8087   -1.5862    0.0000 H   0  0  0  0  0  0  0  0  0  0  0  0
   -2.8694   -0.9740    0.0000 H   0  0  0  0  0  0  0  0  0  0  0  0
   -0.0002    0.0000    0.0000 C   0  0  0  0  0  0  0  0  0  0  0  0
   -0.2777    1.5757    0.0000 H   0  0  0  0  0  0  0  0  0  0  0  0
    1.5756    0.2779    0.0000 C   0  0  0  0  0  0  0  0  0  0  0  0
    3.1514    0.5557    0.0000 H   0  0  0  0  0  0  0  0  0  0  0  0
    2.6042   -0.9477    0.0000 H   0  0  0  0  0  0  0  0  0  0  0  0
    2.1228    1.7814    0.0000 H   0  0  0  0  0  0  0  0  0  0  0  0
    0.2778   -1.5758    0.0000 C   0  0  0  0  0  0  0  0  0  0  0  0
    0.5557   -3.1514    0.0000 H   0  0  0  0  0  0  0  0  0  0  0  0
   -0.9480   -2.6042    0.0000 H   0  0  0  0  0  0  0  0  0  0  0  0
    1.7815   -2.1230    0.0000 H   0  0  0  0  0  0  0  0  0  0  0  0
  -11.9999    4.1568    0.0000 O   0  0  0  0  0  0  0  0  0  0  0  0
  1  2  1  0  0  0  0
  1  3  1  0  0  0  0
  3  4  1  0  0  0  0
  3  5  2  0  0  0  0
  5  6  1  0  0  0  0
  5  7  1  0  0  0  0
  7  8  1  0  0  0  0
  7  9  2  0  0  0  0
  9 10  1  0  0  0  0
 10 11  2  0  0  0  0
 10 12  1  0  0  0  0
 12 13  1  0  0  0  0
 13 14  1  0  0  0  0
 13 15  1  0  0  0  0
 13 16  1  0  0  0  0
 16 17  1  0  0  0  0
 16 18  1  0  0  0  0
 16 19  1  0  0  0  0
 19 20  1  0  0  0  0
 19 21  1  0  0  0  0
 19 22  1  0  0  0  0
 22 23  1  0  0  0  0
 22 24  1  0  0  0  0
 22 25  1  0  0  0  0
 25 26  1  0  0  0  0
 25 27  1  0  0  0  0
 25 28  1  0  0  0  0
 28 29  1  0  0  0  0
 28 30  1  0  0  0  0
 28 31  1  0  0  0  0
 31 32  1  0  0  0  0
 31 33  1  0  0  0  0
 31 34  1  0  0  0  0
 34 35  1  0  0  0  0
 34 36  1  0  0  0  0
 36 37  1  0  0  0  0
 36 38  1  0  0  0  0
 36 39  1  0  0  0  0
 34 40  1  0  0  0  0
 40 41  1  0  0  0  0
 40 42  1  0  0  0  0
 40 43  1  0  0  0  0
  9 44  1  0  0  0  0
 44  1  2  0  0  0  0
 44 45  1  0  0  0  0
 45 46  1  0  0  0  0
 46 47  1  0  0  0  0
 47 48  1  0  0  0  0
 47 49  1  0  0  0  0
 47 50  1  0  0  0  0
 50 51  1  0  0  0  0
 50 52  1  0  0  0  0
 50 53  1  0  0  0  0
 53 54  1  0  0  0  0
 53 55  1  0  0  0  0
 53 56  1  0  0  0  0
 56 57  1  0  0  0  0
 56 58  1  0  0  0  0
 56 59  1  0  0  0  0
 59 60  1  0  0  0  0
 59 61  1  0  0  0  0
 59 62  1  0  0  0  0
 62 63  1  0  0  0  0
 62 64  1  0  0  0  0
 62 65  1  0  0  0  0
 65 66  1  0  0  0  0
 65 67  1  0  0  0  0
 65 68  1  0  0  0  0
 68 69  1  0  0  0  0
 68 70  1  0  0  0  0
 70 71  1  0  0  0  0
 70 72  1  0  0  0  0
 70 73  1  0  0  0  0
 68 74  1  0  0  0  0
 74 75  1  0  0  0  0
 74 76  1  0  0  0  0
 74 77  1  0  0  0  0
 45 78  2  0  0  0  0
M  END
> <ChemID>
101182

> <source_casrn>
26761-40-0

> <CAS>
26761-40-0

> <SMILES>
CC(C)CCCCCCCOC(=O)c1ccccc1C(=O)OCCCCCCCC(C)C

> <NAME>
Diisodecyl phthalate

> <preferred_name>
bis(8-Methylnonyl) phthalate

> <iupac>
bis(8-methylnonyl) benzene-1,2-dicarboxylate

> <MPID>
101152

> <dsstox_substance_id>
DTXSID4025082

> <Canonical_QSARr>
CC(C)CCCCCCCOC(=O)c1ccccc1C(=O)OCCCCCCCC(C)C

> <InChI_Code_QSARr>
InChI=1S/C28H46O4/c1-23(2)17-11-7-5-9-15-21-31-27(29)25-19-13-14-20-26(25)28(30)32-22-16-10-6-8-12-18-24(3)4/h13-14,19-20,23-24H,5-12,15-18,21-22H2,1-4H3

> <InChI Key_QSARr>
ZVFDTKUVRCTHQE-UHFFFAOYSA-N

> <Salt_Solvent>
?

> <Ready_Biodeg>
1.0

$$$$
101183
  -INDIGO-08031722522D

 62 63  0  0  0  0  0  0  0  0999 V2000
   -5.0576   -3.1451    0.0000 O   0  0  0  0  0  0  0  0  0  0  0  0
   -4.7798   -1.5695    0.0000 C   0  0  0  0  0  0  0  0  0  0  0  0
   -3.2764   -1.0223    0.0000 O   0  0  0  0  0  0  0  0  0  0  0  0
   -2.0508   -2.0507    0.0000 C   0  0  0  0  0  0  0  0  0  0  0  0
   -1.7044   -3.6129    0.0000 H   0  0  0  0  0  0  0  0  0  0  0  0
   -2.9103   -3.4001    0.0000 H   0  0  0  0  0  0  0  0  0  0  0  0
   -0.5474   -1.5036    0.0000 C   0  0  0  0  0  0  0  0  0  0  0  0
    0.1914   -2.9228    0.0000 H   0  0  0  0  0  0  0  0  0  0  0  0
    0.9787   -1.9846    0.0000 H   0  0  0  0  0  0  0  0  0  0  0  0
   -0.0001    0.0001    0.0000 N   0  0  0  0  0  0  0  0  0  0  0  0
    1.5999    0.0001    0.0000 C   0  0  0  0  0  0  0  0  0  0  0  0
    2.3999    1.3856    0.0000 C   0  0  0  0  0  0  0  0  0  0  0  0
    1.5999    2.7714    0.0000 H   0  0  0  0  0  0  0  0  0  0  0  0
    3.9999    1.3856    0.0000 C   0  0  0  0  0  0  0  0  0  0  0  0
    4.7999    2.7714    0.0000 H   0  0  0  0  0  0  0  0  0  0  0  0
    4.7999    0.0001    0.0000 C   0  0  0  0  0  0  0  0  0  0  0  0
    6.3999    0.0001    0.0000 N   0  0  0  0  0  0  0  0  0  0  0  0
    7.1999    1.3856    0.0000 N   0  0  0  0  0  0  0  0  0  0  0  0
    8.8000    1.3856    0.0000 C   0  0  0  0  0  0  0  0  0  0  0  0
    9.6000    2.7714    0.0000 C   0  0  0  0  0  0  0  0  0  0  0  0
    8.8000    4.1569    0.0000 Cl  0  0  0  0  0  0  0  0  0  0  0  0
   11.2000    2.7714    0.0000 C   0  0  0  0  0  0  0  0  0  0  0  0
   12.0000    4.1569    0.0000 H   0  0  0  0  0  0  0  0  0  0  0  0
   12.0000    1.3856    0.0000 C   0  0  0  0  0  0  0  0  0  0  0  0
   13.6000    1.3856    0.0000 N   0  0  0  0  0  0  0  0  0  0  0  0
   14.4000    2.7714    0.0000 O   0  0  0  0  0  0  0  0  0  0  0  0
   14.4000    0.0001    0.0000 O   0  0  0  0  0  0  0  0  0  0  0  0
   11.2000    0.0001    0.0000 C   0  0  0  0  0  0  0  0  0  0  0  0
   12.0000   -1.3857    0.0000 H   0  0  0  0  0  0  0  0  0  0  0  0
    9.6000    0.0001    0.0000 C   0  0  0  0  0  0  0  0  0  0  0  0
    8.8000   -1.3857    0.0000 H   0  0  0  0  0  0  0  0  0  0  0  0
    3.9999   -1.3857    0.0000 C   0  0  0  0  0  0  0  0  0  0  0  0
    4.7999   -2.7712    0.0000 N   0  0  0  0  0  0  0  0  0  0  0  0
    3.9999   -4.1570    0.0000 H   0  0  0  0  0  0  0  0  0  0  0  0
    6.3999   -2.7712    0.0000 C   0  0  0  0  0  0  0  0  0  0  0  0
    7.1999   -1.3857    0.0000 O   0  0  0  0  0  0  0  0  0  0  0  0
    7.1999   -4.1570    0.0000 C   0  0  0  0  0  0  0  0  0  0  0  0
    5.9306   -5.1310    0.0000 H   0  0  0  0  0  0  0  0  0  0  0  0
    6.9913   -5.7432    0.0000 H   0  0  0  0  0  0  0  0  0  0  0  0
    8.8000   -4.1570    0.0000 C   0  0  0  0  0  0  0  0  0  0  0  0
    9.6000   -5.5425    0.0000 H   0  0  0  0  0  0  0  0  0  0  0  0
   10.4000   -4.1570    0.0000 H   0  0  0  0  0  0  0  0  0  0  0  0
    7.9999   -5.5425    0.0000 H   0  0  0  0  0  0  0  0  0  0  0  0
    2.3999   -1.3857    0.0000 C   0  0  0  0  0  0  0  0  0  0  0  0
    1.5999   -2.7712    0.0000 H   0  0  0  0  0  0  0  0  0  0  0  0
   -1.0285    1.2257    0.0000 C   0  0  0  0  0  0  0  0  0  0  0  0
   -2.3778    0.3661    0.0000 H   0  0  0  0  0  0  0  0  0  0  0  0
   -2.5904    1.5719    0.0000 H   0  0  0  0  0  0  0  0  0  0  0  0
   -1.0285    2.8256    0.0000 C   0  0  0  0  0  0  0  0  0  0  0  0
   -0.0543    4.0951    0.0000 H   0  0  0  0  0  0  0  0  0  0  0  0
    0.5578    3.0345    0.0000 H   0  0  0  0  0  0  0  0  0  0  0  0
   -2.4142    3.6257    0.0000 O   0  0  0  0  0  0  0  0  0  0  0  0
   -2.4142    5.2257    0.0000 C   0  0  0  0  0  0  0  0  0  0  0  0
   -1.0285    6.0257    0.0000 O   0  0  0  0  0  0  0  0  0  0  0  0
   -3.7996    6.0257    0.0000 C   0  0  0  0  0  0  0  0  0  0  0  0
   -5.1853    6.8256    0.0000 H   0  0  0  0  0  0  0  0  0  0  0  0
   -3.7996    7.6257    0.0000 H   0  0  0  0  0  0  0  0  0  0  0  0
   -5.1853    5.2257    0.0000 H   0  0  0  0  0  0  0  0  0  0  0  0
   -6.0057   -0.5411    0.0000 C   0  0  0  0  0  0  0  0  0  0  0  0
   -7.2313    0.4874    0.0000 H   0  0  0  0  0  0  0  0  0  0  0  0
   -7.5091   -1.0882    0.0000 H   0  0  0  0  0  0  0  0  0  0  0  0
   -5.7279    1.0345    0.0000 H   0  0  0  0  0  0  0  0  0  0  0  0
  1  2  2  0  0  0  0
  2  3  1  0  0  0  0
  3  4  1  0  0  0  0
  4  5  1  0  0  0  0
  4  6  1  0  0  0  0
  4  7  1  0  0  0  0
  7  8  1  0  0  0  0
  7  9  1  0  0  0  0
  7 10  1  0  0  0  0
 10 11  1  0  0  0  0
 11 12  1  0  0  0  0
 12 13  1  0  0  0  0
 12 14  2  0  0  0  0
 14 15  1  0  0  0  0
 14 16  1  0  0  0  0
 16 17  1  0  0  0  0
 17 18  2  0  0  0  0
 18 19  1  0  0  0  0
 19 20  1  0  0  0  0
 20 21  1  0  0  0  0
 20 22  2  0  0  0  0
 22 23  1  0  0  0  0
 22 24  1  0  0  0  0
 24 25  1  0  0  0  0
 25 26  2  0  0  0  0
 25 27  1  0  0  0  0
 24 28  2  0  0  0  0
 28 29  1  0  0  0  0
 28 30  1  0  0  0  0
 30 19  2  0  0  0  0
 30 31  1  0  0  0  0
 16 32  2  0  0  0  0
 32 33  1  0  0  0  0
 33 34  1  0  0  0  0
 33 35  1  0  0  0  0
 35 36  2  0  0  0  0
 35 37  1  0  0  0  0
 37 38  1  0  0  0  0
 37 39  1  0  0  0  0
 37 40  1  0  0  0  0
 40 41  1  0  0  0  0
 40 42  1  0  0  0  0
 40 43  1  0  0  0  0
 32 44  1  0  0  0  0
 44 11  2  0  0  0  0
 44 45  1  0  0  0  0
 10 46  1  0  0  0  0
 46 47  1  0  0  0  0
 46 48  1  0  0  0  0
 46 49  1  0  0  0  0
 49 50  1  0  0  0  0
 49 51  1  0  0  0  0
 49 52  1  0  0  0  0
 52 53  1  0  0  0  0
 53 54  2  0  0  0  0
 53 55  1  0  0  0  0
 55 56  1  0  0  0  0
 55 57  1  0  0  0  0
 55 58  1  0  0  0  0
  2 59  1  0  0  0  0
 59 60  1  0  0  0  0
 59 61  1  0  0  0  0
 59 62  1  0  0  0  0
M  CHG  2  25   1  27  -1
M  END
> <ChemID>
101183

> <source_casrn>
26850-12-4

> <CAS>
26850-12-4

> <SMILES>
O=C(OCCN(c(ccc(N=Nc(c(cc(N(=O)(=O))c1)Cl)c1)c2NC(=O)CC)c2)CCOC(=O)C)C

> <NAME>
Propanamide, N- 5- bis 2-(acetyloxy)ethyl amino -2- (2-chloro-4-nitro

> <preferred_name>
Disperse Red 167

> <iupac>
2-[2-acetyloxyethyl-[4-(2-chloro-4-nitrophenyl)diazenyl-3-(propanoylamino)phenyl]amino]ethyl acetate

> <MPID>
101153

> <dsstox_substance_id>
DTXSID1067259

> <Canonical_QSARr>
CCC(=O)Nc1cc(ccc1N=Nc1ccc(cc1Cl)[N+]([O-])=O)N(CCOC(C)=O)CCOC(C)=O

> <InChI_Code_QSARr>
InChI=1S/C23H26ClN5O7/c1-4-23(32)25-22-14-17(28(9-11-35-15(2)30)10-12-36-16(3)31)5-8-21(22)27-26-20-7-6-18(29(33)34)13-19(20)24/h5-8,13-14H,4,9-12H2,1-3H3,(H,25,32)/b27-26+

> <InChI Key_QSARr>
ZDORFLXCSSFUIE-CYYJNZCTSA-N

> <Salt_Solvent>
?

> <Ready_Biodeg>
0.0

$$$$
101184
  -INDIGO-08031722522D

 57 56  0  0  0  0  0  0  0  0999 V2000
  -11.0850    0.0000    0.0000 C   0  0  0  0  0  0  0  0  0  0  0  0
   -9.6997   -0.8000    0.0000 C   0  0  0  0  0  0  0  0  0  0  0  0
   -9.0874   -2.2782    0.0000 H   0  0  0  0  0  0  0  0  0  0  0  0
  -10.3116   -2.2782    0.0000 H   0  0  0  0  0  0  0  0  0  0  0  0
   -8.3139    0.0000    0.0000 C   0  0  0  0  0  0  0  0  0  0  0  0
   -8.9263    1.4782    0.0000 H   0  0  0  0  0  0  0  0  0  0  0  0
   -7.7016    1.4782    0.0000 H   0  0  0  0  0  0  0  0  0  0  0  0
   -6.9282   -0.8000    0.0000 C   0  0  0  0  0  0  0  0  0  0  0  0
   -6.3159   -2.2782    0.0000 H   0  0  0  0  0  0  0  0  0  0  0  0
   -7.5405   -2.2782    0.0000 H   0  0  0  0  0  0  0  0  0  0  0  0
   -5.5425    0.0000    0.0000 C   0  0  0  0  0  0  0  0  0  0  0  0
   -6.1548    1.4782    0.0000 H   0  0  0  0  0  0  0  0  0  0  0  0
   -4.9301    1.4782    0.0000 H   0  0  0  0  0  0  0  0  0  0  0  0
   -4.1567   -0.8000    0.0000 C   0  0  0  0  0  0  0  0  0  0  0  0
   -3.5448   -2.2782    0.0000 H   0  0  0  0  0  0  0  0  0  0  0  0
   -4.7690   -2.2782    0.0000 H   0  0  0  0  0  0  0  0  0  0  0  0
   -2.7714    0.0000    0.0000 C   0  0  0  0  0  0  0  0  0  0  0  0
   -3.3837    1.4782    0.0000 H   0  0  0  0  0  0  0  0  0  0  0  0
   -2.1591    1.4782    0.0000 H   0  0  0  0  0  0  0  0  0  0  0  0
   -1.3856   -0.8000    0.0000 C   0  0  0  0  0  0  0  0  0  0  0  0
   -0.7733   -2.2782    0.0000 H   0  0  0  0  0  0  0  0  0  0  0  0
   -1.9980   -2.2782    0.0000 H   0  0  0  0  0  0  0  0  0  0  0  0
    0.0001    0.0000    0.0000 C   0  0  0  0  0  0  0  0  0  0  0  0
   -0.6122    1.4782    0.0000 H   0  0  0  0  0  0  0  0  0  0  0  0
    0.6124    1.4782    0.0000 H   0  0  0  0  0  0  0  0  0  0  0  0
    1.3859   -0.8000    0.0000 C   0  0  0  0  0  0  0  0  0  0  0  0
    1.9977   -2.2782    0.0000 H   0  0  0  0  0  0  0  0  0  0  0  0
    0.7735   -2.2782    0.0000 H   0  0  0  0  0  0  0  0  0  0  0  0
    2.7712    0.0000    0.0000 C   0  0  0  0  0  0  0  0  0  0  0  0
    2.1589    1.4782    0.0000 H   0  0  0  0  0  0  0  0  0  0  0  0
    3.3835    1.4782    0.0000 H   0  0  0  0  0  0  0  0  0  0  0  0
    4.1569   -0.8000    0.0000 C   0  0  0  0  0  0  0  0  0  0  0  0
    4.7692   -2.2782    0.0000 H   0  0  0  0  0  0  0  0  0  0  0  0
    3.5446   -2.2782    0.0000 H   0  0  0  0  0  0  0  0  0  0  0  0
    5.5427    0.0000    0.0000 C   0  0  0  0  0  0  0  0  0  0  0  0
    4.9304    1.4782    0.0000 H   0  0  0  0  0  0  0  0  0  0  0  0
    6.1550    1.4782    0.0000 H   0  0  0  0  0  0  0  0  0  0  0  0
    6.9284   -0.8000    0.0000 C   0  0  0  0  0  0  0  0  0  0  0  0
    7.5403   -2.2782    0.0000 H   0  0  0  0  0  0  0  0  0  0  0  0
    6.3161   -2.2782    0.0000 H   0  0  0  0  0  0  0  0  0  0  0  0
    8.3137    0.0000    0.0000 C   0  0  0  0  0  0  0  0  0  0  0  0
    7.7014    1.4782    0.0000 H   0  0  0  0  0  0  0  0  0  0  0  0
    8.9261    1.4782    0.0000 H   0  0  0  0  0  0  0  0  0  0  0  0
    9.6995   -0.8000    0.0000 C   0  0  0  0  0  0  0  0  0  0  0  0
   10.3118   -2.2782    0.0000 H   0  0  0  0  0  0  0  0  0  0  0  0
    9.0872   -2.2782    0.0000 H   0  0  0  0  0  0  0  0  0  0  0  0
   11.0852    0.0000    0.0000 C   0  0  0  0  0  0  0  0  0  0  0  0
   10.4729    1.4782    0.0000 H   0  0  0  0  0  0  0  0  0  0  0  0
   11.6975    1.4782    0.0000 H   0  0  0  0  0  0  0  0  0  0  0  0
   12.4710   -0.8000    0.0000 C   0  0  0  0  0  0  0  0  0  0  0  0
   13.0829   -2.2782    0.0000 H   0  0  0  0  0  0  0  0  0  0  0  0
   11.8587   -2.2782    0.0000 H   0  0  0  0  0  0  0  0  0  0  0  0
   13.8563    0.0000    0.0000 C   0  0  0  0  0  0  0  0  0  0  0  0
   15.2420    0.8000    0.0000 H   0  0  0  0  0  0  0  0  0  0  0  0
   15.2420   -0.8000    0.0000 H   0  0  0  0  0  0  0  0  0  0  0  0
   13.8563    1.6000    0.0000 H   0  0  0  0  0  0  0  0  0  0  0  0
  -12.4708    0.8000    0.0000 N   0  0  0  0  0  0  0  0  0  0  0  0
  1  2  1  0  0  0  0
  2  3  1  0  0  0  0
  2  4  1  0  0  0  0
  2  5  1  0  0  0  0
  5  6  1  0  0  0  0
  5  7  1  0  0  0  0
  5  8  1  0  0  0  0
  8  9  1  0  0  0  0
  8 10  1  0  0  0  0
  8 11  1  0  0  0  0
 11 12  1  0  0  0  0
 11 13  1  0  0  0  0
 11 14  1  0  0  0  0
 14 15  1  0  0  0  0
 14 16  1  0  0  0  0
 14 17  1  0  0  0  0
 17 18  1  0  0  0  0
 17 19  1  0  0  0  0
 17 20  1  0  0  0  0
 20 21  1  0  0  0  0
 20 22  1  0  0  0  0
 20 23  1  0  0  0  0
 23 24  1  0  0  0  0
 23 25  1  0  0  0  0
 23 26  1  0  0  0  0
 26 27  1  0  0  0  0
 26 28  1  0  0  0  0
 26 29  1  0  0  0  0
 29 30  1  0  0  0  0
 29 31  1  0  0  0  0
 29 32  1  0  0  0  0
 32 33  1  0  0  0  0
 32 34  1  0  0  0  0
 32 35  1  0  0  0  0
 35 36  1  0  0  0  0
 35 37  1  0  0  0  0
 35 38  1  0  0  0  0
 38 39  1  0  0  0  0
 38 40  1  0  0  0  0
 38 41  1  0  0  0  0
 41 42  1  0  0  0  0
 41 43  1  0  0  0  0
 41 44  1  0  0  0  0
 44 45  1  0  0  0  0
 44 46  1  0  0  0  0
 44 47  1  0  0  0  0
 47 48  1  0  0  0  0
 47 49  1  0  0  0  0
 47 50  1  0  0  0  0
 50 51  1  0  0  0  0
 50 52  1  0  0  0  0
 50 53  1  0  0  0  0
 53 54  1  0  0  0  0
 53 55  1  0  0  0  0
 53 56  1  0  0  0  0
  1 57  3  0  0  0  0
M  END
> <ChemID>
101184

> <source_casrn>
28623-46-3

> <CAS>
28623-46-3

> <SMILES>
N#CCCCCCCCCCCCCCCCCCC

> <NAME>
Nonadecanenitrile

> <preferred_name>
Nitriles, C16-22

> <iupac>
nonadecanenitrile

> <MPID>
101154

> <dsstox_substance_id>
DTXSID50873468

> <Canonical_QSARr>
CCCCCCCCCCCCCCCCCCC#N

> <InChI_Code_QSARr>
InChI=1S/C19H37N/c1-2-3-4-5-6-7-8-9-10-11-12-13-14-15-16-17-18-19-20/h2-18H2,1H3

> <InChI Key_QSARr>
MVDGSHXQMOKTDJ-UHFFFAOYSA-N

> <Salt_Solvent>
?

> <Ready_Biodeg>
1.0

$$$$
101186
  -INDIGO-08031722522D

 20 19  0  0  0  0  0  0  0  0999 V2000
   -0.0000    0.0000    0.0000 P   0  0  0  0  0  0  0  0  0  0  0  0
    1.6000    0.0000    0.0000 N   0  0  0  0  0  0  0  0  0  0  0  0
    2.4000    1.3856    0.0000 H   0  0  0  0  0  0  0  0  0  0  0  0
    2.4000   -1.3856    0.0000 C   0  0  0  0  0  0  0  0  0  0  0  0
    1.6000   -2.7713    0.0000 O   0  0  0  0  0  0  0  0  0  0  0  0
    4.0001   -1.3856    0.0000 C   0  0  0  0  0  0  0  0  0  0  0  0
    5.6000   -1.3856    0.0000 H   0  0  0  0  0  0  0  0  0  0  0  0
    4.8000   -2.7713    0.0000 H   0  0  0  0  0  0  0  0  0  0  0  0
    4.8000    0.0000    0.0000 H   0  0  0  0  0  0  0  0  0  0  0  0
   -0.8000   -1.3856    0.0000 O   0  0  0  0  0  0  0  0  0  0  0  0
   -1.6000    0.0000    0.0000 S   0  0  0  0  0  0  0  0  0  0  0  0
   -2.3999   -1.3856    0.0000 C   0  0  0  0  0  0  0  0  0  0  0  0
   -4.0000   -1.3856    0.0000 H   0  0  0  0  0  0  0  0  0  0  0  0
   -3.2000   -2.7713    0.0000 H   0  0  0  0  0  0  0  0  0  0  0  0
   -1.6000   -2.7713    0.0000 H   0  0  0  0  0  0  0  0  0  0  0  0
   -0.8000    1.3856    0.0000 O   0  0  0  0  0  0  0  0  0  0  0  0
   -0.0000    2.7713    0.0000 C   0  0  0  0  0  0  0  0  0  0  0  0
   -0.8000    4.1569    0.0000 H   0  0  0  0  0  0  0  0  0  0  0  0
    0.7999    4.1569    0.0000 H   0  0  0  0  0  0  0  0  0  0  0  0
   -1.6000    2.7713    0.0000 H   0  0  0  0  0  0  0  0  0  0  0  0
  1  2  1  0  0  0  0
  2  3  1  0  0  0  0
  2  4  1  0  0  0  0
  4  5  2  0  0  0  0
  4  6  1  0  0  0  0
  6  7  1  0  0  0  0
  6  8  1  0  0  0  0
  6  9  1  0  0  0  0
  1 10  2  0  0  0  0
  1 11  1  0  0  0  0
 11 12  1  0  0  0  0
 12 13  1  0  0  0  0
 12 14  1  0  0  0  0
 12 15  1  0  0  0  0
  1 16  1  0  0  0  0
 16 17  1  0  0  0  0
 17 18  1  0  0  0  0
 17 19  1  0  0  0  0
 17 20  1  0  0  0  0
M  END
> <ChemID>
101186

> <source_casrn>
30560-19-1

> <CAS>
30560-19-1

> <SMILES>
COP(=O)(NC(C)=O)SC

> <NAME>
ACEPHATE

> <preferred_name>
Acephate

> <iupac>
O,S-dimethyl acetylphosphoramidothioate

> <MPID>
101156

> <dsstox_substance_id>
DTXSID8023846

> <Canonical_QSARr>
COP(=O)(NC(C)=O)SC

> <InChI_Code_QSARr>
InChI=1S/C4H10NO3PS/c1-4(6)5-9(7,8-2)10-3/h1-3H3,(H,5,6,7)

> <InChI Key_QSARr>
YASYVMFAVPKPKE-UHFFFAOYSA-N

> <Salt_Solvent>
?

> <Ready_Biodeg>
1.0

$$$$
101188
  -INDIGO-08031722522D

 37 37  0  0  0  0  0  0  0  0999 V2000
    8.3138    1.6000    0.0000 C   0  0  0  0  0  0  0  0  0  0  0  0
    9.8894    1.3221    0.0000 H   0  0  0  0  0  0  0  0  0  0  0  0
    6.9283    2.4000    0.0000 C   0  0  0  0  0  0  0  0  0  0  0  0
    7.9566    3.6257    0.0000 H   0  0  0  0  0  0  0  0  0  0  0  0
    5.8997    3.6257    0.0000 H   0  0  0  0  0  0  0  0  0  0  0  0
    5.5425    1.6000    0.0000 C   0  0  0  0  0  0  0  0  0  0  0  0
    4.1570    2.4000    0.0000 H   0  0  0  0  0  0  0  0  0  0  0  0
    5.5425    0.0001    0.0000 C   0  0  0  0  0  0  0  0  0  0  0  0
    4.1570   -0.8000    0.0000 C   0  0  0  0  0  0  0  0  0  0  0  0
    4.7693   -2.2782    0.0000 H   0  0  0  0  0  0  0  0  0  0  0  0
    3.5446   -2.2782    0.0000 H   0  0  0  0  0  0  0  0  0  0  0  0
    2.7713    0.0001    0.0000 C   0  0  0  0  0  0  0  0  0  0  0  0
    2.1590    1.4782    0.0000 H   0  0  0  0  0  0  0  0  0  0  0  0
    3.3835    1.4782    0.0000 H   0  0  0  0  0  0  0  0  0  0  0  0
    1.3857   -0.8000    0.0000 C   0  0  0  0  0  0  0  0  0  0  0  0
    1.9980   -2.2782    0.0000 H   0  0  0  0  0  0  0  0  0  0  0  0
    0.7733   -2.2782    0.0000 H   0  0  0  0  0  0  0  0  0  0  0  0
    0.0000    0.0001    0.0000 C   0  0  0  0  0  0  0  0  0  0  0  0
   -1.3855    0.8000    0.0000 C   0  0  0  0  0  0  0  0  0  0  0  0
   -2.7713    1.6000    0.0000 H   0  0  0  0  0  0  0  0  0  0  0  0
   -2.7713    0.0001    0.0000 H   0  0  0  0  0  0  0  0  0  0  0  0
   -1.3855    2.4000    0.0000 H   0  0  0  0  0  0  0  0  0  0  0  0
    0.8000    1.3857    0.0000 O   0  0  0  0  0  0  0  0  0  0  0  0
    0.0000    2.7713    0.0000 H   0  0  0  0  0  0  0  0  0  0  0  0
   -0.8000   -1.3857    0.0000 C   0  0  0  0  0  0  0  0  0  0  0  0
   -1.6001   -2.7713    0.0000 H   0  0  0  0  0  0  0  0  0  0  0  0
   -0.2528   -2.8891    0.0000 H   0  0  0  0  0  0  0  0  0  0  0  0
   -2.4001   -1.3857    0.0000 H   0  0  0  0  0  0  0  0  0  0  0  0
    6.9283   -0.8000    0.0000 C   0  0  0  0  0  0  0  0  0  0  0  0
    5.8997   -2.0257    0.0000 H   0  0  0  0  0  0  0  0  0  0  0  0
    7.9566   -2.0257    0.0000 H   0  0  0  0  0  0  0  0  0  0  0  0
    8.3138    0.0001    0.0000 C   0  0  0  0  0  0  0  0  0  0  0  0
    8.8611   -1.5035    0.0000 H   0  0  0  0  0  0  0  0  0  0  0  0
    9.8894    0.2778    0.0000 H   0  0  0  0  0  0  0  0  0  0  0  0
    9.3424    2.8257    0.0000 C   0  0  0  0  0  0  0  0  0  0  0  0
   10.9180    2.5478    0.0000 H   0  0  0  0  0  0  0  0  0  0  0  0
    8.7951    4.3292    0.0000 O   0  0  0  0  0  0  0  0  0  0  0  0
  1  2  1  0  0  0  0
  1  3  1  0  0  0  0
  3  4  1  0  0  0  0
  3  5  1  0  0  0  0
  3  6  1  0  0  0  0
  6  7  1  0  0  0  0
  6  8  2  0  0  0  0
  8  9  1  0  0  0  0
  9 10  1  0  0  0  0
  9 11  1  0  0  0  0
  9 12  1  0  0  0  0
 12 13  1  0  0  0  0
 12 14  1  0  0  0  0
 12 15  1  0  0  0  0
 15 16  1  0  0  0  0
 15 17  1  0  0  0  0
 15 18  1  0  0  0  0
 18 19  1  0  0  0  0
 19 20  1  0  0  0  0
 19 21  1  0  0  0  0
 19 22  1  0  0  0  0
 18 23  1  0  0  0  0
 23 24  1  0  0  0  0
 18 25  1  0  0  0  0
 25 26  1  0  0  0  0
 25 27  1  0  0  0  0
 25 28  1  0  0  0  0
  8 29  1  0  0  0  0
 29 30  1  0  0  0  0
 29 31  1  0  0  0  0
 29 32  1  0  0  0  0
 32  1  1  0  0  0  0
 32 33  1  0  0  0  0
 32 34  1  0  0  0  0
  1 35  1  0  0  0  0
 35 36  1  0  0  0  0
 35 37  2  0  0  0  0
M  END
> <ChemID>
101188

> <source_casrn>
31906-04-4

> <CAS>
31906-04-4

> <SMILES>
CC(C)(O)CCCC1CCC(CC=1)C=O

> <NAME>
3-Cyclohexene-1-carboxaldehyde, 4-(4-hydroxy-4-methylpentyl)-

> <preferred_name>
4-(4-Hydroxy-4-methylpentyl)cyclohex-3-ene-1-carbaldehyde

> <iupac>
C13H22O2

> <MPID>
101157

> <dsstox_substance_id>
DTXSID1027970

> <Canonical_QSARr>
CC(C)(O)CCCC1CCC(CC=1)C=O

> <InChI_Code_QSARr>
InChI=1S/C13H22O2/c1-13(2,15)9-3-4-11-5-7-12(10-14)8-6-11/h5,10,12,15H,3-4,6-9H2,1-2H3

> <InChI Key_QSARr>
ORMHZBNNECIKOH-UHFFFAOYSA-N

> <Salt_Solvent>
?

> <Ready_Biodeg>
1.0

$$$$
101189
  -INDIGO-08031722522D

 66 65  0  0  0  0  0  0  0  0999 V2000
   12.4708   -0.8000    0.0000 C   0  0  0  0  0  0  0  0  0  0  0  0
   13.8563    0.0000    0.0000 C   0  0  0  0  0  0  0  0  0  0  0  0
   13.8563    1.6000    0.0000 C   0  0  0  0  0  0  0  0  0  0  0  0
   15.2422    2.4000    0.0000 H   0  0  0  0  0  0  0  0  0  0  0  0
   12.4708    2.4000    0.0000 H   0  0  0  0  0  0  0  0  0  0  0  0
   15.2422   -0.8000    0.0000 C   0  0  0  0  0  0  0  0  0  0  0  0
   16.6277   -1.6000    0.0000 H   0  0  0  0  0  0  0  0  0  0  0  0
   16.6277    0.0000    0.0000 H   0  0  0  0  0  0  0  0  0  0  0  0
   15.2422   -2.4000    0.0000 H   0  0  0  0  0  0  0  0  0  0  0  0
   11.0853    0.0000    0.0000 O   0  0  0  0  0  0  0  0  0  0  0  0
    9.6994   -0.8000    0.0000 C   0  0  0  0  0  0  0  0  0  0  0  0
    9.0871   -2.2782    0.0000 H   0  0  0  0  0  0  0  0  0  0  0  0
   10.3116   -2.2782    0.0000 H   0  0  0  0  0  0  0  0  0  0  0  0
    8.3139    0.0000    0.0000 C   0  0  0  0  0  0  0  0  0  0  0  0
    8.9261    1.4782    0.0000 H   0  0  0  0  0  0  0  0  0  0  0  0
    7.7016    1.4782    0.0000 H   0  0  0  0  0  0  0  0  0  0  0  0
    6.9284   -0.8000    0.0000 C   0  0  0  0  0  0  0  0  0  0  0  0
    6.3157   -2.2782    0.0000 H   0  0  0  0  0  0  0  0  0  0  0  0
    7.5407   -2.2782    0.0000 H   0  0  0  0  0  0  0  0  0  0  0  0
    5.5425    0.0000    0.0000 C   0  0  0  0  0  0  0  0  0  0  0  0
    6.1547    1.4782    0.0000 H   0  0  0  0  0  0  0  0  0  0  0  0
    4.9302    1.4782    0.0000 H   0  0  0  0  0  0  0  0  0  0  0  0
    4.1570   -0.8000    0.0000 C   0  0  0  0  0  0  0  0  0  0  0  0
    3.5447   -2.2782    0.0000 H   0  0  0  0  0  0  0  0  0  0  0  0
    4.7692   -2.2782    0.0000 H   0  0  0  0  0  0  0  0  0  0  0  0
    2.7715    0.0000    0.0000 C   0  0  0  0  0  0  0  0  0  0  0  0
    3.3838    1.4782    0.0000 H   0  0  0  0  0  0  0  0  0  0  0  0
    2.1588    1.4782    0.0000 H   0  0  0  0  0  0  0  0  0  0  0  0
    1.3856   -0.8000    0.0000 C   0  0  0  0  0  0  0  0  0  0  0  0
    0.7733   -2.2782    0.0000 H   0  0  0  0  0  0  0  0  0  0  0  0
    1.9978   -2.2782    0.0000 H   0  0  0  0  0  0  0  0  0  0  0  0
    0.0001    0.0000    0.0000 C   0  0  0  0  0  0  0  0  0  0  0  0
    0.6123    1.4782    0.0000 H   0  0  0  0  0  0  0  0  0  0  0  0
   -0.6122    1.4782    0.0000 H   0  0  0  0  0  0  0  0  0  0  0  0
   -1.3859   -0.8000    0.0000 C   0  0  0  0  0  0  0  0  0  0  0  0
   -1.9981   -2.2782    0.0000 H   0  0  0  0  0  0  0  0  0  0  0  0
   -0.7731   -2.2782    0.0000 H   0  0  0  0  0  0  0  0  0  0  0  0
   -2.7713    0.0000    0.0000 C   0  0  0  0  0  0  0  0  0  0  0  0
   -2.1591    1.4782    0.0000 H   0  0  0  0  0  0  0  0  0  0  0  0
   -3.3836    1.4782    0.0000 H   0  0  0  0  0  0  0  0  0  0  0  0
   -4.1568   -0.8000    0.0000 C   0  0  0  0  0  0  0  0  0  0  0  0
   -4.7691   -2.2782    0.0000 H   0  0  0  0  0  0  0  0  0  0  0  0
   -3.5446   -2.2782    0.0000 H   0  0  0  0  0  0  0  0  0  0  0  0
   -5.5428    0.0000    0.0000 C   0  0  0  0  0  0  0  0  0  0  0  0
   -4.9300    1.4782    0.0000 H   0  0  0  0  0  0  0  0  0  0  0  0
   -6.1550    1.4782    0.0000 H   0  0  0  0  0  0  0  0  0  0  0  0
   -6.9282   -0.8000    0.0000 C   0  0  0  0  0  0  0  0  0  0  0  0
   -7.5405   -2.2782    0.0000 H   0  0  0  0  0  0  0  0  0  0  0  0
   -6.3160   -2.2782    0.0000 H   0  0  0  0  0  0  0  0  0  0  0  0
   -8.3137    0.0000    0.0000 C   0  0  0  0  0  0  0  0  0  0  0  0
   -7.7015    1.4782    0.0000 H   0  0  0  0  0  0  0  0  0  0  0  0
   -8.9260    1.4782    0.0000 H   0  0  0  0  0  0  0  0  0  0  0  0
   -9.6997   -0.8000    0.0000 C   0  0  0  0  0  0  0  0  0  0  0  0
  -10.3119   -2.2782    0.0000 H   0  0  0  0  0  0  0  0  0  0  0  0
   -9.0874   -2.2782    0.0000 H   0  0  0  0  0  0  0  0  0  0  0  0
  -11.0851    0.0000    0.0000 C   0  0  0  0  0  0  0  0  0  0  0  0
  -10.4729    1.4782    0.0000 H   0  0  0  0  0  0  0  0  0  0  0  0
  -11.6974    1.4782    0.0000 H   0  0  0  0  0  0  0  0  0  0  0  0
  -12.4706   -0.8000    0.0000 C   0  0  0  0  0  0  0  0  0  0  0  0
  -13.0829   -2.2782    0.0000 H   0  0  0  0  0  0  0  0  0  0  0  0
  -11.8584   -2.2782    0.0000 H   0  0  0  0  0  0  0  0  0  0  0  0
  -13.8566    0.0000    0.0000 C   0  0  0  0  0  0  0  0  0  0  0  0
  -15.2420    0.8000    0.0000 H   0  0  0  0  0  0  0  0  0  0  0  0
  -15.2420   -0.8000    0.0000 H   0  0  0  0  0  0  0  0  0  0  0  0
  -13.8566    1.6000    0.0000 H   0  0  0  0  0  0  0  0  0  0  0  0
   12.4708   -2.4000    0.0000 O   0  0  0  0  0  0  0  0  0  0  0  0
  1  2  1  0  0  0  0
  2  3  2  0  0  0  0
  3  4  1  0  0  0  0
  3  5  1  0  0  0  0
  2  6  1  0  0  0  0
  6  7  1  0  0  0  0
  6  8  1  0  0  0  0
  6  9  1  0  0  0  0
  1 10  1  0  0  0  0
 10 11  1  0  0  0  0
 11 12  1  0  0  0  0
 11 13  1  0  0  0  0
 11 14  1  0  0  0  0
 14 15  1  0  0  0  0
 14 16  1  0  0  0  0
 14 17  1  0  0  0  0
 17 18  1  0  0  0  0
 17 19  1  0  0  0  0
 17 20  1  0  0  0  0
 20 21  1  0  0  0  0
 20 22  1  0  0  0  0
 20 23  1  0  0  0  0
 23 24  1  0  0  0  0
 23 25  1  0  0  0  0
 23 26  1  0  0  0  0
 26 27  1  0  0  0  0
 26 28  1  0  0  0  0
 26 29  1  0  0  0  0
 29 30  1  0  0  0  0
 29 31  1  0  0  0  0
 29 32  1  0  0  0  0
 32 33  1  0  0  0  0
 32 34  1  0  0  0  0
 32 35  1  0  0  0  0
 35 36  1  0  0  0  0
 35 37  1  0  0  0  0
 35 38  1  0  0  0  0
 38 39  1  0  0  0  0
 38 40  1  0  0  0  0
 38 41  1  0  0  0  0
 41 42  1  0  0  0  0
 41 43  1  0  0  0  0
 41 44  1  0  0  0  0
 44 45  1  0  0  0  0
 44 46  1  0  0  0  0
 44 47  1  0  0  0  0
 47 48  1  0  0  0  0
 47 49  1  0  0  0  0
 47 50  1  0  0  0  0
 50 51  1  0  0  0  0
 50 52  1  0  0  0  0
 50 53  1  0  0  0  0
 53 54  1  0  0  0  0
 53 55  1  0  0  0  0
 53 56  1  0  0  0  0
 56 57  1  0  0  0  0
 56 58  1  0  0  0  0
 56 59  1  0  0  0  0
 59 60  1  0  0  0  0
 59 61  1  0  0  0  0
 59 62  1  0  0  0  0
 62 63  1  0  0  0  0
 62 64  1  0  0  0  0
 62 65  1  0  0  0  0
  1 66  2  0  0  0  0
M  END
> <ChemID>
101189

> <source_casrn>
32360-05-7

> <CAS>
32360-05-7

> <SMILES>
CC(=C)C(=O)OCCCCCCCCCCCCCCCCCC

> <NAME>
2-Propenoic acid, 2-methyl-, octadecyl ester

> <preferred_name>
Stearyl methacrylate

> <iupac>
C22H42O2

> <MPID>
101158

> <dsstox_substance_id>
DTXSID6027975

> <Canonical_QSARr>
CC(=C)C(=O)OCCCCCCCCCCCCCCCCCC

> <InChI_Code_QSARr>
InChI=1S/C22H42O2/c1-4-5-6-7-8-9-10-11-12-13-14-15-16-17-18-19-20-24-22(23)21(2)3/h2,4-20H2,1,3H3

> <InChI Key_QSARr>
HMZGPNHSPWNGEP-UHFFFAOYSA-N

> <Salt_Solvent>
?

> <Ready_Biodeg>
1.0

$$$$
101191
  -INDIGO-08031722522D

 15 14  0  0  0  0  0  0  0  0999 V2000
    1.3856    0.8000    0.0000 C   0  0  0  0  0  0  0  0  0  0  0  0
    1.9979    2.2782    0.0000 H   0  0  0  0  0  0  0  0  0  0  0  0
    0.7734    2.2782    0.0000 H   0  0  0  0  0  0  0  0  0  0  0  0
    0.0001    0.0000    0.0000 C   0  0  0  0  0  0  0  0  0  0  0  0
   -0.6123   -1.4782    0.0000 H   0  0  0  0  0  0  0  0  0  0  0  0
    0.6123   -1.4782    0.0000 H   0  0  0  0  0  0  0  0  0  0  0  0
   -1.3856    0.8000    0.0000 N   0  0  0  0  0  0  0  0  0  0  0  0
   -2.7712    0.0000    0.0000 C   0  0  0  0  0  0  0  0  0  0  0  0
   -4.1569   -0.8000    0.0000 H   0  0  0  0  0  0  0  0  0  0  0  0
   -4.1569    0.8000    0.0000 H   0  0  0  0  0  0  0  0  0  0  0  0
   -2.7713   -1.6000    0.0000 H   0  0  0  0  0  0  0  0  0  0  0  0
   -1.3856    2.4000    0.0000 O   0  0  0  0  0  0  0  0  0  0  0  0
   -2.7712    3.2000    0.0000 H   0  0  0  0  0  0  0  0  0  0  0  0
    2.7713    0.0000    0.0000 O   0  0  0  0  0  0  0  0  0  0  0  0
    4.1569    0.8000    0.0000 H   0  0  0  0  0  0  0  0  0  0  0  0
  1  2  1  0  0  0  0
  1  3  1  0  0  0  0
  1  4  1  0  0  0  0
  4  5  1  0  0  0  0
  4  6  1  0  0  0  0
  4  7  1  0  0  0  0
  7  8  1  0  0  0  0
  8  9  1  0  0  0  0
  8 10  1  0  0  0  0
  8 11  1  0  0  0  0
  7 12  1  0  0  0  0
 12 13  1  0  0  0  0
  1 14  1  0  0  0  0
 14 15  1  0  0  0  0
M  END
> <ChemID>
101191

> <source_casrn>
34375-28-5

> <CAS>
34375-28-5

> <SMILES>
CN(O)CCO

> <NAME>
Ethanol, 2-(hydroxymethylamino)-

> <preferred_name>
2-(Hydroxymethylamino)ethanol

> <iupac>
2-[hydroxy(methyl)amino]ethanol

> <MPID>
101160|101161

> <dsstox_substance_id>
DTXSID4029357

> <Canonical_QSARr>
CN(O)CCO

> <InChI_Code_QSARr>
InChI=1S/C3H9NO2/c1-4(6)2-3-5/h5-6H,2-3H2,1H3

> <InChI Key_QSARr>
KNYGFYTZAQKWSZ-UHFFFAOYSA-N

> <Salt_Solvent>
?

> <Ready_Biodeg>
1.0

$$$$
101192
  -INDIGO-08031722522D

 23 22  0  0  0  0  0  0  0  0999 V2000
   -2.7712    1.6000    0.0000 C   0  0  0  0  0  0  0  0  0  0  0  0
   -1.3856    0.8000    0.0000 C   0  0  0  0  0  0  0  0  0  0  0  0
   -0.5857    2.1856    0.0000 H   0  0  0  0  0  0  0  0  0  0  0  0
   -0.0001   -0.0000    0.0000 C   0  0  0  0  0  0  0  0  0  0  0  0
    0.6122   -1.4782    0.0000 H   0  0  0  0  0  0  0  0  0  0  0  0
   -0.6122   -1.4782    0.0000 H   0  0  0  0  0  0  0  0  0  0  0  0
    1.3856    0.8000    0.0000 C   0  0  0  0  0  0  0  0  0  0  0  0
    0.7734    2.2782    0.0000 H   0  0  0  0  0  0  0  0  0  0  0  0
    1.9979    2.2782    0.0000 H   0  0  0  0  0  0  0  0  0  0  0  0
    2.7712   -0.0000    0.0000 P   0  0  0  0  0  0  0  0  0  0  0  0
    3.5713    1.3856    0.0000 O   0  0  0  0  0  0  0  0  0  0  0  0
    5.1713    1.3856    0.0000 H   0  0  0  0  0  0  0  0  0  0  0  0
    4.1569   -0.8000    0.0000 C   0  0  0  0  0  0  0  0  0  0  0  0
    5.5426   -1.6000    0.0000 H   0  0  0  0  0  0  0  0  0  0  0  0
    5.5426   -0.0000    0.0000 H   0  0  0  0  0  0  0  0  0  0  0  0
    4.1569   -2.4000    0.0000 H   0  0  0  0  0  0  0  0  0  0  0  0
    1.9713   -1.3856    0.0000 O   0  0  0  0  0  0  0  0  0  0  0  0
   -2.1856   -0.5856    0.0000 N   0  0  0  0  0  0  0  0  0  0  0  0
   -1.6385   -2.0891    0.0000 H   0  0  0  0  0  0  0  0  0  0  0  0
   -3.7856   -0.5856    0.0000 H   0  0  0  0  0  0  0  0  0  0  0  0
   -2.7712    3.2000    0.0000 O   0  0  0  0  0  0  0  0  0  0  0  0
   -4.1569    0.8000    0.0000 O   0  0  0  0  0  0  0  0  0  0  0  0
   -5.5426    1.6000    0.0000 H   0  0  0  0  0  0  0  0  0  0  0  0
  1  2  1  0  0  0  0
  2  3  1  0  0  0  0
  2  4  1  0  0  0  0
  4  5  1  0  0  0  0
  4  6  1  0  0  0  0
  4  7  1  0  0  0  0
  7  8  1  0  0  0  0
  7  9  1  0  0  0  0
  7 10  1  0  0  0  0
 10 11  1  0  0  0  0
 11 12  1  0  0  0  0
 10 13  1  0  0  0  0
 13 14  1  0  0  0  0
 13 15  1  0  0  0  0
 13 16  1  0  0  0  0
 10 17  2  0  0  0  0
  2 18  1  0  0  0  0
 18 19  1  0  0  0  0
 18 20  1  0  0  0  0
  1 21  2  0  0  0  0
  1 22  1  0  0  0  0
 22 23  1  0  0  0  0
M  END
> <ChemID>
101192

> <source_casrn>
35597-44-5

> <CAS>
51276-47-2

> <SMILES>
O=P(O)(C)CCC(N)C(=O)O

> <NAME>
Phosphinothricin

> <preferred_name>
Glufosinate

> <iupac>
2-amino-4-[hydroxy(methyl)phosphoryl]butanoic acid

> <MPID>
101162

> <dsstox_substance_id>
DTXSID0043973

> <Canonical_QSARr>
CP(O)(=O)CCC(N)C(O)=O

> <InChI_Code_QSARr>
InChI=1S/C5H12NO4P/c1-11(9,10)3-2-4(6)5(7)8/h4H,2-3,6H2,1H3,(H,7,8)(H,9,10)

> <InChI Key_QSARr>
IAJOBQBIJHVGMQ-UHFFFAOYSA-N

> <Salt_Solvent>
?

> <Ready_Biodeg>
1.0

$$$$
101193
  -INDIGO-08031722522D

 22 23  0  0  0  0  0  0  0  0999 V2000
   -0.0001    0.0000    0.0000 C   0  0  0  0  0  0  0  0  0  0  0  0
    1.6001   -0.0000    0.0000 C   0  0  0  0  0  0  0  0  0  0  0  0
    2.4001   -1.3856    0.0000 C   0  0  0  0  0  0  0  0  0  0  0  0
    1.6001   -2.7713    0.0000 Cl  0  0  0  0  0  0  0  0  0  0  0  0
    4.0000   -1.3856    0.0000 C   0  0  0  0  0  0  0  0  0  0  0  0
    4.8000   -2.7713    0.0000 H   0  0  0  0  0  0  0  0  0  0  0  0
    4.8000    0.0000    0.0000 C   0  0  0  0  0  0  0  0  0  0  0  0
    6.4000    0.0000    0.0000 H   0  0  0  0  0  0  0  0  0  0  0  0
    4.0000    1.3856    0.0000 C   0  0  0  0  0  0  0  0  0  0  0  0
    4.8000    2.7713    0.0000 Cl  0  0  0  0  0  0  0  0  0  0  0  0
    2.4001    1.3856    0.0000 C   0  0  0  0  0  0  0  0  0  0  0  0
    1.6001    2.7713    0.0000 H   0  0  0  0  0  0  0  0  0  0  0  0
   -0.8001    1.3856    0.0000 C   0  0  0  0  0  0  0  0  0  0  0  0
   -0.0001    2.7713    0.0000 Cl  0  0  0  0  0  0  0  0  0  0  0  0
   -2.4000    1.3856    0.0000 C   0  0  0  0  0  0  0  0  0  0  0  0
   -3.2000    2.7713    0.0000 H   0  0  0  0  0  0  0  0  0  0  0  0
   -3.2000    0.0000    0.0000 C   0  0  0  0  0  0  0  0  0  0  0  0
   -4.8000   -0.0000    0.0000 H   0  0  0  0  0  0  0  0  0  0  0  0
   -2.4000   -1.3856    0.0000 C   0  0  0  0  0  0  0  0  0  0  0  0
   -3.2000   -2.7713    0.0000 Cl  0  0  0  0  0  0  0  0  0  0  0  0
   -0.8001   -1.3856    0.0000 C   0  0  0  0  0  0  0  0  0  0  0  0
   -0.0001   -2.7713    0.0000 H   0  0  0  0  0  0  0  0  0  0  0  0
  1  2  1  0  0  0  0
  2  3  1  0  0  0  0
  3  4  1  0  0  0  0
  3  5  2  0  0  0  0
  5  6  1  0  0  0  0
  5  7  1  0  0  0  0
  7  8  1  0  0  0  0
  7  9  2  0  0  0  0
  9 10  1  0  0  0  0
  9 11  1  0  0  0  0
 11  2  2  0  0  0  0
 11 12  1  0  0  0  0
  1 13  1  0  0  0  0
 13 14  1  0  0  0  0
 13 15  2  0  0  0  0
 15 16  1  0  0  0  0
 15 17  1  0  0  0  0
 17 18  1  0  0  0  0
 17 19  2  0  0  0  0
 19 20  1  0  0  0  0
 19 21  1  0  0  0  0
 21  1  2  0  0  0  0
 21 22  1  0  0  0  0
M  END
> <ChemID>
101193

> <source_casrn>
35693-99-3

> <CAS>
35693-99-3

> <SMILES>
Clc1cc(-c2cc(Cl)ccc2Cl)c(Cl)cc1

> <NAME>
2,2',5,5'-TETRACHLOROBIPHENYL

> <preferred_name>
2,2',5,5'-Tetrachlorobiphenyl

> <iupac>
2,2',5,5'-tetrachlorobiphenyl

> <MPID>
101163

> <dsstox_substance_id>
DTXSID3038305

> <Canonical_QSARr>
Clc1cc(-c2cc(Cl)ccc2Cl)c(Cl)cc1

> <InChI_Code_QSARr>
InChI=1S/C12H6Cl4/c13-7-1-3-11(15)9(5-7)10-6-8(14)2-4-12(10)16/h1-6H

> <InChI Key_QSARr>
HCWZEPKLWVAEOV-UHFFFAOYSA-N

> <Salt_Solvent>
?

> <Ready_Biodeg>
0.0

$$$$
101196
  -INDIGO-08031722522D

 23 23  0  0  0  0  0  0  0  0999 V2000
   -6.9283    0.8000    0.0000 O   0  0  0  0  0  0  0  0  0  0  0  0
   -5.5426   -0.0000    0.0000 C   0  0  0  0  0  0  0  0  0  0  0  0
   -5.5426   -1.6000    0.0000 O   0  0  0  0  0  0  0  0  0  0  0  0
   -4.1569    0.8000    0.0000 N   0  0  0  0  0  0  0  0  0  0  0  0
   -4.1569    2.4000    0.0000 H   0  0  0  0  0  0  0  0  0  0  0  0
   -2.7713   -0.0000    0.0000 C   0  0  0  0  0  0  0  0  0  0  0  0
   -1.3856    0.8000    0.0000 C   0  0  0  0  0  0  0  0  0  0  0  0
   -1.3856    2.4000    0.0000 H   0  0  0  0  0  0  0  0  0  0  0  0
    0.0001   -0.0000    0.0000 C   0  0  0  0  0  0  0  0  0  0  0  0
    1.3856    0.8000    0.0000 C   0  0  0  0  0  0  0  0  0  0  0  0
    2.7713    1.6000    0.0000 H   0  0  0  0  0  0  0  0  0  0  0  0
    2.7713   -0.0000    0.0000 H   0  0  0  0  0  0  0  0  0  0  0  0
    1.3856    2.4000    0.0000 H   0  0  0  0  0  0  0  0  0  0  0  0
    0.0001   -1.6000    0.0000 C   0  0  0  0  0  0  0  0  0  0  0  0
    1.3856   -2.4000    0.0000 H   0  0  0  0  0  0  0  0  0  0  0  0
   -1.3856   -2.4000    0.0000 C   0  0  0  0  0  0  0  0  0  0  0  0
   -1.3856   -4.0000    0.0000 H   0  0  0  0  0  0  0  0  0  0  0  0
   -2.7713   -1.6000    0.0000 C   0  0  0  0  0  0  0  0  0  0  0  0
   -4.1569   -2.4000    0.0000 H   0  0  0  0  0  0  0  0  0  0  0  0
   -8.3138   -0.0000    0.0000 C   0  0  0  0  0  0  0  0  0  0  0  0
   -9.6995   -0.8000    0.0000 H   0  0  0  0  0  0  0  0  0  0  0  0
   -9.6995    0.8000    0.0000 H   0  0  0  0  0  0  0  0  0  0  0  0
   -8.3138   -1.6000    0.0000 H   0  0  0  0  0  0  0  0  0  0  0  0
  1  2  1  0  0  0  0
  2  3  2  0  0  0  0
  2  4  1  0  0  0  0
  4  5  1  0  0  0  0
  4  6  1  0  0  0  0
  6  7  1  0  0  0  0
  7  8  1  0  0  0  0
  7  9  2  0  0  0  0
  9 10  1  0  0  0  0
 10 11  1  0  0  0  0
 10 12  1  0  0  0  0
 10 13  1  0  0  0  0
  9 14  1  0  0  0  0
 14 15  1  0  0  0  0
 14 16  2  0  0  0  0
 16 17  1  0  0  0  0
 16 18  1  0  0  0  0
 18  6  2  0  0  0  0
 18 19  1  0  0  0  0
  1 20  1  0  0  0  0
 20 21  1  0  0  0  0
 20 22  1  0  0  0  0
 20 23  1  0  0  0  0
M  END
> <ChemID>
101196

> <source_casrn>
39076-18-1

> <CAS>
39076-18-1

> <SMILES>
Cc1cc(ccc1)NC(=O)OC

> <NAME>
Carbamic acid, (3-methylphenyl)-, methyl ester

> <preferred_name>
Carbamic acid, (3-methylphenyl)-, methyl ester

> <iupac>
Methyl N-(3-methylphenyl)carbamate

> <MPID>
101165

> <dsstox_substance_id>
DTXSID60192319

> <Canonical_QSARr>
Cc1cc(ccc1)NC(=O)OC

> <InChI_Code_QSARr>
InChI=1S/C9H11NO2/c1-7-4-3-5-8(6-7)10-9(11)12-2/h3-6H,1-2H3,(H,10,11)

> <InChI Key_QSARr>
YYKXNDIQHDVJKF-UHFFFAOYSA-N

> <Salt_Solvent>
?

> <Ready_Biodeg>
1.0

$$$$
101197
  -INDIGO-08031722522D

 25 26  0  0  0  0  0  0  0  0999 V2000
    4.1570    0.8000    0.0000 C   0  0  0  0  0  0  0  0  0  0  0  0
    5.5426    0.0000    0.0000 H   0  0  0  0  0  0  0  0  0  0  0  0
    4.1570    2.4000    0.0000 O   0  0  0  0  0  0  0  0  0  0  0  0
    2.7712    0.0000    0.0000 C   0  0  0  0  0  0  0  0  0  0  0  0
    1.3856    0.8000    0.0000 C   0  0  0  0  0  0  0  0  0  0  0  0
    1.3856    2.4000    0.0000 H   0  0  0  0  0  0  0  0  0  0  0  0
    0.0000    0.0000    0.0000 C   0  0  0  0  0  0  0  0  0  0  0  0
   -1.3856    0.8000    0.0000 O   0  0  0  0  0  0  0  0  0  0  0  0
   -2.9613    0.5222    0.0000 C   0  0  0  0  0  0  0  0  0  0  0  0
   -3.5086   -0.9813    0.0000 C   0  0  0  0  0  0  0  0  0  0  0  0
   -2.4800   -2.2071    0.0000 H   0  0  0  0  0  0  0  0  0  0  0  0
   -5.0842   -1.2591    0.0000 C   0  0  0  0  0  0  0  0  0  0  0  0
   -5.6315   -2.7627    0.0000 H   0  0  0  0  0  0  0  0  0  0  0  0
   -6.1126   -0.0335    0.0000 C   0  0  0  0  0  0  0  0  0  0  0  0
   -7.6884   -0.3113    0.0000 H   0  0  0  0  0  0  0  0  0  0  0  0
   -5.5655    1.4700    0.0000 C   0  0  0  0  0  0  0  0  0  0  0  0
   -6.5940    2.6957    0.0000 H   0  0  0  0  0  0  0  0  0  0  0  0
   -3.9898    1.7479    0.0000 C   0  0  0  0  0  0  0  0  0  0  0  0
   -3.4426    3.2513    0.0000 H   0  0  0  0  0  0  0  0  0  0  0  0
    0.0000   -1.6000    0.0000 C   0  0  0  0  0  0  0  0  0  0  0  0
   -1.3856   -2.4000    0.0000 H   0  0  0  0  0  0  0  0  0  0  0  0
    1.3856   -2.4000    0.0000 C   0  0  0  0  0  0  0  0  0  0  0  0
    1.3856   -4.0000    0.0000 H   0  0  0  0  0  0  0  0  0  0  0  0
    2.7712   -1.6000    0.0000 C   0  0  0  0  0  0  0  0  0  0  0  0
    4.1570   -2.4000    0.0000 H   0  0  0  0  0  0  0  0  0  0  0  0
  1  2  1  0  0  0  0
  1  3  2  0  0  0  0
  1  4  1  0  0  0  0
  4  5  1  0  0  0  0
  5  6  1  0  0  0  0
  5  7  2  0  0  0  0
  7  8  1  0  0  0  0
  8  9  1  0  0  0  0
  9 10  1  0  0  0  0
 10 11  1  0  0  0  0
 10 12  2  0  0  0  0
 12 13  1  0  0  0  0
 12 14  1  0  0  0  0
 14 15  1  0  0  0  0
 14 16  2  0  0  0  0
 16 17  1  0  0  0  0
 16 18  1  0  0  0  0
 18  9  2  0  0  0  0
 18 19  1  0  0  0  0
  7 20  1  0  0  0  0
 20 21  1  0  0  0  0
 20 22  2  0  0  0  0
 22 23  1  0  0  0  0
 22 24  1  0  0  0  0
 24  4  2  0  0  0  0
 24 25  1  0  0  0  0
M  END
> <ChemID>
101197

> <source_casrn>
39515-51-0

> <CAS>
39515-51-0

> <SMILES>
O=Cc1cc(ccc1)Oc1ccccc1

> <NAME>
Benzaldehyde, 3-phenoxy-

> <preferred_name>
3-Phenoxybenzaldehyde

> <iupac>
3-phenoxybenzaldehyde

> <MPID>
101166

> <dsstox_substance_id>
DTXSID3028005

> <Canonical_QSARr>
O=Cc1cc(ccc1)Oc1ccccc1

> <InChI_Code_QSARr>
InChI=1S/C13H10O2/c14-10-11-5-4-8-13(9-11)15-12-6-2-1-3-7-12/h1-10H

> <InChI Key_QSARr>
MRLGCTNJRREZHZ-UHFFFAOYSA-N

> <Salt_Solvent>
?

> <Ready_Biodeg>
0.0

$$$$
101199
  -INDIGO-08031722522D

 54 56  0  0  0  0  0  0  0  0999 V2000
   -2.3264    2.5236    0.0000 C   0  0  0  0  0  0  0  0  0  0  0  0
   -0.7507    2.8013    0.0000 C   0  0  0  0  0  0  0  0  0  0  0  0
   -0.8206    4.3998    0.0000 H   0  0  0  0  0  0  0  0  0  0  0  0
    0.3302    3.9811    0.0000 H   0  0  0  0  0  0  0  0  0  0  0  0
    0.2780    1.5758    0.0000 C   0  0  0  0  0  0  0  0  0  0  0  0
    1.8765    1.5059    0.0000 H   0  0  0  0  0  0  0  0  0  0  0  0
    1.4575    2.6567    0.0000 H   0  0  0  0  0  0  0  0  0  0  0  0
    0.0002   -0.0001    0.0000 N   0  0  0  0  0  0  0  0  0  0  0  0
   -1.3855   -0.8000    0.0000 C   0  0  0  0  0  0  0  0  0  0  0  0
   -2.7712   -0.0001    0.0000 C   0  0  0  0  0  0  0  0  0  0  0  0
   -2.7712    1.6000    0.0000 H   0  0  0  0  0  0  0  0  0  0  0  0
   -4.1568   -0.8000    0.0000 C   0  0  0  0  0  0  0  0  0  0  0  0
   -5.5425   -0.0001    0.0000 H   0  0  0  0  0  0  0  0  0  0  0  0
   -4.1568   -2.4001    0.0000 C   0  0  0  0  0  0  0  0  0  0  0  0
   -5.5425   -3.1999    0.0000 N   0  0  0  0  0  0  0  0  0  0  0  0
   -6.9281   -2.4001    0.0000 N   0  0  0  0  0  0  0  0  0  0  0  0
   -8.3138   -3.1999    0.0000 C   0  0  0  0  0  0  0  0  0  0  0  0
   -9.6994   -2.4001    0.0000 C   0  0  0  0  0  0  0  0  0  0  0  0
   -9.6994   -0.8000    0.0000 H   0  0  0  0  0  0  0  0  0  0  0  0
  -11.0851   -3.1999    0.0000 C   0  0  0  0  0  0  0  0  0  0  0  0
  -12.4708   -2.4001    0.0000 H   0  0  0  0  0  0  0  0  0  0  0  0
  -11.0851   -4.8000    0.0000 C   0  0  0  0  0  0  0  0  0  0  0  0
  -12.4708   -5.6001    0.0000 N   0  0  0  0  0  0  0  0  0  0  0  0
  -13.8564   -4.8000    0.0000 O   0  0  0  0  0  0  0  0  0  0  0  0
  -12.4708   -7.2000    0.0000 O   0  0  0  0  0  0  0  0  0  0  0  0
   -9.6994   -5.6001    0.0000 C   0  0  0  0  0  0  0  0  0  0  0  0
   -9.6994   -7.2000    0.0000 H   0  0  0  0  0  0  0  0  0  0  0  0
   -8.3138   -4.8000    0.0000 C   0  0  0  0  0  0  0  0  0  0  0  0
   -6.9281   -5.6001    0.0000 H   0  0  0  0  0  0  0  0  0  0  0  0
   -2.7712   -3.1999    0.0000 C   0  0  0  0  0  0  0  0  0  0  0  0
   -2.7712   -4.8000    0.0000 H   0  0  0  0  0  0  0  0  0  0  0  0
   -1.3855   -2.4001    0.0000 C   0  0  0  0  0  0  0  0  0  0  0  0
   -0.1600   -3.4284    0.0000 H   0  0  0  0  0  0  0  0  0  0  0  0
    1.2256   -1.0285    0.0000 C   0  0  0  0  0  0  0  0  0  0  0  0
    1.5721   -2.5905    0.0000 H   0  0  0  0  0  0  0  0  0  0  0  0
    0.3661   -2.3779    0.0000 H   0  0  0  0  0  0  0  0  0  0  0  0
    2.8013   -0.7506    0.0000 C   0  0  0  0  0  0  0  0  0  0  0  0
    2.7315    0.8479    0.0000 H   0  0  0  0  0  0  0  0  0  0  0  0
    3.8823    0.4290    0.0000 H   0  0  0  0  0  0  0  0  0  0  0  0
    3.8297   -1.9763    0.0000 O   0  0  0  0  0  0  0  0  0  0  0  0
    5.4054   -1.6984    0.0000 C   0  0  0  0  0  0  0  0  0  0  0  0
    6.4341   -2.9242    0.0000 C   0  0  0  0  0  0  0  0  0  0  0  0
    5.8867   -4.4276    0.0000 C   0  0  0  0  0  0  0  0  0  0  0  0
    4.3110   -4.7055    0.0000 H   0  0  0  0  0  0  0  0  0  0  0  0
    6.9154   -5.6534    0.0000 C   0  0  0  0  0  0  0  0  0  0  0  0
    6.3680   -7.1568    0.0000 H   0  0  0  0  0  0  0  0  0  0  0  0
    8.4907   -5.3755    0.0000 C   0  0  0  0  0  0  0  0  0  0  0  0
    9.5194   -6.6012    0.0000 H   0  0  0  0  0  0  0  0  0  0  0  0
    9.0381   -3.8720    0.0000 C   0  0  0  0  0  0  0  0  0  0  0  0
   10.6138   -3.5941    0.0000 H   0  0  0  0  0  0  0  0  0  0  0  0
    8.0098   -2.6463    0.0000 C   0  0  0  0  0  0  0  0  0  0  0  0
    8.5568   -1.1428    0.0000 H   0  0  0  0  0  0  0  0  0  0  0  0
    5.9528   -0.1950    0.0000 O   0  0  0  0  0  0  0  0  0  0  0  0
   -3.9022    2.2457    0.0000 N   0  0  0  0  0  0  0  0  0  0  0  0
  1  2  1  0  0  0  0
  2  3  1  0  0  0  0
  2  4  1  0  0  0  0
  2  5  1  0  0  0  0
  5  6  1  0  0  0  0
  5  7  1  0  0  0  0
  5  8  1  0  0  0  0
  8  9  1  0  0  0  0
  9 10  1  0  0  0  0
 10 11  1  0  0  0  0
 10 12  2  0  0  0  0
 12 13  1  0  0  0  0
 12 14  1  0  0  0  0
 14 15  1  0  0  0  0
 15 16  2  0  0  0  0
 16 17  1  0  0  0  0
 17 18  1  0  0  0  0
 18 19  1  0  0  0  0
 18 20  2  0  0  0  0
 20 21  1  0  0  0  0
 20 22  1  0  0  0  0
 22 23  1  0  0  0  0
 23 24  2  0  0  0  0
 23 25  1  0  0  0  0
 22 26  2  0  0  0  0
 26 27  1  0  0  0  0
 26 28  1  0  0  0  0
 28 17  2  0  0  0  0
 28 29  1  0  0  0  0
 14 30  2  0  0  0  0
 30 31  1  0  0  0  0
 30 32  1  0  0  0  0
 32  9  2  0  0  0  0
 32 33  1  0  0  0  0
  8 34  1  0  0  0  0
 34 35  1  0  0  0  0
 34 36  1  0  0  0  0
 34 37  1  0  0  0  0
 37 38  1  0  0  0  0
 37 39  1  0  0  0  0
 37 40  1  0  0  0  0
 40 41  1  0  0  0  0
 41 42  1  0  0  0  0
 42 43  1  0  0  0  0
 43 44  1  0  0  0  0
 43 45  2  0  0  0  0
 45 46  1  0  0  0  0
 45 47  1  0  0  0  0
 47 48  1  0  0  0  0
 47 49  2  0  0  0  0
 49 50  1  0  0  0  0
 49 51  1  0  0  0  0
 51 42  2  0  0  0  0
 51 52  1  0  0  0  0
 41 53  2  0  0  0  0
  1 54  3  0  0  0  0
M  CHG  2  23   1  25  -1
M  END
> <ChemID>
101199

> <source_casrn>
40690-89-9

> <CAS>
40690-89-9

> <SMILES>
O=C(OCCN(c(ccc(N=Nc(ccc(N(=O)(=O))c1)c1)c2)c2)CCC(#N))c(cccc3)c3

> <NAME>
Propanenitrile, 3-  2-(benzoyloxy)ethyl  4- (4-nitrophenyl)azo phenyl

> <preferred_name>
Propanenitrile, 3-[[2-(benzoyloxy)ethyl][4-[(4-nitrophenyl)azo]phenyl]amino]-

> <iupac>
2-[2-cyanoethyl-[4-(4-nitrophenyl)diazenylphenyl]amino]ethyl benzoate

> <MPID>
101167

> <dsstox_substance_id>
DTXSID4068246

> <Canonical_QSARr>
N#CCCN(CCOC(=O)c1ccccc1)c1ccc(cc1)N=Nc1ccc(cc1)[N+]([O-])=O

> <InChI_Code_QSARr>
InChI=1S/C24H21N5O4/c25-15-4-16-28(17-18-33-24(30)19-5-2-1-3-6-19)22-11-7-20(8-12-22)26-27-21-9-13-23(14-10-21)29(31)32/h1-3,5-14H,4,16-18H2/b27-26+

> <InChI Key_QSARr>
SCLYXZFZPIKFAH-CYYJNZCTSA-N

> <Salt_Solvent>
?

> <Ready_Biodeg>
0.0

$$$$
101201
  -INDIGO-08031722522D

 42 43  0  0  0  0  0  0  0  0999 V2000
    6.9281   -0.8000    0.0000 C   0  0  0  0  0  0  0  0  0  0  0  0
    8.3139    0.0000    0.0000 C   0  0  0  0  0  0  0  0  0  0  0  0
    9.6995   -0.8000    0.0000 C   0  0  0  0  0  0  0  0  0  0  0  0
    9.6995   -2.4001    0.0000 H   0  0  0  0  0  0  0  0  0  0  0  0
   11.0852    0.0000    0.0000 C   0  0  0  0  0  0  0  0  0  0  0  0
   12.4708   -0.8000    0.0000 H   0  0  0  0  0  0  0  0  0  0  0  0
   11.0852    1.6000    0.0000 C   0  0  0  0  0  0  0  0  0  0  0  0
   12.4708    2.4000    0.0000 H   0  0  0  0  0  0  0  0  0  0  0  0
    9.6995    2.4000    0.0000 C   0  0  0  0  0  0  0  0  0  0  0  0
    9.6995    4.0000    0.0000 H   0  0  0  0  0  0  0  0  0  0  0  0
    8.3139    1.6000    0.0000 C   0  0  0  0  0  0  0  0  0  0  0  0
    6.9281    2.4000    0.0000 H   0  0  0  0  0  0  0  0  0  0  0  0
    6.9281   -2.4001    0.0000 O   0  0  0  0  0  0  0  0  0  0  0  0
    5.5426    0.0000    0.0000 N   0  0  0  0  0  0  0  0  0  0  0  0
    5.5426    1.6000    0.0000 H   0  0  0  0  0  0  0  0  0  0  0  0
    4.1568   -0.8000    0.0000 C   0  0  0  0  0  0  0  0  0  0  0  0
    2.7713    0.0000    0.0000 C   0  0  0  0  0  0  0  0  0  0  0  0
    2.7713    1.6000    0.0000 H   0  0  0  0  0  0  0  0  0  0  0  0
    1.3858   -0.8000    0.0000 C   0  0  0  0  0  0  0  0  0  0  0  0
   -0.0000    0.0000    0.0000 N   0  0  0  0  0  0  0  0  0  0  0  0
   -0.0000    1.6000    0.0000 C   0  0  0  0  0  0  0  0  0  0  0  0
    1.5863    1.8088    0.0000 H   0  0  0  0  0  0  0  0  0  0  0  0
    0.9740    2.8694    0.0000 H   0  0  0  0  0  0  0  0  0  0  0  0
   -1.2256    2.6285    0.0000 C   0  0  0  0  0  0  0  0  0  0  0  0
   -1.5720    4.1905    0.0000 H   0  0  0  0  0  0  0  0  0  0  0  0
   -0.3660    3.9779    0.0000 H   0  0  0  0  0  0  0  0  0  0  0  0
   -2.7292    2.0813    0.0000 O   0  0  0  0  0  0  0  0  0  0  0  0
   -3.9548    3.1096    0.0000 H   0  0  0  0  0  0  0  0  0  0  0  0
   -1.5036   -0.5472    0.0000 C   0  0  0  0  0  0  0  0  0  0  0  0
   -3.0295   -0.0661    0.0000 H   0  0  0  0  0  0  0  0  0  0  0  0
   -2.2422    0.8720    0.0000 H   0  0  0  0  0  0  0  0  0  0  0  0
   -2.0507   -2.0508    0.0000 C   0  0  0  0  0  0  0  0  0  0  0  0
   -3.6127   -1.7044    0.0000 H   0  0  0  0  0  0  0  0  0  0  0  0
   -3.4002   -2.9104    0.0000 H   0  0  0  0  0  0  0  0  0  0  0  0
   -1.0224   -3.2764    0.0000 O   0  0  0  0  0  0  0  0  0  0  0  0
   -1.5695   -4.7800    0.0000 H   0  0  0  0  0  0  0  0  0  0  0  0
    1.3858   -2.4001    0.0000 C   0  0  0  0  0  0  0  0  0  0  0  0
   -0.0000   -3.2000    0.0000 H   0  0  0  0  0  0  0  0  0  0  0  0
    2.7713   -3.2000    0.0000 C   0  0  0  0  0  0  0  0  0  0  0  0
    2.7713   -4.8000    0.0000 H   0  0  0  0  0  0  0  0  0  0  0  0
    4.1568   -2.4001    0.0000 C   0  0  0  0  0  0  0  0  0  0  0  0
    5.5426   -3.2000    0.0000 H   0  0  0  0  0  0  0  0  0  0  0  0
  1  2  1  0  0  0  0
  2  3  1  0  0  0  0
  3  4  1  0  0  0  0
  3  5  2  0  0  0  0
  5  6  1  0  0  0  0
  5  7  1  0  0  0  0
  7  8  1  0  0  0  0
  7  9  2  0  0  0  0
  9 10  1  0  0  0  0
  9 11  1  0  0  0  0
 11  2  2  0  0  0  0
 11 12  1  0  0  0  0
  1 13  2  0  0  0  0
  1 14  1  0  0  0  0
 14 15  1  0  0  0  0
 14 16  1  0  0  0  0
 16 17  1  0  0  0  0
 17 18  1  0  0  0  0
 17 19  2  0  0  0  0
 19 20  1  0  0  0  0
 20 21  1  0  0  0  0
 21 22  1  0  0  0  0
 21 23  1  0  0  0  0
 21 24  1  0  0  0  0
 24 25  1  0  0  0  0
 24 26  1  0  0  0  0
 24 27  1  0  0  0  0
 27 28  1  0  0  0  0
 20 29  1  0  0  0  0
 29 30  1  0  0  0  0
 29 31  1  0  0  0  0
 29 32  1  0  0  0  0
 32 33  1  0  0  0  0
 32 34  1  0  0  0  0
 32 35  1  0  0  0  0
 35 36  1  0  0  0  0
 19 37  1  0  0  0  0
 37 38  1  0  0  0  0
 37 39  2  0  0  0  0
 39 40  1  0  0  0  0
 39 41  1  0  0  0  0
 41 16  2  0  0  0  0
 41 42  1  0  0  0  0
M  END
> <ChemID>
101201

> <source_casrn>
43051-46-3

> <CAS>
43051-46-3

> <SMILES>
O=C(Nc(cccc1N(CCO)CCO)c1)c(cccc2)c2

> <NAME>
Benzamide, N- 3- bis(2-hydroxyethyl)amino phenyl -

> <preferred_name>
Benzamide, N-[3-[bis(2-hydroxyethyl)amino]phenyl]-

> <iupac>
N-[3-(bis(2-hydroxyethyl)amino)phenyl]benzamide

> <MPID>
101169

> <dsstox_substance_id>
DTXSID5068449

> <Canonical_QSARr>
OCCN(CCO)c1cc(ccc1)NC(=O)c1ccccc1

> <InChI_Code_QSARr>
InChI=1S/C17H20N2O3/c20-11-9-19(10-12-21)16-8-4-7-15(13-16)18-17(22)14-5-2-1-3-6-14/h1-8,13,20-21H,9-12H2,(H,18,22)

> <InChI Key_QSARr>
OYTLLQHYKCEMGB-UHFFFAOYSA-N

> <Salt_Solvent>
?

> <Ready_Biodeg>
0.0

$$$$
101202
  -INDIGO-08031722522D

 65 65  0  0  0  0  0  0  0  0999 V2000
    2.0942    1.5217    0.0000 O   0  0  0  0  0  0  0  0  0  0  0  0
    2.5888   -0.0000    0.0000 C   0  0  0  0  0  0  0  0  0  0  0  0
    4.1105   -0.4944    0.0000 O   0  0  0  0  0  0  0  0  0  0  0  0
    1.2946   -0.9405    0.0000 C   0  0  0  0  0  0  0  0  0  0  0  0
    2.3649   -2.1295    0.0000 H   0  0  0  0  0  0  0  0  0  0  0  0
    0.2239   -2.1295    0.0000 H   0  0  0  0  0  0  0  0  0  0  0  0
    0.0000   -0.0000    0.0000 C   0  0  0  0  0  0  0  0  0  0  0  0
   -0.8000   -1.3857    0.0000 H   0  0  0  0  0  0  0  0  0  0  0  0
   -1.4615    0.6507    0.0000 C   0  0  0  0  0  0  0  0  0  0  0  0
   -1.0072    2.1849    0.0000 H   0  0  0  0  0  0  0  0  0  0  0  0
   -2.2249    2.0569    0.0000 H   0  0  0  0  0  0  0  0  0  0  0  0
   -2.7561   -0.2897    0.0000 C   0  0  0  0  0  0  0  0  0  0  0  0
   -3.2104   -1.8238    0.0000 H   0  0  0  0  0  0  0  0  0  0  0  0
   -1.9927   -1.6958    0.0000 H   0  0  0  0  0  0  0  0  0  0  0  0
   -4.2176    0.3611    0.0000 C   0  0  0  0  0  0  0  0  0  0  0  0
   -3.7634    1.8952    0.0000 H   0  0  0  0  0  0  0  0  0  0  0  0
   -4.9810    1.7672    0.0000 H   0  0  0  0  0  0  0  0  0  0  0  0
   -5.5122   -0.5794    0.0000 C   0  0  0  0  0  0  0  0  0  0  0  0
   -5.9665   -2.1134    0.0000 H   0  0  0  0  0  0  0  0  0  0  0  0
   -4.7488   -1.9854    0.0000 H   0  0  0  0  0  0  0  0  0  0  0  0
   -6.9737    0.0714    0.0000 C   0  0  0  0  0  0  0  0  0  0  0  0
   -6.5195    1.6056    0.0000 H   0  0  0  0  0  0  0  0  0  0  0  0
   -7.7372    1.4776    0.0000 H   0  0  0  0  0  0  0  0  0  0  0  0
   -8.2684   -0.8690    0.0000 C   0  0  0  0  0  0  0  0  0  0  0  0
   -8.7226   -2.4031    0.0000 H   0  0  0  0  0  0  0  0  0  0  0  0
   -7.5049   -2.2751    0.0000 H   0  0  0  0  0  0  0  0  0  0  0  0
   -9.7299   -0.2183    0.0000 C   0  0  0  0  0  0  0  0  0  0  0  0
   -9.2756    1.3158    0.0000 H   0  0  0  0  0  0  0  0  0  0  0  0
  -10.4933    1.1879    0.0000 H   0  0  0  0  0  0  0  0  0  0  0  0
  -11.0245   -1.1587    0.0000 C   0  0  0  0  0  0  0  0  0  0  0  0
  -11.4787   -2.6928    0.0000 H   0  0  0  0  0  0  0  0  0  0  0  0
  -10.2611   -2.5649    0.0000 H   0  0  0  0  0  0  0  0  0  0  0  0
  -12.4860   -0.5079    0.0000 C   0  0  0  0  0  0  0  0  0  0  0  0
  -12.0317    1.0261    0.0000 H   0  0  0  0  0  0  0  0  0  0  0  0
  -13.2494    0.8981    0.0000 H   0  0  0  0  0  0  0  0  0  0  0  0
  -13.7806   -1.4484    0.0000 C   0  0  0  0  0  0  0  0  0  0  0  0
  -14.2349   -2.9825    0.0000 H   0  0  0  0  0  0  0  0  0  0  0  0
  -13.0172   -2.8545    0.0000 H   0  0  0  0  0  0  0  0  0  0  0  0
  -15.2421   -0.7976    0.0000 C   0  0  0  0  0  0  0  0  0  0  0  0
  -14.7878    0.7365    0.0000 H   0  0  0  0  0  0  0  0  0  0  0  0
  -16.0055    0.6085    0.0000 H   0  0  0  0  0  0  0  0  0  0  0  0
  -16.5367   -1.7380    0.0000 C   0  0  0  0  0  0  0  0  0  0  0  0
  -16.9910   -3.2722    0.0000 H   0  0  0  0  0  0  0  0  0  0  0  0
  -15.7733   -3.1442    0.0000 H   0  0  0  0  0  0  0  0  0  0  0  0
  -17.9982   -1.0873    0.0000 C   0  0  0  0  0  0  0  0  0  0  0  0
  -17.5440    0.4468    0.0000 H   0  0  0  0  0  0  0  0  0  0  0  0
  -18.7616    0.3188    0.0000 H   0  0  0  0  0  0  0  0  0  0  0  0
  -19.2928   -2.0277    0.0000 C   0  0  0  0  0  0  0  0  0  0  0  0
  -19.7471   -3.5619    0.0000 H   0  0  0  0  0  0  0  0  0  0  0  0
  -18.5294   -3.4339    0.0000 H   0  0  0  0  0  0  0  0  0  0  0  0
  -20.7543   -1.3769    0.0000 C   0  0  0  0  0  0  0  0  0  0  0  0
  -20.3001    0.1571    0.0000 H   0  0  0  0  0  0  0  0  0  0  0  0
  -21.5178    0.0291    0.0000 H   0  0  0  0  0  0  0  0  0  0  0  0
  -22.0490   -2.3175    0.0000 C   0  0  0  0  0  0  0  0  0  0  0  0
  -22.5032   -3.8515    0.0000 H   0  0  0  0  0  0  0  0  0  0  0  0
  -21.2855   -3.7235    0.0000 H   0  0  0  0  0  0  0  0  0  0  0  0
  -23.5105   -1.6666    0.0000 C   0  0  0  0  0  0  0  0  0  0  0  0
  -23.0562   -0.1325    0.0000 H   0  0  0  0  0  0  0  0  0  0  0  0
  -24.2739   -0.2605    0.0000 H   0  0  0  0  0  0  0  0  0  0  0  0
  -24.8051   -2.6071    0.0000 C   0  0  0  0  0  0  0  0  0  0  0  0
  -26.0992   -3.5476    0.0000 H   0  0  0  0  0  0  0  0  0  0  0  0
  -26.2666   -1.9564    0.0000 H   0  0  0  0  0  0  0  0  0  0  0  0
  -24.6377   -4.1983    0.0000 H   0  0  0  0  0  0  0  0  0  0  0  0
    0.4946    1.5217    0.0000 C   0  0  0  0  0  0  0  0  0  0  0  0
   -0.2072    2.9598    0.0000 O   0  0  0  0  0  0  0  0  0  0  0  0
  1  2  1  0  0  0  0
  2  3  2  0  0  0  0
  2  4  1  0  0  0  0
  4  5  1  0  0  0  0
  4  6  1  0  0  0  0
  4  7  1  0  0  0  0
  7  8  1  0  0  0  0
  7  9  1  0  0  0  0
  9 10  1  0  0  0  0
  9 11  1  0  0  0  0
  9 12  1  0  0  0  0
 12 13  1  0  0  0  0
 12 14  1  0  0  0  0
 12 15  1  0  0  0  0
 15 16  1  0  0  0  0
 15 17  1  0  0  0  0
 15 18  1  0  0  0  0
 18 19  1  0  0  0  0
 18 20  1  0  0  0  0
 18 21  1  0  0  0  0
 21 22  1  0  0  0  0
 21 23  1  0  0  0  0
 21 24  1  0  0  0  0
 24 25  1  0  0  0  0
 24 26  1  0  0  0  0
 24 27  1  0  0  0  0
 27 28  1  0  0  0  0
 27 29  1  0  0  0  0
 27 30  1  0  0  0  0
 30 31  1  0  0  0  0
 30 32  1  0  0  0  0
 30 33  1  0  0  0  0
 33 34  1  0  0  0  0
 33 35  1  0  0  0  0
 33 36  1  0  0  0  0
 36 37  1  0  0  0  0
 36 38  1  0  0  0  0
 36 39  1  0  0  0  0
 39 40  1  0  0  0  0
 39 41  1  0  0  0  0
 39 42  1  0  0  0  0
 42 43  1  0  0  0  0
 42 44  1  0  0  0  0
 42 45  1  0  0  0  0
 45 46  1  0  0  0  0
 45 47  1  0  0  0  0
 45 48  1  0  0  0  0
 48 49  1  0  0  0  0
 48 50  1  0  0  0  0
 48 51  1  0  0  0  0
 51 52  1  0  0  0  0
 51 53  1  0  0  0  0
 51 54  1  0  0  0  0
 54 55  1  0  0  0  0
 54 56  1  0  0  0  0
 54 57  1  0  0  0  0
 57 58  1  0  0  0  0
 57 59  1  0  0  0  0
 57 60  1  0  0  0  0
 60 61  1  0  0  0  0
 60 62  1  0  0  0  0
 60 63  1  0  0  0  0
  7 64  1  0  0  0  0
 64  1  1  0  0  0  0
 64 65  2  0  0  0  0
M  END
> <ChemID>
101202

> <source_casrn>
47458-32-2

> <CAS>
47458-32-2

> <SMILES>
CCCCCCCCCCCCCCCCCCC1CC(=O)OC1=O

> <NAME>
2,5-Furandione, dihydro-3-octadecyl-

> <preferred_name>
Octadecyl succinic anhydride

> <iupac>
C22H40O3

> <MPID>
101170

> <dsstox_substance_id>
DTXSID00858785

> <Canonical_QSARr>
CCCCCCCCCCCCCCCCCCC1CC(=O)OC1=O

> <InChI_Code_QSARr>
InChI=1S/C22H40O3/c1-2-3-4-5-6-7-8-9-10-11-12-13-14-15-16-17-18-20-19-21(23)25-22(20)24/h20H,2-19H2,1H3

> <InChI Key_QSARr>
ZJFCVUTYZHUNSW-UHFFFAOYSA-N

> <Salt_Solvent>
?

> <Ready_Biodeg>
0.0

$$$$
101203
  -INDIGO-08031722522D

 36 37  0  0  0  0  0  0  0  0999 V2000
  -10.2069   -0.2912    0.0000 Cl  0  0  0  0  0  0  0  0  0  0  0  0
   -9.9291   -1.8668    0.0000 C   0  0  0  0  0  0  0  0  0  0  0  0
   -8.4257   -2.4141    0.0000 C   0  0  0  0  0  0  0  0  0  0  0  0
   -7.2000   -1.3857    0.0000 O   0  0  0  0  0  0  0  0  0  0  0  0
   -5.6000   -1.3857    0.0000 C   0  0  0  0  0  0  0  0  0  0  0  0
   -4.7999   -0.0001    0.0000 C   0  0  0  0  0  0  0  0  0  0  0  0
   -5.6000    1.3857    0.0000 H   0  0  0  0  0  0  0  0  0  0  0  0
   -3.1999   -0.0001    0.0000 C   0  0  0  0  0  0  0  0  0  0  0  0
   -2.4001    1.3857    0.0000 H   0  0  0  0  0  0  0  0  0  0  0  0
   -2.4001   -1.3857    0.0000 C   0  0  0  0  0  0  0  0  0  0  0  0
   -0.8000   -1.3857    0.0000 O   0  0  0  0  0  0  0  0  0  0  0  0
    0.0000   -0.0001    0.0000 C   0  0  0  0  0  0  0  0  0  0  0  0
   -1.3856    0.8001    0.0000 H   0  0  0  0  0  0  0  0  0  0  0  0
    1.3855   -0.8000    0.0000 C   0  0  0  0  0  0  0  0  0  0  0  0
    2.7714   -0.0001    0.0000 O   0  0  0  0  0  0  0  0  0  0  0  0
    1.3855   -2.4000    0.0000 O   0  0  0  0  0  0  0  0  0  0  0  0
    2.7714   -3.2000    0.0000 C   0  0  0  0  0  0  0  0  0  0  0  0
    4.1569   -3.9999    0.0000 H   0  0  0  0  0  0  0  0  0  0  0  0
    2.7714   -4.8001    0.0000 H   0  0  0  0  0  0  0  0  0  0  0  0
    4.1569   -2.4000    0.0000 H   0  0  0  0  0  0  0  0  0  0  0  0
    0.8000    1.3857    0.0000 C   0  0  0  0  0  0  0  0  0  0  0  0
    1.6001    2.7713    0.0000 H   0  0  0  0  0  0  0  0  0  0  0  0
    2.4001    1.3857    0.0000 H   0  0  0  0  0  0  0  0  0  0  0  0
    0.0000    2.7713    0.0000 H   0  0  0  0  0  0  0  0  0  0  0  0
   -3.1999   -2.7713    0.0000 C   0  0  0  0  0  0  0  0  0  0  0  0
   -2.4001   -4.1569    0.0000 H   0  0  0  0  0  0  0  0  0  0  0  0
   -4.7999   -2.7713    0.0000 C   0  0  0  0  0  0  0  0  0  0  0  0
   -5.6000   -4.1569    0.0000 H   0  0  0  0  0  0  0  0  0  0  0  0
   -8.1479   -3.9898    0.0000 C   0  0  0  0  0  0  0  0  0  0  0  0
   -6.6443   -4.5370    0.0000 H   0  0  0  0  0  0  0  0  0  0  0  0
   -9.3736   -5.0183    0.0000 C   0  0  0  0  0  0  0  0  0  0  0  0
   -9.0957   -6.5939    0.0000 H   0  0  0  0  0  0  0  0  0  0  0  0
  -10.8769   -4.4710    0.0000 C   0  0  0  0  0  0  0  0  0  0  0  0
  -12.1026   -5.4994    0.0000 Cl  0  0  0  0  0  0  0  0  0  0  0  0
  -11.1548   -2.8953    0.0000 C   0  0  0  0  0  0  0  0  0  0  0  0
  -12.6584   -2.3481    0.0000 H   0  0  0  0  0  0  0  0  0  0  0  0
  1  2  1  0  0  0  0
  2  3  1  0  0  0  0
  3  4  1  0  0  0  0
  4  5  1  0  0  0  0
  5  6  1  0  0  0  0
  6  7  1  0  0  0  0
  6  8  2  0  0  0  0
  8  9  1  0  0  0  0
  8 10  1  0  0  0  0
 10 11  1  0  0  0  0
 11 12  1  0  0  0  0
 12 13  1  0  0  0  0
 12 14  1  0  0  0  0
 14 15  2  0  0  0  0
 14 16  1  0  0  0  0
 16 17  1  0  0  0  0
 17 18  1  0  0  0  0
 17 19  1  0  0  0  0
 17 20  1  0  0  0  0
 12 21  1  0  0  0  0
 21 22  1  0  0  0  0
 21 23  1  0  0  0  0
 21 24  1  0  0  0  0
 10 25  2  0  0  0  0
 25 26  1  0  0  0  0
 25 27  1  0  0  0  0
 27  5  2  0  0  0  0
 27 28  1  0  0  0  0
  3 29  2  0  0  0  0
 29 30  1  0  0  0  0
 29 31  1  0  0  0  0
 31 32  1  0  0  0  0
 31 33  2  0  0  0  0
 33 34  1  0  0  0  0
 33 35  1  0  0  0  0
 35  2  2  0  0  0  0
 35 36  1  0  0  0  0
M  END
> <ChemID>
101203

> <source_casrn>
51338-27-3

> <CAS>
51338-27-3

> <SMILES>
COC(=O)C(C)Oc2ccc(Oc1ccc(Cl)cc1Cl)cc2

> <NAME>
DICLOFOPMETHYL

> <preferred_name>
Diclofop-methyl

> <iupac>
methyl 2-[4-(2,4-dichlorophenoxy)phenoxy]propanoate

> <MPID>
101171

> <dsstox_substance_id>
DTXSID0032605

> <Canonical_QSARr>
COC(=O)C(C)Oc1ccc(cc1)Oc1ccc(Cl)cc1Cl

> <InChI_Code_QSARr>
InChI=1S/C16H14Cl2O4/c1-10(16(19)20-2)21-12-4-6-13(7-5-12)22-15-8-3-11(17)9-14(15)18/h3-10H,1-2H3

> <InChI Key_QSARr>
BACHBFVBHLGWSL-UHFFFAOYSA-N

> <Salt_Solvent>
?

> <Ready_Biodeg>
1.0

$$$$
101205
  -INDIGO-08031722522D

 32 32  0  0  0  0  0  0  0  0999 V2000
   -6.9298   -0.0749    0.0000 C   0  0  0  0  0  0  0  0  0  0  0  0
   -6.7626   -1.6661    0.0000 O   0  0  0  0  0  0  0  0  0  0  0  0
   -8.3914    0.5758    0.0000 N   0  0  0  0  0  0  0  0  0  0  0  0
   -9.6860   -0.3645    0.0000 C   0  0  0  0  0  0  0  0  0  0  0  0
  -10.9803   -1.3050    0.0000 H   0  0  0  0  0  0  0  0  0  0  0  0
  -11.1476    0.2861    0.0000 H   0  0  0  0  0  0  0  0  0  0  0  0
   -9.5187   -1.9558    0.0000 H   0  0  0  0  0  0  0  0  0  0  0  0
   -8.5586    2.1671    0.0000 C   0  0  0  0  0  0  0  0  0  0  0  0
   -8.7259    3.7583    0.0000 H   0  0  0  0  0  0  0  0  0  0  0  0
  -10.0205    2.8179    0.0000 H   0  0  0  0  0  0  0  0  0  0  0  0
   -7.2643    3.1075    0.0000 H   0  0  0  0  0  0  0  0  0  0  0  0
   -5.6354    0.8655    0.0000 N   0  0  0  0  0  0  0  0  0  0  0  0
   -5.8027    2.4568    0.0000 H   0  0  0  0  0  0  0  0  0  0  0  0
   -4.1736    0.2148    0.0000 C   0  0  0  0  0  0  0  0  0  0  0  0
   -3.8411   -1.3502    0.0000 N   0  0  0  0  0  0  0  0  0  0  0  0
   -2.2497   -1.5175    0.0000 O   0  0  0  0  0  0  0  0  0  0  0  0
   -1.5989   -0.0559    0.0000 C   0  0  0  0  0  0  0  0  0  0  0  0
   -0.0001   -0.0000    0.0000 C   0  0  0  0  0  0  0  0  0  0  0  0
    1.5990    0.0558    0.0000 C   0  0  0  0  0  0  0  0  0  0  0  0
    3.1980    0.1116    0.0000 H   0  0  0  0  0  0  0  0  0  0  0  0
    2.4470   -1.3011    0.0000 H   0  0  0  0  0  0  0  0  0  0  0  0
    2.3502    1.4685    0.0000 H   0  0  0  0  0  0  0  0  0  0  0  0
    0.0557   -1.5990    0.0000 C   0  0  0  0  0  0  0  0  0  0  0  0
    0.1118   -3.1981    0.0000 H   0  0  0  0  0  0  0  0  0  0  0  0
    1.4685   -2.3501    0.0000 H   0  0  0  0  0  0  0  0  0  0  0  0
   -1.3010   -2.4468    0.0000 H   0  0  0  0  0  0  0  0  0  0  0  0
   -0.0559    1.5990    0.0000 C   0  0  0  0  0  0  0  0  0  0  0  0
   -0.1117    3.1981    0.0000 H   0  0  0  0  0  0  0  0  0  0  0  0
    1.3011    2.4469    0.0000 H   0  0  0  0  0  0  0  0  0  0  0  0
   -1.4685    2.3502    0.0000 H   0  0  0  0  0  0  0  0  0  0  0  0
   -2.7880    1.0147    0.0000 C   0  0  0  0  0  0  0  0  0  0  0  0
   -2.6208    2.6060    0.0000 H   0  0  0  0  0  0  0  0  0  0  0  0
  1  2  2  0  0  0  0
  1  3  1  0  0  0  0
  3  4  1  0  0  0  0
  4  5  1  0  0  0  0
  4  6  1  0  0  0  0
  4  7  1  0  0  0  0
  3  8  1  0  0  0  0
  8  9  1  0  0  0  0
  8 10  1  0  0  0  0
  8 11  1  0  0  0  0
  1 12  1  0  0  0  0
 12 13  1  0  0  0  0
 12 14  1  0  0  0  0
 14 15  2  0  0  0  0
 15 16  1  0  0  0  0
 16 17  1  0  0  0  0
 17 18  1  0  0  0  0
 18 19  1  0  0  0  0
 19 20  1  0  0  0  0
 19 21  1  0  0  0  0
 19 22  1  0  0  0  0
 18 23  1  0  0  0  0
 23 24  1  0  0  0  0
 23 25  1  0  0  0  0
 23 26  1  0  0  0  0
 18 27  1  0  0  0  0
 27 28  1  0  0  0  0
 27 29  1  0  0  0  0
 27 30  1  0  0  0  0
 17 31  2  0  0  0  0
 31 14  1  0  0  0  0
 31 32  1  0  0  0  0
M  END
> <ChemID>
101205

> <source_casrn>
55861-78-4

> <CAS>
55861-78-4

> <SMILES>
CN(C)C(=O)Nc1cc(o[n]1)C(C)(C)C

> <NAME>
Isouron

> <preferred_name>
Isouron

> <iupac>
3-(5-tert-butyl-1,2-oxazol-3-yl)-1,1-dimethylurea

> <MPID>
101173

> <dsstox_substance_id>
DTXSID1042079

> <Canonical_QSARr>
CN(C)C(=O)Nc1cc(o[n]1)C(C)(C)C

> <InChI_Code_QSARr>
InChI=1S/C10H17N3O2/c1-10(2,3)7-6-8(12-15-7)11-9(14)13(4)5/h6H,1-5H3,(H,11,12,14)

> <InChI Key_QSARr>
JLLJHQLUZAKJFH-UHFFFAOYSA-N

> <Salt_Solvent>
?

> <Ready_Biodeg>
1.0

$$$$
101206
  -INDIGO-08031722522D

 17 17  0  0  0  0  0  0  0  0999 V2000
    0.8000    1.3856    0.0000 C   0  0  0  0  0  0  0  0  0  0  0  0
    0.0000    2.7713    0.0000 O   0  0  0  0  0  0  0  0  0  0  0  0
    0.8000    4.1569    0.0000 H   0  0  0  0  0  0  0  0  0  0  0  0
    0.0000    0.0000    0.0000 C   0  0  0  0  0  0  0  0  0  0  0  0
   -1.6000    0.0000    0.0000 O   0  0  0  0  0  0  0  0  0  0  0  0
   -2.4001   -1.3856    0.0000 C   0  0  0  0  0  0  0  0  0  0  0  0
   -4.0000   -1.3856    0.0000 H   0  0  0  0  0  0  0  0  0  0  0  0
   -3.2000   -2.7713    0.0000 H   0  0  0  0  0  0  0  0  0  0  0  0
   -3.2000    0.0000    0.0000 H   0  0  0  0  0  0  0  0  0  0  0  0
    0.8000   -1.3856    0.0000 C   0  0  0  0  0  0  0  0  0  0  0  0
    0.0000   -2.7713    0.0000 Cl  0  0  0  0  0  0  0  0  0  0  0  0
    2.4000   -1.3856    0.0000 C   0  0  0  0  0  0  0  0  0  0  0  0
    3.2001   -2.7713    0.0000 Cl  0  0  0  0  0  0  0  0  0  0  0  0
    3.2001    0.0000    0.0000 C   0  0  0  0  0  0  0  0  0  0  0  0
    4.8000    0.0000    0.0000 Cl  0  0  0  0  0  0  0  0  0  0  0  0
    2.4000    1.3856    0.0000 C   0  0  0  0  0  0  0  0  0  0  0  0
    3.2001    2.7713    0.0000 H   0  0  0  0  0  0  0  0  0  0  0  0
  1  2  1  0  0  0  0
  2  3  1  0  0  0  0
  1  4  1  0  0  0  0
  4  5  1  0  0  0  0
  5  6  1  0  0  0  0
  6  7  1  0  0  0  0
  6  8  1  0  0  0  0
  6  9  1  0  0  0  0
  4 10  2  0  0  0  0
 10 11  1  0  0  0  0
 10 12  1  0  0  0  0
 12 13  1  0  0  0  0
 12 14  2  0  0  0  0
 14 15  1  0  0  0  0
 14 16  1  0  0  0  0
 16  1  2  0  0  0  0
 16 17  1  0  0  0  0
M  END
> <ChemID>
101206

> <source_casrn>
57057-83-7

> <CAS>
57057-83-7

> <SMILES>
COc1c(O)cc(Cl)c(Cl)c1Cl

> <NAME>
3,4,5-TRICHLOROGUAIACOL

> <preferred_name>
3,4,5-Trichloro-2-methoxyphenol

> <iupac>
C7H5Cl3O2

> <MPID>
101174

> <dsstox_substance_id>
DTXSID7052232

> <Canonical_QSARr>
COc1c(O)cc(Cl)c(Cl)c1Cl

> <InChI_Code_QSARr>
InChI=1S/C7H5Cl3O2/c1-12-7-4(11)2-3(8)5(9)6(7)10/h2,11H,1H3

> <InChI Key_QSARr>
RKEHLKXRUVUBJN-UHFFFAOYSA-N

> <Salt_Solvent>
?

> <Ready_Biodeg>
0.0

$$$$
101207
  -INDIGO-08031722522D

 41 41  0  0  0  0  0  0  0  0999 V2000
   -1.3857   -0.8001    0.0000 N   0  0  0  0  0  0  0  0  0  0  0  0
   -1.3857   -2.4001    0.0000 C   0  0  0  0  0  0  0  0  0  0  0  0
   -0.0001   -3.2000    0.0000 C   0  0  0  0  0  0  0  0  0  0  0  0
    1.5036   -2.6528    0.0000 C   0  0  0  0  0  0  0  0  0  0  0  0
    3.0071   -2.1055    0.0000 H   0  0  0  0  0  0  0  0  0  0  0  0
    2.7291   -3.6812    0.0000 H   0  0  0  0  0  0  0  0  0  0  0  0
    1.7814   -1.0771    0.0000 H   0  0  0  0  0  0  0  0  0  0  0  0
   -0.0001   -4.7999    0.0000 C   0  0  0  0  0  0  0  0  0  0  0  0
    1.3857   -5.6000    0.0000 H   0  0  0  0  0  0  0  0  0  0  0  0
   -1.3857   -5.6000    0.0000 C   0  0  0  0  0  0  0  0  0  0  0  0
   -1.3857   -7.2000    0.0000 H   0  0  0  0  0  0  0  0  0  0  0  0
   -2.7713   -4.7999    0.0000 C   0  0  0  0  0  0  0  0  0  0  0  0
   -4.1569   -5.6000    0.0000 H   0  0  0  0  0  0  0  0  0  0  0  0
   -2.7713   -3.2000    0.0000 C   0  0  0  0  0  0  0  0  0  0  0  0
   -4.2748   -2.6528    0.0000 C   0  0  0  0  0  0  0  0  0  0  0  0
   -5.7783   -2.1055    0.0000 H   0  0  0  0  0  0  0  0  0  0  0  0
   -5.5005   -3.6812    0.0000 H   0  0  0  0  0  0  0  0  0  0  0  0
   -4.5526   -1.0771    0.0000 H   0  0  0  0  0  0  0  0  0  0  0  0
   -2.8892   -0.2528    0.0000 C   0  0  0  0  0  0  0  0  0  0  0  0
   -3.6892   -1.6384    0.0000 O   0  0  0  0  0  0  0  0  0  0  0  0
   -3.6892    1.1328    0.0000 C   0  0  0  0  0  0  0  0  0  0  0  0
   -2.4198    2.1069    0.0000 H   0  0  0  0  0  0  0  0  0  0  0  0
   -3.4803    2.7192    0.0000 H   0  0  0  0  0  0  0  0  0  0  0  0
   -5.2891    1.1328    0.0000 O   0  0  0  0  0  0  0  0  0  0  0  0
   -6.0891    2.5186    0.0000 C   0  0  0  0  0  0  0  0  0  0  0  0
   -6.8891    3.9042    0.0000 H   0  0  0  0  0  0  0  0  0  0  0  0
   -7.6891    2.5186    0.0000 H   0  0  0  0  0  0  0  0  0  0  0  0
   -5.2891    3.9042    0.0000 H   0  0  0  0  0  0  0  0  0  0  0  0
   -0.0001    0.0000    0.0000 C   0  0  0  0  0  0  0  0  0  0  0  0
    0.7999   -1.3856    0.0000 H   0  0  0  0  0  0  0  0  0  0  0  0
    1.3857    0.8001    0.0000 C   0  0  0  0  0  0  0  0  0  0  0  0
    2.7713    0.0000    0.0000 O   0  0  0  0  0  0  0  0  0  0  0  0
    1.6635    2.3756    0.0000 O   0  0  0  0  0  0  0  0  0  0  0  0
    3.1670    2.9229    0.0000 C   0  0  0  0  0  0  0  0  0  0  0  0
    4.6705    3.4702    0.0000 H   0  0  0  0  0  0  0  0  0  0  0  0
    3.4448    4.4986    0.0000 H   0  0  0  0  0  0  0  0  0  0  0  0
    4.3927    1.8945    0.0000 H   0  0  0  0  0  0  0  0  0  0  0  0
   -0.7999    1.3856    0.0000 C   0  0  0  0  0  0  0  0  0  0  0  0
   -0.0001    2.7714    0.0000 H   0  0  0  0  0  0  0  0  0  0  0  0
   -1.5999    2.7714    0.0000 H   0  0  0  0  0  0  0  0  0  0  0  0
    0.7756    1.6635    0.0000 H   0  0  0  0  0  0  0  0  0  0  0  0
  1  2  1  0  0  0  0
  2  3  1  0  0  0  0
  3  4  1  0  0  0  0
  4  5  1  0  0  0  0
  4  6  1  0  0  0  0
  4  7  1  0  0  0  0
  3  8  2  0  0  0  0
  8  9  1  0  0  0  0
  8 10  1  0  0  0  0
 10 11  1  0  0  0  0
 10 12  2  0  0  0  0
 12 13  1  0  0  0  0
 12 14  1  0  0  0  0
 14  2  2  0  0  0  0
 14 15  1  0  0  0  0
 15 16  1  0  0  0  0
 15 17  1  0  0  0  0
 15 18  1  0  0  0  0
  1 19  1  0  0  0  0
 19 20  2  0  0  0  0
 19 21  1  0  0  0  0
 21 22  1  0  0  0  0
 21 23  1  0  0  0  0
 21 24  1  0  0  0  0
 24 25  1  0  0  0  0
 25 26  1  0  0  0  0
 25 27  1  0  0  0  0
 25 28  1  0  0  0  0
  1 29  1  0  0  0  0
 29 30  1  0  0  0  0
 29 31  1  0  0  0  0
 31 32  2  0  0  0  0
 31 33  1  0  0  0  0
 33 34  1  0  0  0  0
 34 35  1  0  0  0  0
 34 36  1  0  0  0  0
 34 37  1  0  0  0  0
 29 38  1  0  0  0  0
 38 39  1  0  0  0  0
 38 40  1  0  0  0  0
 38 41  1  0  0  0  0
M  END
> <ChemID>
101207

> <source_casrn>
57837-19-1

> <CAS>
57837-19-1

> <SMILES>
COCC(=O)N(C(C)C(=O)OC)c1c(C)cccc1C

> <NAME>
METALAXYL

> <preferred_name>
Metalaxyl

> <iupac>
methyl N-(2,6-dimethylphenyl)-N-(methoxyacetyl)alaninate

> <MPID>
101175

> <dsstox_substance_id>
DTXSID6024175

> <Canonical_QSARr>
COCC(=O)N(C(C)C(=O)OC)c1c(C)cccc1C

> <InChI_Code_QSARr>
InChI=1S/C15H21NO4/c1-10-7-6-8-11(2)14(10)16(13(17)9-19-4)12(3)15(18)20-5/h6-8,12H,9H2,1-5H3

> <InChI Key_QSARr>
ZQEIXNIJLIKNTD-UHFFFAOYSA-N

> <Salt_Solvent>
?

> <Ready_Biodeg>
0.0

$$$$
101209
  -INDIGO-08031722522D

 38 40  0  0  0  0  0  0  0  0999 V2000
   -1.3856    2.3999    0.0000 N   0  0  0  0  0  0  0  0  0  0  0  0
   -0.0001    1.6000    0.0000 C   0  0  0  0  0  0  0  0  0  0  0  0
    1.3856    2.3999    0.0000 H   0  0  0  0  0  0  0  0  0  0  0  0
   -0.0001    0.0000    0.0000 C   0  0  0  0  0  0  0  0  0  0  0  0
    1.3856   -0.8000    0.0000 C   0  0  0  0  0  0  0  0  0  0  0  0
    2.7713    0.0000    0.0000 C   0  0  0  0  0  0  0  0  0  0  0  0
    2.7713    1.6000    0.0000 H   0  0  0  0  0  0  0  0  0  0  0  0
    4.1570   -0.8000    0.0000 C   0  0  0  0  0  0  0  0  0  0  0  0
    5.5425    0.0000    0.0000 C   0  0  0  0  0  0  0  0  0  0  0  0
    6.9282    0.8000    0.0000 F   0  0  0  0  0  0  0  0  0  0  0  0
    6.9282   -0.8000    0.0000 F   0  0  0  0  0  0  0  0  0  0  0  0
    5.5425    1.6000    0.0000 F   0  0  0  0  0  0  0  0  0  0  0  0
    4.1570   -2.4001    0.0000 C   0  0  0  0  0  0  0  0  0  0  0  0
    5.5425   -3.2000    0.0000 H   0  0  0  0  0  0  0  0  0  0  0  0
    2.7713   -3.2000    0.0000 C   0  0  0  0  0  0  0  0  0  0  0  0
    2.7713   -4.8000    0.0000 H   0  0  0  0  0  0  0  0  0  0  0  0
    1.3856   -2.4001    0.0000 C   0  0  0  0  0  0  0  0  0  0  0  0
   -0.0001   -3.2000    0.0000 H   0  0  0  0  0  0  0  0  0  0  0  0
   -1.3856   -0.8000    0.0000 C   0  0  0  0  0  0  0  0  0  0  0  0
   -1.3856   -2.4001    0.0000 O   0  0  0  0  0  0  0  0  0  0  0  0
   -2.7713    0.0000    0.0000 C   0  0  0  0  0  0  0  0  0  0  0  0
   -4.1570   -0.8000    0.0000 C   0  0  0  0  0  0  0  0  0  0  0  0
   -4.1570   -2.4001    0.0000 C   0  0  0  0  0  0  0  0  0  0  0  0
   -2.7713   -3.2000    0.0000 H   0  0  0  0  0  0  0  0  0  0  0  0
   -5.5427   -3.2000    0.0000 C   0  0  0  0  0  0  0  0  0  0  0  0
   -5.5427   -4.8000    0.0000 H   0  0  0  0  0  0  0  0  0  0  0  0
   -6.9281   -2.4001    0.0000 C   0  0  0  0  0  0  0  0  0  0  0  0
   -8.3138   -3.2000    0.0000 H   0  0  0  0  0  0  0  0  0  0  0  0
   -6.9281   -0.8000    0.0000 C   0  0  0  0  0  0  0  0  0  0  0  0
   -8.3138    0.0000    0.0000 H   0  0  0  0  0  0  0  0  0  0  0  0
   -5.5427    0.0000    0.0000 C   0  0  0  0  0  0  0  0  0  0  0  0
   -5.5427    1.6000    0.0000 H   0  0  0  0  0  0  0  0  0  0  0  0
   -2.7713    1.6000    0.0000 C   0  0  0  0  0  0  0  0  0  0  0  0
   -4.1570    2.3999    0.0000 H   0  0  0  0  0  0  0  0  0  0  0  0
   -1.3856    4.0000    0.0000 C   0  0  0  0  0  0  0  0  0  0  0  0
   -1.3856    5.6000    0.0000 H   0  0  0  0  0  0  0  0  0  0  0  0
   -2.7713    4.8000    0.0000 H   0  0  0  0  0  0  0  0  0  0  0  0
   -0.0001    4.8000    0.0000 H   0  0  0  0  0  0  0  0  0  0  0  0
  1  2  1  0  0  0  0
  2  3  1  0  0  0  0
  2  4  2  0  0  0  0
  4  5  1  0  0  0  0
  5  6  1  0  0  0  0
  6  7  1  0  0  0  0
  6  8  2  0  0  0  0
  8  9  1  0  0  0  0
  9 10  1  0  0  0  0
  9 11  1  0  0  0  0
  9 12  1  0  0  0  0
  8 13  1  0  0  0  0
 13 14  1  0  0  0  0
 13 15  2  0  0  0  0
 15 16  1  0  0  0  0
 15 17  1  0  0  0  0
 17  5  2  0  0  0  0
 17 18  1  0  0  0  0
  4 19  1  0  0  0  0
 19 20  2  0  0  0  0
 19 21  1  0  0  0  0
 21 22  1  0  0  0  0
 22 23  1  0  0  0  0
 23 24  1  0  0  0  0
 23 25  2  0  0  0  0
 25 26  1  0  0  0  0
 25 27  1  0  0  0  0
 27 28  1  0  0  0  0
 27 29  2  0  0  0  0
 29 30  1  0  0  0  0
 29 31  1  0  0  0  0
 31 22  2  0  0  0  0
 31 32  1  0  0  0  0
 21 33  2  0  0  0  0
 33  1  1  0  0  0  0
 33 34  1  0  0  0  0
  1 35  1  0  0  0  0
 35 36  1  0  0  0  0
 35 37  1  0  0  0  0
 35 38  1  0  0  0  0
M  END
> <ChemID>
101209

> <source_casrn>
59756-60-4

> <CAS>
59756-60-4

> <SMILES>
CN1C=C(C(=O)C(=C1)c1ccccc1)c1cc(ccc1)C(F)(F)F

> <NAME>
FLURIDONE

> <preferred_name>
Fluridone

> <iupac>
1-methyl-3-phenyl-5-[3-(trifluoromethyl)phenyl]pyridin-4(1H)-one

> <MPID>
101177

> <dsstox_substance_id>
DTXSID8024107

> <Canonical_QSARr>
CN1C=C(C(=O)C(=C1)c1ccccc1)c1cc(ccc1)C(F)(F)F

> <InChI_Code_QSARr>
InChI=1S/C19H14F3NO/c1-23-11-16(13-6-3-2-4-7-13)18(24)17(12-23)14-8-5-9-15(10-14)19(20,21)22/h2-12H,1H3

> <InChI Key_QSARr>
YWBVHLJPRPCRSD-UHFFFAOYSA-N

> <Salt_Solvent>
?

> <Ready_Biodeg>
0.0

$$$$
101210
  -INDIGO-08031722522D

 66 67  0  0  0  0  0  0  0  0999 V2000
   -8.3139   -1.6000    0.0000 O   0  0  0  0  0  0  0  0  0  0  0  0
   -9.6995   -2.4000    0.0000 P   0  0  0  0  0  0  0  0  0  0  0  0
   -9.6995   -4.0000    0.0000 O   0  0  0  0  0  0  0  0  0  0  0  0
   -8.3139   -4.7999    0.0000 C   0  0  0  0  0  0  0  0  0  0  0  0
   -6.9284   -4.0000    0.0000 C   0  0  0  0  0  0  0  0  0  0  0  0
   -6.9284   -2.4000    0.0000 H   0  0  0  0  0  0  0  0  0  0  0  0
   -5.5424   -4.7999    0.0000 C   0  0  0  0  0  0  0  0  0  0  0  0
   -4.1569   -4.0000    0.0000 H   0  0  0  0  0  0  0  0  0  0  0  0
   -5.5424   -6.3999    0.0000 C   0  0  0  0  0  0  0  0  0  0  0  0
   -4.1569   -7.2000    0.0000 H   0  0  0  0  0  0  0  0  0  0  0  0
   -6.9284   -7.2000    0.0000 C   0  0  0  0  0  0  0  0  0  0  0  0
   -6.9284   -8.8000    0.0000 H   0  0  0  0  0  0  0  0  0  0  0  0
   -8.3139   -6.3999    0.0000 C   0  0  0  0  0  0  0  0  0  0  0  0
   -9.6995   -7.2000    0.0000 H   0  0  0  0  0  0  0  0  0  0  0  0
  -11.0851   -1.6000    0.0000 O   0  0  0  0  0  0  0  0  0  0  0  0
  -12.4706   -2.4000    0.0000 C   0  0  0  0  0  0  0  0  0  0  0  0
  -12.4706   -4.0000    0.0000 C   0  0  0  0  0  0  0  0  0  0  0  0
  -11.0851   -4.7999    0.0000 H   0  0  0  0  0  0  0  0  0  0  0  0
  -13.8566   -4.7999    0.0000 C   0  0  0  0  0  0  0  0  0  0  0  0
  -13.8566   -6.3999    0.0000 H   0  0  0  0  0  0  0  0  0  0  0  0
  -15.2421   -4.0000    0.0000 C   0  0  0  0  0  0  0  0  0  0  0  0
  -16.6277   -4.7999    0.0000 H   0  0  0  0  0  0  0  0  0  0  0  0
  -15.2421   -2.4000    0.0000 C   0  0  0  0  0  0  0  0  0  0  0  0
  -16.6277   -1.6000    0.0000 H   0  0  0  0  0  0  0  0  0  0  0  0
  -13.8566   -1.6000    0.0000 C   0  0  0  0  0  0  0  0  0  0  0  0
  -13.8566    0.0000    0.0000 H   0  0  0  0  0  0  0  0  0  0  0  0
   -8.3139    0.0000    0.0000 C   0  0  0  0  0  0  0  0  0  0  0  0
   -9.9000    0.2088    0.0000 H   0  0  0  0  0  0  0  0  0  0  0  0
   -9.2877    1.2694    0.0000 H   0  0  0  0  0  0  0  0  0  0  0  0
   -6.9284    0.7999    0.0000 C   0  0  0  0  0  0  0  0  0  0  0  0
   -7.5406    2.2782    0.0000 H   0  0  0  0  0  0  0  0  0  0  0  0
   -6.3158    2.2782    0.0000 H   0  0  0  0  0  0  0  0  0  0  0  0
   -5.5424    0.0000    0.0000 C   0  0  0  0  0  0  0  0  0  0  0  0
   -4.9302   -1.4783    0.0000 H   0  0  0  0  0  0  0  0  0  0  0  0
   -6.1547   -1.4783    0.0000 H   0  0  0  0  0  0  0  0  0  0  0  0
   -4.1569    0.7999    0.0000 C   0  0  0  0  0  0  0  0  0  0  0  0
   -4.7691    2.2782    0.0000 H   0  0  0  0  0  0  0  0  0  0  0  0
   -3.5446    2.2782    0.0000 H   0  0  0  0  0  0  0  0  0  0  0  0
   -2.7713    0.0000    0.0000 C   0  0  0  0  0  0  0  0  0  0  0  0
   -2.1591   -1.4783    0.0000 H   0  0  0  0  0  0  0  0  0  0  0  0
   -3.3836   -1.4783    0.0000 H   0  0  0  0  0  0  0  0  0  0  0  0
   -1.3858    0.7999    0.0000 C   0  0  0  0  0  0  0  0  0  0  0  0
   -1.9980    2.2782    0.0000 H   0  0  0  0  0  0  0  0  0  0  0  0
   -0.7735    2.2782    0.0000 H   0  0  0  0  0  0  0  0  0  0  0  0
    0.0002    0.0000    0.0000 C   0  0  0  0  0  0  0  0  0  0  0  0
    0.6124   -1.4783    0.0000 H   0  0  0  0  0  0  0  0  0  0  0  0
   -0.6124   -1.4783    0.0000 H   0  0  0  0  0  0  0  0  0  0  0  0
    1.3857    0.7999    0.0000 C   0  0  0  0  0  0  0  0  0  0  0  0
    0.7735    2.2782    0.0000 H   0  0  0  0  0  0  0  0  0  0  0  0
    1.9980    2.2782    0.0000 H   0  0  0  0  0  0  0  0  0  0  0  0
    2.7713    0.0000    0.0000 C   0  0  0  0  0  0  0  0  0  0  0  0
    3.3835   -1.4783    0.0000 H   0  0  0  0  0  0  0  0  0  0  0  0
    2.1591   -1.4783    0.0000 H   0  0  0  0  0  0  0  0  0  0  0  0
    4.1569    0.7999    0.0000 C   0  0  0  0  0  0  0  0  0  0  0  0
    3.5446    2.2782    0.0000 H   0  0  0  0  0  0  0  0  0  0  0  0
    4.7691    2.2782    0.0000 H   0  0  0  0  0  0  0  0  0  0  0  0
    5.5424    0.0000    0.0000 C   0  0  0  0  0  0  0  0  0  0  0  0
    6.1551   -1.4783    0.0000 H   0  0  0  0  0  0  0  0  0  0  0  0
    4.9302   -1.4783    0.0000 H   0  0  0  0  0  0  0  0  0  0  0  0
    6.9284    0.7999    0.0000 C   0  0  0  0  0  0  0  0  0  0  0  0
    6.3157    2.2782    0.0000 H   0  0  0  0  0  0  0  0  0  0  0  0
    7.5406    2.2782    0.0000 H   0  0  0  0  0  0  0  0  0  0  0  0
    8.3139    0.0000    0.0000 C   0  0  0  0  0  0  0  0  0  0  0  0
    9.6995   -0.8001    0.0000 H   0  0  0  0  0  0  0  0  0  0  0  0
    9.6995    0.7999    0.0000 H   0  0  0  0  0  0  0  0  0  0  0  0
    8.3139   -1.6000    0.0000 H   0  0  0  0  0  0  0  0  0  0  0  0
  1  2  1  0  0  0  0
  2  3  1  0  0  0  0
  3  4  1  0  0  0  0
  4  5  1  0  0  0  0
  5  6  1  0  0  0  0
  5  7  2  0  0  0  0
  7  8  1  0  0  0  0
  7  9  1  0  0  0  0
  9 10  1  0  0  0  0
  9 11  2  0  0  0  0
 11 12  1  0  0  0  0
 11 13  1  0  0  0  0
 13  4  2  0  0  0  0
 13 14  1  0  0  0  0
  2 15  1  0  0  0  0
 15 16  1  0  0  0  0
 16 17  1  0  0  0  0
 17 18  1  0  0  0  0
 17 19  2  0  0  0  0
 19 20  1  0  0  0  0
 19 21  1  0  0  0  0
 21 22  1  0  0  0  0
 21 23  2  0  0  0  0
 23 24  1  0  0  0  0
 23 25  1  0  0  0  0
 25 16  2  0  0  0  0
 25 26  1  0  0  0  0
  1 27  1  0  0  0  0
 27 28  1  0  0  0  0
 27 29  1  0  0  0  0
 27 30  1  0  0  0  0
 30 31  1  0  0  0  0
 30 32  1  0  0  0  0
 30 33  1  0  0  0  0
 33 34  1  0  0  0  0
 33 35  1  0  0  0  0
 33 36  1  0  0  0  0
 36 37  1  0  0  0  0
 36 38  1  0  0  0  0
 36 39  1  0  0  0  0
 39 40  1  0  0  0  0
 39 41  1  0  0  0  0
 39 42  1  0  0  0  0
 42 43  1  0  0  0  0
 42 44  1  0  0  0  0
 42 45  1  0  0  0  0
 45 46  1  0  0  0  0
 45 47  1  0  0  0  0
 45 48  1  0  0  0  0
 48 49  1  0  0  0  0
 48 50  1  0  0  0  0
 48 51  1  0  0  0  0
 51 52  1  0  0  0  0
 51 53  1  0  0  0  0
 51 54  1  0  0  0  0
 54 55  1  0  0  0  0
 54 56  1  0  0  0  0
 54 57  1  0  0  0  0
 57 58  1  0  0  0  0
 57 59  1  0  0  0  0
 57 60  1  0  0  0  0
 60 61  1  0  0  0  0
 60 62  1  0  0  0  0
 60 63  1  0  0  0  0
 63 64  1  0  0  0  0
 63 65  1  0  0  0  0
 63 66  1  0  0  0  0
M  END
> <ChemID>
101210

> <source_casrn>
60628-17-3

> <CAS>
60628-17-3

> <SMILES>
CCCCCCCCCCCCCOP(Oc1ccccc1)Oc1ccccc1

> <NAME>
Phosphorous acid, diphenyl tridecyl ester

> <preferred_name>
Diphenyl tridecyl phosphite

> <iupac>
Diphenyl tridecyl phosphite

> <MPID>
101178

> <dsstox_substance_id>
DTXSID0069414

> <Canonical_QSARr>
CCCCCCCCCCCCCOP(Oc1ccccc1)Oc1ccccc1

> <InChI_Code_QSARr>
InChI=1S/C25H37O3P/c1-2-3-4-5-6-7-8-9-10-11-18-23-26-29(27-24-19-14-12-15-20-24)28-25-21-16-13-17-22-25/h12-17,19-22H,2-11,18,23H2,1H3

> <InChI Key_QSARr>
OGVJEUDMQQIAPV-UHFFFAOYSA-N

> <Salt_Solvent>
?

> <Ready_Biodeg>
0.0

$$$$
101211
  -INDIGO-08031722522D

 20 20  0  0  0  0  0  0  0  0999 V2000
    0.0000    2.7713    0.0000 C   0  0  0  0  0  0  0  0  0  0  0  0
    1.6000    2.7713    0.0000 C   0  0  0  0  0  0  0  0  0  0  0  0
    2.4000    4.1569    0.0000 H   0  0  0  0  0  0  0  0  0  0  0  0
    2.4000    1.3856    0.0000 C   0  0  0  0  0  0  0  0  0  0  0  0
    4.0001    1.3856    0.0000 C   0  0  0  0  0  0  0  0  0  0  0  0
    5.6000    1.3856    0.0000 H   0  0  0  0  0  0  0  0  0  0  0  0
    4.8000    2.7713    0.0000 H   0  0  0  0  0  0  0  0  0  0  0  0
    4.8000    0.0000    0.0000 H   0  0  0  0  0  0  0  0  0  0  0  0
    1.6000    0.0000    0.0000 C   0  0  0  0  0  0  0  0  0  0  0  0
    2.4000   -1.3856    0.0000 H   0  0  0  0  0  0  0  0  0  0  0  0
    0.0000    0.0000    0.0000 C   0  0  0  0  0  0  0  0  0  0  0  0
   -0.8000   -1.3856    0.0000 C   0  0  0  0  0  0  0  0  0  0  0  0
   -1.6001   -2.7713    0.0000 H   0  0  0  0  0  0  0  0  0  0  0  0
    0.0000   -2.7713    0.0000 H   0  0  0  0  0  0  0  0  0  0  0  0
   -2.4000   -1.3856    0.0000 H   0  0  0  0  0  0  0  0  0  0  0  0
   -0.8000    1.3856    0.0000 C   0  0  0  0  0  0  0  0  0  0  0  0
   -2.4000    1.3856    0.0000 N   0  0  0  0  0  0  0  0  0  0  0  0
   -3.2000    2.7713    0.0000 H   0  0  0  0  0  0  0  0  0  0  0  0
   -3.2000    0.0000    0.0000 H   0  0  0  0  0  0  0  0  0  0  0  0
   -0.8000    4.1569    0.0000 Cl  0  0  0  0  0  0  0  0  0  0  0  0
  1  2  1  0  0  0  0
  2  3  1  0  0  0  0
  2  4  2  0  0  0  0
  4  5  1  0  0  0  0
  5  6  1  0  0  0  0
  5  7  1  0  0  0  0
  5  8  1  0  0  0  0
  4  9  1  0  0  0  0
  9 10  1  0  0  0  0
  9 11  2  0  0  0  0
 11 12  1  0  0  0  0
 12 13  1  0  0  0  0
 12 14  1  0  0  0  0
 12 15  1  0  0  0  0
 11 16  1  0  0  0  0
 16  1  2  0  0  0  0
 16 17  1  0  0  0  0
 17 18  1  0  0  0  0
 17 19  1  0  0  0  0
  1 20  1  0  0  0  0
M  END
> <ChemID>
101211

> <source_casrn>
63133-82-4

> <CAS>
63133-82-4

> <SMILES>
Cc1cc(Cl)c(N)c(C)c1

> <NAME>
Benzenamine, 2-chloro-4,6-dimethyl-

> <preferred_name>
2-Chloro-4,6-dimethylaniline

> <iupac>
2-chloro-4,6-dimethylaniline

> <MPID>
101179

> <dsstox_substance_id>
DTXSID9040714

> <Canonical_QSARr>
Cc1cc(Cl)c(N)c(C)c1

> <InChI_Code_QSARr>
InChI=1S/C8H10ClN/c1-5-3-6(2)8(10)7(9)4-5/h3-4H,10H2,1-2H3

> <InChI Key_QSARr>
LKAQFOKMMXWRRQ-UHFFFAOYSA-N

> <Salt_Solvent>
?

> <Ready_Biodeg>
0.0

$$$$
101214
  -INDIGO-08031722522D

 20 20  0  0  0  0  0  0  0  0999 V2000
   -6.4000    0.0000    0.0000 Br  0  0  0  0  0  0  0  0  0  0  0  0
   -4.7999    0.0000    0.0000 C   0  0  0  0  0  0  0  0  0  0  0  0
   -4.0000    1.3857    0.0000 C   0  0  0  0  0  0  0  0  0  0  0  0
   -4.7999    2.7713    0.0000 H   0  0  0  0  0  0  0  0  0  0  0  0
   -2.4000    1.3857    0.0000 C   0  0  0  0  0  0  0  0  0  0  0  0
   -1.6001    2.7713    0.0000 H   0  0  0  0  0  0  0  0  0  0  0  0
   -1.5999    0.0000    0.0000 C   0  0  0  0  0  0  0  0  0  0  0  0
    0.0000    0.0000    0.0000 C   0  0  0  0  0  0  0  0  0  0  0  0
    0.2089   -1.5864    0.0000 H   0  0  0  0  0  0  0  0  0  0  0  0
    1.2693   -0.9740    0.0000 H   0  0  0  0  0  0  0  0  0  0  0  0
    0.8000    1.3857    0.0000 C   0  0  0  0  0  0  0  0  0  0  0  0
    0.5912    2.9720    0.0000 H   0  0  0  0  0  0  0  0  0  0  0  0
   -0.4693    2.3596    0.0000 H   0  0  0  0  0  0  0  0  0  0  0  0
    2.4000    1.3857    0.0000 N   0  0  0  0  0  0  0  0  0  0  0  0
    3.2000    2.7713    0.0000 H   0  0  0  0  0  0  0  0  0  0  0  0
    3.2000    0.0000    0.0000 H   0  0  0  0  0  0  0  0  0  0  0  0
   -2.4000   -1.3857    0.0000 C   0  0  0  0  0  0  0  0  0  0  0  0
   -1.5999   -2.7713    0.0000 H   0  0  0  0  0  0  0  0  0  0  0  0
   -4.0000   -1.3857    0.0000 C   0  0  0  0  0  0  0  0  0  0  0  0
   -4.7999   -2.7713    0.0000 H   0  0  0  0  0  0  0  0  0  0  0  0
  1  2  1  0  0  0  0
  2  3  1  0  0  0  0
  3  4  1  0  0  0  0
  3  5  2  0  0  0  0
  5  6  1  0  0  0  0
  5  7  1  0  0  0  0
  7  8  1  0  0  0  0
  8  9  1  0  0  0  0
  8 10  1  0  0  0  0
  8 11  1  0  0  0  0
 11 12  1  0  0  0  0
 11 13  1  0  0  0  0
 11 14  1  0  0  0  0
 14 15  1  0  0  0  0
 14 16  1  0  0  0  0
  7 17  2  0  0  0  0
 17 18  1  0  0  0  0
 17 19  1  0  0  0  0
 19  2  2  0  0  0  0
 19 20  1  0  0  0  0
M  END
> <ChemID>
101214

> <source_casrn>
73918-56-6

> <CAS>
73918-56-6

> <SMILES>
NCCc1ccc(Br)cc1

> <NAME>
p-Bromophenethylamine

> <preferred_name>
p-Bromophenethylamine

> <iupac>
2-(4-bromophenyl)ethanamine

> <MPID>
101181

> <dsstox_substance_id>
DTXSID20224524

> <Canonical_QSARr>
NCCc1ccc(Br)cc1

> <InChI_Code_QSARr>
InChI=1S/C8H10BrN/c9-8-3-1-7(2-4-8)5-6-10/h1-4H,5-6,10H2

> <InChI Key_QSARr>
ZSZCXAOQVBEPME-UHFFFAOYSA-N

> <Salt_Solvent>
?

> <Ready_Biodeg>
1.0

$$$$
101215
  -INDIGO-08031722522D

 40 42  0  0  0  0  0  0  0  0999 V2000
   -2.4622   -0.8001    0.0000 C   0  0  0  0  0  0  0  0  0  0  0  0
   -1.5217    0.4944    0.0000 N   0  0  0  0  0  0  0  0  0  0  0  0
    0.0000    0.0001    0.0000 C   0  0  0  0  0  0  0  0  0  0  0  0
    1.5913   -0.1672    0.0000 C   0  0  0  0  0  0  0  0  0  0  0  0
    1.2042    1.3852    0.0000 H   0  0  0  0  0  0  0  0  0  0  0  0
    3.0528    0.4836    0.0000 C   0  0  0  0  0  0  0  0  0  0  0  0
    4.5146    1.1344    0.0000 H   0  0  0  0  0  0  0  0  0  0  0  0
    4.3473   -0.4570    0.0000 H   0  0  0  0  0  0  0  0  0  0  0  0
    3.2201    2.0748    0.0000 H   0  0  0  0  0  0  0  0  0  0  0  0
    1.9784   -1.7198    0.0000 C   0  0  0  0  0  0  0  0  0  0  0  0
    3.5162   -2.1607    0.0000 H   0  0  0  0  0  0  0  0  0  0  0  0
    2.3653   -3.2722    0.0000 H   0  0  0  0  0  0  0  0  0  0  0  0
    3.1291   -0.6082    0.0000 H   0  0  0  0  0  0  0  0  0  0  0  0
    0.0559    1.5991    0.0000 C   0  0  0  0  0  0  0  0  0  0  0  0
    0.1117    3.1980    0.0000 H   0  0  0  0  0  0  0  0  0  0  0  0
   -1.3012    2.4469    0.0000 H   0  0  0  0  0  0  0  0  0  0  0  0
    1.4685    2.3502    0.0000 H   0  0  0  0  0  0  0  0  0  0  0  0
    0.0000   -1.6000    0.0000 C   0  0  0  0  0  0  0  0  0  0  0  0
    1.2945   -2.5404    0.0000 O   0  0  0  0  0  0  0  0  0  0  0  0
   -1.5217   -2.0944    0.0000 N   0  0  0  0  0  0  0  0  0  0  0  0
   -2.0161   -3.6161    0.0000 H   0  0  0  0  0  0  0  0  0  0  0  0
   -4.0622   -0.8001    0.0000 C   0  0  0  0  0  0  0  0  0  0  0  0
   -4.8621    0.5857    0.0000 C   0  0  0  0  0  0  0  0  0  0  0  0
   -4.0622    1.9713    0.0000 C   0  0  0  0  0  0  0  0  0  0  0  0
   -2.4622    1.9713    0.0000 O   0  0  0  0  0  0  0  0  0  0  0  0
   -4.8621    3.3569    0.0000 O   0  0  0  0  0  0  0  0  0  0  0  0
   -4.0622    4.7426    0.0000 H   0  0  0  0  0  0  0  0  0  0  0  0
   -6.4621    0.5857    0.0000 C   0  0  0  0  0  0  0  0  0  0  0  0
   -7.2621    1.9713    0.0000 H   0  0  0  0  0  0  0  0  0  0  0  0
   -7.2621   -0.8001    0.0000 C   0  0  0  0  0  0  0  0  0  0  0  0
   -6.4621   -2.1857    0.0000 C   0  0  0  0  0  0  0  0  0  0  0  0
   -7.2621   -3.5713    0.0000 C   0  0  0  0  0  0  0  0  0  0  0  0
   -6.4621   -4.9569    0.0000 H   0  0  0  0  0  0  0  0  0  0  0  0
   -8.8622   -3.5713    0.0000 C   0  0  0  0  0  0  0  0  0  0  0  0
   -9.6622   -4.9569    0.0000 H   0  0  0  0  0  0  0  0  0  0  0  0
   -9.6622   -2.1857    0.0000 C   0  0  0  0  0  0  0  0  0  0  0  0
  -11.2621   -2.1857    0.0000 H   0  0  0  0  0  0  0  0  0  0  0  0
   -8.8622   -0.8001    0.0000 C   0  0  0  0  0  0  0  0  0  0  0  0
   -9.6622    0.5857    0.0000 H   0  0  0  0  0  0  0  0  0  0  0  0
   -4.8621   -2.1857    0.0000 N   0  0  0  0  0  0  0  0  0  0  0  0
  1  2  2  0  0  0  0
  2  3  1  0  0  0  0
  3  4  1  0  0  0  0
  4  5  1  0  0  0  0
  4  6  1  0  0  0  0
  6  7  1  0  0  0  0
  6  8  1  0  0  0  0
  6  9  1  0  0  0  0
  4 10  1  0  0  0  0
 10 11  1  0  0  0  0
 10 12  1  0  0  0  0
 10 13  1  0  0  0  0
  3 14  1  0  0  0  0
 14 15  1  0  0  0  0
 14 16  1  0  0  0  0
 14 17  1  0  0  0  0
  3 18  1  0  0  0  0
 18 19  2  0  0  0  0
 18 20  1  0  0  0  0
 20  1  1  0  0  0  0
 20 21  1  0  0  0  0
  1 22  1  0  0  0  0
 22 23  1  0  0  0  0
 23 24  1  0  0  0  0
 24 25  2  0  0  0  0
 24 26  1  0  0  0  0
 26 27  1  0  0  0  0
 23 28  2  0  0  0  0
 28 29  1  0  0  0  0
 28 30  1  0  0  0  0
 30 31  1  0  0  0  0
 31 32  2  0  0  0  0
 32 33  1  0  0  0  0
 32 34  1  0  0  0  0
 34 35  1  0  0  0  0
 34 36  2  0  0  0  0
 36 37  1  0  0  0  0
 36 38  1  0  0  0  0
 38 30  2  0  0  0  0
 38 39  1  0  0  0  0
 31 40  1  0  0  0  0
 40 22  2  0  0  0  0
M  END
> <ChemID>
101215

> <source_casrn>
81335-37-7

> <CAS>
81335-37-7

> <SMILES>
CC(C)C1(C)N=C(NC1=O)c1[n]c2ccccc2cc1C(O)=O

> <NAME>
Imazaquin

> <preferred_name>
Imazaquin

> <iupac>
2-[4-methyl-5-oxo-4-(propan-2-yl)-4,5-dihydro-1H-imidazol-2-yl]quinoline-3-carboxylic acid

> <MPID>
101182

> <dsstox_substance_id>
DTXSID3024152

> <Canonical_QSARr>
CC(C)C1(C)N=C(NC1=O)c1[n]c2ccccc2cc1C(O)=O

> <InChI_Code_QSARr>
InChI=1S/C17H17N3O3/c1-9(2)17(3)16(23)19-14(20-17)13-11(15(21)22)8-10-6-4-5-7-12(10)18-13/h4-9H,1-3H3,(H,21,22)(H,19,20,23)

> <InChI Key_QSARr>
CABMTIJINOIHOD-UHFFFAOYSA-N

> <Salt_Solvent>
?

> <Ready_Biodeg>
0.0

$$$$
101216
  -INDIGO-08031722522D

 17 17  0  0  0  0  0  0  0  0999 V2000
   -0.7999    1.3856    0.0000 S   0  0  0  0  0  0  0  0  0  0  0  0
    0.0001   -0.0000    0.0000 C   0  0  0  0  0  0  0  0  0  0  0  0
   -0.2088   -1.5863    0.0000 H   0  0  0  0  0  0  0  0  0  0  0  0
   -1.2694   -0.9740    0.0000 H   0  0  0  0  0  0  0  0  0  0  0  0
    1.6000   -0.0000    0.0000 C   0  0  0  0  0  0  0  0  0  0  0  0
    2.4000   -1.3856    0.0000 O   0  0  0  0  0  0  0  0  0  0  0  0
    4.0000   -1.3856    0.0000 H   0  0  0  0  0  0  0  0  0  0  0  0
    2.4000    1.3856    0.0000 O   0  0  0  0  0  0  0  0  0  0  0  0
   -2.4001    1.3856    0.0000 C   0  0  0  0  0  0  0  0  0  0  0  0
   -3.2001    2.7713    0.0000 N   0  0  0  0  0  0  0  0  0  0  0  0
   -4.8000    2.7713    0.0000 C   0  0  0  0  0  0  0  0  0  0  0  0
   -5.6000    4.1569    0.0000 H   0  0  0  0  0  0  0  0  0  0  0  0
   -5.6000    1.3856    0.0000 C   0  0  0  0  0  0  0  0  0  0  0  0
   -7.2000    1.3856    0.0000 H   0  0  0  0  0  0  0  0  0  0  0  0
   -4.8000   -0.0000    0.0000 C   0  0  0  0  0  0  0  0  0  0  0  0
   -5.6000   -1.3856    0.0000 H   0  0  0  0  0  0  0  0  0  0  0  0
   -3.2001   -0.0000    0.0000 N   0  0  0  0  0  0  0  0  0  0  0  0
  1  2  1  0  0  0  0
  2  3  1  0  0  0  0
  2  4  1  0  0  0  0
  2  5  1  0  0  0  0
  5  6  1  0  0  0  0
  6  7  1  0  0  0  0
  5  8  2  0  0  0  0
  1  9  1  0  0  0  0
  9 10  1  0  0  0  0
 10 11  2  0  0  0  0
 11 12  1  0  0  0  0
 11 13  1  0  0  0  0
 13 14  1  0  0  0  0
 13 15  2  0  0  0  0
 15 16  1  0  0  0  0
 15 17  1  0  0  0  0
 17  9  2  0  0  0  0
M  END
> <ChemID>
101216

> <source_casrn>
88768-45-0

> <CAS>
88768-45-0

> <SMILES>
OC(=O)CSc1ncccn1

> <NAME>
(2-Pyrimidylthio) acetic acid

> <preferred_name>
(Pyrimidin-2-ylthio)acetic acid

> <iupac>
2-pyrimidin-2-ylsulfanylacetic acid

> <MPID>
101183

> <dsstox_substance_id>
DTXSID20237311

> <Canonical_QSARr>
OC(=O)CSc1[n]ccc[n]1

> <InChI_Code_QSARr>
InChI=1S/C6H6N2O2S/c9-5(10)4-11-6-7-2-1-3-8-6/h1-3H,4H2,(H,9,10)

> <InChI Key_QSARr>
NIEOYUNNKKAQKI-UHFFFAOYSA-N

> <Salt_Solvent>
?

> <Ready_Biodeg>
1.0

$$$$
101232
  -INDIGO-08031722522D

 25 27  0  0  0  0  0  0  0  0999 V2000
   -0.8000   -1.3857    0.0000 C   0  0  0  0  0  0  0  0  0  0  0  0
   -0.0000   -2.7713    0.0000 O   0  0  0  0  0  0  0  0  0  0  0  0
   -0.8000   -4.1569    0.0000 H   0  0  0  0  0  0  0  0  0  0  0  0
   -0.0000    0.0000    0.0000 C   0  0  0  0  0  0  0  0  0  0  0  0
    1.6000    0.0000    0.0000 N   0  0  0  0  0  0  0  0  0  0  0  0
    2.5404   -1.2944    0.0000 N   0  0  0  0  0  0  0  0  0  0  0  0
    4.0621   -0.8000    0.0000 C   0  0  0  0  0  0  0  0  0  0  0  0
    4.0621    0.8000    0.0000 C   0  0  0  0  0  0  0  0  0  0  0  0
    5.4478    1.6000    0.0000 C   0  0  0  0  0  0  0  0  0  0  0  0
    5.4478    3.2000    0.0000 H   0  0  0  0  0  0  0  0  0  0  0  0
    6.8334    0.8000    0.0000 C   0  0  0  0  0  0  0  0  0  0  0  0
    8.2191    1.6000    0.0000 H   0  0  0  0  0  0  0  0  0  0  0  0
    6.8334   -0.8000    0.0000 C   0  0  0  0  0  0  0  0  0  0  0  0
    8.2191   -1.6000    0.0000 H   0  0  0  0  0  0  0  0  0  0  0  0
    5.4478   -1.6000    0.0000 C   0  0  0  0  0  0  0  0  0  0  0  0
    5.4478   -3.2000    0.0000 H   0  0  0  0  0  0  0  0  0  0  0  0
    2.5404    1.2944    0.0000 N   0  0  0  0  0  0  0  0  0  0  0  0
   -0.8000    1.3857    0.0000 C   0  0  0  0  0  0  0  0  0  0  0  0
   -0.0000    2.7713    0.0000 H   0  0  0  0  0  0  0  0  0  0  0  0
   -2.4000    1.3857    0.0000 C   0  0  0  0  0  0  0  0  0  0  0  0
   -3.2000    2.7713    0.0000 H   0  0  0  0  0  0  0  0  0  0  0  0
   -3.2000    0.0000    0.0000 C   0  0  0  0  0  0  0  0  0  0  0  0
   -4.8000    0.0000    0.0000 H   0  0  0  0  0  0  0  0  0  0  0  0
   -2.4000   -1.3857    0.0000 C   0  0  0  0  0  0  0  0  0  0  0  0
   -3.2000   -2.7713    0.0000 H   0  0  0  0  0  0  0  0  0  0  0  0
  1  2  1  0  0  0  0
  2  3  1  0  0  0  0
  1  4  1  0  0  0  0
  4  5  1  0  0  0  0
  5  6  1  0  0  0  0
  6  7  2  0  0  0  0
  7  8  1  0  0  0  0
  8  9  1  0  0  0  0
  9 10  1  0  0  0  0
  9 11  2  0  0  0  0
 11 12  1  0  0  0  0
 11 13  1  0  0  0  0
 13 14  1  0  0  0  0
 13 15  2  0  0  0  0
 15  7  1  0  0  0  0
 15 16  1  0  0  0  0
  8 17  2  0  0  0  0
 17  5  1  0  0  0  0
  4 18  2  0  0  0  0
 18 19  1  0  0  0  0
 18 20  1  0  0  0  0
 20 21  1  0  0  0  0
 20 22  2  0  0  0  0
 22 23  1  0  0  0  0
 22 24  1  0  0  0  0
 24  1  2  0  0  0  0
 24 25  1  0  0  0  0
M  END
> <ChemID>
101232

> <source_casrn>
BioUlt-00-2

> <CAS>
NOCAS_877078

> <SMILES>
OC1=CC=CC=C1N2N=C(C=CC=C3)C3=N2

> <NAME>
2-(2H-Benzotriazol-2-yl)-phenol

> <preferred_name>


> <iupac>


> <MPID>
101185

> <dsstox_substance_id>
DTXSID60877078

> <Canonical_QSARr>
Oc1ccccc1-[n]1[n]c2ccccc2[n]1

> <InChI_Code_QSARr>
InChI=1S/C12H9N3O/c16-12-8-4-3-7-11(12)15-13-9-5-1-2-6-10(9)14-15/h1-8,16H

> <InChI Key_QSARr>
FJGQBLRYBUAASW-UHFFFAOYSA-N

> <Salt_Solvent>
?

> <Ready_Biodeg>
0.0

$$$$
101233
  -INDIGO-08031722522D

 25 25  0  0  0  0  0  0  0  0999 V2000
    0.0000    2.7712    0.0000 O   0  0  0  0  0  0  0  0  0  0  0  0
    1.6000    2.7712    0.0000 C   0  0  0  0  0  0  0  0  0  0  0  0
    1.3223    4.3469    0.0000 H   0  0  0  0  0  0  0  0  0  0  0  0
    3.1034    3.3185    0.0000 H   0  0  0  0  0  0  0  0  0  0  0  0
    2.4000    1.3857    0.0000 C   0  0  0  0  0  0  0  0  0  0  0  0
    3.6257    2.4141    0.0000 H   0  0  0  0  0  0  0  0  0  0  0  0
    3.6257    0.3572    0.0000 H   0  0  0  0  0  0  0  0  0  0  0  0
    1.6000    0.0000    0.0000 C   0  0  0  0  0  0  0  0  0  0  0  0
    3.1034   -0.5472    0.0000 H   0  0  0  0  0  0  0  0  0  0  0  0
    1.3223   -1.5757    0.0000 H   0  0  0  0  0  0  0  0  0  0  0  0
    0.0000    0.0000    0.0000 C   0  0  0  0  0  0  0  0  0  0  0  0
    0.2778   -1.5757    0.0000 H   0  0  0  0  0  0  0  0  0  0  0  0
   -1.5036   -0.5472    0.0000 H   0  0  0  0  0  0  0  0  0  0  0  0
   -0.8000    1.3857    0.0000 C   0  0  0  0  0  0  0  0  0  0  0  0
   -2.0257    0.3572    0.0000 H   0  0  0  0  0  0  0  0  0  0  0  0
   -2.0257    2.4141    0.0000 O   0  0  0  0  0  0  0  0  0  0  0  0
   -3.5293    1.8669    0.0000 C   0  0  0  0  0  0  0  0  0  0  0  0
   -4.3889    0.5175    0.0000 H   0  0  0  0  0  0  0  0  0  0  0  0
   -3.1829    0.3048    0.0000 H   0  0  0  0  0  0  0  0  0  0  0  0
   -4.7549    2.8953    0.0000 C   0  0  0  0  0  0  0  0  0  0  0  0
   -3.8951    4.2447    0.0000 H   0  0  0  0  0  0  0  0  0  0  0  0
   -5.1011    4.4574    0.0000 H   0  0  0  0  0  0  0  0  0  0  0  0
   -6.2584    2.3481    0.0000 C   0  0  0  0  0  0  0  0  0  0  0  0
   -7.7620    1.8009    0.0000 C   0  0  0  0  0  0  0  0  0  0  0  0
   -9.2654    1.2537    0.0000 H   0  0  0  0  0  0  0  0  0  0  0  0
  1  2  1  0  0  0  0
  2  3  1  0  0  0  0
  2  4  1  0  0  0  0
  2  5  1  0  0  0  0
  5  6  1  0  0  0  0
  5  7  1  0  0  0  0
  5  8  1  0  0  0  0
  8  9  1  0  0  0  0
  8 10  1  0  0  0  0
  8 11  1  0  0  0  0
 11 12  1  0  0  0  0
 11 13  1  0  0  0  0
 11 14  1  0  0  0  0
 14  1  1  0  0  0  0
 14 15  1  0  0  0  0
 14 16  1  0  0  0  0
 16 17  1  0  0  0  0
 17 18  1  0  0  0  0
 17 19  1  0  0  0  0
 17 20  1  0  0  0  0
 20 21  1  0  0  0  0
 20 22  1  0  0  0  0
 20 23  1  0  0  0  0
 23 24  3  0  0  0  0
 24 25  1  0  0  0  0
M  END
> <ChemID>
101233

> <source_casrn>
BioUlt-00-3

> <CAS>
NOCAS_875820

> <SMILES>
C#CCCOC1CCCCO1

> <NAME>
2-(3-Butynyloxy)tetrahydro-2H-pyran

> <preferred_name>


> <iupac>


> <MPID>
101186

> <dsstox_substance_id>
DTXSID90875820

> <Canonical_QSARr>
C#CCCOC1CCCCO1

> <InChI_Code_QSARr>
InChI=1S/C9H14O2/c1-2-3-7-10-9-6-4-5-8-11-9/h1,9H,3-8H2

> <InChI Key_QSARr>
ZQZSNKJFOFAJQX-UHFFFAOYSA-N

> <Salt_Solvent>
?

> <Ready_Biodeg>
1.0

$$$$
101235
  -INDIGO-08031722522D

 25 27  0  0  0  0  0  0  0  0999 V2000
   -2.3999    1.3856    0.0000 Br  0  0  0  0  0  0  0  0  0  0  0  0
   -1.6000   -0.0000    0.0000 C   0  0  0  0  0  0  0  0  0  0  0  0
   -0.0000   -0.0000    0.0000 C   0  0  0  0  0  0  0  0  0  0  0  0
    0.7999   -1.3856    0.0000 C   0  0  0  0  0  0  0  0  0  0  0  0
    2.3650   -1.0529    0.0000 C   0  0  0  0  0  0  0  0  0  0  0  0
    2.5322    0.5383    0.0000 C   0  0  0  0  0  0  0  0  0  0  0  0
    1.0706    1.1891    0.0000 C   0  0  0  0  0  0  0  0  0  0  0  0
   -0.2239    2.1295    0.0000 H   0  0  0  0  0  0  0  0  0  0  0  0
    1.8706    2.5747    0.0000 H   0  0  0  0  0  0  0  0  0  0  0  0
    3.9940    1.1891    0.0000 C   0  0  0  0  0  0  0  0  0  0  0  0
    4.1612    2.7803    0.0000 H   0  0  0  0  0  0  0  0  0  0  0  0
    5.2883    0.2485    0.0000 C   0  0  0  0  0  0  0  0  0  0  0  0
    6.7501    0.8993    0.0000 H   0  0  0  0  0  0  0  0  0  0  0  0
    5.1212   -1.3427    0.0000 C   0  0  0  0  0  0  0  0  0  0  0  0
    6.4155   -2.2831    0.0000 H   0  0  0  0  0  0  0  0  0  0  0  0
    3.6595   -1.9935    0.0000 C   0  0  0  0  0  0  0  0  0  0  0  0
    3.4922   -3.5847    0.0000 H   0  0  0  0  0  0  0  0  0  0  0  0
   -0.0000   -2.7713    0.0000 C   0  0  0  0  0  0  0  0  0  0  0  0
    0.7999   -4.1569    0.0000 H   0  0  0  0  0  0  0  0  0  0  0  0
   -1.6000   -2.7713    0.0000 C   0  0  0  0  0  0  0  0  0  0  0  0
   -2.3999   -4.1569    0.0000 Br  0  0  0  0  0  0  0  0  0  0  0  0
   -2.3999   -1.3856    0.0000 C   0  0  0  0  0  0  0  0  0  0  0  0
   -4.0000   -1.3856    0.0000 N   0  0  0  0  0  0  0  0  0  0  0  0
   -4.8000   -2.7713    0.0000 H   0  0  0  0  0  0  0  0  0  0  0  0
   -4.8000   -0.0000    0.0000 H   0  0  0  0  0  0  0  0  0  0  0  0
  1  2  1  0  0  0  0
  2  3  1  0  0  0  0
  3  4  2  0  0  0  0
  4  5  1  0  0  0  0
  5  6  1  0  0  0  0
  6  7  1  0  0  0  0
  7  3  1  0  0  0  0
  7  8  1  0  0  0  0
  7  9  1  0  0  0  0
  6 10  2  0  0  0  0
 10 11  1  0  0  0  0
 10 12  1  0  0  0  0
 12 13  1  0  0  0  0
 12 14  2  0  0  0  0
 14 15  1  0  0  0  0
 14 16  1  0  0  0  0
 16  5  2  0  0  0  0
 16 17  1  0  0  0  0
  4 18  1  0  0  0  0
 18 19  1  0  0  0  0
 18 20  2  0  0  0  0
 20 21  1  0  0  0  0
 20 22  1  0  0  0  0
 22  2  2  0  0  0  0
 22 23  1  0  0  0  0
 23 24  1  0  0  0  0
 23 25  1  0  0  0  0
M  END
> <ChemID>
101235

> <source_casrn>
BioUlt-00-5

> <CAS>
3405-09-2

> <SMILES>
BrC3=CC1=C(C(Br)=C3N)CC2=C1C=CC=C2

> <NAME>
2-Amino-1,3-dibromofluorene

> <preferred_name>
2-Amino-1,3-dibromofluorene

> <iupac>
C13H9Br2N

> <MPID>
101187

> <dsstox_substance_id>
DTXSID10392342

> <Canonical_QSARr>
Nc1c(Br)c2Cc3ccccc3-c2cc1Br

> <InChI_Code_QSARr>
InChI=1S/C13H9Br2N/c14-11-6-9-8-4-2-1-3-7(8)5-10(9)12(15)13(11)16/h1-4,6H,5,16H2

> <InChI Key_QSARr>
LHRWVIZWZMXYPI-UHFFFAOYSA-N

> <Salt_Solvent>
?

> <Ready_Biodeg>
0.0

$$$$
101237
  -INDIGO-08031722522D

 47 47  0  0  0  0  0  0  0  0999 V2000
   12.4707   -0.8000    0.0000 N   0  0  0  0  0  0  0  0  0  0  0  0
   13.8564   -0.0000    0.0000 O   0  0  0  0  0  0  0  0  0  0  0  0
   11.0851   -0.0000    0.0000 C   0  0  0  0  0  0  0  0  0  0  0  0
   11.6974    1.4782    0.0000 H   0  0  0  0  0  0  0  0  0  0  0  0
   10.4728    1.4782    0.0000 H   0  0  0  0  0  0  0  0  0  0  0  0
    9.6994   -0.8000    0.0000 C   0  0  0  0  0  0  0  0  0  0  0  0
    9.6994   -2.4000    0.0000 C   0  0  0  0  0  0  0  0  0  0  0  0
   11.0851   -3.2000    0.0000 O   0  0  0  0  0  0  0  0  0  0  0  0
   11.0851   -4.8000    0.0000 H   0  0  0  0  0  0  0  0  0  0  0  0
    8.3138   -3.2000    0.0000 C   0  0  0  0  0  0  0  0  0  0  0  0
    8.3138   -4.8000    0.0000 H   0  0  0  0  0  0  0  0  0  0  0  0
    6.9281   -2.4000    0.0000 C   0  0  0  0  0  0  0  0  0  0  0  0
    5.5424   -3.2000    0.0000 H   0  0  0  0  0  0  0  0  0  0  0  0
    6.9281   -0.8000    0.0000 C   0  0  0  0  0  0  0  0  0  0  0  0
    5.5424   -0.0000    0.0000 C   0  0  0  0  0  0  0  0  0  0  0  0
    6.1548    1.4782    0.0000 H   0  0  0  0  0  0  0  0  0  0  0  0
    4.9301    1.4782    0.0000 H   0  0  0  0  0  0  0  0  0  0  0  0
    4.1568   -0.8000    0.0000 C   0  0  0  0  0  0  0  0  0  0  0  0
    3.5448   -2.2782    0.0000 H   0  0  0  0  0  0  0  0  0  0  0  0
    4.7691   -2.2782    0.0000 H   0  0  0  0  0  0  0  0  0  0  0  0
    2.7715   -0.0000    0.0000 C   0  0  0  0  0  0  0  0  0  0  0  0
    3.3834    1.4782    0.0000 H   0  0  0  0  0  0  0  0  0  0  0  0
    2.1591    1.4782    0.0000 H   0  0  0  0  0  0  0  0  0  0  0  0
    1.3858   -0.8000    0.0000 C   0  0  0  0  0  0  0  0  0  0  0  0
    0.7735   -2.2782    0.0000 H   0  0  0  0  0  0  0  0  0  0  0  0
    1.9978   -2.2782    0.0000 H   0  0  0  0  0  0  0  0  0  0  0  0
    0.0001   -0.0000    0.0000 C   0  0  0  0  0  0  0  0  0  0  0  0
    0.6124    1.4782    0.0000 H   0  0  0  0  0  0  0  0  0  0  0  0
   -0.6122    1.4782    0.0000 H   0  0  0  0  0  0  0  0  0  0  0  0
   -1.3855   -0.8000    0.0000 C   0  0  0  0  0  0  0  0  0  0  0  0
   -1.9979   -2.2782    0.0000 H   0  0  0  0  0  0  0  0  0  0  0  0
   -0.7732   -2.2782    0.0000 H   0  0  0  0  0  0  0  0  0  0  0  0
   -2.7712   -0.0000    0.0000 C   0  0  0  0  0  0  0  0  0  0  0  0
   -2.1589    1.4782    0.0000 H   0  0  0  0  0  0  0  0  0  0  0  0
   -3.3835    1.4782    0.0000 H   0  0  0  0  0  0  0  0  0  0  0  0
   -4.1569   -0.8000    0.0000 C   0  0  0  0  0  0  0  0  0  0  0  0
   -4.7692   -2.2782    0.0000 H   0  0  0  0  0  0  0  0  0  0  0  0
   -3.5445   -2.2782    0.0000 H   0  0  0  0  0  0  0  0  0  0  0  0
   -5.5425   -0.0000    0.0000 C   0  0  0  0  0  0  0  0  0  0  0  0
   -4.9302    1.4782    0.0000 H   0  0  0  0  0  0  0  0  0  0  0  0
   -6.1548    1.4782    0.0000 H   0  0  0  0  0  0  0  0  0  0  0  0
   -6.9282   -0.8000    0.0000 C   0  0  0  0  0  0  0  0  0  0  0  0
   -8.3138   -1.6000    0.0000 H   0  0  0  0  0  0  0  0  0  0  0  0
   -8.3138   -0.0000    0.0000 H   0  0  0  0  0  0  0  0  0  0  0  0
   -6.9282   -2.4000    0.0000 H   0  0  0  0  0  0  0  0  0  0  0  0
    8.3138   -0.0000    0.0000 C   0  0  0  0  0  0  0  0  0  0  0  0
    8.3138    1.6000    0.0000 H   0  0  0  0  0  0  0  0  0  0  0  0
  1  2  2  0  0  0  0
  1  3  1  0  0  0  0
  3  4  1  0  0  0  0
  3  5  1  0  0  0  0
  3  6  1  0  0  0  0
  6  7  1  0  0  0  0
  7  8  1  0  0  0  0
  8  9  1  0  0  0  0
  7 10  2  0  0  0  0
 10 11  1  0  0  0  0
 10 12  1  0  0  0  0
 12 13  1  0  0  0  0
 12 14  2  0  0  0  0
 14 15  1  0  0  0  0
 15 16  1  0  0  0  0
 15 17  1  0  0  0  0
 15 18  1  0  0  0  0
 18 19  1  0  0  0  0
 18 20  1  0  0  0  0
 18 21  1  0  0  0  0
 21 22  1  0  0  0  0
 21 23  1  0  0  0  0
 21 24  1  0  0  0  0
 24 25  1  0  0  0  0
 24 26  1  0  0  0  0
 24 27  1  0  0  0  0
 27 28  1  0  0  0  0
 27 29  1  0  0  0  0
 27 30  1  0  0  0  0
 30 31  1  0  0  0  0
 30 32  1  0  0  0  0
 30 33  1  0  0  0  0
 33 34  1  0  0  0  0
 33 35  1  0  0  0  0
 33 36  1  0  0  0  0
 36 37  1  0  0  0  0
 36 38  1  0  0  0  0
 36 39  1  0  0  0  0
 39 40  1  0  0  0  0
 39 41  1  0  0  0  0
 39 42  1  0  0  0  0
 42 43  1  0  0  0  0
 42 44  1  0  0  0  0
 42 45  1  0  0  0  0
 14 46  1  0  0  0  0
 46  6  2  0  0  0  0
 46 47  1  0  0  0  0
M  END
> <ChemID>
101237

> <source_casrn>
BioUlt-00-7

> <CAS>
NOCAS_878232

> <SMILES>
O/N=C/C1=CC(CCCCCCCCCC)=CC=C1O

> <NAME>
2-Hydroxy-5-decylbenzaldehyde oxime

> <preferred_name>


> <iupac>


> <MPID>
101189

> <dsstox_substance_id>
DTXSID10878232

> <Canonical_QSARr>
CCCCCCCCCCc1ccc(O)c(CN=O)c1

> <InChI_Code_QSARr>
InChI=1S/C17H27NO2/c1-2-3-4-5-6-7-8-9-10-15-11-12-17(19)16(13-15)14-18-20/h11-13,19H,2-10,14H2,1H3

> <InChI Key_QSARr>
SCJMXPGGFVOBHR-UHFFFAOYSA-N

> <Salt_Solvent>
?

> <Ready_Biodeg>
1.0

$$$$
101238
  -INDIGO-08031722522D

 35 35  0  0  0  0  0  0  0  0999 V2000
    2.7714    1.6000    0.0000 C   0  0  0  0  0  0  0  0  0  0  0  0
    4.3470    1.3221    0.0000 H   0  0  0  0  0  0  0  0  0  0  0  0
    2.7714    0.0000    0.0000 C   0  0  0  0  0  0  0  0  0  0  0  0
    3.3186   -1.5035    0.0000 H   0  0  0  0  0  0  0  0  0  0  0  0
    4.3470    0.2778    0.0000 O   0  0  0  0  0  0  0  0  0  0  0  0
    5.3755   -0.9478    0.0000 C   0  0  0  0  0  0  0  0  0  0  0  0
    6.4039   -2.1735    0.0000 H   0  0  0  0  0  0  0  0  0  0  0  0
    6.9511   -0.6700    0.0000 H   0  0  0  0  0  0  0  0  0  0  0  0
    4.8282   -2.4514    0.0000 H   0  0  0  0  0  0  0  0  0  0  0  0
    1.3856   -0.8000    0.0000 C   0  0  0  0  0  0  0  0  0  0  0  0
    2.4140   -2.0257    0.0000 H   0  0  0  0  0  0  0  0  0  0  0  0
    0.3572   -2.0257    0.0000 H   0  0  0  0  0  0  0  0  0  0  0  0
    0.0000    0.0000    0.0000 C   0  0  0  0  0  0  0  0  0  0  0  0
   -0.5472   -1.5035    0.0000 H   0  0  0  0  0  0  0  0  0  0  0  0
   -1.5756    0.2778    0.0000 C   0  0  0  0  0  0  0  0  0  0  0  0
   -1.5058    1.8763    0.0000 H   0  0  0  0  0  0  0  0  0  0  0  0
   -2.6566    1.4575    0.0000 H   0  0  0  0  0  0  0  0  0  0  0  0
   -2.6043   -0.9478    0.0000 C   0  0  0  0  0  0  0  0  0  0  0  0
   -2.6740   -2.5464    0.0000 H   0  0  0  0  0  0  0  0  0  0  0  0
   -1.5232   -2.1274    0.0000 H   0  0  0  0  0  0  0  0  0  0  0  0
   -4.1799   -0.6700    0.0000 C   0  0  0  0  0  0  0  0  0  0  0  0
   -4.1101    0.9285    0.0000 H   0  0  0  0  0  0  0  0  0  0  0  0
   -5.2607    0.5097    0.0000 H   0  0  0  0  0  0  0  0  0  0  0  0
   -5.2083   -1.8957    0.0000 C   0  0  0  0  0  0  0  0  0  0  0  0
   -6.2368   -3.1213    0.0000 H   0  0  0  0  0  0  0  0  0  0  0  0
   -6.7840   -1.6179    0.0000 H   0  0  0  0  0  0  0  0  0  0  0  0
   -4.6611   -3.3992    0.0000 H   0  0  0  0  0  0  0  0  0  0  0  0
    0.0000    1.6000    0.0000 C   0  0  0  0  0  0  0  0  0  0  0  0
   -1.5035    1.0527    0.0000 H   0  0  0  0  0  0  0  0  0  0  0  0
   -0.5472    3.1035    0.0000 H   0  0  0  0  0  0  0  0  0  0  0  0
    1.3856    2.4000    0.0000 C   0  0  0  0  0  0  0  0  0  0  0  0
    0.3572    3.6257    0.0000 H   0  0  0  0  0  0  0  0  0  0  0  0
    2.4140    3.6257    0.0000 H   0  0  0  0  0  0  0  0  0  0  0  0
    3.3186    3.1035    0.0000 O   0  0  0  0  0  0  0  0  0  0  0  0
    4.8943    3.3814    0.0000 H   0  0  0  0  0  0  0  0  0  0  0  0
  1  2  1  0  0  0  0
  1  3  1  0  0  0  0
  3  4  1  0  0  0  0
  3  5  1  0  0  0  0
  5  6  1  0  0  0  0
  6  7  1  0  0  0  0
  6  8  1  0  0  0  0
  6  9  1  0  0  0  0
  3 10  1  0  0  0  0
 10 11  1  0  0  0  0
 10 12  1  0  0  0  0
 10 13  1  0  0  0  0
 13 14  1  0  0  0  0
 13 15  1  0  0  0  0
 15 16  1  0  0  0  0
 15 17  1  0  0  0  0
 15 18  1  0  0  0  0
 18 19  1  0  0  0  0
 18 20  1  0  0  0  0
 18 21  1  0  0  0  0
 21 22  1  0  0  0  0
 21 23  1  0  0  0  0
 21 24  1  0  0  0  0
 24 25  1  0  0  0  0
 24 26  1  0  0  0  0
 24 27  1  0  0  0  0
 13 28  1  0  0  0  0
 28 29  1  0  0  0  0
 28 30  1  0  0  0  0
 28 31  1  0  0  0  0
 31  1  1  0  0  0  0
 31 32  1  0  0  0  0
 31 33  1  0  0  0  0
  1 34  1  0  0  0  0
 34 35  1  0  0  0  0
M  END
> <ChemID>
101238

> <source_casrn>
BioUlt-00-8

> <CAS>
NOCAS_874269

> <SMILES>
OC1C(OC)CC(CCCC)CC1

> <NAME>
2-Methoxy-4-butylcyclohexanol

> <preferred_name>


> <iupac>


> <MPID>
101190

> <dsstox_substance_id>
DTXSID60874269

> <Canonical_QSARr>
CCCCC1CC(OC)C(O)CC1

> <InChI_Code_QSARr>
InChI=1S/C11H22O2/c1-3-4-5-9-6-7-10(12)11(8-9)13-2/h9-12H,3-8H2,1-2H3

> <InChI Key_QSARr>
QPDWFJFHTLBWOS-UHFFFAOYSA-N

> <Salt_Solvent>
?

> <Ready_Biodeg>
1.0

$$$$
101240
  -INDIGO-08031722522D

 20 20  0  0  0  0  0  0  0  0999 V2000
    4.1569    2.4000    0.0000 Cl  0  0  0  0  0  0  0  0  0  0  0  0
    2.7713    1.6000    0.0000 C   0  0  0  0  0  0  0  0  0  0  0  0
    2.7713    0.0000    0.0000 C   0  0  0  0  0  0  0  0  0  0  0  0
    4.1569   -0.8000    0.0000 C   0  0  0  0  0  0  0  0  0  0  0  0
    5.5426   -1.6000    0.0000 H   0  0  0  0  0  0  0  0  0  0  0  0
    5.5426    0.0000    0.0000 H   0  0  0  0  0  0  0  0  0  0  0  0
    4.1569   -2.4000    0.0000 H   0  0  0  0  0  0  0  0  0  0  0  0
    1.3857   -0.8000    0.0000 C   0  0  0  0  0  0  0  0  0  0  0  0
    1.3857   -2.4000    0.0000 H   0  0  0  0  0  0  0  0  0  0  0  0
   -0.0001    0.0000    0.0000 C   0  0  0  0  0  0  0  0  0  0  0  0
   -1.3857   -0.8000    0.0000 C   0  0  0  0  0  0  0  0  0  0  0  0
   -1.3857   -2.4000    0.0000 O   0  0  0  0  0  0  0  0  0  0  0  0
   -2.7713    0.0000    0.0000 C   0  0  0  0  0  0  0  0  0  0  0  0
   -4.1569    0.8000    0.0000 F   0  0  0  0  0  0  0  0  0  0  0  0
   -4.1569   -0.8000    0.0000 F   0  0  0  0  0  0  0  0  0  0  0  0
   -2.7713    1.6000    0.0000 F   0  0  0  0  0  0  0  0  0  0  0  0
   -0.0001    1.6000    0.0000 C   0  0  0  0  0  0  0  0  0  0  0  0
   -1.3857    2.4000    0.0000 H   0  0  0  0  0  0  0  0  0  0  0  0
    1.3857    2.4000    0.0000 C   0  0  0  0  0  0  0  0  0  0  0  0
    1.3857    4.0000    0.0000 H   0  0  0  0  0  0  0  0  0  0  0  0
  1  2  1  0  0  0  0
  2  3  1  0  0  0  0
  3  4  1  0  0  0  0
  4  5  1  0  0  0  0
  4  6  1  0  0  0  0
  4  7  1  0  0  0  0
  3  8  2  0  0  0  0
  8  9  1  0  0  0  0
  8 10  1  0  0  0  0
 10 11  1  0  0  0  0
 11 12  2  0  0  0  0
 11 13  1  0  0  0  0
 13 14  1  0  0  0  0
 13 15  1  0  0  0  0
 13 16  1  0  0  0  0
 10 17  2  0  0  0  0
 17 18  1  0  0  0  0
 17 19  1  0  0  0  0
 19  2  2  0  0  0  0
 19 20  1  0  0  0  0
M  END
> <ChemID>
101240

> <source_casrn>
BioUlt-01-0

> <CAS>
286017-71-8

> <SMILES>
O=C(C1=CC=C(Cl)C(C)=C1)C(F)(F)F

> <NAME>
3'-Methyl-4'-chloro-2,2,2-trifluoroacetophenone

> <preferred_name>
4'-Chloro-3'-methyl-2,2,2-trifluoroacetophenone

> <iupac>
C9H6ClF3O

> <MPID>
101191

> <dsstox_substance_id>
DTXSID80374019

> <Canonical_QSARr>
Cc1cc(ccc1Cl)C(=O)C(F)(F)F

> <InChI_Code_QSARr>
InChI=1S/C9H6ClF3O/c1-5-4-6(2-3-7(5)10)8(14)9(11,12)13/h2-4H,1H3

> <InChI Key_QSARr>
ZJBYBUSSCVQOMY-UHFFFAOYSA-N

> <Salt_Solvent>
?

> <Ready_Biodeg>
0.0

$$$$
101242
  -INDIGO-08031722522D

 16 16  0  0  0  0  0  0  0  0999 V2000
   -5.5426    3.2000    0.0000 N   0  0  0  0  0  0  0  0  0  0  0  0
   -4.1569    2.4000    0.0000 C   0  0  0  0  0  0  0  0  0  0  0  0
   -2.7713    1.6000    0.0000 C   0  0  0  0  0  0  0  0  0  0  0  0
   -1.3856    2.4000    0.0000 C   0  0  0  0  0  0  0  0  0  0  0  0
   -1.3856    4.0000    0.0000 H   0  0  0  0  0  0  0  0  0  0  0  0
    0.0000    1.6000    0.0000 C   0  0  0  0  0  0  0  0  0  0  0  0
    1.3857    2.4000    0.0000 H   0  0  0  0  0  0  0  0  0  0  0  0
    0.0000    0.0000    0.0000 C   0  0  0  0  0  0  0  0  0  0  0  0
    1.3857   -0.8000    0.0000 C   0  0  0  0  0  0  0  0  0  0  0  0
    2.7713   -1.6000    0.0000 H   0  0  0  0  0  0  0  0  0  0  0  0
    1.3857   -2.4000    0.0000 H   0  0  0  0  0  0  0  0  0  0  0  0
    2.7713    0.0000    0.0000 H   0  0  0  0  0  0  0  0  0  0  0  0
   -1.3856   -0.8000    0.0000 N   0  0  0  0  0  0  0  0  0  0  0  0
   -2.7713    0.0000    0.0000 C   0  0  0  0  0  0  0  0  0  0  0  0
   -4.1569   -0.8000    0.0000 O   0  0  0  0  0  0  0  0  0  0  0  0
   -4.1570   -2.4000    0.0000 H   0  0  0  0  0  0  0  0  0  0  0  0
  1  2  3  0  0  0  0
  2  3  1  0  0  0  0
  3  4  1  0  0  0  0
  4  5  1  0  0  0  0
  4  6  2  0  0  0  0
  6  7  1  0  0  0  0
  6  8  1  0  0  0  0
  8  9  1  0  0  0  0
  9 10  1  0  0  0  0
  9 11  1  0  0  0  0
  9 12  1  0  0  0  0
  8 13  2  0  0  0  0
 13 14  1  0  0  0  0
 14  3  2  0  0  0  0
 14 15  1  0  0  0  0
 15 16  1  0  0  0  0
M  END
> <ChemID>
101242

> <source_casrn>
BioUlt-01-2

> <CAS>
4241-27-4

> <SMILES>
O=C1C(C#N)=CC=C(C)N1

> <NAME>
3-Cyano-6-methyl-2(1H)-pyridinone

> <preferred_name>
3-Pyridinecarbonitrile, 1,2-dihydro-6-methyl-2-oxo-

> <iupac>
?

> <MPID>
101193

> <dsstox_substance_id>
DTXSID4063375

> <Canonical_QSARr>
Cc1ccc(C#N)c(O)[n]1

> <InChI_Code_QSARr>
InChI=1S/C7H6N2O/c1-5-2-3-6(4-8)7(10)9-5/h2-3H,1H3,(H,9,10)

> <InChI Key_QSARr>
FIMGYEKEYXUTGD-UHFFFAOYSA-N

> <Salt_Solvent>
?

> <Ready_Biodeg>
1.0

$$$$
101243
  -INDIGO-08031722522D

 24 25  0  0  0  0  0  0  0  0999 V2000
   -0.8000    1.3857    0.0000 O   0  0  0  0  0  0  0  0  0  0  0  0
    0.0001    0.0000    0.0000 C   0  0  0  0  0  0  0  0  0  0  0  0
    0.8000    1.3857    0.0000 O   0  0  0  0  0  0  0  0  0  0  0  0
    2.4000    1.3857    0.0000 C   0  0  0  0  0  0  0  0  0  0  0  0
    2.1222    2.9613    0.0000 H   0  0  0  0  0  0  0  0  0  0  0  0
    3.9035    1.9329    0.0000 H   0  0  0  0  0  0  0  0  0  0  0  0
    3.2000    0.0000    0.0000 C   0  0  0  0  0  0  0  0  0  0  0  0
    4.4257    1.0285    0.0000 H   0  0  0  0  0  0  0  0  0  0  0  0
    4.4257   -1.0285    0.0000 H   0  0  0  0  0  0  0  0  0  0  0  0
    2.4000   -1.3857    0.0000 C   0  0  0  0  0  0  0  0  0  0  0  0
    3.9035   -1.9329    0.0000 H   0  0  0  0  0  0  0  0  0  0  0  0
    2.1222   -2.9613    0.0000 H   0  0  0  0  0  0  0  0  0  0  0  0
    0.8000   -1.3857    0.0000 O   0  0  0  0  0  0  0  0  0  0  0  0
   -0.8000   -1.3857    0.0000 O   0  0  0  0  0  0  0  0  0  0  0  0
   -2.3999   -1.3857    0.0000 C   0  0  0  0  0  0  0  0  0  0  0  0
   -2.1221   -2.9613    0.0000 H   0  0  0  0  0  0  0  0  0  0  0  0
   -3.9036   -1.9329    0.0000 H   0  0  0  0  0  0  0  0  0  0  0  0
   -3.2000   -0.0000    0.0000 C   0  0  0  0  0  0  0  0  0  0  0  0
   -4.8001   -0.0000    0.0000 C   0  0  0  0  0  0  0  0  0  0  0  0
   -5.6000   -1.3857    0.0000 H   0  0  0  0  0  0  0  0  0  0  0  0
   -5.6000    1.3857    0.0000 H   0  0  0  0  0  0  0  0  0  0  0  0
   -2.3999    1.3857    0.0000 C   0  0  0  0  0  0  0  0  0  0  0  0
   -3.9036    1.9329    0.0000 H   0  0  0  0  0  0  0  0  0  0  0  0
   -2.1221    2.9613    0.0000 H   0  0  0  0  0  0  0  0  0  0  0  0
  1  2  1  0  0  0  0
  2  3  1  0  0  0  0
  3  4  1  0  0  0  0
  4  5  1  0  0  0  0
  4  6  1  0  0  0  0
  4  7  1  0  0  0  0
  7  8  1  0  0  0  0
  7  9  1  0  0  0  0
  7 10  1  0  0  0  0
 10 11  1  0  0  0  0
 10 12  1  0  0  0  0
 10 13  1  0  0  0  0
 13  2  1  0  0  0  0
  2 14  1  0  0  0  0
 14 15  1  0  0  0  0
 15 16  1  0  0  0  0
 15 17  1  0  0  0  0
 15 18  1  0  0  0  0
 18 19  2  0  0  0  0
 19 20  1  0  0  0  0
 19 21  1  0  0  0  0
 18 22  1  0  0  0  0
 22  1  1  0  0  0  0
 22 23  1  0  0  0  0
 22 24  1  0  0  0  0
M  END
> <ChemID>
101243

> <source_casrn>
BioUlt-01-3

> <CAS>
57516-73-1

> <SMILES>
C=C1COC2(OCCCO2)OC1

> <NAME>
3-Methylene-1,5,7,11-tetraoxa-spiro[5.5]undecane

> <preferred_name>
1,5,7,11-Tetraoxaspiro[5.5]undecane, 3-methylene-

> <iupac>
9-methylidene-1,5,7,11-tetraoxaspiro[5.5]undecane

> <MPID>
101194

> <dsstox_substance_id>
DTXSID4069187

> <Canonical_QSARr>
C=C1COC2(OC1)OCCCO2

> <InChI_Code_QSARr>
InChI=1S/C8H12O4/c1-7-5-11-8(12-6-7)9-3-2-4-10-8/h1-6H2

> <InChI Key_QSARr>
OGWFRFMHFVZWTI-UHFFFAOYSA-N

> <Salt_Solvent>
?

> <Ready_Biodeg>
0.0

$$$$
101244
  -INDIGO-08031722522D

 24 25  0  0  0  0  0  0  0  0999 V2000
   -5.5999    1.3856    0.0000 O   0  0  0  0  0  0  0  0  0  0  0  0
   -4.8000    0.0000    0.0000 C   0  0  0  0  0  0  0  0  0  0  0  0
   -3.1999    0.0000    0.0000 C   0  0  0  0  0  0  0  0  0  0  0  0
   -2.4000    1.3856    0.0000 C   0  0  0  0  0  0  0  0  0  0  0  0
   -3.1999    2.7713    0.0000 H   0  0  0  0  0  0  0  0  0  0  0  0
   -0.8000    1.3856    0.0000 C   0  0  0  0  0  0  0  0  0  0  0  0
   -0.0000    2.7713    0.0000 H   0  0  0  0  0  0  0  0  0  0  0  0
   -0.0000    0.0000    0.0000 C   0  0  0  0  0  0  0  0  0  0  0  0
    1.6000    0.0000    0.0000 N   0  0  0  0  0  0  0  0  0  0  0  0
    2.5404    1.2944    0.0000 C   0  0  0  0  0  0  0  0  0  0  0  0
    2.0461    2.8161    0.0000 H   0  0  0  0  0  0  0  0  0  0  0  0
    4.0621    0.8000    0.0000 C   0  0  0  0  0  0  0  0  0  0  0  0
    5.3566    1.7405    0.0000 H   0  0  0  0  0  0  0  0  0  0  0  0
    4.0621   -0.8000    0.0000 N   0  0  0  0  0  0  0  0  0  0  0  0
    2.5404   -1.2944    0.0000 C   0  0  0  0  0  0  0  0  0  0  0  0
    2.0461   -2.8161    0.0000 H   0  0  0  0  0  0  0  0  0  0  0  0
   -0.8000   -1.3856    0.0000 C   0  0  0  0  0  0  0  0  0  0  0  0
   -0.0000   -2.7713    0.0000 H   0  0  0  0  0  0  0  0  0  0  0  0
   -2.4000   -1.3856    0.0000 C   0  0  0  0  0  0  0  0  0  0  0  0
   -3.1999   -2.7713    0.0000 H   0  0  0  0  0  0  0  0  0  0  0  0
   -5.5999   -1.3856    0.0000 C   0  0  0  0  0  0  0  0  0  0  0  0
   -6.4001   -2.7713    0.0000 H   0  0  0  0  0  0  0  0  0  0  0  0
   -7.2000   -1.3856    0.0000 H   0  0  0  0  0  0  0  0  0  0  0  0
   -4.8000   -2.7713    0.0000 H   0  0  0  0  0  0  0  0  0  0  0  0
  1  2  2  0  0  0  0
  2  3  1  0  0  0  0
  3  4  1  0  0  0  0
  4  5  1  0  0  0  0
  4  6  2  0  0  0  0
  6  7  1  0  0  0  0
  6  8  1  0  0  0  0
  8  9  1  0  0  0  0
  9 10  1  0  0  0  0
 10 11  1  0  0  0  0
 10 12  2  0  0  0  0
 12 13  1  0  0  0  0
 12 14  1  0  0  0  0
 14 15  2  0  0  0  0
 15  9  1  0  0  0  0
 15 16  1  0  0  0  0
  8 17  2  0  0  0  0
 17 18  1  0  0  0  0
 17 19  1  0  0  0  0
 19  3  2  0  0  0  0
 19 20  1  0  0  0  0
  2 21  1  0  0  0  0
 21 22  1  0  0  0  0
 21 23  1  0  0  0  0
 21 24  1  0  0  0  0
M  END
> <ChemID>
101244

> <source_casrn>
BioUlt-01-4

> <CAS>
10041-06-2

> <SMILES>
CC(C1=CC=C(N2C=CN=C2)C=C1)=O

> <NAME>
4'-(Imidazol-1-yl)acetophenone

> <preferred_name>
Ro 22-3581

> <iupac>
1-(4-imidazol-1-ylphenyl)ethanone

> <MPID>
101195

> <dsstox_substance_id>
DTXSID50143259

> <Canonical_QSARr>
CC(=O)c1ccc(cc1)-[n]1c[n]cc1

> <InChI_Code_QSARr>
InChI=1S/C11H10N2O/c1-9(14)10-2-4-11(5-3-10)13-7-6-12-8-13/h2-8H,1H3

> <InChI Key_QSARr>
GAIQQJIMVVUTQN-UHFFFAOYSA-N

> <Salt_Solvent>
?

> <Ready_Biodeg>
1.0

$$$$
101246
  -INDIGO-08031722522D

 22 22  0  0  0  0  0  0  0  0999 V2000
    2.4000    1.3856    0.0000 N   0  0  0  0  0  0  0  0  0  0  0  0
    3.2000    0.0000    0.0000 C   0  0  0  0  0  0  0  0  0  0  0  0
    4.8000    0.0000    0.0000 N   0  0  0  0  0  0  0  0  0  0  0  0
    5.6000    1.3856    0.0000 H   0  0  0  0  0  0  0  0  0  0  0  0
    5.6000   -1.3856    0.0000 H   0  0  0  0  0  0  0  0  0  0  0  0
    2.4000   -1.3856    0.0000 C   0  0  0  0  0  0  0  0  0  0  0  0
    3.2000   -2.7713    0.0000 C   0  0  0  0  0  0  0  0  0  0  0  0
    4.0000   -4.1569    0.0000 N   0  0  0  0  0  0  0  0  0  0  0  0
    0.8000   -1.3856    0.0000 N   0  0  0  0  0  0  0  0  0  0  0  0
    0.0000    0.0000    0.0000 C   0  0  0  0  0  0  0  0  0  0  0  0
   -1.6000    0.0000    0.0000 C   0  0  0  0  0  0  0  0  0  0  0  0
   -1.8089    1.5863    0.0000 H   0  0  0  0  0  0  0  0  0  0  0  0
   -2.8693    0.9740    0.0000 H   0  0  0  0  0  0  0  0  0  0  0  0
   -2.4000   -1.3856    0.0000 O   0  0  0  0  0  0  0  0  0  0  0  0
   -4.0000   -1.3856    0.0000 C   0  0  0  0  0  0  0  0  0  0  0  0
   -4.8000    0.0000    0.0000 O   0  0  0  0  0  0  0  0  0  0  0  0
   -4.8000   -2.7713    0.0000 C   0  0  0  0  0  0  0  0  0  0  0  0
   -5.6000   -4.1569    0.0000 H   0  0  0  0  0  0  0  0  0  0  0  0
   -6.4000   -2.7713    0.0000 H   0  0  0  0  0  0  0  0  0  0  0  0
   -4.0000   -4.1569    0.0000 H   0  0  0  0  0  0  0  0  0  0  0  0
    0.8000    1.3856    0.0000 C   0  0  0  0  0  0  0  0  0  0  0  0
    0.0000    2.7713    0.0000 H   0  0  0  0  0  0  0  0  0  0  0  0
  1  2  1  0  0  0  0
  2  3  1  0  0  0  0
  3  4  1  0  0  0  0
  3  5  1  0  0  0  0
  2  6  2  0  0  0  0
  6  7  1  0  0  0  0
  7  8  3  0  0  0  0
  6  9  1  0  0  0  0
  9 10  2  0  0  0  0
 10 11  1  0  0  0  0
 11 12  1  0  0  0  0
 11 13  1  0  0  0  0
 11 14  1  0  0  0  0
 14 15  1  0  0  0  0
 15 16  2  0  0  0  0
 15 17  1  0  0  0  0
 17 18  1  0  0  0  0
 17 19  1  0  0  0  0
 17 20  1  0  0  0  0
 10 21  1  0  0  0  0
 21  1  2  0  0  0  0
 21 22  1  0  0  0  0
M  END
> <ChemID>
101246

> <source_casrn>
BioUlt-01-6

> <CAS>
NOCAS_879385

> <SMILES>
N#CC1=NC(COC(C)=O)=CN=C1N

> <NAME>
5-Acetoxymethyl-2-amino-3-cyanopyrazine

> <preferred_name>


> <iupac>


> <MPID>
101197

> <dsstox_substance_id>
DTXSID10879385

> <Canonical_QSARr>
CC(=O)OCc1c[n]c(N)c(C#N)[n]1

> <InChI_Code_QSARr>
InChI=1S/C8H8N4O2/c1-5(13)14-4-6-3-11-8(10)7(2-9)12-6/h3H,4H2,1H3,(H2,10,11)

> <InChI Key_QSARr>
IMLOZVNPFFXWAQ-UHFFFAOYSA-N

> <Salt_Solvent>
?

> <Ready_Biodeg>
1.0

$$$$
101248
  -INDIGO-08031722522D

 22 21  0  0  0  0  0  0  0  0999 V2000
    5.5425    0.0000    0.0000 O   0  0  0  0  0  0  0  0  0  0  0  0
    6.9282    0.8000    0.0000 H   0  0  0  0  0  0  0  0  0  0  0  0
    4.1570    0.8000    0.0000 C   0  0  0  0  0  0  0  0  0  0  0  0
    4.1570    2.4000    0.0000 O   0  0  0  0  0  0  0  0  0  0  0  0
    2.7713    0.0000    0.0000 C   0  0  0  0  0  0  0  0  0  0  0  0
    3.3836   -1.4782    0.0000 H   0  0  0  0  0  0  0  0  0  0  0  0
    2.1589   -1.4782    0.0000 H   0  0  0  0  0  0  0  0  0  0  0  0
    1.3856    0.8000    0.0000 C   0  0  0  0  0  0  0  0  0  0  0  0
    0.7734    2.2782    0.0000 H   0  0  0  0  0  0  0  0  0  0  0  0
    1.9979    2.2782    0.0000 H   0  0  0  0  0  0  0  0  0  0  0  0
    0.0001    0.0000    0.0000 C   0  0  0  0  0  0  0  0  0  0  0  0
    0.6122   -1.4782    0.0000 H   0  0  0  0  0  0  0  0  0  0  0  0
   -0.6123   -1.4782    0.0000 H   0  0  0  0  0  0  0  0  0  0  0  0
   -1.3856    0.8000    0.0000 C   0  0  0  0  0  0  0  0  0  0  0  0
   -1.9980    2.2782    0.0000 H   0  0  0  0  0  0  0  0  0  0  0  0
   -0.7733    2.2782    0.0000 H   0  0  0  0  0  0  0  0  0  0  0  0
   -2.7713    0.0000    0.0000 C   0  0  0  0  0  0  0  0  0  0  0  0
   -2.1590   -1.4782    0.0000 H   0  0  0  0  0  0  0  0  0  0  0  0
   -3.3835   -1.4782    0.0000 H   0  0  0  0  0  0  0  0  0  0  0  0
   -4.1569    0.8000    0.0000 N   0  0  0  0  0  0  0  0  0  0  0  0
   -5.5426    0.0000    0.0000 O   0  0  0  0  0  0  0  0  0  0  0  0
   -4.1569    2.4000    0.0000 O   0  0  0  0  0  0  0  0  0  0  0  0
  1  2  1  0  0  0  0
  1  3  1  0  0  0  0
  3  4  2  0  0  0  0
  3  5  1  0  0  0  0
  5  6  1  0  0  0  0
  5  7  1  0  0  0  0
  5  8  1  0  0  0  0
  8  9  1  0  0  0  0
  8 10  1  0  0  0  0
  8 11  1  0  0  0  0
 11 12  1  0  0  0  0
 11 13  1  0  0  0  0
 11 14  1  0  0  0  0
 14 15  1  0  0  0  0
 14 16  1  0  0  0  0
 14 17  1  0  0  0  0
 17 18  1  0  0  0  0
 17 19  1  0  0  0  0
 17 20  1  0  0  0  0
 20 21  1  0  0  0  0
 20 22  2  0  0  0  0
M  CHG  2  20   1  21  -1
M  END
> <ChemID>
101248

> <source_casrn>
BioUlt-01-8

> <CAS>
10269-96-2

> <SMILES>
O=C(O)CCCCC[N+]([O-])=O

> <NAME>
6-Nitrocaproic acid

> <preferred_name>
6-Nitrohexanoic acid

> <iupac>
C6H11NO4

> <MPID>
101198

> <dsstox_substance_id>
DTXSID30399010

> <Canonical_QSARr>
[O-][N+](=O)CCCCCC(O)=O

> <InChI_Code_QSARr>
InChI=1S/C6H11NO4/c8-6(9)4-2-1-3-5-7(10)11/h1-5H2,(H,8,9)

> <InChI Key_QSARr>
RDMHCTBEKVBKLF-UHFFFAOYSA-N

> <Salt_Solvent>
?

> <Ready_Biodeg>
1.0

$$$$
101251
  -INDIGO-08031722522D

 21 20  0  0  0  0  0  0  0  0999 V2000
   -2.4001    1.3856    0.0000 O   0  0  0  0  0  0  0  0  0  0  0  0
   -0.8000    1.3856    0.0000 C   0  0  0  0  0  0  0  0  0  0  0  0
    0.0000    2.7712    0.0000 O   0  0  0  0  0  0  0  0  0  0  0  0
    0.0000   -0.0001    0.0000 C   0  0  0  0  0  0  0  0  0  0  0  0
   -0.8000   -1.3856    0.0000 C   0  0  0  0  0  0  0  0  0  0  0  0
   -2.4001   -1.3856    0.0000 H   0  0  0  0  0  0  0  0  0  0  0  0
    0.0000   -2.7712    0.0000 C   0  0  0  0  0  0  0  0  0  0  0  0
    0.8000   -4.1569    0.0000 H   0  0  0  0  0  0  0  0  0  0  0  0
   -0.8000   -4.1569    0.0000 H   0  0  0  0  0  0  0  0  0  0  0  0
    1.6000   -2.7713    0.0000 H   0  0  0  0  0  0  0  0  0  0  0  0
    1.6000   -0.0001    0.0000 C   0  0  0  0  0  0  0  0  0  0  0  0
    2.3999    1.3856    0.0000 O   0  0  0  0  0  0  0  0  0  0  0  0
    4.0000    1.3856    0.0000 C   0  0  0  0  0  0  0  0  0  0  0  0
    5.6000    1.3856    0.0000 H   0  0  0  0  0  0  0  0  0  0  0  0
    4.8000    2.7713    0.0000 H   0  0  0  0  0  0  0  0  0  0  0  0
    4.8000   -0.0001    0.0000 H   0  0  0  0  0  0  0  0  0  0  0  0
    2.3999   -1.3856    0.0000 O   0  0  0  0  0  0  0  0  0  0  0  0
   -3.2000    2.7713    0.0000 C   0  0  0  0  0  0  0  0  0  0  0  0
   -4.0000    4.1569    0.0000 H   0  0  0  0  0  0  0  0  0  0  0  0
   -4.8000    2.7712    0.0000 H   0  0  0  0  0  0  0  0  0  0  0  0
   -2.4001    4.1569    0.0000 H   0  0  0  0  0  0  0  0  0  0  0  0
  1  2  1  0  0  0  0
  2  3  2  0  0  0  0
  2  4  1  0  0  0  0
  4  5  2  0  0  0  0
  5  6  1  0  0  0  0
  5  7  1  0  0  0  0
  7  8  1  0  0  0  0
  7  9  1  0  0  0  0
  7 10  1  0  0  0  0
  4 11  1  0  0  0  0
 11 12  1  0  0  0  0
 12 13  1  0  0  0  0
 13 14  1  0  0  0  0
 13 15  1  0  0  0  0
 13 16  1  0  0  0  0
 11 17  2  0  0  0  0
  1 18  1  0  0  0  0
 18 19  1  0  0  0  0
 18 20  1  0  0  0  0
 18 21  1  0  0  0  0
M  END
> <ChemID>
101251

> <source_casrn>
BioUlt-02-1

> <CAS>
17041-60-0

> <SMILES>
O=C(\C(C(OC)=O)=C\C)OC

> <NAME>
Dimethyl ethylidenemalonate

> <preferred_name>
Dimethyl ethylidenemalonate

> <iupac>
C7H10O4

> <MPID>
101199

> <dsstox_substance_id>
DTXSID10342362

> <Canonical_QSARr>
CC=C(C(=O)OC)C(=O)OC

> <InChI_Code_QSARr>
InChI=1S/C7H10O4/c1-4-5(6(8)10-2)7(9)11-3/h4H,1-3H3

> <InChI Key_QSARr>
FRCFZWCJSXQAMQ-UHFFFAOYSA-N

> <Salt_Solvent>
?

> <Ready_Biodeg>
1.0

$$$$
101259
  -INDIGO-08031722522D

 33 34  0  0  0  0  0  0  0  0999 V2000
    2.7712   -0.0000    0.0000 N   0  0  0  0  0  0  0  0  0  0  0  0
    2.9386   -1.5912    0.0000 C   0  0  0  0  0  0  0  0  0  0  0  0
    1.7494   -2.6618    0.0000 O   0  0  0  0  0  0  0  0  0  0  0  0
    4.5036   -1.9239    0.0000 C   0  0  0  0  0  0  0  0  0  0  0  0
    5.3036   -0.5382    0.0000 C   0  0  0  0  0  0  0  0  0  0  0  0
    6.9037   -0.5382    0.0000 C   0  0  0  0  0  0  0  0  0  0  0  0
    7.7035    0.8474    0.0000 H   0  0  0  0  0  0  0  0  0  0  0  0
    7.7035   -1.9239    0.0000 C   0  0  0  0  0  0  0  0  0  0  0  0
    6.9037   -3.3095    0.0000 C   0  0  0  0  0  0  0  0  0  0  0  0
    7.7035   -4.6952    0.0000 H   0  0  0  0  0  0  0  0  0  0  0  0
    5.3036   -3.3095    0.0000 C   0  0  0  0  0  0  0  0  0  0  0  0
    4.5036   -4.6952    0.0000 H   0  0  0  0  0  0  0  0  0  0  0  0
    9.3035   -1.9239    0.0000 N   0  0  0  0  0  0  0  0  0  0  0  0
   10.1036   -3.3095    0.0000 O   0  0  0  0  0  0  0  0  0  0  0  0
   10.1036   -0.5382    0.0000 O   0  0  0  0  0  0  0  0  0  0  0  0
    4.2331    0.6508    0.0000 C   0  0  0  0  0  0  0  0  0  0  0  0
    4.5656    2.2158    0.0000 O   0  0  0  0  0  0  0  0  0  0  0  0
    1.3856    0.8001    0.0000 C   0  0  0  0  0  0  0  0  0  0  0  0
    0.7734    2.2782    0.0000 H   0  0  0  0  0  0  0  0  0  0  0  0
    1.9979    2.2782    0.0000 H   0  0  0  0  0  0  0  0  0  0  0  0
   -0.0001   -0.0000    0.0000 C   0  0  0  0  0  0  0  0  0  0  0  0
    0.6123   -1.4782    0.0000 H   0  0  0  0  0  0  0  0  0  0  0  0
   -0.6122   -1.4782    0.0000 H   0  0  0  0  0  0  0  0  0  0  0  0
   -1.3855    0.8001    0.0000 C   0  0  0  0  0  0  0  0  0  0  0  0
   -1.9979    2.2782    0.0000 H   0  0  0  0  0  0  0  0  0  0  0  0
   -0.7734    2.2782    0.0000 H   0  0  0  0  0  0  0  0  0  0  0  0
   -2.7712   -0.0000    0.0000 C   0  0  0  0  0  0  0  0  0  0  0  0
   -2.1591   -1.4782    0.0000 H   0  0  0  0  0  0  0  0  0  0  0  0
   -3.3836   -1.4782    0.0000 H   0  0  0  0  0  0  0  0  0  0  0  0
   -4.1569    0.8001    0.0000 C   0  0  0  0  0  0  0  0  0  0  0  0
   -5.5426    1.6000    0.0000 H   0  0  0  0  0  0  0  0  0  0  0  0
   -5.5426   -0.0000    0.0000 H   0  0  0  0  0  0  0  0  0  0  0  0
   -4.1569    2.4000    0.0000 H   0  0  0  0  0  0  0  0  0  0  0  0
  1  2  1  0  0  0  0
  2  3  2  0  0  0  0
  2  4  1  0  0  0  0
  4  5  1  0  0  0  0
  5  6  2  0  0  0  0
  6  7  1  0  0  0  0
  6  8  1  0  0  0  0
  8  9  2  0  0  0  0
  9 10  1  0  0  0  0
  9 11  1  0  0  0  0
 11  4  2  0  0  0  0
 11 12  1  0  0  0  0
  8 13  1  0  0  0  0
 13 14  1  0  0  0  0
 13 15  2  0  0  0  0
  5 16  1  0  0  0  0
 16  1  1  0  0  0  0
 16 17  2  0  0  0  0
  1 18  1  0  0  0  0
 18 19  1  0  0  0  0
 18 20  1  0  0  0  0
 18 21  1  0  0  0  0
 21 22  1  0  0  0  0
 21 23  1  0  0  0  0
 21 24  1  0  0  0  0
 24 25  1  0  0  0  0
 24 26  1  0  0  0  0
 24 27  1  0  0  0  0
 27 28  1  0  0  0  0
 27 29  1  0  0  0  0
 27 30  1  0  0  0  0
 30 31  1  0  0  0  0
 30 32  1  0  0  0  0
 30 33  1  0  0  0  0
M  CHG  2  13   1  14  -1
M  END
> <ChemID>
101259

> <source_casrn>
BioUlt-02-9

> <CAS>
NOCAS_877178

> <SMILES>
O=C(N2CCCCC)C1=CC=C([N+]([O-])=O)C=C1C2=O

> <NAME>
N-Pentyl-4-nitrophthalimide

> <preferred_name>


> <iupac>


> <MPID>
101201

> <dsstox_substance_id>
DTXSID00877178

> <Canonical_QSARr>
CCCCCN1C(=O)c2cc(ccc2C1=O)[N+]([O-])=O

> <InChI_Code_QSARr>
InChI=1S/C13H14N2O4/c1-2-3-4-7-14-12(16)10-6-5-9(15(18)19)8-11(10)13(14)17/h5-6,8H,2-4,7H2,1H3

> <InChI Key_QSARr>
YBYOSGVATNOPQS-UHFFFAOYSA-N

> <Salt_Solvent>
?

> <Ready_Biodeg>
1.0

$$$$
101260
  -INDIGO-08031722522D

 28 28  0  0  0  0  0  0  0  0999 V2000
   -2.7714    0.0000    0.0000 O   0  0  0  0  0  0  0  0  0  0  0  0
   -1.3856    0.8000    0.0000 C   0  0  0  0  0  0  0  0  0  0  0  0
   -1.3856    2.4000    0.0000 O   0  0  0  0  0  0  0  0  0  0  0  0
   -0.0000    0.0000    0.0000 N   0  0  0  0  0  0  0  0  0  0  0  0
   -0.0000   -1.6000    0.0000 C   0  0  0  0  0  0  0  0  0  0  0  0
   -1.5757   -1.3222    0.0000 H   0  0  0  0  0  0  0  0  0  0  0  0
   -0.5472   -3.1035    0.0000 H   0  0  0  0  0  0  0  0  0  0  0  0
    1.3857   -2.4000    0.0000 C   0  0  0  0  0  0  0  0  0  0  0  0
    0.3572   -3.6257    0.0000 H   0  0  0  0  0  0  0  0  0  0  0  0
    2.4141   -3.6257    0.0000 H   0  0  0  0  0  0  0  0  0  0  0  0
    2.7713   -1.6000    0.0000 N   0  0  0  0  0  0  0  0  0  0  0  0
    4.1569   -2.4000    0.0000 H   0  0  0  0  0  0  0  0  0  0  0  0
    2.7713    0.0000    0.0000 C   0  0  0  0  0  0  0  0  0  0  0  0
    4.3470   -0.2778    0.0000 H   0  0  0  0  0  0  0  0  0  0  0  0
    3.3184    1.5035    0.0000 H   0  0  0  0  0  0  0  0  0  0  0  0
    1.3857    0.8000    0.0000 C   0  0  0  0  0  0  0  0  0  0  0  0
    2.4141    2.0257    0.0000 H   0  0  0  0  0  0  0  0  0  0  0  0
    0.3572    2.0257    0.0000 H   0  0  0  0  0  0  0  0  0  0  0  0
   -4.1569    0.8000    0.0000 C   0  0  0  0  0  0  0  0  0  0  0  0
   -4.7692    2.2782    0.0000 H   0  0  0  0  0  0  0  0  0  0  0  0
   -3.5447    2.2782    0.0000 H   0  0  0  0  0  0  0  0  0  0  0  0
   -5.5425    0.0000    0.0000 C   0  0  0  0  0  0  0  0  0  0  0  0
   -4.9303   -1.4782    0.0000 H   0  0  0  0  0  0  0  0  0  0  0  0
   -6.1549   -1.4782    0.0000 H   0  0  0  0  0  0  0  0  0  0  0  0
   -6.9283    0.8000    0.0000 C   0  0  0  0  0  0  0  0  0  0  0  0
   -8.3138    1.6000    0.0000 H   0  0  0  0  0  0  0  0  0  0  0  0
   -8.3138    0.0000    0.0000 H   0  0  0  0  0  0  0  0  0  0  0  0
   -6.9283    2.4000    0.0000 H   0  0  0  0  0  0  0  0  0  0  0  0
  1  2  1  0  0  0  0
  2  3  2  0  0  0  0
  2  4  1  0  0  0  0
  4  5  1  0  0  0  0
  5  6  1  0  0  0  0
  5  7  1  0  0  0  0
  5  8  1  0  0  0  0
  8  9  1  0  0  0  0
  8 10  1  0  0  0  0
  8 11  1  0  0  0  0
 11 12  1  0  0  0  0
 11 13  1  0  0  0  0
 13 14  1  0  0  0  0
 13 15  1  0  0  0  0
 13 16  1  0  0  0  0
 16  4  1  0  0  0  0
 16 17  1  0  0  0  0
 16 18  1  0  0  0  0
  1 19  1  0  0  0  0
 19 20  1  0  0  0  0
 19 21  1  0  0  0  0
 19 22  1  0  0  0  0
 22 23  1  0  0  0  0
 22 24  1  0  0  0  0
 22 25  1  0  0  0  0
 25 26  1  0  0  0  0
 25 27  1  0  0  0  0
 25 28  1  0  0  0  0
M  END
> <ChemID>
101260

> <source_casrn>
BioUlt-03-0

> <CAS>
37008-22-3

> <SMILES>
O=C(N1CCNCC1)OCCC

> <NAME>
Propyl 1-piperazinecarboxylate

> <preferred_name>
PUBCHEM_22393735

> <iupac>
C8H16N2O2

> <MPID>
101202

> <dsstox_substance_id>
DTXSID60625410

> <Canonical_QSARr>
CCCOC(=O)N1CCNCC1

> <InChI_Code_QSARr>
InChI=1S/C8H16N2O2/c1-2-7-12-8(11)10-5-3-9-4-6-10/h9H,2-7H2,1H3

> <InChI Key_QSARr>
IGXBNWXKQPCCCJ-UHFFFAOYSA-N

> <Salt_Solvent>
?

> <Ready_Biodeg>
1.0

$$$$
101263
  -INDIGO-08031722522D

 58 59  0  0  0  0  0  0  0  0999 V2000
    0.0000    0.0001    0.0000 C   0  0  0  0  0  0  0  0  0  0  0  0
    1.6000    0.0001    0.0000 C   0  0  0  0  0  0  0  0  0  0  0  0
    2.4001   -1.3856    0.0000 C   0  0  0  0  0  0  0  0  0  0  0  0
    1.6000   -2.7713    0.0000 H   0  0  0  0  0  0  0  0  0  0  0  0
    4.0001   -1.3856    0.0000 C   0  0  0  0  0  0  0  0  0  0  0  0
    4.7999   -2.7713    0.0000 C   0  0  0  0  0  0  0  0  0  0  0  0
    4.0001   -4.1568    0.0000 O   0  0  0  0  0  0  0  0  0  0  0  0
    6.4001   -2.7713    0.0000 O   0  0  0  0  0  0  0  0  0  0  0  0
    7.2000   -4.1568    0.0000 C   0  0  0  0  0  0  0  0  0  0  0  0
    6.9911   -5.7432    0.0000 H   0  0  0  0  0  0  0  0  0  0  0  0
    5.9307   -5.1310    0.0000 H   0  0  0  0  0  0  0  0  0  0  0  0
    8.7999   -4.1568    0.0000 C   0  0  0  0  0  0  0  0  0  0  0  0
   10.3999   -4.1568    0.0000 H   0  0  0  0  0  0  0  0  0  0  0  0
    9.6000   -5.5425    0.0000 H   0  0  0  0  0  0  0  0  0  0  0  0
    9.6000   -2.7713    0.0000 H   0  0  0  0  0  0  0  0  0  0  0  0
    4.7999    0.0001    0.0000 C   0  0  0  0  0  0  0  0  0  0  0  0
    6.4001    0.0001    0.0000 C   0  0  0  0  0  0  0  0  0  0  0  0
    7.2000   -1.3856    0.0000 O   0  0  0  0  0  0  0  0  0  0  0  0
    7.2000    1.3856    0.0000 O   0  0  0  0  0  0  0  0  0  0  0  0
    8.7999    1.3856    0.0000 C   0  0  0  0  0  0  0  0  0  0  0  0
   10.0695    0.4116    0.0000 H   0  0  0  0  0  0  0  0  0  0  0  0
    9.0088   -0.2006    0.0000 H   0  0  0  0  0  0  0  0  0  0  0  0
    9.6000    2.7713    0.0000 C   0  0  0  0  0  0  0  0  0  0  0  0
   10.3999    4.1568    0.0000 H   0  0  0  0  0  0  0  0  0  0  0  0
   11.2000    2.7713    0.0000 H   0  0  0  0  0  0  0  0  0  0  0  0
    8.7999    4.1568    0.0000 H   0  0  0  0  0  0  0  0  0  0  0  0
    4.0001    1.3856    0.0000 C   0  0  0  0  0  0  0  0  0  0  0  0
    4.7999    2.7713    0.0000 H   0  0  0  0  0  0  0  0  0  0  0  0
    2.4001    1.3856    0.0000 C   0  0  0  0  0  0  0  0  0  0  0  0
    1.6000    2.7713    0.0000 H   0  0  0  0  0  0  0  0  0  0  0  0
   -0.8001    1.3856    0.0000 C   0  0  0  0  0  0  0  0  0  0  0  0
    0.0000    2.7713    0.0000 H   0  0  0  0  0  0  0  0  0  0  0  0
   -2.4001    1.3856    0.0000 C   0  0  0  0  0  0  0  0  0  0  0  0
   -3.1999    2.7713    0.0000 C   0  0  0  0  0  0  0  0  0  0  0  0
   -2.4001    4.1568    0.0000 O   0  0  0  0  0  0  0  0  0  0  0  0
   -4.8001    2.7713    0.0000 O   0  0  0  0  0  0  0  0  0  0  0  0
   -5.6000    4.1568    0.0000 C   0  0  0  0  0  0  0  0  0  0  0  0
   -5.3911    5.7432    0.0000 H   0  0  0  0  0  0  0  0  0  0  0  0
   -4.3307    5.1310    0.0000 H   0  0  0  0  0  0  0  0  0  0  0  0
   -7.1999    4.1568    0.0000 C   0  0  0  0  0  0  0  0  0  0  0  0
   -8.7999    4.1568    0.0000 H   0  0  0  0  0  0  0  0  0  0  0  0
   -8.0000    5.5425    0.0000 H   0  0  0  0  0  0  0  0  0  0  0  0
   -8.0000    2.7713    0.0000 H   0  0  0  0  0  0  0  0  0  0  0  0
   -3.1999    0.0001    0.0000 C   0  0  0  0  0  0  0  0  0  0  0  0
   -4.8001    0.0001    0.0000 C   0  0  0  0  0  0  0  0  0  0  0  0
   -5.6000    1.3856    0.0000 O   0  0  0  0  0  0  0  0  0  0  0  0
   -5.6000   -1.3856    0.0000 O   0  0  0  0  0  0  0  0  0  0  0  0
   -7.1999   -1.3856    0.0000 C   0  0  0  0  0  0  0  0  0  0  0  0
   -8.4695   -0.4116    0.0000 H   0  0  0  0  0  0  0  0  0  0  0  0
   -7.4088    0.2006    0.0000 H   0  0  0  0  0  0  0  0  0  0  0  0
   -8.0000   -2.7713    0.0000 C   0  0  0  0  0  0  0  0  0  0  0  0
   -8.7999   -4.1568    0.0000 H   0  0  0  0  0  0  0  0  0  0  0  0
   -9.6000   -2.7713    0.0000 H   0  0  0  0  0  0  0  0  0  0  0  0
   -7.1999   -4.1568    0.0000 H   0  0  0  0  0  0  0  0  0  0  0  0
   -2.4001   -1.3856    0.0000 C   0  0  0  0  0  0  0  0  0  0  0  0
   -3.1999   -2.7713    0.0000 H   0  0  0  0  0  0  0  0  0  0  0  0
   -0.8001   -1.3856    0.0000 C   0  0  0  0  0  0  0  0  0  0  0  0
    0.0000   -2.7713    0.0000 H   0  0  0  0  0  0  0  0  0  0  0  0
  1  2  1  0  0  0  0
  2  3  1  0  0  0  0
  3  4  1  0  0  0  0
  3  5  2  0  0  0  0
  5  6  1  0  0  0  0
  6  7  2  0  0  0  0
  6  8  1  0  0  0  0
  8  9  1  0  0  0  0
  9 10  1  0  0  0  0
  9 11  1  0  0  0  0
  9 12  1  0  0  0  0
 12 13  1  0  0  0  0
 12 14  1  0  0  0  0
 12 15  1  0  0  0  0
  5 16  1  0  0  0  0
 16 17  1  0  0  0  0
 17 18  2  0  0  0  0
 17 19  1  0  0  0  0
 19 20  1  0  0  0  0
 20 21  1  0  0  0  0
 20 22  1  0  0  0  0
 20 23  1  0  0  0  0
 23 24  1  0  0  0  0
 23 25  1  0  0  0  0
 23 26  1  0  0  0  0
 16 27  2  0  0  0  0
 27 28  1  0  0  0  0
 27 29  1  0  0  0  0
 29  2  2  0  0  0  0
 29 30  1  0  0  0  0
  1 31  1  0  0  0  0
 31 32  1  0  0  0  0
 31 33  2  0  0  0  0
 33 34  1  0  0  0  0
 34 35  2  0  0  0  0
 34 36  1  0  0  0  0
 36 37  1  0  0  0  0
 37 38  1  0  0  0  0
 37 39  1  0  0  0  0
 37 40  1  0  0  0  0
 40 41  1  0  0  0  0
 40 42  1  0  0  0  0
 40 43  1  0  0  0  0
 33 44  1  0  0  0  0
 44 45  1  0  0  0  0
 45 46  2  0  0  0  0
 45 47  1  0  0  0  0
 47 48  1  0  0  0  0
 48 49  1  0  0  0  0
 48 50  1  0  0  0  0
 48 51  1  0  0  0  0
 51 52  1  0  0  0  0
 51 53  1  0  0  0  0
 51 54  1  0  0  0  0
 44 55  2  0  0  0  0
 55 56  1  0  0  0  0
 55 57  1  0  0  0  0
 57  1  2  0  0  0  0
 57 58  1  0  0  0  0
M  END
> <ChemID>
101263

> <source_casrn>


> <CAS>
BioUlt-30-3

> <SMILES>
O=C(C1=CC(C2=CC=C(C(OCC)=O)C(C(OCC)=O)=C2)=CC=C1C(OCC)=O)OCC

> <NAME>
Tetraethyl biphenyl-3,3',4,4'-tetracarboxylate

> <preferred_name>


> <iupac>


> <MPID>
101203

> <dsstox_substance_id>


> <Canonical_QSARr>
CCOC(=O)c1ccc(cc1C(=O)OCC)-c1cc(c(cc1)C(=O)OCC)C(=O)OCC

> <InChI_Code_QSARr>
InChI=1S/C24H26O8/c1-5-29-21(25)17-11-9-15(13-19(17)23(27)31-7-3)16-10-12-18(22(26)30-6-2)20(14-16)24(28)32-8-4/h9-14H,5-8H2,1-4H3

> <InChI Key_QSARr>
BRDXNBARQIJLOG-UHFFFAOYSA-N

> <Salt_Solvent>
?

> <Ready_Biodeg>
1.0

$$$$
201273
  -INDIGO-08031722522D

 24 25  0  0  0  0  0  0  0  0999 V2000
    2.4001    4.1569    0.0000 Br  0  0  0  0  0  0  0  0  0  0  0  0
    3.9999    4.1569    0.0000 C   0  0  0  0  0  0  0  0  0  0  0  0
    3.2000    5.5426    0.0000 H   0  0  0  0  0  0  0  0  0  0  0  0
    4.8000    5.5426    0.0000 Br  0  0  0  0  0  0  0  0  0  0  0  0
    4.8000    2.7713    0.0000 C   0  0  0  0  0  0  0  0  0  0  0  0
    6.4000    2.7713    0.0000 C   0  0  0  0  0  0  0  0  0  0  0  0
    7.2000    4.1569    0.0000 H   0  0  0  0  0  0  0  0  0  0  0  0
    7.2000    1.3857    0.0000 C   0  0  0  0  0  0  0  0  0  0  0  0
    8.8000    1.3857    0.0000 H   0  0  0  0  0  0  0  0  0  0  0  0
    6.4000    0.0000    0.0000 C   0  0  0  0  0  0  0  0  0  0  0  0
    7.2000   -1.3856    0.0000 H   0  0  0  0  0  0  0  0  0  0  0  0
    4.8000    0.0000    0.0000 C   0  0  0  0  0  0  0  0  0  0  0  0
    3.9999   -1.3856    0.0000 H   0  0  0  0  0  0  0  0  0  0  0  0
    3.9999    1.3857    0.0000 C   0  0  0  0  0  0  0  0  0  0  0  0
    2.4001    1.3857    0.0000 O   0  0  0  0  0  0  0  0  0  0  0  0
    1.6000    0.0000    0.0000 C   0  0  0  0  0  0  0  0  0  0  0  0
    1.8088   -1.5863    0.0000 H   0  0  0  0  0  0  0  0  0  0  0  0
    2.8694   -0.9740    0.0000 H   0  0  0  0  0  0  0  0  0  0  0  0
   -0.0001    0.0000    0.0000 C   0  0  0  0  0  0  0  0  0  0  0  0
   -0.2779   -1.5757    0.0000 H   0  0  0  0  0  0  0  0  0  0  0  0
   -1.5035    0.5472    0.0000 C   0  0  0  0  0  0  0  0  0  0  0  0
   -2.3034   -0.8385    0.0000 H   0  0  0  0  0  0  0  0  0  0  0  0
   -2.7292    1.5757    0.0000 H   0  0  0  0  0  0  0  0  0  0  0  0
   -0.2779    1.5757    0.0000 O   0  0  0  0  0  0  0  0  0  0  0  0
  1  2  1  0  0  0  0
  2  3  1  0  0  0  0
  2  4  1  0  0  0  0
  2  5  1  0  0  0  0
  5  6  1  0  0  0  0
  6  7  1  0  0  0  0
  6  8  2  0  0  0  0
  8  9  1  0  0  0  0
  8 10  1  0  0  0  0
 10 11  1  0  0  0  0
 10 12  2  0  0  0  0
 12 13  1  0  0  0  0
 12 14  1  0  0  0  0
 14  5  2  0  0  0  0
 14 15  1  0  0  0  0
 15 16  1  0  0  0  0
 16 17  1  0  0  0  0
 16 18  1  0  0  0  0
 16 19  1  0  0  0  0
 19 20  1  0  0  0  0
 19 21  1  0  0  0  0
 21 22  1  0  0  0  0
 21 23  1  0  0  0  0
 21 24  1  0  0  0  0
 24 19  1  0  0  0  0
M  END
> <ChemID>
201273

> <source_casrn>
30171-80-3

> <CAS>
NOCAS_865529

> <SMILES>
BrC(Br)c1ccccc1OCC2CO2

> <NAME>


> <preferred_name>


> <iupac>


> <MPID>
101204

> <dsstox_substance_id>
DTXSID90865529

> <Canonical_QSARr>
BrC(Br)c1ccccc1OCC1CO1

> <InChI_Code_QSARr>
InChI=1S/C10H10Br2O2/c11-10(12)8-3-1-2-4-9(8)14-6-7-5-13-7/h1-4,7,10H,5-6H2

> <InChI Key_QSARr>
RUBIQRSGTVJYHR-UHFFFAOYSA-N

> <Salt_Solvent>


> <Ready_Biodeg>
0.0

$$$$
201275
  -INDIGO-08031722522D

 24 24  0  0  0  0  0  0  0  0999 V2000
    0.2778    1.5757    0.0000 Br  0  0  0  0  0  0  0  0  0  0  0  0
    0.0000    0.0000    0.0000 C   0  0  0  0  0  0  0  0  0  0  0  0
    1.5454    0.4141    0.0000 H   0  0  0  0  0  0  0  0  0  0  0  0
   -1.5455    0.4141    0.0000 C   0  0  0  0  0  0  0  0  0  0  0  0
   -0.7455    1.7998    0.0000 H   0  0  0  0  0  0  0  0  0  0  0  0
   -2.4632    1.7247    0.0000 H   0  0  0  0  0  0  0  0  0  0  0  0
   -2.9311   -0.3859    0.0000 C   0  0  0  0  0  0  0  0  0  0  0  0
   -3.3452    1.1596    0.0000 H   0  0  0  0  0  0  0  0  0  0  0  0
   -4.5068   -0.1081    0.0000 H   0  0  0  0  0  0  0  0  0  0  0  0
   -3.3452   -1.9314    0.0000 C   0  0  0  0  0  0  0  0  0  0  0  0
   -4.7309   -1.1314    0.0000 H   0  0  0  0  0  0  0  0  0  0  0  0
   -4.6558   -2.8490    0.0000 Br  0  0  0  0  0  0  0  0  0  0  0  0
   -2.5453   -3.3170    0.0000 C   0  0  0  0  0  0  0  0  0  0  0  0
   -4.0907   -3.7311    0.0000 H   0  0  0  0  0  0  0  0  0  0  0  0
   -2.8230   -4.8927    0.0000 Br  0  0  0  0  0  0  0  0  0  0  0  0
   -0.9997   -3.7311    0.0000 C   0  0  0  0  0  0  0  0  0  0  0  0
   -1.7997   -5.1168    0.0000 H   0  0  0  0  0  0  0  0  0  0  0  0
   -0.0820   -5.0417    0.0000 H   0  0  0  0  0  0  0  0  0  0  0  0
    0.3859   -2.9312    0.0000 C   0  0  0  0  0  0  0  0  0  0  0  0
    0.8000   -4.4766    0.0000 H   0  0  0  0  0  0  0  0  0  0  0  0
    1.9616   -3.2089    0.0000 H   0  0  0  0  0  0  0  0  0  0  0  0
    0.8000   -1.3856    0.0000 C   0  0  0  0  0  0  0  0  0  0  0  0
    2.1856   -2.1856    0.0000 H   0  0  0  0  0  0  0  0  0  0  0  0
    2.1106   -0.4679    0.0000 Br  0  0  0  0  0  0  0  0  0  0  0  0
  1  2  1  0  0  0  0
  2  3  1  0  0  0  0
  2  4  1  0  0  0  0
  4  5  1  0  0  0  0
  4  6  1  0  0  0  0
  4  7  1  0  0  0  0
  7  8  1  0  0  0  0
  7  9  1  0  0  0  0
  7 10  1  0  0  0  0
 10 11  1  0  0  0  0
 10 12  1  0  0  0  0
 10 13  1  0  0  0  0
 13 14  1  0  0  0  0
 13 15  1  0  0  0  0
 13 16  1  0  0  0  0
 16 17  1  0  0  0  0
 16 18  1  0  0  0  0
 16 19  1  0  0  0  0
 19 20  1  0  0  0  0
 19 21  1  0  0  0  0
 19 22  1  0  0  0  0
 22  2  1  0  0  0  0
 22 23  1  0  0  0  0
 22 24  1  0  0  0  0
M  END
> <ChemID>
201275

> <source_casrn>
3194-57-8

> <CAS>
3194-57-8

> <SMILES>
BrC1CCC(Br)C(Br)CCC1Br

> <NAME>


> <preferred_name>
Tetrabromocyclooctane

> <iupac>
1,2,5,6-tetrabromocyclooctane

> <MPID>
101205

> <dsstox_substance_id>
DTXSID0052750

> <Canonical_QSARr>
BrC1CCC(Br)C(Br)CCC1Br

> <InChI_Code_QSARr>
InChI=1S/C8H12Br4/c9-5-1-2-6(10)8(12)4-3-7(5)11/h5-8H,1-4H2

> <InChI Key_QSARr>
RZLXIANUDLLFHN-UHFFFAOYSA-N

> <Salt_Solvent>


> <Ready_Biodeg>
0.0

$$$$
201279
  -INDIGO-08031722522D

 11 10  0  0  0  0  0  0  0  0999 V2000
    1.3856    2.4000    0.0000 Br  0  0  0  0  0  0  0  0  0  0  0  0
    1.3856    0.8000    0.0000 C   0  0  0  0  0  0  0  0  0  0  0  0
    2.7713    1.6000    0.0000 H   0  0  0  0  0  0  0  0  0  0  0  0
    2.7713    0.0000    0.0000 H   0  0  0  0  0  0  0  0  0  0  0  0
    0.0000    0.0000    0.0000 C   0  0  0  0  0  0  0  0  0  0  0  0
    0.6123   -1.4782    0.0000 H   0  0  0  0  0  0  0  0  0  0  0  0
   -0.6123   -1.4782    0.0000 H   0  0  0  0  0  0  0  0  0  0  0  0
   -1.3856    0.8000    0.0000 C   0  0  0  0  0  0  0  0  0  0  0  0
   -2.7713    1.6000    0.0000 H   0  0  0  0  0  0  0  0  0  0  0  0
   -2.7713    0.0000    0.0000 H   0  0  0  0  0  0  0  0  0  0  0  0
   -1.3856    2.4000    0.0000 Br  0  0  0  0  0  0  0  0  0  0  0  0
  1  2  1  0  0  0  0
  2  3  1  0  0  0  0
  2  4  1  0  0  0  0
  2  5  1  0  0  0  0
  5  6  1  0  0  0  0
  5  7  1  0  0  0  0
  5  8  1  0  0  0  0
  8  9  1  0  0  0  0
  8 10  1  0  0  0  0
  8 11  1  0  0  0  0
M  END
> <ChemID>
201279

> <source_casrn>
109-64-8

> <CAS>
109-64-8

> <SMILES>
BrCCCBr

> <NAME>


> <preferred_name>
1,3-Dibromopropane

> <iupac>
C3H6Br2

> <MPID>
101206

> <dsstox_substance_id>
DTXSID1021902

> <Canonical_QSARr>
BrCCCBr

> <InChI_Code_QSARr>
InChI=1S/C3H6Br2/c4-2-1-3-5/h1-3H2

> <InChI Key_QSARr>
VEFLKXRACNJHOV-UHFFFAOYSA-N

> <Salt_Solvent>


> <Ready_Biodeg>
0.0

$$$$
201283
  -INDIGO-08031722522D

 23 24  0  0  0  0  0  0  0  0999 V2000
    2.6702   -3.2849    0.0000 Br  0  0  0  0  0  0  0  0  0  0  0  0
    2.1229   -1.7813    0.0000 C   0  0  0  0  0  0  0  0  0  0  0  0
    3.1513   -0.5556    0.0000 C   0  0  0  0  0  0  0  0  0  0  0  0
    4.7271   -0.8335    0.0000 H   0  0  0  0  0  0  0  0  0  0  0  0
    2.6042    0.9479    0.0000 C   0  0  0  0  0  0  0  0  0  0  0  0
    3.6326    2.1735    0.0000 Br  0  0  0  0  0  0  0  0  0  0  0  0
    1.0284    1.2257    0.0000 C   0  0  0  0  0  0  0  0  0  0  0  0
    0.4813    2.7292    0.0000 Br  0  0  0  0  0  0  0  0  0  0  0  0
   -0.0000    0.0000    0.0000 C   0  0  0  0  0  0  0  0  0  0  0  0
   -1.5756    0.2779    0.0000 O   0  0  0  0  0  0  0  0  0  0  0  0
   -2.9614   -0.5221    0.0000 C   0  0  0  0  0  0  0  0  0  0  0  0
   -2.9614   -2.1222    0.0000 C   0  0  0  0  0  0  0  0  0  0  0  0
   -1.5756   -2.9222    0.0000 H   0  0  0  0  0  0  0  0  0  0  0  0
   -4.3470   -2.9222    0.0000 C   0  0  0  0  0  0  0  0  0  0  0  0
   -4.3470   -4.5222    0.0000 H   0  0  0  0  0  0  0  0  0  0  0  0
   -5.7326   -2.1222    0.0000 C   0  0  0  0  0  0  0  0  0  0  0  0
   -7.1183   -2.9222    0.0000 Br  0  0  0  0  0  0  0  0  0  0  0  0
   -5.7326   -0.5221    0.0000 C   0  0  0  0  0  0  0  0  0  0  0  0
   -7.1183    0.2779    0.0000 Br  0  0  0  0  0  0  0  0  0  0  0  0
   -4.3470    0.2779    0.0000 C   0  0  0  0  0  0  0  0  0  0  0  0
   -4.3470    1.8779    0.0000 Br  0  0  0  0  0  0  0  0  0  0  0  0
    0.5473   -1.5035    0.0000 C   0  0  0  0  0  0  0  0  0  0  0  0
   -0.4812   -2.7292    0.0000 H   0  0  0  0  0  0  0  0  0  0  0  0
  1  2  1  0  0  0  0
  2  3  1  0  0  0  0
  3  4  1  0  0  0  0
  3  5  2  0  0  0  0
  5  6  1  0  0  0  0
  5  7  1  0  0  0  0
  7  8  1  0  0  0  0
  7  9  2  0  0  0  0
  9 10  1  0  0  0  0
 10 11  1  0  0  0  0
 11 12  1  0  0  0  0
 12 13  1  0  0  0  0
 12 14  2  0  0  0  0
 14 15  1  0  0  0  0
 14 16  1  0  0  0  0
 16 17  1  0  0  0  0
 16 18  2  0  0  0  0
 18 19  1  0  0  0  0
 18 20  1  0  0  0  0
 20 11  2  0  0  0  0
 20 21  1  0  0  0  0
  9 22  1  0  0  0  0
 22  2  2  0  0  0  0
 22 23  1  0  0  0  0
M  END
> <ChemID>
201283

> <source_casrn>
36483-60-0

> <CAS>
36483-60-0

> <SMILES>
Brc1cc(Br)c(Br)c(Oc2ccc(Br)c(Br)c2Br)c1

> <NAME>


> <preferred_name>
Hexabromodiphenyl ether

> <iupac>
2,3,4-tribromophenyl 2,3,5-tribromophenyl ether

> <MPID>
101207

> <dsstox_substance_id>
DTXSID6024129

> <Canonical_QSARr>
Brc1cc(Oc2ccc(Br)c(Br)c2Br)c(Br)c(Br)c1

> <InChI_Code_QSARr>
InChI=1S/C12H4Br6O/c13-5-3-7(15)10(16)9(4-5)19-8-2-1-6(14)11(17)12(8)18/h1-4H

> <InChI Key_QSARr>
YURCHLXPAGSJHU-UHFFFAOYSA-N

> <Salt_Solvent>


> <Ready_Biodeg>
0.0

$$$$
201286
  -INDIGO-08031722522D

 22 23  0  0  0  0  0  0  0  0999 V2000
   -4.8000   -0.0000    0.0000 Br  0  0  0  0  0  0  0  0  0  0  0  0
   -3.2000   -0.0000    0.0000 C   0  0  0  0  0  0  0  0  0  0  0  0
   -2.4000    1.3856    0.0000 C   0  0  0  0  0  0  0  0  0  0  0  0
   -3.2000    2.7713    0.0000 H   0  0  0  0  0  0  0  0  0  0  0  0
   -0.8001    1.3856    0.0000 C   0  0  0  0  0  0  0  0  0  0  0  0
   -0.0001    2.7713    0.0000 H   0  0  0  0  0  0  0  0  0  0  0  0
   -0.0001   -0.0000    0.0000 C   0  0  0  0  0  0  0  0  0  0  0  0
    1.6001    0.0000    0.0000 C   0  0  0  0  0  0  0  0  0  0  0  0
    2.4001    1.3856    0.0000 C   0  0  0  0  0  0  0  0  0  0  0  0
    1.6001    2.7713    0.0000 H   0  0  0  0  0  0  0  0  0  0  0  0
    4.0000    1.3856    0.0000 C   0  0  0  0  0  0  0  0  0  0  0  0
    4.8000    2.7713    0.0000 H   0  0  0  0  0  0  0  0  0  0  0  0
    4.8000    0.0000    0.0000 C   0  0  0  0  0  0  0  0  0  0  0  0
    6.4000    0.0000    0.0000 H   0  0  0  0  0  0  0  0  0  0  0  0
    4.0000   -1.3856    0.0000 C   0  0  0  0  0  0  0  0  0  0  0  0
    4.8000   -2.7713    0.0000 H   0  0  0  0  0  0  0  0  0  0  0  0
    2.4001   -1.3856    0.0000 C   0  0  0  0  0  0  0  0  0  0  0  0
    1.6001   -2.7713    0.0000 H   0  0  0  0  0  0  0  0  0  0  0  0
   -0.8001   -1.3856    0.0000 C   0  0  0  0  0  0  0  0  0  0  0  0
   -0.0001   -2.7713    0.0000 H   0  0  0  0  0  0  0  0  0  0  0  0
   -2.4000   -1.3856    0.0000 C   0  0  0  0  0  0  0  0  0  0  0  0
   -3.2000   -2.7713    0.0000 H   0  0  0  0  0  0  0  0  0  0  0  0
  1  2  1  0  0  0  0
  2  3  1  0  0  0  0
  3  4  1  0  0  0  0
  3  5  2  0  0  0  0
  5  6  1  0  0  0  0
  5  7  1  0  0  0  0
  7  8  1  0  0  0  0
  8  9  1  0  0  0  0
  9 10  1  0  0  0  0
  9 11  2  0  0  0  0
 11 12  1  0  0  0  0
 11 13  1  0  0  0  0
 13 14  1  0  0  0  0
 13 15  2  0  0  0  0
 15 16  1  0  0  0  0
 15 17  1  0  0  0  0
 17  8  2  0  0  0  0
 17 18  1  0  0  0  0
  7 19  2  0  0  0  0
 19 20  1  0  0  0  0
 19 21  1  0  0  0  0
 21  2  2  0  0  0  0
 21 22  1  0  0  0  0
M  END
> <ChemID>
201286

> <source_casrn>
92-66-0

> <CAS>
92-66-0

> <SMILES>
Brc1ccc(cc1)c2ccccc2

> <NAME>


> <preferred_name>
4-Bromobiphenyl

> <iupac>
4-bromobiphenyl

> <MPID>
101208

> <dsstox_substance_id>
DTXSID4024640

> <Canonical_QSARr>
Brc1ccc(cc1)-c1ccccc1

> <InChI_Code_QSARr>
InChI=1S/C12H9Br/c13-12-8-6-11(7-9-12)10-4-2-1-3-5-10/h1-9H

> <InChI Key_QSARr>
PKJBWOWQJHHAHG-UHFFFAOYSA-N

> <Salt_Solvent>


> <Ready_Biodeg>
1.0

$$$$
201289
  -INDIGO-08031722522D

 32 33  0  0  0  0  0  0  0  0999 V2000
   -5.4585    0.9625    0.0000 C   0  0  0  0  0  0  0  0  0  0  0  0
   -4.5986    2.3119    0.0000 H   0  0  0  0  0  0  0  0  0  0  0  0
   -5.8047    2.5245    0.0000 H   0  0  0  0  0  0  0  0  0  0  0  0
   -6.9618    0.4152    0.0000 C   0  0  0  0  0  0  0  0  0  0  0  0
   -7.8216   -0.9342    0.0000 H   0  0  0  0  0  0  0  0  0  0  0  0
   -6.6156   -1.1468    0.0000 H   0  0  0  0  0  0  0  0  0  0  0  0
   -8.1877    1.4437    0.0000 C   0  0  0  0  0  0  0  0  0  0  0  0
   -7.3279    2.7931    0.0000 H   0  0  0  0  0  0  0  0  0  0  0  0
   -8.5339    3.0058    0.0000 H   0  0  0  0  0  0  0  0  0  0  0  0
   -9.6910    0.8965    0.0000 O   0  0  0  0  0  0  0  0  0  0  0  0
  -10.9166    1.9249    0.0000 C   0  0  0  0  0  0  0  0  0  0  0  0
  -10.0571    3.2744    0.0000 H   0  0  0  0  0  0  0  0  0  0  0  0
  -11.2631    3.4870    0.0000 H   0  0  0  0  0  0  0  0  0  0  0  0
  -12.4202    1.3777    0.0000 C   0  0  0  0  0  0  0  0  0  0  0  0
  -12.1425   -0.1980    0.0000 H   0  0  0  0  0  0  0  0  0  0  0  0
  -14.0201    1.3777    0.0000 C   0  0  0  0  0  0  0  0  0  0  0  0
  -14.2981   -0.1980    0.0000 H   0  0  0  0  0  0  0  0  0  0  0  0
  -15.5237    1.9249    0.0000 H   0  0  0  0  0  0  0  0  0  0  0  0
  -13.2203    2.7634    0.0000 O   0  0  0  0  0  0  0  0  0  0  0  0
   -4.2326   -0.0660    0.0000 C   0  0  0  0  0  0  0  0  0  0  0  0
   -5.0924   -1.4154    0.0000 H   0  0  0  0  0  0  0  0  0  0  0  0
   -3.8864   -1.6281    0.0000 H   0  0  0  0  0  0  0  0  0  0  0  0
   -2.7292    0.4812    0.0000 O   0  0  0  0  0  0  0  0  0  0  0  0
   -1.5036   -0.5472    0.0000 C   0  0  0  0  0  0  0  0  0  0  0  0
   -2.3632   -1.8967    0.0000 H   0  0  0  0  0  0  0  0  0  0  0  0
   -1.1572   -2.1093    0.0000 H   0  0  0  0  0  0  0  0  0  0  0  0
   -0.0000    0.0000    0.0000 C   0  0  0  0  0  0  0  0  0  0  0  0
   -0.2777    1.5757    0.0000 H   0  0  0  0  0  0  0  0  0  0  0  0
    1.5999    0.0000    0.0000 C   0  0  0  0  0  0  0  0  0  0  0  0
    1.8779    1.5757    0.0000 H   0  0  0  0  0  0  0  0  0  0  0  0
    3.1035   -0.5472    0.0000 H   0  0  0  0  0  0  0  0  0  0  0  0
    0.8001   -1.3857    0.0000 O   0  0  0  0  0  0  0  0  0  0  0  0
  1  2  1  0  0  0  0
  1  3  1  0  0  0  0
  1  4  1  0  0  0  0
  4  5  1  0  0  0  0
  4  6  1  0  0  0  0
  4  7  1  0  0  0  0
  7  8  1  0  0  0  0
  7  9  1  0  0  0  0
  7 10  1  0  0  0  0
 10 11  1  0  0  0  0
 11 12  1  0  0  0  0
 11 13  1  0  0  0  0
 11 14  1  0  0  0  0
 14 15  1  0  0  0  0
 14 16  1  0  0  0  0
 16 17  1  0  0  0  0
 16 18  1  0  0  0  0
 16 19  1  0  0  0  0
 19 14  1  0  0  0  0
  1 20  1  0  0  0  0
 20 21  1  0  0  0  0
 20 22  1  0  0  0  0
 20 23  1  0  0  0  0
 23 24  1  0  0  0  0
 24 25  1  0  0  0  0
 24 26  1  0  0  0  0
 24 27  1  0  0  0  0
 27 28  1  0  0  0  0
 27 29  1  0  0  0  0
 29 30  1  0  0  0  0
 29 31  1  0  0  0  0
 29 32  1  0  0  0  0
 32 27  1  0  0  0  0
M  END
> <ChemID>
201289

> <source_casrn>
2425-79-8

> <CAS>
2425-79-8

> <SMILES>
C(CCOCC1CO1)COCC2CO2

> <NAME>


> <preferred_name>
1,4-Butanediol diglycidyl ether

> <iupac>
2,2'-[butane-1,4-diylbis(oxymethanediyl)]dioxirane

> <MPID>
101210

> <dsstox_substance_id>
DTXSID7024667

> <Canonical_QSARr>
C(OCCCCOCC1CO1)C1CO1

> <InChI_Code_QSARr>
InChI=1S/C10H18O4/c1(3-11-5-9-7-13-9)2-4-12-6-10-8-14-10/h9-10H,1-8H2

> <InChI Key_QSARr>
SHKUUQIDMUMQQK-UHFFFAOYSA-N

> <Salt_Solvent>


> <Ready_Biodeg>
0.0

$$$$
201291
  -INDIGO-08031722522D

 46 48  0  0  0  0  0  0  0  0999 V2000
    0.8001    1.3857    0.0000 C   0  0  0  0  0  0  0  0  0  0  0  0
    2.2781    0.7733    0.0000 H   0  0  0  0  0  0  0  0  0  0  0  0
    2.2781    1.9980    0.0000 H   0  0  0  0  0  0  0  0  0  0  0  0
    0.0000    2.7714    0.0000 O   0  0  0  0  0  0  0  0  0  0  0  0
    0.8001    4.1568    0.0000 P   0  0  0  0  0  0  0  0  0  0  0  0
    0.0000    5.5425    0.0000 O   0  0  0  0  0  0  0  0  0  0  0  0
   -1.5999    5.5425    0.0000 C   0  0  0  0  0  0  0  0  0  0  0  0
   -1.8089    3.9564    0.0000 H   0  0  0  0  0  0  0  0  0  0  0  0
   -2.8694    4.5685    0.0000 H   0  0  0  0  0  0  0  0  0  0  0  0
   -2.3999    6.9282    0.0000 C   0  0  0  0  0  0  0  0  0  0  0  0
   -1.5999    8.3140    0.0000 C   0  0  0  0  0  0  0  0  0  0  0  0
    0.0000    8.3140    0.0000 H   0  0  0  0  0  0  0  0  0  0  0  0
   -2.3999    9.6994    0.0000 C   0  0  0  0  0  0  0  0  0  0  0  0
   -1.6001   11.0851    0.0000 H   0  0  0  0  0  0  0  0  0  0  0  0
   -4.0001    9.6994    0.0000 C   0  0  0  0  0  0  0  0  0  0  0  0
   -4.7999   11.0851    0.0000 H   0  0  0  0  0  0  0  0  0  0  0  0
   -4.7999    8.3140    0.0000 C   0  0  0  0  0  0  0  0  0  0  0  0
   -6.4000    8.3140    0.0000 H   0  0  0  0  0  0  0  0  0  0  0  0
   -4.0001    6.9282    0.0000 C   0  0  0  0  0  0  0  0  0  0  0  0
   -4.7999    5.5425    0.0000 H   0  0  0  0  0  0  0  0  0  0  0  0
    2.3999    4.1568    0.0000 O   0  0  0  0  0  0  0  0  0  0  0  0
    3.2000    5.5425    0.0000 C   0  0  0  0  0  0  0  0  0  0  0  0
    2.9913    7.1290    0.0000 H   0  0  0  0  0  0  0  0  0  0  0  0
    1.9307    6.5166    0.0000 H   0  0  0  0  0  0  0  0  0  0  0  0
    4.8001    5.5425    0.0000 C   0  0  0  0  0  0  0  0  0  0  0  0
    5.5999    6.9282    0.0000 C   0  0  0  0  0  0  0  0  0  0  0  0
    4.8001    8.3140    0.0000 H   0  0  0  0  0  0  0  0  0  0  0  0
    7.2001    6.9282    0.0000 C   0  0  0  0  0  0  0  0  0  0  0  0
    8.0001    8.3140    0.0000 H   0  0  0  0  0  0  0  0  0  0  0  0
    8.0001    5.5425    0.0000 C   0  0  0  0  0  0  0  0  0  0  0  0
    9.6000    5.5425    0.0000 H   0  0  0  0  0  0  0  0  0  0  0  0
    7.2001    4.1568    0.0000 C   0  0  0  0  0  0  0  0  0  0  0  0
    8.0001    2.7714    0.0000 H   0  0  0  0  0  0  0  0  0  0  0  0
    5.5999    4.1568    0.0000 C   0  0  0  0  0  0  0  0  0  0  0  0
    4.8001    2.7714    0.0000 H   0  0  0  0  0  0  0  0  0  0  0  0
    0.0000   -0.0000    0.0000 C   0  0  0  0  0  0  0  0  0  0  0  0
    0.8001   -1.3857    0.0000 C   0  0  0  0  0  0  0  0  0  0  0  0
    2.3999   -1.3857    0.0000 H   0  0  0  0  0  0  0  0  0  0  0  0
    0.0000   -2.7712    0.0000 C   0  0  0  0  0  0  0  0  0  0  0  0
    0.8001   -4.1569    0.0000 H   0  0  0  0  0  0  0  0  0  0  0  0
   -1.5999   -2.7712    0.0000 C   0  0  0  0  0  0  0  0  0  0  0  0
   -2.3999   -4.1569    0.0000 H   0  0  0  0  0  0  0  0  0  0  0  0
   -2.3999   -1.3857    0.0000 C   0  0  0  0  0  0  0  0  0  0  0  0
   -4.0001   -1.3857    0.0000 H   0  0  0  0  0  0  0  0  0  0  0  0
   -1.5999   -0.0000    0.0000 C   0  0  0  0  0  0  0  0  0  0  0  0
   -2.3999    1.3857    0.0000 H   0  0  0  0  0  0  0  0  0  0  0  0
  1  2  1  0  0  0  0
  1  3  1  0  0  0  0
  1  4  1  0  0  0  0
  4  5  1  0  0  0  0
  5  6  1  0  0  0  0
  6  7  1  0  0  0  0
  7  8  1  0  0  0  0
  7  9  1  0  0  0  0
  7 10  1  0  0  0  0
 10 11  1  0  0  0  0
 11 12  1  0  0  0  0
 11 13  2  0  0  0  0
 13 14  1  0  0  0  0
 13 15  1  0  0  0  0
 15 16  1  0  0  0  0
 15 17  2  0  0  0  0
 17 18  1  0  0  0  0
 17 19  1  0  0  0  0
 19 10  2  0  0  0  0
 19 20  1  0  0  0  0
  5 21  1  0  0  0  0
 21 22  1  0  0  0  0
 22 23  1  0  0  0  0
 22 24  1  0  0  0  0
 22 25  1  0  0  0  0
 25 26  1  0  0  0  0
 26 27  1  0  0  0  0
 26 28  2  0  0  0  0
 28 29  1  0  0  0  0
 28 30  1  0  0  0  0
 30 31  1  0  0  0  0
 30 32  2  0  0  0  0
 32 33  1  0  0  0  0
 32 34  1  0  0  0  0
 34 25  2  0  0  0  0
 34 35  1  0  0  0  0
  1 36  1  0  0  0  0
 36 37  1  0  0  0  0
 37 38  1  0  0  0  0
 37 39  2  0  0  0  0
 39 40  1  0  0  0  0
 39 41  1  0  0  0  0
 41 42  1  0  0  0  0
 41 43  2  0  0  0  0
 43 44  1  0  0  0  0
 43 45  1  0  0  0  0
 45 36  2  0  0  0  0
 45 46  1  0  0  0  0
M  END
> <ChemID>
201291

> <source_casrn>


> <CAS>
15205-57-9

> <SMILES>
C(OP(OCc1ccccc1)OCc2ccccc2)c3ccccc3

> <NAME>


> <preferred_name>


> <iupac>


> <MPID>
101211

> <dsstox_substance_id>


> <Canonical_QSARr>
C(OP(OCc1ccccc1)OCc1ccccc1)c1ccccc1

> <InChI_Code_QSARr>
InChI=1S/C21H21O3P/c1-4-10-19(11-5-1)16-22-25(23-17-20-12-6-2-7-13-20)24-18-21-14-8-3-9-15-21/h1-15H,16-18H2

> <InChI Key_QSARr>
KKFOMYPMTJLQGA-UHFFFAOYSA-N

> <Salt_Solvent>


> <Ready_Biodeg>
1.0

$$$$
201294
  -INDIGO-08031722522D

 22 24  0  0  0  0  0  0  0  0999 V2000
    0.0001    1.6000    0.0000 C   0  0  0  0  0  0  0  0  0  0  0  0
    0.5473    3.1035    0.0000 H   0  0  0  0  0  0  0  0  0  0  0  0
    1.0285    1.7813    0.0000 H   0  0  0  0  0  0  0  0  0  0  0  0
   -1.3856    2.4000    0.0000 C   0  0  0  0  0  0  0  0  0  0  0  0
   -0.3572    3.6257    0.0000 H   0  0  0  0  0  0  0  0  0  0  0  0
   -2.4141    3.6257    0.0000 H   0  0  0  0  0  0  0  0  0  0  0  0
   -2.7712    1.6000    0.0000 C   0  0  0  0  0  0  0  0  0  0  0  0
   -3.5712    2.9856    0.0000 H   0  0  0  0  0  0  0  0  0  0  0  0
   -4.1569    0.8000    0.0000 O   0  0  0  0  0  0  0  0  0  0  0  0
   -2.7712   -0.0000    0.0000 C   0  0  0  0  0  0  0  0  0  0  0  0
   -3.5712   -1.3857    0.0000 H   0  0  0  0  0  0  0  0  0  0  0  0
   -1.3856   -0.8000    0.0000 C   0  0  0  0  0  0  0  0  0  0  0  0
   -2.4141   -2.0257    0.0000 H   0  0  0  0  0  0  0  0  0  0  0  0
   -0.3572   -2.0257    0.0000 H   0  0  0  0  0  0  0  0  0  0  0  0
    0.0001   -0.0000    0.0000 C   0  0  0  0  0  0  0  0  0  0  0  0
    0.5473   -1.5035    0.0000 H   0  0  0  0  0  0  0  0  0  0  0  0
    1.5757    0.2778    0.0000 C   0  0  0  0  0  0  0  0  0  0  0  0
    1.5757    1.3221    0.0000 H   0  0  0  0  0  0  0  0  0  0  0  0
    2.8014   -0.7506    0.0000 C   0  0  0  0  0  0  0  0  0  0  0  0
    2.0014   -2.1363    0.0000 H   0  0  0  0  0  0  0  0  0  0  0  0
    4.3049   -1.2978    0.0000 H   0  0  0  0  0  0  0  0  0  0  0  0
    3.0791    0.8251    0.0000 O   0  0  0  0  0  0  0  0  0  0  0  0
  1  2  1  0  0  0  0
  1  3  1  0  0  0  0
  1  4  1  0  0  0  0
  4  5  1  0  0  0  0
  4  6  1  0  0  0  0
  4  7  1  0  0  0  0
  7  8  1  0  0  0  0
  7  9  1  0  0  0  0
  9 10  1  0  0  0  0
 10  7  1  0  0  0  0
 10 11  1  0  0  0  0
 10 12  1  0  0  0  0
 12 13  1  0  0  0  0
 12 14  1  0  0  0  0
 12 15  1  0  0  0  0
 15  1  1  0  0  0  0
 15 16  1  0  0  0  0
 15 17  1  0  0  0  0
 17 18  1  0  0  0  0
 17 19  1  0  0  0  0
 19 20  1  0  0  0  0
 19 21  1  0  0  0  0
 19 22  1  0  0  0  0
 22 17  1  0  0  0  0
M  END
> <ChemID>
201294

> <source_casrn>
106-87-6

> <CAS>
106-87-6

> <SMILES>
C1CC2OC2CC1C3CO3

> <NAME>


> <preferred_name>
4-Vinyl-1-cyclohexene dioxide

> <iupac>
3-(oxiran-2-yl)-7-oxabicyclo[4.1.0]heptane

> <MPID>
101213

> <dsstox_substance_id>
DTXSID0020604

> <Canonical_QSARr>
C1C2OC2CCC1C1CO1

> <InChI_Code_QSARr>
InChI=1S/C8H12O2/c1-2-6-7(10-6)3-5(1)8-4-9-8/h5-8H,1-4H2

> <InChI Key_QSARr>
OECTYKWYRCHAKR-UHFFFAOYSA-N

> <Salt_Solvent>


> <Ready_Biodeg>
0.0

$$$$
201297
  -INDIGO-08031722522D

 40 42  0  0  0  0  0  0  0  0999 V2000
    8.2961   -3.8273    0.0000 C   0  0  0  0  0  0  0  0  0  0  0  0
    9.7997   -4.3746    0.0000 H   0  0  0  0  0  0  0  0  0  0  0  0
    8.0183   -5.4030    0.0000 H   0  0  0  0  0  0  0  0  0  0  0  0
    9.0961   -2.4417    0.0000 C   0  0  0  0  0  0  0  0  0  0  0  0
   10.3218   -3.4702    0.0000 H   0  0  0  0  0  0  0  0  0  0  0  0
   10.3218   -1.4133    0.0000 H   0  0  0  0  0  0  0  0  0  0  0  0
    8.2961   -1.0560    0.0000 C   0  0  0  0  0  0  0  0  0  0  0  0
    9.0961    0.3296    0.0000 H   0  0  0  0  0  0  0  0  0  0  0  0
    6.6961   -1.0560    0.0000 C   0  0  0  0  0  0  0  0  0  0  0  0
    5.8962    0.3296    0.0000 H   0  0  0  0  0  0  0  0  0  0  0  0
    5.8962   -2.4417    0.0000 C   0  0  0  0  0  0  0  0  0  0  0  0
    4.6704   -3.4702    0.0000 H   0  0  0  0  0  0  0  0  0  0  0  0
    4.5105   -1.6417    0.0000 C   0  0  0  0  0  0  0  0  0  0  0  0
    4.2327   -0.0660    0.0000 C   0  0  0  0  0  0  0  0  0  0  0  0
    5.2611    1.1597    0.0000 H   0  0  0  0  0  0  0  0  0  0  0  0
    2.7292    0.4812    0.0000 C   0  0  0  0  0  0  0  0  0  0  0  0
    2.4514    2.0569    0.0000 H   0  0  0  0  0  0  0  0  0  0  0  0
    1.5035   -0.5473    0.0000 C   0  0  0  0  0  0  0  0  0  0  0  0
   -0.0001    0.0000    0.0000 C   0  0  0  0  0  0  0  0  0  0  0  0
    1.2257    1.0285    0.0000 H   0  0  0  0  0  0  0  0  0  0  0  0
   -0.8000    1.3856    0.0000 C   0  0  0  0  0  0  0  0  0  0  0  0
    0.7035    1.9329    0.0000 H   0  0  0  0  0  0  0  0  0  0  0  0
   -1.0779    2.9613    0.0000 H   0  0  0  0  0  0  0  0  0  0  0  0
   -2.4000    1.3856    0.0000 C   0  0  0  0  0  0  0  0  0  0  0  0
   -2.1222    2.9613    0.0000 H   0  0  0  0  0  0  0  0  0  0  0  0
   -3.9036    1.9329    0.0000 H   0  0  0  0  0  0  0  0  0  0  0  0
   -3.2000    0.0000    0.0000 C   0  0  0  0  0  0  0  0  0  0  0  0
   -4.8000    0.0000    0.0000 H   0  0  0  0  0  0  0  0  0  0  0  0
   -2.4000   -1.3857    0.0000 C   0  0  0  0  0  0  0  0  0  0  0  0
   -3.2000   -2.7713    0.0000 H   0  0  0  0  0  0  0  0  0  0  0  0
   -0.8000   -1.3857    0.0000 C   0  0  0  0  0  0  0  0  0  0  0  0
   -1.0779   -2.9613    0.0000 H   0  0  0  0  0  0  0  0  0  0  0  0
    0.7035   -1.9328    0.0000 H   0  0  0  0  0  0  0  0  0  0  0  0
    1.7813   -2.1229    0.0000 C   0  0  0  0  0  0  0  0  0  0  0  0
    0.5556   -3.1513    0.0000 H   0  0  0  0  0  0  0  0  0  0  0  0
    3.2848   -2.6702    0.0000 C   0  0  0  0  0  0  0  0  0  0  0  0
    3.5626   -4.2458    0.0000 H   0  0  0  0  0  0  0  0  0  0  0  0
    6.6961   -3.8273    0.0000 C   0  0  0  0  0  0  0  0  0  0  0  0
    5.1926   -4.3746    0.0000 H   0  0  0  0  0  0  0  0  0  0  0  0
    6.9740   -5.4030    0.0000 H   0  0  0  0  0  0  0  0  0  0  0  0
  1  2  1  0  0  0  0
  1  3  1  0  0  0  0
  1  4  1  0  0  0  0
  4  5  1  0  0  0  0
  4  6  1  0  0  0  0
  4  7  1  0  0  0  0
  7  8  1  0  0  0  0
  7  9  2  0  0  0  0
  9 10  1  0  0  0  0
  9 11  1  0  0  0  0
 11 12  1  0  0  0  0
 11 13  1  0  0  0  0
 13 14  1  0  0  0  0
 14 15  1  0  0  0  0
 14 16  2  0  0  0  0
 16 17  1  0  0  0  0
 16 18  1  0  0  0  0
 18 19  1  0  0  0  0
 19 20  1  0  0  0  0
 19 21  1  0  0  0  0
 21 22  1  0  0  0  0
 21 23  1  0  0  0  0
 21 24  1  0  0  0  0
 24 25  1  0  0  0  0
 24 26  1  0  0  0  0
 24 27  1  0  0  0  0
 27 28  1  0  0  0  0
 27 29  2  0  0  0  0
 29 30  1  0  0  0  0
 29 31  1  0  0  0  0
 31 19  1  0  0  0  0
 31 32  1  0  0  0  0
 31 33  1  0  0  0  0
 18 34  2  0  0  0  0
 34 35  1  0  0  0  0
 34 36  1  0  0  0  0
 36 13  2  0  0  0  0
 36 37  1  0  0  0  0
 11 38  1  0  0  0  0
 38  1  1  0  0  0  0
 38 39  1  0  0  0  0
 38 40  1  0  0  0  0
M  END
> <ChemID>
201297

> <source_casrn>
61788-32-7

> <CAS>
61788-32-7

> <SMILES>
C1CC=CC(C1)c2ccc(cc2)C3CCC=CC3

> <NAME>


> <preferred_name>
Terphenyl, hydrogenated

> <iupac>
1-(cyclohex-2-en-1-yl)-4-(cyclohex-3-en-1-yl)benzene

> <MPID>
101215

> <dsstox_substance_id>
DTXSID3028051

> <Canonical_QSARr>
C1C=CCCC1c1ccc(cc1)C1CCCC=C1

> <InChI_Code_QSARr>
InChI=1S/C18H22/c1-3-7-15(8-4-1)17-11-13-18(14-12-17)16-9-5-2-6-10-16/h1,3,5,9,11-16H,2,4,6-8,10H2

> <InChI Key_QSARr>
TVBYFUMVFJKKNJ-UHFFFAOYSA-N

> <Salt_Solvent>


> <Ready_Biodeg>
0.0

$$$$
201298
  -INDIGO-08031722522D

 20 20  0  0  0  0  0  0  0  0999 V2000
    0.0000    0.0000    0.0000 C   0  0  0  0  0  0  0  0  0  0  0  0
    0.8000    1.3856    0.0000 H   0  0  0  0  0  0  0  0  0  0  0  0
    1.5455   -0.4141    0.0000 H   0  0  0  0  0  0  0  0  0  0  0  0
   -1.1314    1.1314    0.0000 C   0  0  0  0  0  0  0  0  0  0  0  0
   -0.5191    2.6096    0.0000 H   0  0  0  0  0  0  0  0  0  0  0  0
   -2.7314    1.1314    0.0000 C   0  0  0  0  0  0  0  0  0  0  0  0
   -3.3437    2.6096    0.0000 H   0  0  0  0  0  0  0  0  0  0  0  0
   -3.8628    0.0000    0.0000 C   0  0  0  0  0  0  0  0  0  0  0  0
   -4.6628    1.3856    0.0000 H   0  0  0  0  0  0  0  0  0  0  0  0
   -5.4567   -0.1394    0.0000 H   0  0  0  0  0  0  0  0  0  0  0  0
   -3.8628   -1.6000    0.0000 C   0  0  0  0  0  0  0  0  0  0  0  0
   -5.4082   -1.1859    0.0000 H   0  0  0  0  0  0  0  0  0  0  0  0
   -4.6628   -2.9856    0.0000 H   0  0  0  0  0  0  0  0  0  0  0  0
   -2.7314   -2.7314    0.0000 C   0  0  0  0  0  0  0  0  0  0  0  0
   -3.3437   -4.2096    0.0000 H   0  0  0  0  0  0  0  0  0  0  0  0
   -1.1314   -2.7314    0.0000 C   0  0  0  0  0  0  0  0  0  0  0  0
   -0.5191   -4.2096    0.0000 H   0  0  0  0  0  0  0  0  0  0  0  0
    0.0000   -1.6000    0.0000 C   0  0  0  0  0  0  0  0  0  0  0  0
    0.8000   -2.9856    0.0000 H   0  0  0  0  0  0  0  0  0  0  0  0
    1.5939   -1.4606    0.0000 H   0  0  0  0  0  0  0  0  0  0  0  0
  1  2  1  0  0  0  0
  1  3  1  0  0  0  0
  1  4  1  0  0  0  0
  4  5  1  0  0  0  0
  4  6  2  0  0  0  0
  6  7  1  0  0  0  0
  6  8  1  0  0  0  0
  8  9  1  0  0  0  0
  8 10  1  0  0  0  0
  8 11  1  0  0  0  0
 11 12  1  0  0  0  0
 11 13  1  0  0  0  0
 11 14  1  0  0  0  0
 14 15  1  0  0  0  0
 14 16  2  0  0  0  0
 16 17  1  0  0  0  0
 16 18  1  0  0  0  0
 18  1  1  0  0  0  0
 18 19  1  0  0  0  0
 18 20  1  0  0  0  0
M  END
> <ChemID>
201298

> <source_casrn>
111-78-4

> <CAS>
111-78-4

> <SMILES>
C\1C\C=C/CC\C=C1

> <NAME>


> <preferred_name>
1,5-Cyclooctadiene

> <iupac>
(1Z,5Z)-cycloocta-1,5-diene

> <MPID>
101216

> <dsstox_substance_id>
DTXSID0026888

> <Canonical_QSARr>
C1CC=CCCC=C1

> <InChI_Code_QSARr>
InChI=1S/C8H12/c1-2-4-6-8-7-5-3-1/h1-2,7-8H,3-6H2/b2-1-,8-7-

> <InChI Key_QSARr>
VYXHVRARDIDEHS-QGTKBVGQSA-N

> <Salt_Solvent>


> <Ready_Biodeg>
0.0

$$$$
201301
  -INDIGO-08031722522D

 16 16  0  0  0  0  0  0  0  0999 V2000
   -0.0000    0.0000    0.0000 C   0  0  0  0  0  0  0  0  0  0  0  0
    0.2778    1.5757    0.0000 H   0  0  0  0  0  0  0  0  0  0  0  0
   -1.5035    0.5473    0.0000 H   0  0  0  0  0  0  0  0  0  0  0  0
    1.6000    0.0000    0.0000 C   0  0  0  0  0  0  0  0  0  0  0  0
    1.3222    1.5757    0.0000 H   0  0  0  0  0  0  0  0  0  0  0  0
    3.1035    0.5473    0.0000 H   0  0  0  0  0  0  0  0  0  0  0  0
    2.4000   -1.3857    0.0000 C   0  0  0  0  0  0  0  0  0  0  0  0
    3.6257   -0.3572    0.0000 H   0  0  0  0  0  0  0  0  0  0  0  0
    3.6257   -2.4141    0.0000 H   0  0  0  0  0  0  0  0  0  0  0  0
    1.6000   -2.7712    0.0000 C   0  0  0  0  0  0  0  0  0  0  0  0
    2.4000   -4.1569    0.0000 H   0  0  0  0  0  0  0  0  0  0  0  0
   -0.0000   -2.7712    0.0000 C   0  0  0  0  0  0  0  0  0  0  0  0
   -0.8000   -4.1569    0.0000 H   0  0  0  0  0  0  0  0  0  0  0  0
   -0.8000   -1.3857    0.0000 C   0  0  0  0  0  0  0  0  0  0  0  0
   -2.0257   -2.4141    0.0000 H   0  0  0  0  0  0  0  0  0  0  0  0
   -2.0257   -0.3572    0.0000 H   0  0  0  0  0  0  0  0  0  0  0  0
  1  2  1  0  0  0  0
  1  3  1  0  0  0  0
  1  4  1  0  0  0  0
  4  5  1  0  0  0  0
  4  6  1  0  0  0  0
  4  7  1  0  0  0  0
  7  8  1  0  0  0  0
  7  9  1  0  0  0  0
  7 10  1  0  0  0  0
 10 11  1  0  0  0  0
 10 12  2  0  0  0  0
 12 13  1  0  0  0  0
 12 14  1  0  0  0  0
 14  1  1  0  0  0  0
 14 15  1  0  0  0  0
 14 16  1  0  0  0  0
M  END
> <ChemID>
201301

> <source_casrn>
110-83-8

> <CAS>
110-83-8

> <SMILES>
C1CCC=CC1

> <NAME>


> <preferred_name>
Cyclohexene

> <iupac>
cyclohexene

> <MPID>
101217

> <dsstox_substance_id>
DTXSID9038717

> <Canonical_QSARr>
C1CCCC=C1

> <InChI_Code_QSARr>
InChI=1S/C6H10/c1-2-4-6-5-3-1/h1-2H,3-6H2

> <InChI Key_QSARr>
HGCIXCUEYOPUTN-UHFFFAOYSA-N

> <Salt_Solvent>


> <Ready_Biodeg>
0.0

$$$$
201303
  -INDIGO-08031722522D

 49 52  0  0  0  0  0  0  0  0999 V2000
    0.0001    3.2000    0.0000 C   0  0  0  0  0  0  0  0  0  0  0  0
    1.0284    4.4257    0.0000 H   0  0  0  0  0  0  0  0  0  0  0  0
   -1.0285    4.4257    0.0000 H   0  0  0  0  0  0  0  0  0  0  0  0
    1.3856    2.4001    0.0000 C   0  0  0  0  0  0  0  0  0  0  0  0
    1.9328    3.9035    0.0000 H   0  0  0  0  0  0  0  0  0  0  0  0
    2.9613    2.1222    0.0000 H   0  0  0  0  0  0  0  0  0  0  0  0
    1.3856    0.8000    0.0000 C   0  0  0  0  0  0  0  0  0  0  0  0
    2.9613    1.0779    0.0000 H   0  0  0  0  0  0  0  0  0  0  0  0
    1.9328   -0.7035    0.0000 H   0  0  0  0  0  0  0  0  0  0  0  0
    0.0001   -0.0001    0.0000 C   0  0  0  0  0  0  0  0  0  0  0  0
   -1.0285   -1.2256    0.0000 H   0  0  0  0  0  0  0  0  0  0  0  0
    0.7999   -1.3857    0.0000 N   0  0  0  0  0  0  0  0  0  0  0  0
    0.0001   -2.7712    0.0000 S   0  0  0  0  0  0  0  0  0  0  0  0
   -1.6000   -2.7712    0.0000 C   0  0  0  0  0  0  0  0  0  0  0  0
   -2.5404   -4.0658    0.0000 S   0  0  0  0  0  0  0  0  0  0  0  0
   -4.0622   -3.5713    0.0000 C   0  0  0  0  0  0  0  0  0  0  0  0
   -5.4479   -4.3713    0.0000 C   0  0  0  0  0  0  0  0  0  0  0  0
   -5.4479   -5.9713    0.0000 H   0  0  0  0  0  0  0  0  0  0  0  0
   -6.8334   -3.5713    0.0000 C   0  0  0  0  0  0  0  0  0  0  0  0
   -8.2191   -4.3713    0.0000 H   0  0  0  0  0  0  0  0  0  0  0  0
   -6.8334   -1.9714    0.0000 C   0  0  0  0  0  0  0  0  0  0  0  0
   -8.2191   -1.1713    0.0000 H   0  0  0  0  0  0  0  0  0  0  0  0
   -5.4479   -1.1713    0.0000 C   0  0  0  0  0  0  0  0  0  0  0  0
   -5.4479    0.4288    0.0000 H   0  0  0  0  0  0  0  0  0  0  0  0
   -4.0622   -1.9714    0.0000 C   0  0  0  0  0  0  0  0  0  0  0  0
   -2.5404   -1.4769    0.0000 N   0  0  0  0  0  0  0  0  0  0  0  0
    2.3757   -1.6635    0.0000 C   0  0  0  0  0  0  0  0  0  0  0  0
    2.6534   -0.0878    0.0000 H   0  0  0  0  0  0  0  0  0  0  0  0
    1.5756   -3.0491    0.0000 C   0  0  0  0  0  0  0  0  0  0  0  0
    0.3501   -2.0207    0.0000 H   0  0  0  0  0  0  0  0  0  0  0  0
    0.3501   -4.0775    0.0000 H   0  0  0  0  0  0  0  0  0  0  0  0
    2.3757   -4.4347    0.0000 C   0  0  0  0  0  0  0  0  0  0  0  0
    0.8722   -4.9820    0.0000 H   0  0  0  0  0  0  0  0  0  0  0  0
    2.6534   -6.0105    0.0000 H   0  0  0  0  0  0  0  0  0  0  0  0
    3.9758   -4.4347    0.0000 C   0  0  0  0  0  0  0  0  0  0  0  0
    3.6978   -6.0105    0.0000 H   0  0  0  0  0  0  0  0  0  0  0  0
    5.4793   -4.9820    0.0000 H   0  0  0  0  0  0  0  0  0  0  0  0
    4.7756   -3.0491    0.0000 C   0  0  0  0  0  0  0  0  0  0  0  0
    6.0014   -4.0775    0.0000 H   0  0  0  0  0  0  0  0  0  0  0  0
    6.0014   -2.0207    0.0000 H   0  0  0  0  0  0  0  0  0  0  0  0
    3.9758   -1.6635    0.0000 C   0  0  0  0  0  0  0  0  0  0  0  0
    5.4793   -1.1162    0.0000 H   0  0  0  0  0  0  0  0  0  0  0  0
    3.6978   -0.0878    0.0000 H   0  0  0  0  0  0  0  0  0  0  0  0
   -1.3856    0.8000    0.0000 C   0  0  0  0  0  0  0  0  0  0  0  0
   -1.9329   -0.7035    0.0000 H   0  0  0  0  0  0  0  0  0  0  0  0
   -2.9614    1.0779    0.0000 H   0  0  0  0  0  0  0  0  0  0  0  0
   -1.3856    2.4001    0.0000 C   0  0  0  0  0  0  0  0  0  0  0  0
   -2.9614    2.1222    0.0000 H   0  0  0  0  0  0  0  0  0  0  0  0
   -1.9329    3.9035    0.0000 H   0  0  0  0  0  0  0  0  0  0  0  0
  1  2  1  0  0  0  0
  1  3  1  0  0  0  0
  1  4  1  0  0  0  0
  4  5  1  0  0  0  0
  4  6  1  0  0  0  0
  4  7  1  0  0  0  0
  7  8  1  0  0  0  0
  7  9  1  0  0  0  0
  7 10  1  0  0  0  0
 10 11  1  0  0  0  0
 10 12  1  0  0  0  0
 12 13  1  0  0  0  0
 13 14  1  0  0  0  0
 14 15  1  0  0  0  0
 15 16  1  0  0  0  0
 16 17  1  0  0  0  0
 17 18  1  0  0  0  0
 17 19  2  0  0  0  0
 19 20  1  0  0  0  0
 19 21  1  0  0  0  0
 21 22  1  0  0  0  0
 21 23  2  0  0  0  0
 23 24  1  0  0  0  0
 23 25  1  0  0  0  0
 25 16  2  0  0  0  0
 25 26  1  0  0  0  0
 26 14  2  0  0  0  0
 12 27  1  0  0  0  0
 27 28  1  0  0  0  0
 27 29  1  0  0  0  0
 29 30  1  0  0  0  0
 29 31  1  0  0  0  0
 29 32  1  0  0  0  0
 32 33  1  0  0  0  0
 32 34  1  0  0  0  0
 32 35  1  0  0  0  0
 35 36  1  0  0  0  0
 35 37  1  0  0  0  0
 35 38  1  0  0  0  0
 38 39  1  0  0  0  0
 38 40  1  0  0  0  0
 38 41  1  0  0  0  0
 41 27  1  0  0  0  0
 41 42  1  0  0  0  0
 41 43  1  0  0  0  0
 10 44  1  0  0  0  0
 44 45  1  0  0  0  0
 44 46  1  0  0  0  0
 44 47  1  0  0  0  0
 47  1  1  0  0  0  0
 47 48  1  0  0  0  0
 47 49  1  0  0  0  0
M  END
> <ChemID>
201303

> <source_casrn>
4979-32-2

> <CAS>
4979-32-2

> <SMILES>
C1CCC(CC1)N(Sc2sc3ccccc3n2)C4CCCCC4

> <NAME>


> <preferred_name>
N,N-Dicyclohexyl-2-benzothiazolesulfenamide

> <iupac>
N-(1,3-benzothiazol-2-ylsulfanyl)-N-cyclohexylcyclohexanamine

> <MPID>
101218

> <dsstox_substance_id>
DTXSID3027584

> <Canonical_QSARr>
C1CCCCC1N(Sc1[n]c2ccccc2[s]1)C1CCCCC1

> <InChI_Code_QSARr>
InChI=1S/C19H26N2S2/c1-3-9-15(10-4-1)21(16-11-5-2-6-12-16)23-19-20-17-13-7-8-14-18(17)22-19/h7-8,13-16H,1-6,9-12H2

> <InChI Key_QSARr>
CMAUJSNXENPPOF-UHFFFAOYSA-N

> <Salt_Solvent>


> <Ready_Biodeg>
0.0

$$$$
201310
  -INDIGO-08031722522D

 27 28  0  0  0  0  0  0  0  0999 V2000
    3.5050    0.8000    0.0000 C   0  0  0  0  0  0  0  0  0  0  0  0
    4.7559    1.7975    0.0000 H   0  0  0  0  0  0  0  0  0  0  0  0
    4.9102    0.0348    0.0000 H   0  0  0  0  0  0  0  0  0  0  0  0
    2.8108   -0.6415    0.0000 C   0  0  0  0  0  0  0  0  0  0  0  0
    3.0887   -2.2172    0.0000 H   0  0  0  0  0  0  0  0  0  0  0  0
    4.3707   -0.9976    0.0000 H   0  0  0  0  0  0  0  0  0  0  0  0
    1.2510   -0.9976    0.0000 C   0  0  0  0  0  0  0  0  0  0  0  0
    0.0000   -1.9952    0.0000 H   0  0  0  0  0  0  0  0  0  0  0  0
    1.9451   -2.4391    0.0000 H   0  0  0  0  0  0  0  0  0  0  0  0
    0.0000   -0.0000    0.0000 N   0  0  0  0  0  0  0  0  0  0  0  0
   -1.3857   -0.8000    0.0000 C   0  0  0  0  0  0  0  0  0  0  0  0
   -2.4140   -2.0257    0.0000 H   0  0  0  0  0  0  0  0  0  0  0  0
   -1.1079   -2.3757    0.0000 H   0  0  0  0  0  0  0  0  0  0  0  0
   -2.7713   -0.0000    0.0000 C   0  0  0  0  0  0  0  0  0  0  0  0
   -4.3470    0.2778    0.0000 H   0  0  0  0  0  0  0  0  0  0  0  0
   -3.3185   -1.5035    0.0000 H   0  0  0  0  0  0  0  0  0  0  0  0
   -2.7713    1.6000    0.0000 C   0  0  0  0  0  0  0  0  0  0  0  0
   -3.3185    3.1035    0.0000 H   0  0  0  0  0  0  0  0  0  0  0  0
   -4.3470    1.3222    0.0000 H   0  0  0  0  0  0  0  0  0  0  0  0
   -1.3857    2.4000    0.0000 N   0  0  0  0  0  0  0  0  0  0  0  0
    0.0000    1.6000    0.0000 C   0  0  0  0  0  0  0  0  0  0  0  0
    1.2510    2.5976    0.0000 C   0  0  0  0  0  0  0  0  0  0  0  0
    1.6843    4.1378    0.0000 H   0  0  0  0  0  0  0  0  0  0  0  0
    0.0000    3.5951    0.0000 H   0  0  0  0  0  0  0  0  0  0  0  0
    2.8108    2.2415    0.0000 C   0  0  0  0  0  0  0  0  0  0  0  0
    4.2851    2.8630    0.0000 H   0  0  0  0  0  0  0  0  0  0  0  0
    2.8108    3.8415    0.0000 H   0  0  0  0  0  0  0  0  0  0  0  0
  1  2  1  0  0  0  0
  1  3  1  0  0  0  0
  1  4  1  0  0  0  0
  4  5  1  0  0  0  0
  4  6  1  0  0  0  0
  4  7  1  0  0  0  0
  7  8  1  0  0  0  0
  7  9  1  0  0  0  0
  7 10  1  0  0  0  0
 10 11  1  0  0  0  0
 11 12  1  0  0  0  0
 11 13  1  0  0  0  0
 11 14  1  0  0  0  0
 14 15  1  0  0  0  0
 14 16  1  0  0  0  0
 14 17  1  0  0  0  0
 17 18  1  0  0  0  0
 17 19  1  0  0  0  0
 17 20  1  0  0  0  0
 20 21  2  0  0  0  0
 21 10  1  0  0  0  0
 21 22  1  0  0  0  0
 22 23  1  0  0  0  0
 22 24  1  0  0  0  0
 22 25  1  0  0  0  0
 25  1  1  0  0  0  0
 25 26  1  0  0  0  0
 25 27  1  0  0  0  0
M  END
> <ChemID>
201310

> <source_casrn>
6674-22-2

> <CAS>
6674-22-2

> <SMILES>
C1CCN2CCCN=C2CC1

> <NAME>


> <preferred_name>
1,8-Diazabicyclo[5.4.0]undec-7-ene

> <iupac>
2,3,4,6,7,8,9,10-octahydropyrimido[1,2-a]azepine

> <MPID>
101219

> <dsstox_substance_id>
DTXSID2049424

> <Canonical_QSARr>
C1CCN2CCCCCC2=N1

> <InChI_Code_QSARr>
InChI=1S/C9H16N2/c1-2-5-9-10-6-4-8-11(9)7-3-1/h1-8H2

> <InChI Key_QSARr>
GQHTUMJGOHRCHB-UHFFFAOYSA-N

> <Salt_Solvent>


> <Ready_Biodeg>
0.0

$$$$
201311
  -INDIGO-08031722522D

 20 21  0  0  0  0  0  0  0  0999 V2000
    1.3857    0.8000    0.0000 C   0  0  0  0  0  0  0  0  0  0  0  0
    2.9613    1.0779    0.0000 H   0  0  0  0  0  0  0  0  0  0  0  0
    2.0321    0.1715    0.0000 H   0  0  0  0  0  0  0  0  0  0  0  0
    1.3857    2.4000    0.0000 C   0  0  0  0  0  0  0  0  0  0  0  0
    2.9613    2.1221    0.0000 H   0  0  0  0  0  0  0  0  0  0  0  0
    2.1857    3.7856    0.0000 H   0  0  0  0  0  0  0  0  0  0  0  0
    0.0000    3.2000    0.0000 N   0  0  0  0  0  0  0  0  0  0  0  0
    0.6633    2.2000    0.0000 C   0  0  0  0  0  0  0  0  0  0  0  0
    2.1779    1.6840    0.0000 H   0  0  0  0  0  0  0  0  0  0  0  0
    1.1479    3.7249    0.0000 H   0  0  0  0  0  0  0  0  0  0  0  0
    0.6633    1.0000    0.0000 C   0  0  0  0  0  0  0  0  0  0  0  0
    0.8757   -0.5858    0.0000 H   0  0  0  0  0  0  0  0  0  0  0  0
    1.2021    0.2770    0.0000 H   0  0  0  0  0  0  0  0  0  0  0  0
   -0.0000   -0.0000    0.0000 N   0  0  0  0  0  0  0  0  0  0  0  0
   -1.3857    0.8000    0.0000 C   0  0  0  0  0  0  0  0  0  0  0  0
   -2.9613    1.0779    0.0000 H   0  0  0  0  0  0  0  0  0  0  0  0
   -1.9329   -0.7035    0.0000 H   0  0  0  0  0  0  0  0  0  0  0  0
   -1.3857    2.4000    0.0000 C   0  0  0  0  0  0  0  0  0  0  0  0
   -1.9329    3.9035    0.0000 H   0  0  0  0  0  0  0  0  0  0  0  0
   -2.9613    2.1221    0.0000 H   0  0  0  0  0  0  0  0  0  0  0  0
  1  2  1  0  0  0  0
  1  3  1  0  0  0  0
  1  4  1  0  0  0  0
  4  5  1  0  0  0  0
  4  6  1  0  0  0  0
  4  7  1  0  0  0  0
  7  8  1  0  0  0  0
  8  9  1  0  0  0  0
  8 10  1  0  0  0  0
  8 11  1  0  0  0  0
 11 12  1  0  0  0  0
 11 13  1  0  0  0  0
 11 14  1  0  0  0  0
 14  1  1  0  0  0  0
 14 15  1  0  0  0  0
 15 16  1  0  0  0  0
 15 17  1  0  0  0  0
 15 18  1  0  0  0  0
 18  7  1  0  0  0  0
 18 19  1  0  0  0  0
 18 20  1  0  0  0  0
M  END
> <ChemID>
201311

> <source_casrn>
280-57-9

> <CAS>
280-57-9

> <SMILES>
C1CN2CCN1CC2

> <NAME>


> <preferred_name>
1,4-Diazabicyclo[2.2.2]octane

> <iupac>
1,4-diazabicyclo[2.2.2]octane

> <MPID>
101220

> <dsstox_substance_id>
DTXSID0022016

> <Canonical_QSARr>
C1CN2CCN1CC2

> <InChI_Code_QSARr>
InChI=1S/C6H12N2/c1-2-8-5-3-7(1)4-6-8/h1-6H2

> <InChI Key_QSARr>
IMNIMPAHZVJRPE-UHFFFAOYSA-N

> <Salt_Solvent>


> <Ready_Biodeg>
0.0

$$$$
201313
  -INDIGO-08031722522D

  7  7  0  0  0  0  0  0  0  0999 V2000
    0.0000    0.0000    0.0000 C   0  0  0  0  0  0  0  0  0  0  0  0
    0.2779    1.5757    0.0000 H   0  0  0  0  0  0  0  0  0  0  0  0
    1.5035   -0.5472    0.0000 H   0  0  0  0  0  0  0  0  0  0  0  0
   -1.6000    0.0000    0.0000 C   0  0  0  0  0  0  0  0  0  0  0  0
   -1.8779    1.5757    0.0000 H   0  0  0  0  0  0  0  0  0  0  0  0
   -3.1035   -0.5472    0.0000 H   0  0  0  0  0  0  0  0  0  0  0  0
   -0.8000   -1.3856    0.0000 O   0  0  0  0  0  0  0  0  0  0  0  0
  1  2  1  0  0  0  0
  1  3  1  0  0  0  0
  1  4  1  0  0  0  0
  4  5  1  0  0  0  0
  4  6  1  0  0  0  0
  4  7  1  0  0  0  0
  7  1  1  0  0  0  0
M  END
> <ChemID>
201313

> <source_casrn>
75-21-8

> <CAS>
75-21-8

> <SMILES>
C1CO1

> <NAME>


> <preferred_name>
Ethylene oxide

> <iupac>
oxirane

> <MPID>
101221

> <dsstox_substance_id>
DTXSID0020600

> <Canonical_QSARr>
C1CO1

> <InChI_Code_QSARr>
InChI=1S/C2H4O/c1-2-3-1/h1-2H2

> <InChI Key_QSARr>
IAYPIBMASNFSPL-UHFFFAOYSA-N

> <Salt_Solvent>


> <Ready_Biodeg>
1.0

$$$$
201315
  -INDIGO-08031722522D

 30 31  0  0  0  0  0  0  0  0999 V2000
   -1.6000    2.7712    0.0000 C   0  0  0  0  0  0  0  0  0  0  0  0
   -1.3222    4.3470    0.0000 H   0  0  0  0  0  0  0  0  0  0  0  0
   -3.1035    3.3186    0.0000 H   0  0  0  0  0  0  0  0  0  0  0  0
   -0.0000    2.7712    0.0000 C   0  0  0  0  0  0  0  0  0  0  0  0
   -0.2778    4.3470    0.0000 H   0  0  0  0  0  0  0  0  0  0  0  0
    1.5035    3.3186    0.0000 H   0  0  0  0  0  0  0  0  0  0  0  0
    0.7999    1.3856    0.0000 N   0  0  0  0  0  0  0  0  0  0  0  0
    2.3999    1.3856    0.0000 S   0  0  0  0  0  0  0  0  0  0  0  0
    3.2001    0.0000    0.0000 S   0  0  0  0  0  0  0  0  0  0  0  0
    4.8001    0.0000    0.0000 N   0  0  0  0  0  0  0  0  0  0  0  0
    5.6000    1.3856    0.0000 C   0  0  0  0  0  0  0  0  0  0  0  0
    4.0965    1.9328    0.0000 H   0  0  0  0  0  0  0  0  0  0  0  0
    5.8778    2.9614    0.0000 H   0  0  0  0  0  0  0  0  0  0  0  0
    7.2000    1.3856    0.0000 C   0  0  0  0  0  0  0  0  0  0  0  0
    6.9222    2.9614    0.0000 H   0  0  0  0  0  0  0  0  0  0  0  0
    8.7035    1.9328    0.0000 H   0  0  0  0  0  0  0  0  0  0  0  0
    8.0000    0.0000    0.0000 O   0  0  0  0  0  0  0  0  0  0  0  0
    7.2000   -1.3856    0.0000 C   0  0  0  0  0  0  0  0  0  0  0  0
    8.7035   -1.9329    0.0000 H   0  0  0  0  0  0  0  0  0  0  0  0
    6.9222   -2.9613    0.0000 H   0  0  0  0  0  0  0  0  0  0  0  0
    5.6000   -1.3856    0.0000 C   0  0  0  0  0  0  0  0  0  0  0  0
    5.8778   -2.9613    0.0000 H   0  0  0  0  0  0  0  0  0  0  0  0
    4.0965   -1.9329    0.0000 H   0  0  0  0  0  0  0  0  0  0  0  0
   -0.0000    0.0000    0.0000 C   0  0  0  0  0  0  0  0  0  0  0  0
    1.5035   -0.5472    0.0000 H   0  0  0  0  0  0  0  0  0  0  0  0
   -0.2778   -1.5757    0.0000 H   0  0  0  0  0  0  0  0  0  0  0  0
   -1.6000    0.0000    0.0000 C   0  0  0  0  0  0  0  0  0  0  0  0
   -1.3222   -1.5757    0.0000 H   0  0  0  0  0  0  0  0  0  0  0  0
   -3.1035   -0.5472    0.0000 H   0  0  0  0  0  0  0  0  0  0  0  0
   -2.4000    1.3856    0.0000 O   0  0  0  0  0  0  0  0  0  0  0  0
  1  2  1  0  0  0  0
  1  3  1  0  0  0  0
  1  4  1  0  0  0  0
  4  5  1  0  0  0  0
  4  6  1  0  0  0  0
  4  7  1  0  0  0  0
  7  8  1  0  0  0  0
  8  9  1  0  0  0  0
  9 10  1  0  0  0  0
 10 11  1  0  0  0  0
 11 12  1  0  0  0  0
 11 13  1  0  0  0  0
 11 14  1  0  0  0  0
 14 15  1  0  0  0  0
 14 16  1  0  0  0  0
 14 17  1  0  0  0  0
 17 18  1  0  0  0  0
 18 19  1  0  0  0  0
 18 20  1  0  0  0  0
 18 21  1  0  0  0  0
 21 10  1  0  0  0  0
 21 22  1  0  0  0  0
 21 23  1  0  0  0  0
  7 24  1  0  0  0  0
 24 25  1  0  0  0  0
 24 26  1  0  0  0  0
 24 27  1  0  0  0  0
 27 28  1  0  0  0  0
 27 29  1  0  0  0  0
 27 30  1  0  0  0  0
 30  1  1  0  0  0  0
M  END
> <ChemID>
201315

> <source_casrn>
103-34-4

> <CAS>
103-34-4

> <SMILES>
C1CN(CCO1)SSN2CCOCC2

> <NAME>


> <preferred_name>
4,4'-Dithiodimorpholine

> <iupac>
4,4'-disulfanediyldimorpholine

> <MPID>
101222

> <dsstox_substance_id>
DTXSID8026698

> <Canonical_QSARr>
C1COCCN1SSN1CCOCC1

> <InChI_Code_QSARr>
InChI=1S/C8H16N2O2S2/c1-5-11-6-2-9(1)13-14-10-3-7-12-8-4-10/h1-8H2

> <InChI Key_QSARr>
HLBZWYXLQJQBKU-UHFFFAOYSA-N

> <Salt_Solvent>


> <Ready_Biodeg>
0.0

$$$$
201321
  -INDIGO-08031722522D

 15 14  0  0  0  0  0  0  0  0999 V2000
    2.7713    0.0000    0.0000 O   0  0  0  0  0  0  0  0  0  0  0  0
    4.1569    0.8000    0.0000 H   0  0  0  0  0  0  0  0  0  0  0  0
    1.3857    0.8000    0.0000 C   0  0  0  0  0  0  0  0  0  0  0  0
    1.3857    2.4000    0.0000 O   0  0  0  0  0  0  0  0  0  0  0  0
    0.0001    0.0000    0.0000 C   0  0  0  0  0  0  0  0  0  0  0  0
   -0.6122   -1.4782    0.0000 H   0  0  0  0  0  0  0  0  0  0  0  0
    0.6124   -1.4782    0.0000 H   0  0  0  0  0  0  0  0  0  0  0  0
   -1.3857    0.8000    0.0000 C   0  0  0  0  0  0  0  0  0  0  0  0
   -1.3857    2.4000    0.0000 C   0  0  0  0  0  0  0  0  0  0  0  0
   -2.7713    3.2000    0.0000 H   0  0  0  0  0  0  0  0  0  0  0  0
    0.0001    3.2000    0.0000 H   0  0  0  0  0  0  0  0  0  0  0  0
   -2.7713    0.0000    0.0000 C   0  0  0  0  0  0  0  0  0  0  0  0
   -4.1569    0.8000    0.0000 O   0  0  0  0  0  0  0  0  0  0  0  0
   -5.5426    0.0000    0.0000 H   0  0  0  0  0  0  0  0  0  0  0  0
   -2.7713   -1.6000    0.0000 O   0  0  0  0  0  0  0  0  0  0  0  0
  1  2  1  0  0  0  0
  1  3  1  0  0  0  0
  3  4  2  0  0  0  0
  3  5  1  0  0  0  0
  5  6  1  0  0  0  0
  5  7  1  0  0  0  0
  5  8  1  0  0  0  0
  8  9  2  0  0  0  0
  9 10  1  0  0  0  0
  9 11  1  0  0  0  0
  8 12  1  0  0  0  0
 12 13  1  0  0  0  0
 13 14  1  0  0  0  0
 12 15  2  0  0  0  0
M  END
> <ChemID>
201321

> <source_casrn>
97-65-4

> <CAS>
97-65-4

> <SMILES>
OC(=O)CC(=C)C(O)=O

> <NAME>


> <preferred_name>
Methylenebutanedioic acid

> <iupac>
2-methylidenebutanedioic acid

> <MPID>
101224

> <dsstox_substance_id>
DTXSID2026608

> <Canonical_QSARr>
C=C(CC(O)=O)C(O)=O

> <InChI_Code_QSARr>
InChI=1S/C5H6O4/c1-3(5(8)9)2-4(6)7/h1-2H2,(H,6,7)(H,8,9)

> <InChI Key_QSARr>
LVHBHZANLOWSRM-UHFFFAOYSA-N

> <Salt_Solvent>


> <Ready_Biodeg>
1.0

$$$$
201323
  -INDIGO-08031722522D

 39 38  0  0  0  0  0  0  0  0999 V2000
   -1.2256   -2.6285    0.0000 O   0  0  0  0  0  0  0  0  0  0  0  0
   -0.9479   -4.2042    0.0000 H   0  0  0  0  0  0  0  0  0  0  0  0
    0.0001   -1.5999    0.0000 C   0  0  0  0  0  0  0  0  0  0  0  0
    1.5862   -1.8088    0.0000 H   0  0  0  0  0  0  0  0  0  0  0  0
    0.9740   -2.8693    0.0000 H   0  0  0  0  0  0  0  0  0  0  0  0
    0.0001    0.0000    0.0000 C   0  0  0  0  0  0  0  0  0  0  0  0
   -1.6001    0.0000    0.0000 C   0  0  0  0  0  0  0  0  0  0  0  0
   -1.8089   -1.5863    0.0000 H   0  0  0  0  0  0  0  0  0  0  0  0
   -2.8694   -0.9739    0.0000 H   0  0  0  0  0  0  0  0  0  0  0  0
   -2.6285    1.2257    0.0000 O   0  0  0  0  0  0  0  0  0  0  0  0
   -4.2041    0.9479    0.0000 C   0  0  0  0  0  0  0  0  0  0  0  0
   -4.7513   -0.5556    0.0000 O   0  0  0  0  0  0  0  0  0  0  0  0
   -5.2325    2.1736    0.0000 C   0  0  0  0  0  0  0  0  0  0  0  0
   -4.6853    3.6771    0.0000 H   0  0  0  0  0  0  0  0  0  0  0  0
   -6.8084    1.8956    0.0000 C   0  0  0  0  0  0  0  0  0  0  0  0
   -7.8368    3.1213    0.0000 H   0  0  0  0  0  0  0  0  0  0  0  0
   -7.3556    0.3921    0.0000 H   0  0  0  0  0  0  0  0  0  0  0  0
    0.0001    1.6000    0.0000 C   0  0  0  0  0  0  0  0  0  0  0  0
   -1.5862    1.8089    0.0000 H   0  0  0  0  0  0  0  0  0  0  0  0
   -0.9740    2.8694    0.0000 H   0  0  0  0  0  0  0  0  0  0  0  0
    1.2256    2.6285    0.0000 O   0  0  0  0  0  0  0  0  0  0  0  0
    0.9479    4.2042    0.0000 C   0  0  0  0  0  0  0  0  0  0  0  0
   -0.5557    4.7513    0.0000 O   0  0  0  0  0  0  0  0  0  0  0  0
    2.1734    5.2325    0.0000 C   0  0  0  0  0  0  0  0  0  0  0  0
    3.6770    4.6854    0.0000 H   0  0  0  0  0  0  0  0  0  0  0  0
    1.8957    6.8082    0.0000 C   0  0  0  0  0  0  0  0  0  0  0  0
    3.1214    7.8368    0.0000 H   0  0  0  0  0  0  0  0  0  0  0  0
    0.3921    7.3556    0.0000 H   0  0  0  0  0  0  0  0  0  0  0  0
    1.6001    0.0000    0.0000 C   0  0  0  0  0  0  0  0  0  0  0  0
    1.8089    1.5864    0.0000 H   0  0  0  0  0  0  0  0  0  0  0  0
    2.8694    0.9740    0.0000 H   0  0  0  0  0  0  0  0  0  0  0  0
    2.6285   -1.2257    0.0000 O   0  0  0  0  0  0  0  0  0  0  0  0
    4.2041   -0.9479    0.0000 C   0  0  0  0  0  0  0  0  0  0  0  0
    4.7513    0.5556    0.0000 O   0  0  0  0  0  0  0  0  0  0  0  0
    5.2325   -2.1735    0.0000 C   0  0  0  0  0  0  0  0  0  0  0  0
    4.6853   -3.6770    0.0000 H   0  0  0  0  0  0  0  0  0  0  0  0
    6.8084   -1.8957    0.0000 C   0  0  0  0  0  0  0  0  0  0  0  0
    7.8368   -3.1214    0.0000 H   0  0  0  0  0  0  0  0  0  0  0  0
    7.3556   -0.3921    0.0000 H   0  0  0  0  0  0  0  0  0  0  0  0
  1  2  1  0  0  0  0
  1  3  1  0  0  0  0
  3  4  1  0  0  0  0
  3  5  1  0  0  0  0
  3  6  1  0  0  0  0
  6  7  1  0  0  0  0
  7  8  1  0  0  0  0
  7  9  1  0  0  0  0
  7 10  1  0  0  0  0
 10 11  1  0  0  0  0
 11 12  2  0  0  0  0
 11 13  1  0  0  0  0
 13 14  1  0  0  0  0
 13 15  2  0  0  0  0
 15 16  1  0  0  0  0
 15 17  1  0  0  0  0
  6 18  1  0  0  0  0
 18 19  1  0  0  0  0
 18 20  1  0  0  0  0
 18 21  1  0  0  0  0
 21 22  1  0  0  0  0
 22 23  2  0  0  0  0
 22 24  1  0  0  0  0
 24 25  1  0  0  0  0
 24 26  2  0  0  0  0
 26 27  1  0  0  0  0
 26 28  1  0  0  0  0
  6 29  1  0  0  0  0
 29 30  1  0  0  0  0
 29 31  1  0  0  0  0
 29 32  1  0  0  0  0
 32 33  1  0  0  0  0
 33 34  2  0  0  0  0
 33 35  1  0  0  0  0
 35 36  1  0  0  0  0
 35 37  2  0  0  0  0
 37 38  1  0  0  0  0
 37 39  1  0  0  0  0
M  END
> <ChemID>
201323

> <source_casrn>
3524-68-3

> <CAS>
3524-68-3

> <SMILES>
OCC(COC(=O)C=C)(COC(=O)C=C)COC(=O)C=C

> <NAME>


> <preferred_name>
Pentaerythritol triacrylate

> <iupac>
3-(acryloyloxy)-2-[(acryloyloxy)methyl]-2-(hydroxymethyl)propyl prop-2-enoate

> <MPID>
101225

> <dsstox_substance_id>
DTXSID2025842

> <Canonical_QSARr>
C=CC(=O)OCC(CO)(COC(=O)C=C)COC(=O)C=C

> <InChI_Code_QSARr>
InChI=1S/C14H18O7/c1-4-11(16)19-8-14(7-15,9-20-12(17)5-2)10-21-13(18)6-3/h4-6,15H,1-3,7-10H2

> <InChI Key_QSARr>
HVVWZTWDBSEWIH-UHFFFAOYSA-N

> <Salt_Solvent>


> <Ready_Biodeg>
0.0

$$$$
201329
  -INDIGO-08031722522D

 24 24  0  0  0  0  0  0  0  0999 V2000
    3.3185    3.1035    0.0000 O   0  0  0  0  0  0  0  0  0  0  0  0
    4.8942    3.3814    0.0000 H   0  0  0  0  0  0  0  0  0  0  0  0
    2.7713    1.6000    0.0000 C   0  0  0  0  0  0  0  0  0  0  0  0
    4.3470    1.3221    0.0000 H   0  0  0  0  0  0  0  0  0  0  0  0
    1.3856    2.4000    0.0000 C   0  0  0  0  0  0  0  0  0  0  0  0
    2.4141    3.6257    0.0000 H   0  0  0  0  0  0  0  0  0  0  0  0
    0.3572    3.6257    0.0000 H   0  0  0  0  0  0  0  0  0  0  0  0
   -0.0000    1.6000    0.0000 C   0  0  0  0  0  0  0  0  0  0  0  0
   -0.5472    3.1035    0.0000 H   0  0  0  0  0  0  0  0  0  0  0  0
   -1.5757    1.3221    0.0000 H   0  0  0  0  0  0  0  0  0  0  0  0
   -0.0000    0.0000    0.0000 C   0  0  0  0  0  0  0  0  0  0  0  0
   -0.5472   -1.5035    0.0000 H   0  0  0  0  0  0  0  0  0  0  0  0
   -1.6000    0.0000    0.0000 C   0  0  0  0  0  0  0  0  0  0  0  0
   -2.6285    1.2257    0.0000 H   0  0  0  0  0  0  0  0  0  0  0  0
   -2.4000   -1.3857    0.0000 C   0  0  0  0  0  0  0  0  0  0  0  0
   -4.0000   -1.3857    0.0000 H   0  0  0  0  0  0  0  0  0  0  0  0
   -1.6000   -2.7713    0.0000 H   0  0  0  0  0  0  0  0  0  0  0  0
    1.3856   -0.8000    0.0000 C   0  0  0  0  0  0  0  0  0  0  0  0
    0.3572   -2.0256    0.0000 H   0  0  0  0  0  0  0  0  0  0  0  0
    2.4141   -2.0256    0.0000 H   0  0  0  0  0  0  0  0  0  0  0  0
    2.7713    0.0000    0.0000 C   0  0  0  0  0  0  0  0  0  0  0  0
    3.3185   -1.5035    0.0000 H   0  0  0  0  0  0  0  0  0  0  0  0
    4.3470    0.2778    0.0000 O   0  0  0  0  0  0  0  0  0  0  0  0
    5.3754   -0.9478    0.0000 H   0  0  0  0  0  0  0  0  0  0  0  0
  1  2  1  0  0  0  0
  1  3  1  0  0  0  0
  3  4  1  0  0  0  0
  3  5  1  0  0  0  0
  5  6  1  0  0  0  0
  5  7  1  0  0  0  0
  5  8  1  0  0  0  0
  8  9  1  0  0  0  0
  8 10  1  0  0  0  0
  8 11  1  0  0  0  0
 11 12  1  0  0  0  0
 11 13  1  0  0  0  0
 13 14  1  0  0  0  0
 13 15  2  0  0  0  0
 15 16  1  0  0  0  0
 15 17  1  0  0  0  0
 11 18  1  0  0  0  0
 18 19  1  0  0  0  0
 18 20  1  0  0  0  0
 18 21  1  0  0  0  0
 21  3  1  0  0  0  0
 21 22  1  0  0  0  0
 21 23  1  0  0  0  0
 23 24  1  0  0  0  0
M  END
> <ChemID>
201329

> <source_casrn>


> <CAS>
106-86-5

> <SMILES>
OC1CCC(CC1O)C=C

> <NAME>


> <preferred_name>


> <iupac>


> <MPID>
101227

> <dsstox_substance_id>


> <Canonical_QSARr>
C=CC1CC(O)C(O)CC1

> <InChI_Code_QSARr>
InChI=1S/C8H14O2/c1-2-6-3-4-7(9)8(10)5-6/h2,6-10H,1,3-5H2

> <InChI Key_QSARr>
BSJHRRSHDADBTA-UHFFFAOYSA-N

> <Salt_Solvent>


> <Ready_Biodeg>
0.0

$$$$
201331
  -INDIGO-08031722522D

 69 68  0  0  0  0  0  0  0  0999 V2000
   12.4710   -0.8000    0.0000 O   0  0  0  0  0  0  0  0  0  0  0  0
   13.8564    0.0000    0.0000 H   0  0  0  0  0  0  0  0  0  0  0  0
   11.0850    0.0000    0.0000 C   0  0  0  0  0  0  0  0  0  0  0  0
   11.0850    1.6000    0.0000 O   0  0  0  0  0  0  0  0  0  0  0  0
    9.6996   -0.8000    0.0000 C   0  0  0  0  0  0  0  0  0  0  0  0
    9.0870   -2.2782    0.0000 H   0  0  0  0  0  0  0  0  0  0  0  0
   10.3117   -2.2782    0.0000 H   0  0  0  0  0  0  0  0  0  0  0  0
    8.3136    0.0000    0.0000 C   0  0  0  0  0  0  0  0  0  0  0  0
    8.9263    1.4782    0.0000 H   0  0  0  0  0  0  0  0  0  0  0  0
    7.7015    1.4782    0.0000 H   0  0  0  0  0  0  0  0  0  0  0  0
    6.9282   -0.8000    0.0000 C   0  0  0  0  0  0  0  0  0  0  0  0
    6.3161   -2.2782    0.0000 H   0  0  0  0  0  0  0  0  0  0  0  0
    7.5403   -2.2782    0.0000 H   0  0  0  0  0  0  0  0  0  0  0  0
    5.5428    0.0000    0.0000 C   0  0  0  0  0  0  0  0  0  0  0  0
    6.1549    1.4782    0.0000 H   0  0  0  0  0  0  0  0  0  0  0  0
    4.9301    1.4782    0.0000 H   0  0  0  0  0  0  0  0  0  0  0  0
    4.1568   -0.8000    0.0000 C   0  0  0  0  0  0  0  0  0  0  0  0
    3.5447   -2.2782    0.0000 H   0  0  0  0  0  0  0  0  0  0  0  0
    4.7695   -2.2782    0.0000 H   0  0  0  0  0  0  0  0  0  0  0  0
    2.7714    0.0000    0.0000 C   0  0  0  0  0  0  0  0  0  0  0  0
    3.3835    1.4782    0.0000 H   0  0  0  0  0  0  0  0  0  0  0  0
    2.1588    1.4782    0.0000 H   0  0  0  0  0  0  0  0  0  0  0  0
    1.3854   -0.8000    0.0000 C   0  0  0  0  0  0  0  0  0  0  0  0
    0.7733   -2.2782    0.0000 H   0  0  0  0  0  0  0  0  0  0  0  0
    1.9981   -2.2782    0.0000 H   0  0  0  0  0  0  0  0  0  0  0  0
    0.0000    0.0000    0.0000 C   0  0  0  0  0  0  0  0  0  0  0  0
    0.6121    1.4782    0.0000 H   0  0  0  0  0  0  0  0  0  0  0  0
   -0.6121    1.4782    0.0000 H   0  0  0  0  0  0  0  0  0  0  0  0
   -1.3854   -0.8000    0.0000 C   0  0  0  0  0  0  0  0  0  0  0  0
   -1.9981   -2.2782    0.0000 H   0  0  0  0  0  0  0  0  0  0  0  0
   -0.7733   -2.2782    0.0000 H   0  0  0  0  0  0  0  0  0  0  0  0
   -2.7714    0.0000    0.0000 C   0  0  0  0  0  0  0  0  0  0  0  0
   -2.1588    1.4782    0.0000 H   0  0  0  0  0  0  0  0  0  0  0  0
   -3.3835    1.4782    0.0000 H   0  0  0  0  0  0  0  0  0  0  0  0
   -4.1568   -0.8000    0.0000 C   0  0  0  0  0  0  0  0  0  0  0  0
   -4.7694   -2.2782    0.0000 H   0  0  0  0  0  0  0  0  0  0  0  0
   -3.5447   -2.2782    0.0000 H   0  0  0  0  0  0  0  0  0  0  0  0
   -5.5428    0.0000    0.0000 C   0  0  0  0  0  0  0  0  0  0  0  0
   -4.9301    1.4782    0.0000 H   0  0  0  0  0  0  0  0  0  0  0  0
   -6.1549    1.4782    0.0000 H   0  0  0  0  0  0  0  0  0  0  0  0
   -6.9282   -0.8000    0.0000 C   0  0  0  0  0  0  0  0  0  0  0  0
   -7.5403   -2.2782    0.0000 H   0  0  0  0  0  0  0  0  0  0  0  0
   -6.3161   -2.2782    0.0000 H   0  0  0  0  0  0  0  0  0  0  0  0
   -8.3136    0.0000    0.0000 C   0  0  0  0  0  0  0  0  0  0  0  0
   -7.7015    1.4782    0.0000 H   0  0  0  0  0  0  0  0  0  0  0  0
   -8.9263    1.4782    0.0000 H   0  0  0  0  0  0  0  0  0  0  0  0
   -9.6996   -0.8000    0.0000 C   0  0  0  0  0  0  0  0  0  0  0  0
  -10.3117   -2.2782    0.0000 H   0  0  0  0  0  0  0  0  0  0  0  0
   -9.0870   -2.2782    0.0000 H   0  0  0  0  0  0  0  0  0  0  0  0
  -11.0850    0.0000    0.0000 C   0  0  0  0  0  0  0  0  0  0  0  0
  -10.4729    1.4782    0.0000 H   0  0  0  0  0  0  0  0  0  0  0  0
  -11.6977    1.4782    0.0000 H   0  0  0  0  0  0  0  0  0  0  0  0
  -12.4710   -0.8000    0.0000 C   0  0  0  0  0  0  0  0  0  0  0  0
  -13.0831   -2.2782    0.0000 H   0  0  0  0  0  0  0  0  0  0  0  0
  -11.8583   -2.2782    0.0000 H   0  0  0  0  0  0  0  0  0  0  0  0
  -13.8564    0.0000    0.0000 C   0  0  0  0  0  0  0  0  0  0  0  0
  -13.2443    1.4782    0.0000 H   0  0  0  0  0  0  0  0  0  0  0  0
  -14.4685    1.4782    0.0000 H   0  0  0  0  0  0  0  0  0  0  0  0
  -15.2418   -0.8000    0.0000 C   0  0  0  0  0  0  0  0  0  0  0  0
  -15.8545   -2.2782    0.0000 H   0  0  0  0  0  0  0  0  0  0  0  0
  -14.6297   -2.2782    0.0000 H   0  0  0  0  0  0  0  0  0  0  0  0
  -16.6278    0.0000    0.0000 C   0  0  0  0  0  0  0  0  0  0  0  0
  -16.0152    1.4782    0.0000 H   0  0  0  0  0  0  0  0  0  0  0  0
  -17.2399    1.4782    0.0000 H   0  0  0  0  0  0  0  0  0  0  0  0
  -18.0132   -0.8000    0.0000 C   0  0  0  0  0  0  0  0  0  0  0  0
  -18.0132   -2.4000    0.0000 H   0  0  0  0  0  0  0  0  0  0  0  0
  -19.3992    0.0000    0.0000 C   0  0  0  0  0  0  0  0  0  0  0  0
  -20.7846   -0.8000    0.0000 H   0  0  0  0  0  0  0  0  0  0  0  0
  -19.3992    1.6000    0.0000 H   0  0  0  0  0  0  0  0  0  0  0  0
  1  2  1  0  0  0  0
  1  3  1  0  0  0  0
  3  4  2  0  0  0  0
  3  5  1  0  0  0  0
  5  6  1  0  0  0  0
  5  7  1  0  0  0  0
  5  8  1  0  0  0  0
  8  9  1  0  0  0  0
  8 10  1  0  0  0  0
  8 11  1  0  0  0  0
 11 12  1  0  0  0  0
 11 13  1  0  0  0  0
 11 14  1  0  0  0  0
 14 15  1  0  0  0  0
 14 16  1  0  0  0  0
 14 17  1  0  0  0  0
 17 18  1  0  0  0  0
 17 19  1  0  0  0  0
 17 20  1  0  0  0  0
 20 21  1  0  0  0  0
 20 22  1  0  0  0  0
 20 23  1  0  0  0  0
 23 24  1  0  0  0  0
 23 25  1  0  0  0  0
 23 26  1  0  0  0  0
 26 27  1  0  0  0  0
 26 28  1  0  0  0  0
 26 29  1  0  0  0  0
 29 30  1  0  0  0  0
 29 31  1  0  0  0  0
 29 32  1  0  0  0  0
 32 33  1  0  0  0  0
 32 34  1  0  0  0  0
 32 35  1  0  0  0  0
 35 36  1  0  0  0  0
 35 37  1  0  0  0  0
 35 38  1  0  0  0  0
 38 39  1  0  0  0  0
 38 40  1  0  0  0  0
 38 41  1  0  0  0  0
 41 42  1  0  0  0  0
 41 43  1  0  0  0  0
 41 44  1  0  0  0  0
 44 45  1  0  0  0  0
 44 46  1  0  0  0  0
 44 47  1  0  0  0  0
 47 48  1  0  0  0  0
 47 49  1  0  0  0  0
 47 50  1  0  0  0  0
 50 51  1  0  0  0  0
 50 52  1  0  0  0  0
 50 53  1  0  0  0  0
 53 54  1  0  0  0  0
 53 55  1  0  0  0  0
 53 56  1  0  0  0  0
 56 57  1  0  0  0  0
 56 58  1  0  0  0  0
 56 59  1  0  0  0  0
 59 60  1  0  0  0  0
 59 61  1  0  0  0  0
 59 62  1  0  0  0  0
 62 63  1  0  0  0  0
 62 64  1  0  0  0  0
 62 65  1  0  0  0  0
 65 66  1  0  0  0  0
 65 67  2  0  0  0  0
 67 68  1  0  0  0  0
 67 69  1  0  0  0  0
M  END
> <ChemID>
201331

> <source_casrn>
65119-95-1

> <CAS>
65119-95-1

> <SMILES>
OC(=O)CCCCCCCCCCCCCCCCCCCCC=C

> <NAME>


> <preferred_name>
22-Tricosenoic acid

> <iupac>
C23H44O2

> <MPID>
101228

> <dsstox_substance_id>
DTXSID50337656

> <Canonical_QSARr>
C=CCCCCCCCCCCCCCCCCCCCCC(O)=O

> <InChI_Code_QSARr>
InChI=1S/C23H44O2/c1-2-3-4-5-6-7-8-9-10-11-12-13-14-15-16-17-18-19-20-21-22-23(24)25/h2H,1,3-22H2,(H,24,25)

> <InChI Key_QSARr>
YGTSVJQQDISEHZ-UHFFFAOYSA-N

> <Salt_Solvent>


> <Ready_Biodeg>
1.0

$$$$
201334
  -INDIGO-08031722522D

 33 33  0  0  0  0  0  0  0  0999 V2000
    2.7712    3.2000    0.0000 C   0  0  0  0  0  0  0  0  0  0  0  0
    2.7712    4.8000    0.0000 H   0  0  0  0  0  0  0  0  0  0  0  0
    4.1569    2.4000    0.0000 H   0  0  0  0  0  0  0  0  0  0  0  0
    1.3857    2.4000    0.0000 C   0  0  0  0  0  0  0  0  0  0  0  0
    0.0000    3.2000    0.0000 H   0  0  0  0  0  0  0  0  0  0  0  0
    1.3857    0.8000    0.0000 C   0  0  0  0  0  0  0  0  0  0  0  0
    2.9720    0.5911    0.0000 H   0  0  0  0  0  0  0  0  0  0  0  0
    2.3596   -0.4693    0.0000 H   0  0  0  0  0  0  0  0  0  0  0  0
    0.0000    0.0000    0.0000 N   0  0  0  0  0  0  0  0  0  0  0  0
   -1.3857    0.8000    0.0000 C   0  0  0  0  0  0  0  0  0  0  0  0
   -1.3857    2.4000    0.0000 O   0  0  0  0  0  0  0  0  0  0  0  0
   -2.7712    0.0000    0.0000 N   0  0  0  0  0  0  0  0  0  0  0  0
   -4.1569    0.8000    0.0000 C   0  0  0  0  0  0  0  0  0  0  0  0
   -4.7693    2.2782    0.0000 H   0  0  0  0  0  0  0  0  0  0  0  0
   -3.5446    2.2782    0.0000 H   0  0  0  0  0  0  0  0  0  0  0  0
   -5.5426    0.0000    0.0000 C   0  0  0  0  0  0  0  0  0  0  0  0
   -5.5426   -1.6000    0.0000 H   0  0  0  0  0  0  0  0  0  0  0  0
   -6.9281    0.8000    0.0000 C   0  0  0  0  0  0  0  0  0  0  0  0
   -8.3138    0.0000    0.0000 H   0  0  0  0  0  0  0  0  0  0  0  0
   -6.9281    2.4000    0.0000 H   0  0  0  0  0  0  0  0  0  0  0  0
   -2.7712   -1.6000    0.0000 C   0  0  0  0  0  0  0  0  0  0  0  0
   -4.1569   -2.4000    0.0000 O   0  0  0  0  0  0  0  0  0  0  0  0
   -1.3857   -2.4000    0.0000 N   0  0  0  0  0  0  0  0  0  0  0  0
   -1.3857   -4.0000    0.0000 C   0  0  0  0  0  0  0  0  0  0  0  0
   -2.3596   -5.2693    0.0000 H   0  0  0  0  0  0  0  0  0  0  0  0
   -2.9720   -4.2089    0.0000 H   0  0  0  0  0  0  0  0  0  0  0  0
    0.0000   -4.8000    0.0000 C   0  0  0  0  0  0  0  0  0  0  0  0
    1.3857   -4.0000    0.0000 H   0  0  0  0  0  0  0  0  0  0  0  0
    0.0000   -6.4000    0.0000 C   0  0  0  0  0  0  0  0  0  0  0  0
    1.3857   -7.2000    0.0000 H   0  0  0  0  0  0  0  0  0  0  0  0
   -1.3857   -7.2000    0.0000 H   0  0  0  0  0  0  0  0  0  0  0  0
    0.0000   -1.6000    0.0000 C   0  0  0  0  0  0  0  0  0  0  0  0
    1.3857   -2.4000    0.0000 O   0  0  0  0  0  0  0  0  0  0  0  0
  1  2  1  0  0  0  0
  1  3  1  0  0  0  0
  1  4  2  0  0  0  0
  4  5  1  0  0  0  0
  4  6  1  0  0  0  0
  6  7  1  0  0  0  0
  6  8  1  0  0  0  0
  6  9  1  0  0  0  0
  9 10  1  0  0  0  0
 10 11  2  0  0  0  0
 10 12  1  0  0  0  0
 12 13  1  0  0  0  0
 13 14  1  0  0  0  0
 13 15  1  0  0  0  0
 13 16  1  0  0  0  0
 16 17  1  0  0  0  0
 16 18  2  0  0  0  0
 18 19  1  0  0  0  0
 18 20  1  0  0  0  0
 12 21  1  0  0  0  0
 21 22  2  0  0  0  0
 21 23  1  0  0  0  0
 23 24  1  0  0  0  0
 24 25  1  0  0  0  0
 24 26  1  0  0  0  0
 24 27  1  0  0  0  0
 27 28  1  0  0  0  0
 27 29  2  0  0  0  0
 29 30  1  0  0  0  0
 29 31  1  0  0  0  0
 23 32  1  0  0  0  0
 32  9  1  0  0  0  0
 32 33  2  0  0  0  0
M  END
> <ChemID>
201334

> <source_casrn>
1025-15-6

> <CAS>
1025-15-6

> <SMILES>
C=CCN1C(=O)N(CC=C)C(=O)N(CC=C)C1=O

> <NAME>


> <preferred_name>
Triallyl isocyanurate

> <iupac>
1,3,5-tri(prop-2-en-1-yl)-1,3,5-triazinane-2,4,6-trione

> <MPID>
101229

> <dsstox_substance_id>
DTXSID0026175

> <Canonical_QSARr>
C=CCN1C(=O)N(CC=C)C(=O)N(CC=C)C1=O

> <InChI_Code_QSARr>
InChI=1S/C12H15N3O3/c1-4-7-13-10(16)14(8-5-2)12(18)15(9-6-3)11(13)17/h4-6H,1-3,7-9H2

> <InChI Key_QSARr>
KOMNUTZXSVSERR-UHFFFAOYSA-N

> <Salt_Solvent>


> <Ready_Biodeg>
0.0

$$$$
201338
  -INDIGO-08031722522D

 24 25  0  0  0  0  0  0  0  0999 V2000
    7.7866    2.2054    0.0000 C   0  0  0  0  0  0  0  0  0  0  0  0
    8.9755    3.2760    0.0000 H   0  0  0  0  0  0  0  0  0  0  0  0
    8.1192    0.6404    0.0000 H   0  0  0  0  0  0  0  0  0  0  0  0
    6.2648    2.6998    0.0000 C   0  0  0  0  0  0  0  0  0  0  0  0
    5.9322    4.2648    0.0000 H   0  0  0  0  0  0  0  0  0  0  0  0
    5.0758    1.6292    0.0000 C   0  0  0  0  0  0  0  0  0  0  0  0
    5.9820    0.3106    0.0000 H   0  0  0  0  0  0  0  0  0  0  0  0
    4.7842    0.0559    0.0000 H   0  0  0  0  0  0  0  0  0  0  0  0
    3.5541    2.1236    0.0000 O   0  0  0  0  0  0  0  0  0  0  0  0
    2.3651    1.0530    0.0000 C   0  0  0  0  0  0  0  0  0  0  0  0
    2.5322   -0.5382    0.0000 N   0  0  0  0  0  0  0  0  0  0  0  0
    1.0706   -1.1890    0.0000 S   0  0  0  0  0  0  0  0  0  0  0  0
   -0.2239   -2.1295    0.0000 O   0  0  0  0  0  0  0  0  0  0  0  0
    1.8705   -2.5747    0.0000 O   0  0  0  0  0  0  0  0  0  0  0  0
    0.0001   -0.0000    0.0000 C   0  0  0  0  0  0  0  0  0  0  0  0
   -1.5999   -0.0000    0.0000 C   0  0  0  0  0  0  0  0  0  0  0  0
   -2.4000   -1.3857    0.0000 H   0  0  0  0  0  0  0  0  0  0  0  0
   -2.4000    1.3856    0.0000 C   0  0  0  0  0  0  0  0  0  0  0  0
   -4.0000    1.3856    0.0000 H   0  0  0  0  0  0  0  0  0  0  0  0
   -1.5999    2.7713    0.0000 C   0  0  0  0  0  0  0  0  0  0  0  0
   -2.4000    4.1569    0.0000 H   0  0  0  0  0  0  0  0  0  0  0  0
    0.0001    2.7713    0.0000 C   0  0  0  0  0  0  0  0  0  0  0  0
    0.8000    4.1569    0.0000 H   0  0  0  0  0  0  0  0  0  0  0  0
    0.8000    1.3856    0.0000 C   0  0  0  0  0  0  0  0  0  0  0  0
  1  2  1  0  0  0  0
  1  3  1  0  0  0  0
  1  4  2  0  0  0  0
  4  5  1  0  0  0  0
  4  6  1  0  0  0  0
  6  7  1  0  0  0  0
  6  8  1  0  0  0  0
  6  9  1  0  0  0  0
  9 10  1  0  0  0  0
 10 11  2  0  0  0  0
 11 12  1  0  0  0  0
 12 13  2  0  0  0  0
 12 14  2  0  0  0  0
 12 15  1  0  0  0  0
 15 16  1  0  0  0  0
 16 17  1  0  0  0  0
 16 18  2  0  0  0  0
 18 19  1  0  0  0  0
 18 20  1  0  0  0  0
 20 21  1  0  0  0  0
 20 22  2  0  0  0  0
 22 23  1  0  0  0  0
 22 24  1  0  0  0  0
 24 10  1  0  0  0  0
 24 15  2  0  0  0  0
M  END
> <ChemID>
201338

> <source_casrn>
27605-76-1

> <CAS>
27605-76-1

> <SMILES>
C=CCOC1=N[S](=O)(=O)c2ccccc12

> <NAME>


> <preferred_name>
Probenazole

> <iupac>
3-(allyloxy)-1,2-benzothiazole 1,1-dioxide

> <MPID>
101231

> <dsstox_substance_id>
DTXSID7058048

> <Canonical_QSARr>
C=CCOC1=NS(=O)(=O)c2ccccc21

> <InChI_Code_QSARr>
InChI=1S/C10H9NO3S/c1-2-7-14-10-8-5-3-4-6-9(8)15(12,13)11-10/h2-6H,1,7H2

> <InChI Key_QSARr>
WHHIPMZEDGBUCC-UHFFFAOYSA-N

> <Salt_Solvent>


> <Ready_Biodeg>
0.0

$$$$
201339
  -INDIGO-08031722522D

 20 20  0  0  0  0  0  0  0  0999 V2000
   -0.0001    2.7713    0.0000 O   0  0  0  0  0  0  0  0  0  0  0  0
    0.8000    4.1569    0.0000 H   0  0  0  0  0  0  0  0  0  0  0  0
    0.8000    1.3856    0.0000 C   0  0  0  0  0  0  0  0  0  0  0  0
    2.4000    1.3856    0.0000 C   0  0  0  0  0  0  0  0  0  0  0  0
    3.2001    2.7713    0.0000 H   0  0  0  0  0  0  0  0  0  0  0  0
    3.2001    0.0000    0.0000 C   0  0  0  0  0  0  0  0  0  0  0  0
    4.8000    0.0000    0.0000 H   0  0  0  0  0  0  0  0  0  0  0  0
    2.4000   -1.3856    0.0000 C   0  0  0  0  0  0  0  0  0  0  0  0
    3.2001   -2.7713    0.0000 H   0  0  0  0  0  0  0  0  0  0  0  0
    0.8000   -1.3856    0.0000 C   0  0  0  0  0  0  0  0  0  0  0  0
    0.0001   -2.7713    0.0000 H   0  0  0  0  0  0  0  0  0  0  0  0
    0.0001    0.0000    0.0000 C   0  0  0  0  0  0  0  0  0  0  0  0
   -1.6000    0.0000    0.0000 C   0  0  0  0  0  0  0  0  0  0  0  0
   -1.8089    1.5863    0.0000 H   0  0  0  0  0  0  0  0  0  0  0  0
   -2.8693    0.9740    0.0000 H   0  0  0  0  0  0  0  0  0  0  0  0
   -2.4000   -1.3856    0.0000 C   0  0  0  0  0  0  0  0  0  0  0  0
   -1.6000   -2.7713    0.0000 H   0  0  0  0  0  0  0  0  0  0  0  0
   -4.0000   -1.3856    0.0000 C   0  0  0  0  0  0  0  0  0  0  0  0
   -4.8000   -2.7713    0.0000 H   0  0  0  0  0  0  0  0  0  0  0  0
   -4.8000    0.0000    0.0000 H   0  0  0  0  0  0  0  0  0  0  0  0
  1  2  1  0  0  0  0
  1  3  1  0  0  0  0
  3  4  1  0  0  0  0
  4  5  1  0  0  0  0
  4  6  2  0  0  0  0
  6  7  1  0  0  0  0
  6  8  1  0  0  0  0
  8  9  1  0  0  0  0
  8 10  2  0  0  0  0
 10 11  1  0  0  0  0
 10 12  1  0  0  0  0
 12  3  2  0  0  0  0
 12 13  1  0  0  0  0
 13 14  1  0  0  0  0
 13 15  1  0  0  0  0
 13 16  1  0  0  0  0
 16 17  1  0  0  0  0
 16 18  2  0  0  0  0
 18 19  1  0  0  0  0
 18 20  1  0  0  0  0
M  END
> <ChemID>
201339

> <source_casrn>
1745-81-9

> <CAS>
1745-81-9

> <SMILES>
Oc1ccccc1CC=C

> <NAME>


> <preferred_name>
2-Allylphenol

> <iupac>
2-(prop-2-en-1-yl)phenol

> <MPID>
101232

> <dsstox_substance_id>
DTXSID3022164

> <Canonical_QSARr>
C=CCc1ccccc1O

> <InChI_Code_QSARr>
InChI=1S/C9H10O/c1-2-5-8-6-3-4-7-9(8)10/h2-4,6-7,10H,1,5H2

> <InChI Key_QSARr>
QIRNGVVZBINFMX-UHFFFAOYSA-N

> <Salt_Solvent>


> <Ready_Biodeg>
1.0

$$$$
201341
  -INDIGO-08031722522D

 19 19  0  0  0  0  0  0  0  0999 V2000
    2.4000    1.3856    0.0000 Cl  0  0  0  0  0  0  0  0  0  0  0  0
    1.6000   -0.0000    0.0000 C   0  0  0  0  0  0  0  0  0  0  0  0
    3.2000   -0.0000    0.0000 H   0  0  0  0  0  0  0  0  0  0  0  0
    2.4000   -1.3856    0.0000 H   0  0  0  0  0  0  0  0  0  0  0  0
   -0.0001   -0.0000    0.0000 C   0  0  0  0  0  0  0  0  0  0  0  0
   -0.8000    1.3856    0.0000 C   0  0  0  0  0  0  0  0  0  0  0  0
   -0.0001    2.7713    0.0000 H   0  0  0  0  0  0  0  0  0  0  0  0
   -2.4000    1.3856    0.0000 C   0  0  0  0  0  0  0  0  0  0  0  0
   -3.2000    2.7713    0.0000 H   0  0  0  0  0  0  0  0  0  0  0  0
   -3.2000   -0.0000    0.0000 C   0  0  0  0  0  0  0  0  0  0  0  0
   -4.8001   -0.0000    0.0000 C   0  0  0  0  0  0  0  0  0  0  0  0
   -5.6000   -1.3856    0.0000 H   0  0  0  0  0  0  0  0  0  0  0  0
   -5.6000    1.3856    0.0000 C   0  0  0  0  0  0  0  0  0  0  0  0
   -7.2000    1.3856    0.0000 H   0  0  0  0  0  0  0  0  0  0  0  0
   -4.8001    2.7713    0.0000 H   0  0  0  0  0  0  0  0  0  0  0  0
   -2.4000   -1.3856    0.0000 C   0  0  0  0  0  0  0  0  0  0  0  0
   -3.2000   -2.7713    0.0000 H   0  0  0  0  0  0  0  0  0  0  0  0
   -0.8000   -1.3856    0.0000 C   0  0  0  0  0  0  0  0  0  0  0  0
   -0.0001   -2.7713    0.0000 H   0  0  0  0  0  0  0  0  0  0  0  0
  1  2  1  0  0  0  0
  2  3  1  0  0  0  0
  2  4  1  0  0  0  0
  2  5  1  0  0  0  0
  5  6  1  0  0  0  0
  6  7  1  0  0  0  0
  6  8  2  0  0  0  0
  8  9  1  0  0  0  0
  8 10  1  0  0  0  0
 10 11  1  0  0  0  0
 11 12  1  0  0  0  0
 11 13  2  0  0  0  0
 13 14  1  0  0  0  0
 13 15  1  0  0  0  0
 10 16  2  0  0  0  0
 16 17  1  0  0  0  0
 16 18  1  0  0  0  0
 18  5  2  0  0  0  0
 18 19  1  0  0  0  0
M  END
> <ChemID>
201341

> <source_casrn>
1592-20-7

> <CAS>
1592-20-7

> <SMILES>
ClCc1ccc(C=C)cc1

> <NAME>


> <preferred_name>
Benzene, 1-(chloromethyl)-4-ethenyl-

> <iupac>
1-(chloromethyl)-4-ethenylbenzene

> <MPID>
101233

> <dsstox_substance_id>
DTXSID2061808

> <Canonical_QSARr>
C=Cc1ccc(CCl)cc1

> <InChI_Code_QSARr>
InChI=1S/C9H9Cl/c1-2-8-3-5-9(7-10)6-4-8/h2-6H,1,7H2

> <InChI Key_QSARr>
ZRZHXNCATOYMJH-UHFFFAOYSA-N

> <Salt_Solvent>


> <Ready_Biodeg>
0.0

$$$$
201343
  -INDIGO-08031722522D

 20 20  0  0  0  0  0  0  0  0999 V2000
    2.4001    1.3856    0.0000 C   0  0  0  0  0  0  0  0  0  0  0  0
    3.2000    2.7713    0.0000 H   0  0  0  0  0  0  0  0  0  0  0  0
    3.2000    0.0000    0.0000 H   0  0  0  0  0  0  0  0  0  0  0  0
    0.8001    1.3856    0.0000 C   0  0  0  0  0  0  0  0  0  0  0  0
    0.0000    2.7713    0.0000 H   0  0  0  0  0  0  0  0  0  0  0  0
    0.0000    0.0000    0.0000 C   0  0  0  0  0  0  0  0  0  0  0  0
    0.8001   -1.3856    0.0000 C   0  0  0  0  0  0  0  0  0  0  0  0
    2.4001   -1.3856    0.0000 H   0  0  0  0  0  0  0  0  0  0  0  0
    0.0000   -2.7713    0.0000 C   0  0  0  0  0  0  0  0  0  0  0  0
    0.8001   -4.1569    0.0000 H   0  0  0  0  0  0  0  0  0  0  0  0
   -1.6000   -2.7713    0.0000 C   0  0  0  0  0  0  0  0  0  0  0  0
   -2.4001   -4.1569    0.0000 H   0  0  0  0  0  0  0  0  0  0  0  0
   -2.4001   -1.3856    0.0000 C   0  0  0  0  0  0  0  0  0  0  0  0
   -4.0001   -1.3856    0.0000 H   0  0  0  0  0  0  0  0  0  0  0  0
   -1.6000    0.0000    0.0000 C   0  0  0  0  0  0  0  0  0  0  0  0
   -2.3999    1.3856    0.0000 C   0  0  0  0  0  0  0  0  0  0  0  0
   -1.6000    2.7713    0.0000 H   0  0  0  0  0  0  0  0  0  0  0  0
   -3.9999    1.3856    0.0000 C   0  0  0  0  0  0  0  0  0  0  0  0
   -4.8000    2.7713    0.0000 H   0  0  0  0  0  0  0  0  0  0  0  0
   -4.8000    0.0000    0.0000 H   0  0  0  0  0  0  0  0  0  0  0  0
  1  2  1  0  0  0  0
  1  3  1  0  0  0  0
  1  4  2  0  0  0  0
  4  5  1  0  0  0  0
  4  6  1  0  0  0  0
  6  7  1  0  0  0  0
  7  8  1  0  0  0  0
  7  9  2  0  0  0  0
  9 10  1  0  0  0  0
  9 11  1  0  0  0  0
 11 12  1  0  0  0  0
 11 13  2  0  0  0  0
 13 14  1  0  0  0  0
 13 15  1  0  0  0  0
 15  6  2  0  0  0  0
 15 16  1  0  0  0  0
 16 17  1  0  0  0  0
 16 18  2  0  0  0  0
 18 19  1  0  0  0  0
 18 20  1  0  0  0  0
M  END
> <ChemID>
201343

> <source_casrn>
1321-74-0

> <CAS>
91-14-5

> <SMILES>
C=Cc1ccccc1C=C

> <NAME>


> <preferred_name>


> <iupac>


> <MPID>
101234

> <dsstox_substance_id>
DTXSID30110005

> <Canonical_QSARr>
C=Cc1ccccc1C=C

> <InChI_Code_QSARr>
InChI=1S/C10H10/c1-3-9-7-5-6-8-10(9)4-2/h3-8H,1-2H2

> <InChI Key_QSARr>
MYRTYDVEIRVNKP-UHFFFAOYSA-N

> <Salt_Solvent>


> <Ready_Biodeg>
0.0

$$$$
201345
  -INDIGO-08031722522D

 10  9  0  0  0  0  0  0  0  0999 V2000
    1.3856   -0.8000    0.0000 C   0  0  0  0  0  0  0  0  0  0  0  0
    2.7713   -1.6000    0.0000 H   0  0  0  0  0  0  0  0  0  0  0  0
    1.3856   -2.4000    0.0000 H   0  0  0  0  0  0  0  0  0  0  0  0
    2.7713    0.0000    0.0000 H   0  0  0  0  0  0  0  0  0  0  0  0
   -0.0000    0.0000    0.0000 C   0  0  0  0  0  0  0  0  0  0  0  0
   -0.0000    1.6000    0.0000 C   0  0  0  0  0  0  0  0  0  0  0  0
   -1.3856    2.4000    0.0000 H   0  0  0  0  0  0  0  0  0  0  0  0
    1.3856    2.4000    0.0000 H   0  0  0  0  0  0  0  0  0  0  0  0
   -1.3856   -0.8000    0.0000 C   0  0  0  0  0  0  0  0  0  0  0  0
   -2.7713   -1.6000    0.0000 N   0  0  0  0  0  0  0  0  0  0  0  0
  1  2  1  0  0  0  0
  1  3  1  0  0  0  0
  1  4  1  0  0  0  0
  1  5  1  0  0  0  0
  5  6  2  0  0  0  0
  6  7  1  0  0  0  0
  6  8  1  0  0  0  0
  5  9  1  0  0  0  0
  9 10  3  0  0  0  0
M  END
> <ChemID>
201345

> <source_casrn>
126-98-7

> <CAS>
126-98-7

> <SMILES>
CC(=C)C#N

> <NAME>


> <preferred_name>
Methacrylonitrile

> <iupac>
2-methylprop-2-enenitrile

> <MPID>
101235

> <dsstox_substance_id>
DTXSID1024176

> <Canonical_QSARr>
CC(=C)C#N

> <InChI_Code_QSARr>
InChI=1S/C4H5N/c1-4(2)3-5/h1H2,2H3

> <InChI Key_QSARr>
GYCMBHHDWRMZGG-UHFFFAOYSA-N

> <Salt_Solvent>


> <Ready_Biodeg>
1.0

$$$$
201347
  -INDIGO-08031722522D

 24 23  0  0  0  0  0  0  0  0999 V2000
    5.5549    1.5096    0.0000 C   0  0  0  0  0  0  0  0  0  0  0  0
    6.7805    2.5382    0.0000 H   0  0  0  0  0  0  0  0  0  0  0  0
    7.0584    0.9625    0.0000 H   0  0  0  0  0  0  0  0  0  0  0  0
    5.2770    3.0853    0.0000 H   0  0  0  0  0  0  0  0  0  0  0  0
    4.3292    0.4812    0.0000 C   0  0  0  0  0  0  0  0  0  0  0  0
    4.6071   -1.0945    0.0000 C   0  0  0  0  0  0  0  0  0  0  0  0
    6.1106   -1.6417    0.0000 H   0  0  0  0  0  0  0  0  0  0  0  0
    3.3814   -2.1229    0.0000 H   0  0  0  0  0  0  0  0  0  0  0  0
    2.8257    1.0285    0.0000 C   0  0  0  0  0  0  0  0  0  0  0  0
    2.5479    2.6042    0.0000 O   0  0  0  0  0  0  0  0  0  0  0  0
    1.6001    0.0000    0.0000 O   0  0  0  0  0  0  0  0  0  0  0  0
    0.0000    0.0000    0.0000 C   0  0  0  0  0  0  0  0  0  0  0  0
    0.0000    1.6000    0.0000 C   0  0  0  0  0  0  0  0  0  0  0  0
    0.0000    3.2000    0.0000 H   0  0  0  0  0  0  0  0  0  0  0  0
   -1.3856    2.4000    0.0000 H   0  0  0  0  0  0  0  0  0  0  0  0
    1.3856    2.4000    0.0000 H   0  0  0  0  0  0  0  0  0  0  0  0
   -1.5999    0.0000    0.0000 C   0  0  0  0  0  0  0  0  0  0  0  0
   -3.2000    0.0000    0.0000 H   0  0  0  0  0  0  0  0  0  0  0  0
   -2.4000   -1.3856    0.0000 H   0  0  0  0  0  0  0  0  0  0  0  0
   -2.4000    1.3856    0.0000 H   0  0  0  0  0  0  0  0  0  0  0  0
    0.0000   -1.6000    0.0000 C   0  0  0  0  0  0  0  0  0  0  0  0
    0.0000   -3.2000    0.0000 H   0  0  0  0  0  0  0  0  0  0  0  0
    1.3856   -2.4000    0.0000 H   0  0  0  0  0  0  0  0  0  0  0  0
   -1.3856   -2.4000    0.0000 H   0  0  0  0  0  0  0  0  0  0  0  0
  1  2  1  0  0  0  0
  1  3  1  0  0  0  0
  1  4  1  0  0  0  0
  1  5  1  0  0  0  0
  5  6  2  0  0  0  0
  6  7  1  0  0  0  0
  6  8  1  0  0  0  0
  5  9  1  0  0  0  0
  9 10  2  0  0  0  0
  9 11  1  0  0  0  0
 11 12  1  0  0  0  0
 12 13  1  0  0  0  0
 13 14  1  0  0  0  0
 13 15  1  0  0  0  0
 13 16  1  0  0  0  0
 12 17  1  0  0  0  0
 17 18  1  0  0  0  0
 17 19  1  0  0  0  0
 17 20  1  0  0  0  0
 12 21  1  0  0  0  0
 21 22  1  0  0  0  0
 21 23  1  0  0  0  0
 21 24  1  0  0  0  0
M  END
> <ChemID>
201347

> <source_casrn>
585-07-9

> <CAS>
585-07-9

> <SMILES>
CC(=C)C(=O)OC(C)(C)C

> <NAME>


> <preferred_name>
tert-Butyl methacrylate

> <iupac>
tert-butyl 2-methylprop-2-enoate

> <MPID>
101236

> <dsstox_substance_id>
DTXSID3060405

> <Canonical_QSARr>
CC(=C)C(=O)OC(C)(C)C

> <InChI_Code_QSARr>
InChI=1S/C8H14O2/c1-6(2)7(9)10-8(3,4)5/h1H2,2-5H3

> <InChI Key_QSARr>
SJMYWORNLPSJQO-UHFFFAOYSA-N

> <Salt_Solvent>


> <Ready_Biodeg>
0.0

$$$$
201349
  -INDIGO-08031722522D

 22 21  0  0  0  0  0  0  0  0999 V2000
    1.3856   -0.8000    0.0000 C   0  0  0  0  0  0  0  0  0  0  0  0
    2.7713   -1.6000    0.0000 H   0  0  0  0  0  0  0  0  0  0  0  0
    2.7713    0.0000    0.0000 H   0  0  0  0  0  0  0  0  0  0  0  0
    1.3856   -2.4000    0.0000 H   0  0  0  0  0  0  0  0  0  0  0  0
   -0.0000    0.0000    0.0000 C   0  0  0  0  0  0  0  0  0  0  0  0
   -0.7999   -1.3857    0.0000 H   0  0  0  0  0  0  0  0  0  0  0  0
    0.8000    1.3857    0.0000 O   0  0  0  0  0  0  0  0  0  0  0  0
    2.4000    1.3857    0.0000 H   0  0  0  0  0  0  0  0  0  0  0  0
   -1.3857    0.8000    0.0000 C   0  0  0  0  0  0  0  0  0  0  0  0
   -0.7734    2.2782    0.0000 H   0  0  0  0  0  0  0  0  0  0  0  0
   -1.9979    2.2782    0.0000 H   0  0  0  0  0  0  0  0  0  0  0  0
   -2.7712    0.0000    0.0000 O   0  0  0  0  0  0  0  0  0  0  0  0
   -4.1569    0.8000    0.0000 C   0  0  0  0  0  0  0  0  0  0  0  0
   -4.1569    2.4000    0.0000 O   0  0  0  0  0  0  0  0  0  0  0  0
   -5.5425    0.0000    0.0000 C   0  0  0  0  0  0  0  0  0  0  0  0
   -6.9282    0.8000    0.0000 C   0  0  0  0  0  0  0  0  0  0  0  0
   -8.3138    1.6000    0.0000 H   0  0  0  0  0  0  0  0  0  0  0  0
   -8.3138    0.0000    0.0000 H   0  0  0  0  0  0  0  0  0  0  0  0
   -6.9282    2.4000    0.0000 H   0  0  0  0  0  0  0  0  0  0  0  0
   -5.5425   -1.6000    0.0000 C   0  0  0  0  0  0  0  0  0  0  0  0
   -6.9282   -2.4000    0.0000 H   0  0  0  0  0  0  0  0  0  0  0  0
   -4.1569   -2.4000    0.0000 H   0  0  0  0  0  0  0  0  0  0  0  0
  1  2  1  0  0  0  0
  1  3  1  0  0  0  0
  1  4  1  0  0  0  0
  1  5  1  0  0  0  0
  5  6  1  0  0  0  0
  5  7  1  0  0  0  0
  7  8  1  0  0  0  0
  5  9  1  0  0  0  0
  9 10  1  0  0  0  0
  9 11  1  0  0  0  0
  9 12  1  0  0  0  0
 12 13  1  0  0  0  0
 13 14  2  0  0  0  0
 13 15  1  0  0  0  0
 15 16  1  0  0  0  0
 16 17  1  0  0  0  0
 16 18  1  0  0  0  0
 16 19  1  0  0  0  0
 15 20  2  0  0  0  0
 20 21  1  0  0  0  0
 20 22  1  0  0  0  0
M  END
> <ChemID>
201349

> <source_casrn>
923-26-2

> <CAS>
923-26-2

> <SMILES>
CC(O)COC(=O)C(C)=C

> <NAME>


> <preferred_name>
2-Hydroxypropyl 2-methylacrylate

> <iupac>
2-hydroxypropyl 2-methylprop-2-enoate

> <MPID>
101238

> <dsstox_substance_id>
DTXSID1029629

> <Canonical_QSARr>
CC(=C)C(=O)OCC(C)O

> <InChI_Code_QSARr>
InChI=1S/C7H12O3/c1-5(2)7(9)10-4-6(3)8/h6,8H,1,4H2,2-3H3

> <InChI Key_QSARr>
VHSHLMUCYSAUQU-UHFFFAOYSA-N

> <Salt_Solvent>


> <Ready_Biodeg>
1.0

$$$$
201350
  -INDIGO-08031722522D

 36 35  0  0  0  0  0  0  0  0999 V2000
    5.1361    2.7207    0.0000 C   0  0  0  0  0  0  0  0  0  0  0  0
    6.1646    3.9464    0.0000 H   0  0  0  0  0  0  0  0  0  0  0  0
    6.7118    2.4428    0.0000 H   0  0  0  0  0  0  0  0  0  0  0  0
    4.5888    4.2243    0.0000 H   0  0  0  0  0  0  0  0  0  0  0  0
    4.1078    1.4950    0.0000 C   0  0  0  0  0  0  0  0  0  0  0  0
    4.0379   -0.1034    0.0000 H   0  0  0  0  0  0  0  0  0  0  0  0
    5.1887    0.3154    0.0000 H   0  0  0  0  0  0  0  0  0  0  0  0
    2.5320    1.7729    0.0000 C   0  0  0  0  0  0  0  0  0  0  0  0
    2.6018    3.3714    0.0000 H   0  0  0  0  0  0  0  0  0  0  0  0
    1.4511    2.9526    0.0000 H   0  0  0  0  0  0  0  0  0  0  0  0
    1.5035    0.5472    0.0000 C   0  0  0  0  0  0  0  0  0  0  0  0
    1.7124   -1.0390    0.0000 H   0  0  0  0  0  0  0  0  0  0  0  0
    2.7729   -0.4268    0.0000 H   0  0  0  0  0  0  0  0  0  0  0  0
   -0.0001    0.0000    0.0000 C   0  0  0  0  0  0  0  0  0  0  0  0
    0.8000   -1.3856    0.0000 H   0  0  0  0  0  0  0  0  0  0  0  0
   -1.2256   -1.0285    0.0000 C   0  0  0  0  0  0  0  0  0  0  0  0
   -2.8240   -1.0982    0.0000 H   0  0  0  0  0  0  0  0  0  0  0  0
   -2.4052    0.0526    0.0000 H   0  0  0  0  0  0  0  0  0  0  0  0
   -0.9479   -2.6042    0.0000 C   0  0  0  0  0  0  0  0  0  0  0  0
   -0.6700   -4.1798    0.0000 H   0  0  0  0  0  0  0  0  0  0  0  0
   -2.1734   -3.6326    0.0000 H   0  0  0  0  0  0  0  0  0  0  0  0
    0.5557   -3.1515    0.0000 H   0  0  0  0  0  0  0  0  0  0  0  0
   -0.8000    1.3857    0.0000 C   0  0  0  0  0  0  0  0  0  0  0  0
   -0.5911    2.9720    0.0000 H   0  0  0  0  0  0  0  0  0  0  0  0
    0.4693    2.3596    0.0000 H   0  0  0  0  0  0  0  0  0  0  0  0
   -2.3999    1.3857    0.0000 O   0  0  0  0  0  0  0  0  0  0  0  0
   -3.2000    2.7713    0.0000 C   0  0  0  0  0  0  0  0  0  0  0  0
   -2.3999    4.1569    0.0000 O   0  0  0  0  0  0  0  0  0  0  0  0
   -4.8000    2.7713    0.0000 C   0  0  0  0  0  0  0  0  0  0  0  0
   -5.6000    4.1569    0.0000 C   0  0  0  0  0  0  0  0  0  0  0  0
   -6.3999    5.5426    0.0000 H   0  0  0  0  0  0  0  0  0  0  0  0
   -7.2000    4.1569    0.0000 H   0  0  0  0  0  0  0  0  0  0  0  0
   -4.8000    5.5426    0.0000 H   0  0  0  0  0  0  0  0  0  0  0  0
   -5.6000    1.3857    0.0000 C   0  0  0  0  0  0  0  0  0  0  0  0
   -7.2000    1.3857    0.0000 H   0  0  0  0  0  0  0  0  0  0  0  0
   -4.8000    0.0000    0.0000 H   0  0  0  0  0  0  0  0  0  0  0  0
  1  2  1  0  0  0  0
  1  3  1  0  0  0  0
  1  4  1  0  0  0  0
  1  5  1  0  0  0  0
  5  6  1  0  0  0  0
  5  7  1  0  0  0  0
  5  8  1  0  0  0  0
  8  9  1  0  0  0  0
  8 10  1  0  0  0  0
  8 11  1  0  0  0  0
 11 12  1  0  0  0  0
 11 13  1  0  0  0  0
 11 14  1  0  0  0  0
 14 15  1  0  0  0  0
 14 16  1  0  0  0  0
 16 17  1  0  0  0  0
 16 18  1  0  0  0  0
 16 19  1  0  0  0  0
 19 20  1  0  0  0  0
 19 21  1  0  0  0  0
 19 22  1  0  0  0  0
 14 23  1  0  0  0  0
 23 24  1  0  0  0  0
 23 25  1  0  0  0  0
 23 26  1  0  0  0  0
 26 27  1  0  0  0  0
 27 28  2  0  0  0  0
 27 29  1  0  0  0  0
 29 30  1  0  0  0  0
 30 31  1  0  0  0  0
 30 32  1  0  0  0  0
 30 33  1  0  0  0  0
 29 34  2  0  0  0  0
 34 35  1  0  0  0  0
 34 36  1  0  0  0  0
M  END
> <ChemID>
201350

> <source_casrn>
688-84-6

> <CAS>
688-84-6

> <SMILES>
CCCCC(CC)COC(=O)C(C)=C

> <NAME>


> <preferred_name>
2-Ethylhexyl methacrylate

> <iupac>
2-ethylhexyl 2-methylprop-2-enoate

> <MPID>
101239

> <dsstox_substance_id>
DTXSID3027293

> <Canonical_QSARr>
CC(=C)C(=O)OCC(CCCC)CC

> <InChI_Code_QSARr>
InChI=1S/C12H22O2/c1-5-7-8-11(6-2)9-14-12(13)10(3)4/h11H,3,5-9H2,1-2,4H3

> <InChI Key_QSARr>
WDQMWEYDKDCEHT-UHFFFAOYSA-N

> <Salt_Solvent>


> <Ready_Biodeg>
1.0

$$$$
201353
  -INDIGO-08031722522D

 24 23  0  0  0  0  0  0  0  0999 V2000
    2.7712    0.0000    0.0000 C   0  0  0  0  0  0  0  0  0  0  0  0
    4.1569   -0.8000    0.0000 H   0  0  0  0  0  0  0  0  0  0  0  0
    4.1569    0.8000    0.0000 H   0  0  0  0  0  0  0  0  0  0  0  0
    2.7712   -1.6000    0.0000 H   0  0  0  0  0  0  0  0  0  0  0  0
    1.3857    0.8000    0.0000 C   0  0  0  0  0  0  0  0  0  0  0  0
    0.7733    2.2782    0.0000 H   0  0  0  0  0  0  0  0  0  0  0  0
    1.9979    2.2782    0.0000 H   0  0  0  0  0  0  0  0  0  0  0  0
    0.0000    0.0000    0.0000 C   0  0  0  0  0  0  0  0  0  0  0  0
    0.6124   -1.4782    0.0000 H   0  0  0  0  0  0  0  0  0  0  0  0
   -0.6124   -1.4782    0.0000 H   0  0  0  0  0  0  0  0  0  0  0  0
   -1.3857    0.8000    0.0000 C   0  0  0  0  0  0  0  0  0  0  0  0
   -1.9979    2.2782    0.0000 H   0  0  0  0  0  0  0  0  0  0  0  0
   -0.7733    2.2782    0.0000 H   0  0  0  0  0  0  0  0  0  0  0  0
   -2.7712    0.0000    0.0000 O   0  0  0  0  0  0  0  0  0  0  0  0
   -4.1569    0.8000    0.0000 C   0  0  0  0  0  0  0  0  0  0  0  0
   -4.1569    2.4000    0.0000 O   0  0  0  0  0  0  0  0  0  0  0  0
   -5.5426   -0.0000    0.0000 C   0  0  0  0  0  0  0  0  0  0  0  0
   -6.9281    0.8000    0.0000 C   0  0  0  0  0  0  0  0  0  0  0  0
   -8.3138    1.6000    0.0000 H   0  0  0  0  0  0  0  0  0  0  0  0
   -8.3138   -0.0000    0.0000 H   0  0  0  0  0  0  0  0  0  0  0  0
   -6.9281    2.4000    0.0000 H   0  0  0  0  0  0  0  0  0  0  0  0
   -5.5426   -1.6000    0.0000 C   0  0  0  0  0  0  0  0  0  0  0  0
   -6.9281   -2.4000    0.0000 H   0  0  0  0  0  0  0  0  0  0  0  0
   -4.1569   -2.4000    0.0000 H   0  0  0  0  0  0  0  0  0  0  0  0
  1  2  1  0  0  0  0
  1  3  1  0  0  0  0
  1  4  1  0  0  0  0
  1  5  1  0  0  0  0
  5  6  1  0  0  0  0
  5  7  1  0  0  0  0
  5  8  1  0  0  0  0
  8  9  1  0  0  0  0
  8 10  1  0  0  0  0
  8 11  1  0  0  0  0
 11 12  1  0  0  0  0
 11 13  1  0  0  0  0
 11 14  1  0  0  0  0
 14 15  1  0  0  0  0
 15 16  2  0  0  0  0
 15 17  1  0  0  0  0
 17 18  1  0  0  0  0
 18 19  1  0  0  0  0
 18 20  1  0  0  0  0
 18 21  1  0  0  0  0
 17 22  2  0  0  0  0
 22 23  1  0  0  0  0
 22 24  1  0  0  0  0
M  END
> <ChemID>
201353

> <source_casrn>
97-88-1

> <CAS>
97-88-1

> <SMILES>
CCCCOC(=O)C(C)=C

> <NAME>


> <preferred_name>
Butyl methacrylate

> <iupac>
butyl 2-methylprop-2-enoate

> <MPID>
101241

> <dsstox_substance_id>
DTXSID4024696

> <Canonical_QSARr>
CC(=C)C(=O)OCCCC

> <InChI_Code_QSARr>
InChI=1S/C8H14O2/c1-4-5-6-10-8(9)7(2)3/h2,4-6H2,1,3H3

> <InChI Key_QSARr>
SOGAXMICEFXMKE-UHFFFAOYSA-N

> <Salt_Solvent>


> <Ready_Biodeg>
1.0

$$$$
201355
  -INDIGO-08031722522D

 32 31  0  0  0  0  0  0  0  0999 V2000
   -1.3857   -2.4000    0.0000 C   0  0  0  0  0  0  0  0  0  0  0  0
   -1.3857   -4.0000    0.0000 H   0  0  0  0  0  0  0  0  0  0  0  0
   -2.7712   -3.2000    0.0000 H   0  0  0  0  0  0  0  0  0  0  0  0
    0.0000   -3.2000    0.0000 H   0  0  0  0  0  0  0  0  0  0  0  0
   -1.3857   -0.8000    0.0000 C   0  0  0  0  0  0  0  0  0  0  0  0
   -2.9720   -0.5911    0.0000 H   0  0  0  0  0  0  0  0  0  0  0  0
   -2.3597    0.4694    0.0000 H   0  0  0  0  0  0  0  0  0  0  0  0
    0.0000   -0.0000    0.0000 N   0  0  0  0  0  0  0  0  0  0  0  0
    0.0000    1.6000    0.0000 C   0  0  0  0  0  0  0  0  0  0  0  0
    0.9740    2.8694    0.0000 H   0  0  0  0  0  0  0  0  0  0  0  0
    1.5863    1.8089    0.0000 H   0  0  0  0  0  0  0  0  0  0  0  0
   -1.3857    2.4000    0.0000 C   0  0  0  0  0  0  0  0  0  0  0  0
   -2.7712    3.2000    0.0000 H   0  0  0  0  0  0  0  0  0  0  0  0
   -1.3857    4.0000    0.0000 H   0  0  0  0  0  0  0  0  0  0  0  0
   -2.7712    1.6000    0.0000 H   0  0  0  0  0  0  0  0  0  0  0  0
    1.3857   -0.8000    0.0000 C   0  0  0  0  0  0  0  0  0  0  0  0
    1.9980   -2.2782    0.0000 H   0  0  0  0  0  0  0  0  0  0  0  0
    0.7733   -2.2782    0.0000 H   0  0  0  0  0  0  0  0  0  0  0  0
    2.8892   -0.2528    0.0000 C   0  0  0  0  0  0  0  0  0  0  0  0
    2.5429    1.3093    0.0000 H   0  0  0  0  0  0  0  0  0  0  0  0
    3.7488    1.0966    0.0000 H   0  0  0  0  0  0  0  0  0  0  0  0
    4.1149   -1.2812    0.0000 O   0  0  0  0  0  0  0  0  0  0  0  0
    5.6184   -0.7340    0.0000 C   0  0  0  0  0  0  0  0  0  0  0  0
    5.8962    0.8417    0.0000 O   0  0  0  0  0  0  0  0  0  0  0  0
    6.8440   -1.7625    0.0000 C   0  0  0  0  0  0  0  0  0  0  0  0
    8.3475   -1.2152    0.0000 C   0  0  0  0  0  0  0  0  0  0  0  0
    9.8510   -0.6680    0.0000 H   0  0  0  0  0  0  0  0  0  0  0  0
    9.5732   -2.2436    0.0000 H   0  0  0  0  0  0  0  0  0  0  0  0
    8.6254    0.3605    0.0000 H   0  0  0  0  0  0  0  0  0  0  0  0
    6.5662   -3.3381    0.0000 C   0  0  0  0  0  0  0  0  0  0  0  0
    7.7918   -4.3666    0.0000 H   0  0  0  0  0  0  0  0  0  0  0  0
    5.0627   -3.8854    0.0000 H   0  0  0  0  0  0  0  0  0  0  0  0
  1  2  1  0  0  0  0
  1  3  1  0  0  0  0
  1  4  1  0  0  0  0
  1  5  1  0  0  0  0
  5  6  1  0  0  0  0
  5  7  1  0  0  0  0
  5  8  1  0  0  0  0
  8  9  1  0  0  0  0
  9 10  1  0  0  0  0
  9 11  1  0  0  0  0
  9 12  1  0  0  0  0
 12 13  1  0  0  0  0
 12 14  1  0  0  0  0
 12 15  1  0  0  0  0
  8 16  1  0  0  0  0
 16 17  1  0  0  0  0
 16 18  1  0  0  0  0
 16 19  1  0  0  0  0
 19 20  1  0  0  0  0
 19 21  1  0  0  0  0
 19 22  1  0  0  0  0
 22 23  1  0  0  0  0
 23 24  2  0  0  0  0
 23 25  1  0  0  0  0
 25 26  1  0  0  0  0
 26 27  1  0  0  0  0
 26 28  1  0  0  0  0
 26 29  1  0  0  0  0
 25 30  2  0  0  0  0
 30 31  1  0  0  0  0
 30 32  1  0  0  0  0
M  END
> <ChemID>
201355

> <source_casrn>
105-16-8

> <CAS>
105-16-8

> <SMILES>
CCN(CC)CCOC(=O)C(C)=C

> <NAME>


> <preferred_name>
2-(Diethylamino)ethyl methacrylate

> <iupac>
2-(diethylamino)ethyl 2-methylprop-2-enoate

> <MPID>
101242

> <dsstox_substance_id>
DTXSID4026713

> <Canonical_QSARr>
CC(=C)C(=O)OCCN(CC)CC

> <InChI_Code_QSARr>
InChI=1S/C10H19NO2/c1-5-11(6-2)7-8-13-10(12)9(3)4/h3,5-8H2,1-2,4H3

> <InChI Key_QSARr>
SJIXRGNQPBQWMK-UHFFFAOYSA-N

> <Salt_Solvent>


> <Ready_Biodeg>
1.0

$$$$
201357
  -INDIGO-08031722522D

 35 34  0  0  0  0  0  0  0  0999 V2000
    6.9282    0.8000    0.0000 C   0  0  0  0  0  0  0  0  0  0  0  0
    8.3138    1.6000    0.0000 H   0  0  0  0  0  0  0  0  0  0  0  0
    8.3138    0.0000    0.0000 H   0  0  0  0  0  0  0  0  0  0  0  0
    6.9282    2.4000    0.0000 H   0  0  0  0  0  0  0  0  0  0  0  0
    5.5426    0.0000    0.0000 C   0  0  0  0  0  0  0  0  0  0  0  0
    5.5426   -1.6000    0.0000 C   0  0  0  0  0  0  0  0  0  0  0  0
    6.9282   -2.4000    0.0000 H   0  0  0  0  0  0  0  0  0  0  0  0
    4.1570   -2.4000    0.0000 H   0  0  0  0  0  0  0  0  0  0  0  0
    4.1570    0.8000    0.0000 C   0  0  0  0  0  0  0  0  0  0  0  0
    4.1570    2.4000    0.0000 O   0  0  0  0  0  0  0  0  0  0  0  0
    2.7714    0.0000    0.0000 O   0  0  0  0  0  0  0  0  0  0  0  0
    1.3857    0.8000    0.0000 C   0  0  0  0  0  0  0  0  0  0  0  0
    0.7733    2.2782    0.0000 H   0  0  0  0  0  0  0  0  0  0  0  0
    1.9979    2.2782    0.0000 H   0  0  0  0  0  0  0  0  0  0  0  0
    0.0001    0.0000    0.0000 C   0  0  0  0  0  0  0  0  0  0  0  0
    0.6123   -1.4782    0.0000 H   0  0  0  0  0  0  0  0  0  0  0  0
   -0.6123   -1.4782    0.0000 H   0  0  0  0  0  0  0  0  0  0  0  0
   -1.3858    0.8000    0.0000 O   0  0  0  0  0  0  0  0  0  0  0  0
   -2.7714    0.0000    0.0000 C   0  0  0  0  0  0  0  0  0  0  0  0
   -2.1590   -1.4782    0.0000 H   0  0  0  0  0  0  0  0  0  0  0  0
   -3.3836   -1.4782    0.0000 H   0  0  0  0  0  0  0  0  0  0  0  0
   -4.1570    0.8000    0.0000 C   0  0  0  0  0  0  0  0  0  0  0  0
   -4.7692    2.2782    0.0000 H   0  0  0  0  0  0  0  0  0  0  0  0
   -3.5446    2.2782    0.0000 H   0  0  0  0  0  0  0  0  0  0  0  0
   -5.5426   -0.0000    0.0000 O   0  0  0  0  0  0  0  0  0  0  0  0
   -6.9283    0.8000    0.0000 C   0  0  0  0  0  0  0  0  0  0  0  0
   -6.9283    2.4000    0.0000 O   0  0  0  0  0  0  0  0  0  0  0  0
   -8.3139   -0.0000    0.0000 C   0  0  0  0  0  0  0  0  0  0  0  0
   -9.6995    0.8000    0.0000 C   0  0  0  0  0  0  0  0  0  0  0  0
  -11.0851    1.6000    0.0000 H   0  0  0  0  0  0  0  0  0  0  0  0
  -11.0851   -0.0000    0.0000 H   0  0  0  0  0  0  0  0  0  0  0  0
   -9.6995    2.4000    0.0000 H   0  0  0  0  0  0  0  0  0  0  0  0
   -8.3139   -1.6000    0.0000 C   0  0  0  0  0  0  0  0  0  0  0  0
   -9.6995   -2.4000    0.0000 H   0  0  0  0  0  0  0  0  0  0  0  0
   -6.9283   -2.4000    0.0000 H   0  0  0  0  0  0  0  0  0  0  0  0
  1  2  1  0  0  0  0
  1  3  1  0  0  0  0
  1  4  1  0  0  0  0
  1  5  1  0  0  0  0
  5  6  2  0  0  0  0
  6  7  1  0  0  0  0
  6  8  1  0  0  0  0
  5  9  1  0  0  0  0
  9 10  2  0  0  0  0
  9 11  1  0  0  0  0
 11 12  1  0  0  0  0
 12 13  1  0  0  0  0
 12 14  1  0  0  0  0
 12 15  1  0  0  0  0
 15 16  1  0  0  0  0
 15 17  1  0  0  0  0
 15 18  1  0  0  0  0
 18 19  1  0  0  0  0
 19 20  1  0  0  0  0
 19 21  1  0  0  0  0
 19 22  1  0  0  0  0
 22 23  1  0  0  0  0
 22 24  1  0  0  0  0
 22 25  1  0  0  0  0
 25 26  1  0  0  0  0
 26 27  2  0  0  0  0
 26 28  1  0  0  0  0
 28 29  1  0  0  0  0
 29 30  1  0  0  0  0
 29 31  1  0  0  0  0
 29 32  1  0  0  0  0
 28 33  2  0  0  0  0
 33 34  1  0  0  0  0
 33 35  1  0  0  0  0
M  END
> <ChemID>
201357

> <source_casrn>
2358-84-1

> <CAS>
2358-84-1

> <SMILES>
CC(=C)C(=O)OCCOCCOC(=O)C(C)=C

> <NAME>


> <preferred_name>
Di(ethylene glycol) dimethacrylate

> <iupac>
oxydiethane-2,1-diyl bis(2-methylprop-2-enoate)

> <MPID>
101243

> <dsstox_substance_id>
DTXSID8044882

> <Canonical_QSARr>
CC(=C)C(=O)OCCOCCOC(=O)C(C)=C

> <InChI_Code_QSARr>
InChI=1S/C12H18O5/c1-9(2)11(13)16-7-5-15-6-8-17-12(14)10(3)4/h1,3,5-8H2,2,4H3

> <InChI Key_QSARr>
XFCMNSHQOZQILR-UHFFFAOYSA-N

> <Salt_Solvent>


> <Ready_Biodeg>
1.0

$$$$
201358
  -INDIGO-08031722522D

 25 25  0  0  0  0  0  0  0  0999 V2000
    6.9281    0.8000    0.0000 C   0  0  0  0  0  0  0  0  0  0  0  0
    8.3138    1.6000    0.0000 H   0  0  0  0  0  0  0  0  0  0  0  0
    8.3138   -0.0000    0.0000 H   0  0  0  0  0  0  0  0  0  0  0  0
    6.9281    2.4000    0.0000 H   0  0  0  0  0  0  0  0  0  0  0  0
    5.5426   -0.0000    0.0000 C   0  0  0  0  0  0  0  0  0  0  0  0
    5.5426   -1.6000    0.0000 C   0  0  0  0  0  0  0  0  0  0  0  0
    6.9281   -2.4000    0.0000 H   0  0  0  0  0  0  0  0  0  0  0  0
    4.1569   -2.4000    0.0000 H   0  0  0  0  0  0  0  0  0  0  0  0
    4.1569    0.8000    0.0000 C   0  0  0  0  0  0  0  0  0  0  0  0
    4.1569    2.4000    0.0000 O   0  0  0  0  0  0  0  0  0  0  0  0
    2.7712   -0.0000    0.0000 O   0  0  0  0  0  0  0  0  0  0  0  0
    1.3857    0.8000    0.0000 C   0  0  0  0  0  0  0  0  0  0  0  0
    0.7733    2.2782    0.0000 H   0  0  0  0  0  0  0  0  0  0  0  0
    1.9979    2.2782    0.0000 H   0  0  0  0  0  0  0  0  0  0  0  0
    0.0000   -0.0000    0.0000 C   0  0  0  0  0  0  0  0  0  0  0  0
   -1.3857    0.8000    0.0000 C   0  0  0  0  0  0  0  0  0  0  0  0
   -1.3857    2.4000    0.0000 H   0  0  0  0  0  0  0  0  0  0  0  0
   -2.7712   -0.0000    0.0000 C   0  0  0  0  0  0  0  0  0  0  0  0
   -4.1569    0.8000    0.0000 H   0  0  0  0  0  0  0  0  0  0  0  0
   -2.7712   -1.6000    0.0000 C   0  0  0  0  0  0  0  0  0  0  0  0
   -4.1569   -2.4000    0.0000 H   0  0  0  0  0  0  0  0  0  0  0  0
   -1.3857   -2.4000    0.0000 C   0  0  0  0  0  0  0  0  0  0  0  0
   -1.3857   -4.0000    0.0000 H   0  0  0  0  0  0  0  0  0  0  0  0
    0.0000   -1.6000    0.0000 C   0  0  0  0  0  0  0  0  0  0  0  0
    1.3857   -2.4000    0.0000 H   0  0  0  0  0  0  0  0  0  0  0  0
  1  2  1  0  0  0  0
  1  3  1  0  0  0  0
  1  4  1  0  0  0  0
  1  5  1  0  0  0  0
  5  6  2  0  0  0  0
  6  7  1  0  0  0  0
  6  8  1  0  0  0  0
  5  9  1  0  0  0  0
  9 10  2  0  0  0  0
  9 11  1  0  0  0  0
 11 12  1  0  0  0  0
 12 13  1  0  0  0  0
 12 14  1  0  0  0  0
 12 15  1  0  0  0  0
 15 16  1  0  0  0  0
 16 17  1  0  0  0  0
 16 18  2  0  0  0  0
 18 19  1  0  0  0  0
 18 20  1  0  0  0  0
 20 21  1  0  0  0  0
 20 22  2  0  0  0  0
 22 23  1  0  0  0  0
 22 24  1  0  0  0  0
 24 15  2  0  0  0  0
 24 25  1  0  0  0  0
M  END
> <ChemID>
201358

> <source_casrn>
2495-37-6

> <CAS>
2495-37-6

> <SMILES>
CC(=C)C(=O)OCc1ccccc1

> <NAME>


> <preferred_name>
Benzyl methacrylate

> <iupac>
benzyl 2-methylprop-2-enoate

> <MPID>
101244

> <dsstox_substance_id>
DTXSID0022193

> <Canonical_QSARr>
CC(=C)C(=O)OCc1ccccc1

> <InChI_Code_QSARr>
InChI=1S/C11H12O2/c1-9(2)11(12)13-8-10-6-4-3-5-7-10/h3-7H,1,8H2,2H3

> <InChI Key_QSARr>
AOJOEFVRHOZDFN-UHFFFAOYSA-N

> <Salt_Solvent>


> <Ready_Biodeg>
1.0

$$$$
201361
  -INDIGO-08031722522D

 20 20  0  0  0  0  0  0  0  0999 V2000
    2.3999   -1.3856    0.0000 C   0  0  0  0  0  0  0  0  0  0  0  0
    3.2000   -2.7713    0.0000 H   0  0  0  0  0  0  0  0  0  0  0  0
    4.0000   -1.3856    0.0000 H   0  0  0  0  0  0  0  0  0  0  0  0
    1.6000   -2.7713    0.0000 H   0  0  0  0  0  0  0  0  0  0  0  0
    1.6000   -0.0000    0.0000 C   0  0  0  0  0  0  0  0  0  0  0  0
    2.4001    1.3856    0.0000 C   0  0  0  0  0  0  0  0  0  0  0  0
    4.0000    1.3856    0.0000 H   0  0  0  0  0  0  0  0  0  0  0  0
    1.6000    2.7713    0.0000 H   0  0  0  0  0  0  0  0  0  0  0  0
    0.0000    0.0000    0.0000 C   0  0  0  0  0  0  0  0  0  0  0  0
   -0.7999    1.3856    0.0000 C   0  0  0  0  0  0  0  0  0  0  0  0
    0.0000    2.7713    0.0000 H   0  0  0  0  0  0  0  0  0  0  0  0
   -2.4000    1.3856    0.0000 C   0  0  0  0  0  0  0  0  0  0  0  0
   -3.2000    2.7713    0.0000 H   0  0  0  0  0  0  0  0  0  0  0  0
   -3.2000    0.0000    0.0000 C   0  0  0  0  0  0  0  0  0  0  0  0
   -4.8000   -0.0000    0.0000 O   0  0  0  0  0  0  0  0  0  0  0  0
   -5.6000    1.3856    0.0000 H   0  0  0  0  0  0  0  0  0  0  0  0
   -2.4000   -1.3856    0.0000 C   0  0  0  0  0  0  0  0  0  0  0  0
   -3.2000   -2.7713    0.0000 H   0  0  0  0  0  0  0  0  0  0  0  0
   -0.8001   -1.3856    0.0000 C   0  0  0  0  0  0  0  0  0  0  0  0
    0.0000   -2.7713    0.0000 H   0  0  0  0  0  0  0  0  0  0  0  0
  1  2  1  0  0  0  0
  1  3  1  0  0  0  0
  1  4  1  0  0  0  0
  1  5  1  0  0  0  0
  5  6  2  0  0  0  0
  6  7  1  0  0  0  0
  6  8  1  0  0  0  0
  5  9  1  0  0  0  0
  9 10  1  0  0  0  0
 10 11  1  0  0  0  0
 10 12  2  0  0  0  0
 12 13  1  0  0  0  0
 12 14  1  0  0  0  0
 14 15  1  0  0  0  0
 15 16  1  0  0  0  0
 14 17  2  0  0  0  0
 17 18  1  0  0  0  0
 17 19  1  0  0  0  0
 19  9  2  0  0  0  0
 19 20  1  0  0  0  0
M  END
> <ChemID>
201361

> <source_casrn>


> <CAS>
4286-23-1

> <SMILES>
CC(=C)c1ccc(O)cc1

> <NAME>


> <preferred_name>


> <iupac>


> <MPID>
101245

> <dsstox_substance_id>


> <Canonical_QSARr>
CC(=C)c1ccc(O)cc1

> <InChI_Code_QSARr>
InChI=1S/C9H10O/c1-7(2)8-3-5-9(10)6-4-8/h3-6,10H,1H2,2H3

> <InChI Key_QSARr>
JAGRUUPXPPLSRX-UHFFFAOYSA-N

> <Salt_Solvent>


> <Ready_Biodeg>
0.0

$$$$
201363
  -INDIGO-08031722522D

 86 89  0  0  0  0  0  0  0  0999 V2000
    8.8001    1.3856    0.0000 C   0  0  0  0  0  0  0  0  0  0  0  0
    9.6000    2.7714    0.0000 H   0  0  0  0  0  0  0  0  0  0  0  0
   10.4000    1.3856    0.0000 H   0  0  0  0  0  0  0  0  0  0  0  0
    8.0001    2.7714    0.0000 H   0  0  0  0  0  0  0  0  0  0  0  0
    7.2002    1.3856    0.0000 O   0  0  0  0  0  0  0  0  0  0  0  0
    6.4002    0.0001    0.0000 C   0  0  0  0  0  0  0  0  0  0  0  0
    4.7998    0.0001    0.0000 C   0  0  0  0  0  0  0  0  0  0  0  0
    3.9998    1.3856    0.0000 H   0  0  0  0  0  0  0  0  0  0  0  0
    3.9998   -1.3858    0.0000 C   0  0  0  0  0  0  0  0  0  0  0  0
    2.3999   -1.3858    0.0000 N   0  0  0  0  0  0  0  0  0  0  0  0
    1.6000   -2.7713    0.0000 H   0  0  0  0  0  0  0  0  0  0  0  0
    1.6000    0.0001    0.0000 C   0  0  0  0  0  0  0  0  0  0  0  0
    2.3999    1.3856    0.0000 O   0  0  0  0  0  0  0  0  0  0  0  0
    0.0000    0.0001    0.0000 C   0  0  0  0  0  0  0  0  0  0  0  0
    0.0000   -1.6001    0.0000 H   0  0  0  0  0  0  0  0  0  0  0  0
   -1.5999    0.0001    0.0000 N   0  0  0  0  0  0  0  0  0  0  0  0
   -2.3998   -1.3858    0.0000 N   0  0  0  0  0  0  0  0  0  0  0  0
   -3.9998   -1.3858    0.0000 C   0  0  0  0  0  0  0  0  0  0  0  0
   -4.8002   -2.7713    0.0000 C   0  0  0  0  0  0  0  0  0  0  0  0
   -3.9998   -4.1568    0.0000 H   0  0  0  0  0  0  0  0  0  0  0  0
   -6.4001   -2.7713    0.0000 C   0  0  0  0  0  0  0  0  0  0  0  0
   -7.2001   -4.1568    0.0000 H   0  0  0  0  0  0  0  0  0  0  0  0
   -7.2001   -1.3858    0.0000 C   0  0  0  0  0  0  0  0  0  0  0  0
   -8.8000   -1.3858    0.0000 C   0  0  0  0  0  0  0  0  0  0  0  0
   -9.6000   -2.7713    0.0000 C   0  0  0  0  0  0  0  0  0  0  0  0
   -8.8000   -4.1568    0.0000 H   0  0  0  0  0  0  0  0  0  0  0  0
  -11.1999   -2.7713    0.0000 C   0  0  0  0  0  0  0  0  0  0  0  0
  -11.9998   -4.1568    0.0000 H   0  0  0  0  0  0  0  0  0  0  0  0
  -11.9998   -1.3858    0.0000 C   0  0  0  0  0  0  0  0  0  0  0  0
  -13.5998   -1.3858    0.0000 N   0  0  0  0  0  0  0  0  0  0  0  0
  -14.4002   -2.7713    0.0000 N   0  0  0  0  0  0  0  0  0  0  0  0
  -16.0001   -2.7713    0.0000 C   0  0  0  0  0  0  0  0  0  0  0  0
  -17.6001   -2.7713    0.0000 H   0  0  0  0  0  0  0  0  0  0  0  0
  -16.0001   -1.1712    0.0000 C   0  0  0  0  0  0  0  0  0  0  0  0
  -14.6143   -0.3712    0.0000 C   0  0  0  0  0  0  0  0  0  0  0  0
  -14.6143    1.2287    0.0000 H   0  0  0  0  0  0  0  0  0  0  0  0
  -13.2285    0.4287    0.0000 H   0  0  0  0  0  0  0  0  0  0  0  0
  -16.0001    0.4287    0.0000 H   0  0  0  0  0  0  0  0  0  0  0  0
  -17.3855   -0.3712    0.0000 O   0  0  0  0  0  0  0  0  0  0  0  0
  -16.0001   -4.3712    0.0000 C   0  0  0  0  0  0  0  0  0  0  0  0
  -14.6143   -5.1714    0.0000 O   0  0  0  0  0  0  0  0  0  0  0  0
  -17.3855   -5.1714    0.0000 N   0  0  0  0  0  0  0  0  0  0  0  0
  -18.7713   -4.3712    0.0000 H   0  0  0  0  0  0  0  0  0  0  0  0
  -17.3855   -6.7712    0.0000 C   0  0  0  0  0  0  0  0  0  0  0  0
  -16.0001   -7.5712    0.0000 C   0  0  0  0  0  0  0  0  0  0  0  0
  -14.6143   -6.7712    0.0000 H   0  0  0  0  0  0  0  0  0  0  0  0
  -16.0001   -9.1713    0.0000 C   0  0  0  0  0  0  0  0  0  0  0  0
  -14.6143   -9.9713    0.0000 O   0  0  0  0  0  0  0  0  0  0  0  0
  -14.6143  -11.5714    0.0000 C   0  0  0  0  0  0  0  0  0  0  0  0
  -13.2285  -12.3713    0.0000 H   0  0  0  0  0  0  0  0  0  0  0  0
  -14.6143  -13.1713    0.0000 H   0  0  0  0  0  0  0  0  0  0  0  0
  -13.2285  -10.7712    0.0000 H   0  0  0  0  0  0  0  0  0  0  0  0
  -17.3855   -9.9713    0.0000 C   0  0  0  0  0  0  0  0  0  0  0  0
  -17.3855  -11.5714    0.0000 Cl  0  0  0  0  0  0  0  0  0  0  0  0
  -18.7713   -9.1713    0.0000 C   0  0  0  0  0  0  0  0  0  0  0  0
  -20.1571   -9.9713    0.0000 H   0  0  0  0  0  0  0  0  0  0  0  0
  -18.7713   -7.5712    0.0000 C   0  0  0  0  0  0  0  0  0  0  0  0
  -20.1571   -6.7712    0.0000 O   0  0  0  0  0  0  0  0  0  0  0  0
  -21.5424   -7.5712    0.0000 C   0  0  0  0  0  0  0  0  0  0  0  0
  -22.9282   -6.7712    0.0000 H   0  0  0  0  0  0  0  0  0  0  0  0
  -22.9282   -8.3714    0.0000 H   0  0  0  0  0  0  0  0  0  0  0  0
  -21.5424   -5.9713    0.0000 H   0  0  0  0  0  0  0  0  0  0  0  0
  -11.1999    0.0001    0.0000 C   0  0  0  0  0  0  0  0  0  0  0  0
  -11.9998    1.3856    0.0000 Cl  0  0  0  0  0  0  0  0  0  0  0  0
   -9.6000    0.0001    0.0000 C   0  0  0  0  0  0  0  0  0  0  0  0
   -8.8000    1.3856    0.0000 H   0  0  0  0  0  0  0  0  0  0  0  0
   -6.4001    0.0001    0.0000 C   0  0  0  0  0  0  0  0  0  0  0  0
   -7.2001    1.3856    0.0000 H   0  0  0  0  0  0  0  0  0  0  0  0
   -4.8002    0.0001    0.0000 C   0  0  0  0  0  0  0  0  0  0  0  0
   -3.9998    1.3856    0.0000 Cl  0  0  0  0  0  0  0  0  0  0  0  0
    0.0000    1.5999    0.0000 C   0  0  0  0  0  0  0  0  0  0  0  0
   -1.3858    2.4001    0.0000 C   0  0  0  0  0  0  0  0  0  0  0  0
   -1.3858    4.0000    0.0000 H   0  0  0  0  0  0  0  0  0  0  0  0
   -2.7711    3.2001    0.0000 H   0  0  0  0  0  0  0  0  0  0  0  0
    0.0000    3.2001    0.0000 H   0  0  0  0  0  0  0  0  0  0  0  0
    1.3859    2.4001    0.0000 O   0  0  0  0  0  0  0  0  0  0  0  0
    4.7998   -2.7713    0.0000 C   0  0  0  0  0  0  0  0  0  0  0  0
    3.9998   -4.1568    0.0000 O   0  0  0  0  0  0  0  0  0  0  0  0
    4.7998   -5.5427    0.0000 C   0  0  0  0  0  0  0  0  0  0  0  0
    5.5997   -6.9282    0.0000 H   0  0  0  0  0  0  0  0  0  0  0  0
    3.9998   -6.9282    0.0000 H   0  0  0  0  0  0  0  0  0  0  0  0
    6.4002   -5.5427    0.0000 H   0  0  0  0  0  0  0  0  0  0  0  0
    6.4002   -2.7713    0.0000 C   0  0  0  0  0  0  0  0  0  0  0  0
    7.2002   -4.1568    0.0000 H   0  0  0  0  0  0  0  0  0  0  0  0
    7.2002   -1.3858    0.0000 C   0  0  0  0  0  0  0  0  0  0  0  0
    8.8001   -1.3858    0.0000 Cl  0  0  0  0  0  0  0  0  0  0  0  0
  1  2  1  0  0  0  0
  1  3  1  0  0  0  0
  1  4  1  0  0  0  0
  1  5  1  0  0  0  0
  5  6  1  0  0  0  0
  6  7  1  0  0  0  0
  7  8  1  0  0  0  0
  7  9  2  0  0  0  0
  9 10  1  0  0  0  0
 10 11  1  0  0  0  0
 10 12  1  0  0  0  0
 12 13  2  0  0  0  0
 12 14  1  0  0  0  0
 14 15  1  0  0  0  0
 14 16  1  0  0  0  0
 16 17  2  0  0  0  0
 17 18  1  0  0  0  0
 18 19  1  0  0  0  0
 19 20  1  0  0  0  0
 19 21  2  0  0  0  0
 21 22  1  0  0  0  0
 21 23  1  0  0  0  0
 23 24  1  0  0  0  0
 24 25  1  0  0  0  0
 25 26  1  0  0  0  0
 25 27  2  0  0  0  0
 27 28  1  0  0  0  0
 27 29  1  0  0  0  0
 29 30  1  0  0  0  0
 30 31  2  0  0  0  0
 31 32  1  0  0  0  0
 32 33  1  0  0  0  0
 32 34  1  0  0  0  0
 34 35  1  0  0  0  0
 35 36  1  0  0  0  0
 35 37  1  0  0  0  0
 35 38  1  0  0  0  0
 34 39  2  0  0  0  0
 32 40  1  0  0  0  0
 40 41  2  0  0  0  0
 40 42  1  0  0  0  0
 42 43  1  0  0  0  0
 42 44  1  0  0  0  0
 44 45  1  0  0  0  0
 45 46  1  0  0  0  0
 45 47  2  0  0  0  0
 47 48  1  0  0  0  0
 48 49  1  0  0  0  0
 49 50  1  0  0  0  0
 49 51  1  0  0  0  0
 49 52  1  0  0  0  0
 47 53  1  0  0  0  0
 53 54  1  0  0  0  0
 53 55  2  0  0  0  0
 55 56  1  0  0  0  0
 55 57  1  0  0  0  0
 57 44  2  0  0  0  0
 57 58  1  0  0  0  0
 58 59  1  0  0  0  0
 59 60  1  0  0  0  0
 59 61  1  0  0  0  0
 59 62  1  0  0  0  0
 29 63  2  0  0  0  0
 63 64  1  0  0  0  0
 63 65  1  0  0  0  0
 65 24  2  0  0  0  0
 65 66  1  0  0  0  0
 23 67  2  0  0  0  0
 67 68  1  0  0  0  0
 67 69  1  0  0  0  0
 69 18  2  0  0  0  0
 69 70  1  0  0  0  0
 14 71  1  0  0  0  0
 71 72  1  0  0  0  0
 72 73  1  0  0  0  0
 72 74  1  0  0  0  0
 72 75  1  0  0  0  0
 71 76  2  0  0  0  0
  9 77  1  0  0  0  0
 77 78  1  0  0  0  0
 78 79  1  0  0  0  0
 79 80  1  0  0  0  0
 79 81  1  0  0  0  0
 79 82  1  0  0  0  0
 77 83  2  0  0  0  0
 83 84  1  0  0  0  0
 83 85  1  0  0  0  0
 85  6  2  0  0  0  0
 85 86  1  0  0  0  0
M  END
> <ChemID>
201363

> <source_casrn>
5567-15-7

> <CAS>
NOCAS_859915

> <SMILES>
COc1cc(NC(=O)C(N=Nc2ccc(cc2Cl)c3ccc(N=NC(C(C)=O)C(=O)Nc4cc(OC)c(Cl)cc4OC)c(Cl)c3)C(C)=O)c(OC)cc1Cl

> <NAME>


> <preferred_name>
C.I. Pigment Yellow 83

> <iupac>
2,2'-[(3,3'-dichlorobiphenyl-4,4'-diyl)di(E)diazene-2,1-diyl]bis[N-(4-chloro-2,5-dimethoxyphenyl)-3-oxobutanamide]

> <MPID>
101246

> <dsstox_substance_id>
DTXSID60859915

> <Canonical_QSARr>
CC(=O)C(N=Nc1ccc(cc1Cl)-c1cc(Cl)c(cc1)N=NC(C(=O)Nc1cc(OC)c(Cl)cc1OC)C(C)=O)C(=O)Nc1cc(OC)c(Cl)cc1OC

> <InChI_Code_QSARr>
InChI=1S/C36H32Cl4N6O8/c1-17(47)33(35(49)41-27-15-29(51-3)23(39)13-31(27)53-5)45-43-25-9-7-19(11-21(25)37)20-8-10-26(22(38)12-20)44-46-34(18(2)48)36(50)42-28-16-30(52-4)24(40)14-32(28)54-6/h7-16,33-34H,1-6H3,(H,41,49)(H,42,50)/b45-43+,46-44+

> <InChI Key_QSARr>
NKXPXRNUMARIMZ-MWOVFPFUSA-N

> <Salt_Solvent>


> <Ready_Biodeg>
0.0

$$$$
201365
  -INDIGO-08031722522D

 76 79  0  0  0  0  0  0  0  0999 V2000
   -1.3857    2.4001    0.0000 C   0  0  0  0  0  0  0  0  0  0  0  0
   -1.3857    4.0001    0.0000 H   0  0  0  0  0  0  0  0  0  0  0  0
   -2.7715    3.2001    0.0000 H   0  0  0  0  0  0  0  0  0  0  0  0
    0.0000    3.2001    0.0000 H   0  0  0  0  0  0  0  0  0  0  0  0
    0.0000    1.6001    0.0000 C   0  0  0  0  0  0  0  0  0  0  0  0
    1.3858    2.4001    0.0000 O   0  0  0  0  0  0  0  0  0  0  0  0
    0.0000    0.0001    0.0000 C   0  0  0  0  0  0  0  0  0  0  0  0
    1.6001    0.0001    0.0000 H   0  0  0  0  0  0  0  0  0  0  0  0
   -1.6001    0.0001    0.0000 N   0  0  0  0  0  0  0  0  0  0  0  0
   -2.4002    1.3855    0.0000 N   0  0  0  0  0  0  0  0  0  0  0  0
   -3.9998    1.3855    0.0000 C   0  0  0  0  0  0  0  0  0  0  0  0
   -4.7999    2.7712    0.0000 C   0  0  0  0  0  0  0  0  0  0  0  0
   -3.9998    4.1569    0.0000 H   0  0  0  0  0  0  0  0  0  0  0  0
   -6.4000    2.7712    0.0000 C   0  0  0  0  0  0  0  0  0  0  0  0
   -7.2001    4.1569    0.0000 H   0  0  0  0  0  0  0  0  0  0  0  0
   -7.2001    1.3855    0.0000 C   0  0  0  0  0  0  0  0  0  0  0  0
   -8.8002    1.3855    0.0000 C   0  0  0  0  0  0  0  0  0  0  0  0
   -9.5998    2.7712    0.0000 C   0  0  0  0  0  0  0  0  0  0  0  0
   -8.8002    4.1569    0.0000 H   0  0  0  0  0  0  0  0  0  0  0  0
  -11.1999    2.7712    0.0000 C   0  0  0  0  0  0  0  0  0  0  0  0
  -12.0000    4.1569    0.0000 H   0  0  0  0  0  0  0  0  0  0  0  0
  -12.0000    1.3855    0.0000 C   0  0  0  0  0  0  0  0  0  0  0  0
  -13.6001    1.3855    0.0000 N   0  0  0  0  0  0  0  0  0  0  0  0
  -14.4001    2.7712    0.0000 N   0  0  0  0  0  0  0  0  0  0  0  0
  -15.9998    2.7712    0.0000 C   0  0  0  0  0  0  0  0  0  0  0  0
  -15.9998    1.1712    0.0000 H   0  0  0  0  0  0  0  0  0  0  0  0
  -15.9998    4.3712    0.0000 C   0  0  0  0  0  0  0  0  0  0  0  0
  -14.6145    5.1713    0.0000 C   0  0  0  0  0  0  0  0  0  0  0  0
  -14.6145    6.7713    0.0000 H   0  0  0  0  0  0  0  0  0  0  0  0
  -13.2288    5.9713    0.0000 H   0  0  0  0  0  0  0  0  0  0  0  0
  -15.9998    5.9713    0.0000 H   0  0  0  0  0  0  0  0  0  0  0  0
  -17.3856    5.1713    0.0000 O   0  0  0  0  0  0  0  0  0  0  0  0
  -17.5999    2.7712    0.0000 C   0  0  0  0  0  0  0  0  0  0  0  0
  -18.4000    4.1569    0.0000 O   0  0  0  0  0  0  0  0  0  0  0  0
  -18.4000    1.3855    0.0000 N   0  0  0  0  0  0  0  0  0  0  0  0
  -17.5999    0.0001    0.0000 H   0  0  0  0  0  0  0  0  0  0  0  0
  -20.0001    1.3855    0.0000 C   0  0  0  0  0  0  0  0  0  0  0  0
  -20.8002    0.0001    0.0000 C   0  0  0  0  0  0  0  0  0  0  0  0
  -20.0001   -1.3856    0.0000 H   0  0  0  0  0  0  0  0  0  0  0  0
  -22.3998    0.0001    0.0000 C   0  0  0  0  0  0  0  0  0  0  0  0
  -23.1999   -1.3856    0.0000 H   0  0  0  0  0  0  0  0  0  0  0  0
  -23.1999    1.3855    0.0000 C   0  0  0  0  0  0  0  0  0  0  0  0
  -24.8000    1.3855    0.0000 H   0  0  0  0  0  0  0  0  0  0  0  0
  -22.3998    2.7712    0.0000 C   0  0  0  0  0  0  0  0  0  0  0  0
  -23.1999    4.1569    0.0000 H   0  0  0  0  0  0  0  0  0  0  0  0
  -20.8002    2.7712    0.0000 C   0  0  0  0  0  0  0  0  0  0  0  0
  -20.0001    4.1569    0.0000 C   0  0  0  0  0  0  0  0  0  0  0  0
  -20.8002    5.5426    0.0000 H   0  0  0  0  0  0  0  0  0  0  0  0
  -19.2000    5.5426    0.0000 H   0  0  0  0  0  0  0  0  0  0  0  0
  -21.6002    4.1569    0.0000 H   0  0  0  0  0  0  0  0  0  0  0  0
  -11.1999    0.0001    0.0000 C   0  0  0  0  0  0  0  0  0  0  0  0
  -12.0000   -1.3856    0.0000 Cl  0  0  0  0  0  0  0  0  0  0  0  0
   -9.5998    0.0001    0.0000 C   0  0  0  0  0  0  0  0  0  0  0  0
   -8.8002   -1.3856    0.0000 H   0  0  0  0  0  0  0  0  0  0  0  0
   -6.4000    0.0001    0.0000 C   0  0  0  0  0  0  0  0  0  0  0  0
   -7.2001   -1.3856    0.0000 H   0  0  0  0  0  0  0  0  0  0  0  0
   -4.7999    0.0001    0.0000 C   0  0  0  0  0  0  0  0  0  0  0  0
   -3.9998   -1.3856    0.0000 Cl  0  0  0  0  0  0  0  0  0  0  0  0
    0.0000   -1.5999    0.0000 C   0  0  0  0  0  0  0  0  0  0  0  0
   -1.3857   -2.3999    0.0000 O   0  0  0  0  0  0  0  0  0  0  0  0
    1.3858   -2.3999    0.0000 N   0  0  0  0  0  0  0  0  0  0  0  0
    2.7711   -1.5999    0.0000 H   0  0  0  0  0  0  0  0  0  0  0  0
    1.3858   -4.0000    0.0000 C   0  0  0  0  0  0  0  0  0  0  0  0
    0.0000   -4.8000    0.0000 C   0  0  0  0  0  0  0  0  0  0  0  0
   -1.3857   -4.0000    0.0000 H   0  0  0  0  0  0  0  0  0  0  0  0
    0.0000   -6.4000    0.0000 C   0  0  0  0  0  0  0  0  0  0  0  0
   -1.3857   -7.2000    0.0000 H   0  0  0  0  0  0  0  0  0  0  0  0
    1.3858   -7.2000    0.0000 C   0  0  0  0  0  0  0  0  0  0  0  0
    1.3858   -8.8000    0.0000 H   0  0  0  0  0  0  0  0  0  0  0  0
    2.7711   -6.4000    0.0000 C   0  0  0  0  0  0  0  0  0  0  0  0
    4.1568   -7.2000    0.0000 H   0  0  0  0  0  0  0  0  0  0  0  0
    2.7711   -4.8000    0.0000 C   0  0  0  0  0  0  0  0  0  0  0  0
    4.1568   -4.0000    0.0000 C   0  0  0  0  0  0  0  0  0  0  0  0
    5.5426   -3.2000    0.0000 H   0  0  0  0  0  0  0  0  0  0  0  0
    5.5426   -4.8000    0.0000 H   0  0  0  0  0  0  0  0  0  0  0  0
    4.1568   -2.3999    0.0000 H   0  0  0  0  0  0  0  0  0  0  0  0
  1  2  1  0  0  0  0
  1  3  1  0  0  0  0
  1  4  1  0  0  0  0
  1  5  1  0  0  0  0
  5  6  2  0  0  0  0
  5  7  1  0  0  0  0
  7  8  1  0  0  0  0
  7  9  1  0  0  0  0
  9 10  2  0  0  0  0
 10 11  1  0  0  0  0
 11 12  1  0  0  0  0
 12 13  1  0  0  0  0
 12 14  2  0  0  0  0
 14 15  1  0  0  0  0
 14 16  1  0  0  0  0
 16 17  1  0  0  0  0
 17 18  1  0  0  0  0
 18 19  1  0  0  0  0
 18 20  2  0  0  0  0
 20 21  1  0  0  0  0
 20 22  1  0  0  0  0
 22 23  1  0  0  0  0
 23 24  2  0  0  0  0
 24 25  1  0  0  0  0
 25 26  1  0  0  0  0
 25 27  1  0  0  0  0
 27 28  1  0  0  0  0
 28 29  1  0  0  0  0
 28 30  1  0  0  0  0
 28 31  1  0  0  0  0
 27 32  2  0  0  0  0
 25 33  1  0  0  0  0
 33 34  2  0  0  0  0
 33 35  1  0  0  0  0
 35 36  1  0  0  0  0
 35 37  1  0  0  0  0
 37 38  1  0  0  0  0
 38 39  1  0  0  0  0
 38 40  2  0  0  0  0
 40 41  1  0  0  0  0
 40 42  1  0  0  0  0
 42 43  1  0  0  0  0
 42 44  2  0  0  0  0
 44 45  1  0  0  0  0
 44 46  1  0  0  0  0
 46 37  2  0  0  0  0
 46 47  1  0  0  0  0
 47 48  1  0  0  0  0
 47 49  1  0  0  0  0
 47 50  1  0  0  0  0
 22 51  2  0  0  0  0
 51 52  1  0  0  0  0
 51 53  1  0  0  0  0
 53 17  2  0  0  0  0
 53 54  1  0  0  0  0
 16 55  2  0  0  0  0
 55 56  1  0  0  0  0
 55 57  1  0  0  0  0
 57 11  2  0  0  0  0
 57 58  1  0  0  0  0
  7 59  1  0  0  0  0
 59 60  2  0  0  0  0
 59 61  1  0  0  0  0
 61 62  1  0  0  0  0
 61 63  1  0  0  0  0
 63 64  1  0  0  0  0
 64 65  1  0  0  0  0
 64 66  2  0  0  0  0
 66 67  1  0  0  0  0
 66 68  1  0  0  0  0
 68 69  1  0  0  0  0
 68 70  2  0  0  0  0
 70 71  1  0  0  0  0
 70 72  1  0  0  0  0
 72 63  2  0  0  0  0
 72 73  1  0  0  0  0
 73 74  1  0  0  0  0
 73 75  1  0  0  0  0
 73 76  1  0  0  0  0
M  END
> <ChemID>
201365

> <source_casrn>
5468-75-7

> <CAS>
NOCAS_859909

> <SMILES>
CC(=O)C(N=Nc1ccc(cc1Cl)c2ccc(N=NC(C(C)=O)C(=O)Nc3ccccc3C)c(Cl)c2)C(=O)Nc4ccccc4C

> <NAME>


> <preferred_name>
Butanamide, 2,2'-[(3,3'-dichloro[1,1'-biphenyl]-4,4'-diyl)bis(azo)]bis[N-(2-methylphenyl)-3-oxo-

> <iupac>
2,2'-[(3,3'-dichlorobiphenyl-4,4'-diyl)di(E)diazene-2,1-diyl]bis[N-(2-methylphenyl)-3-oxobutanamide]

> <MPID>
101248

> <dsstox_substance_id>
DTXSID50859909

> <Canonical_QSARr>
CC(=O)C(N=Nc1ccc(cc1Cl)-c1cc(Cl)c(cc1)N=NC(C(=O)Nc1ccccc1C)C(C)=O)C(=O)Nc1ccccc1C

> <InChI_Code_QSARr>
InChI=1S/C34H30Cl2N6O4/c1-19-9-5-7-11-27(19)37-33(45)31(21(3)43)41-39-29-15-13-23(17-25(29)35)24-14-16-30(26(36)18-24)40-42-32(22(4)44)34(46)38-28-12-8-6-10-20(28)2/h5-18,31-32H,1-4H3,(H,37,45)(H,38,46)/b41-39+,42-40+

> <InChI Key_QSARr>
LQZFGPJGXVFSTR-LMXNTIJMSA-N

> <Salt_Solvent>


> <Ready_Biodeg>
0.0

$$$$
201369
  -INDIGO-08031722522D

 32 32  0  0  0  0  0  0  0  0999 V2000
    4.7999    2.7713    0.0000 C   0  0  0  0  0  0  0  0  0  0  0  0
    5.6000    4.1569    0.0000 H   0  0  0  0  0  0  0  0  0  0  0  0
    6.4000    2.7713    0.0000 H   0  0  0  0  0  0  0  0  0  0  0  0
    4.0001    4.1569    0.0000 H   0  0  0  0  0  0  0  0  0  0  0  0
    3.2001    2.7713    0.0000 O   0  0  0  0  0  0  0  0  0  0  0  0
    2.4000    1.3857    0.0000 C   0  0  0  0  0  0  0  0  0  0  0  0
    0.8000    1.3857    0.0000 C   0  0  0  0  0  0  0  0  0  0  0  0
   -0.0001    2.7713    0.0000 H   0  0  0  0  0  0  0  0  0  0  0  0
   -0.0001    0.0001    0.0000 C   0  0  0  0  0  0  0  0  0  0  0  0
   -1.5999    0.0001    0.0000 N   0  0  0  0  0  0  0  0  0  0  0  0
   -2.4000   -1.3857    0.0000 H   0  0  0  0  0  0  0  0  0  0  0  0
   -2.4000    1.3857    0.0000 C   0  0  0  0  0  0  0  0  0  0  0  0
   -1.5999    2.7713    0.0000 O   0  0  0  0  0  0  0  0  0  0  0  0
   -4.0000    1.3857    0.0000 C   0  0  0  0  0  0  0  0  0  0  0  0
   -4.2088   -0.2006    0.0000 H   0  0  0  0  0  0  0  0  0  0  0  0
   -5.2694    0.4117    0.0000 H   0  0  0  0  0  0  0  0  0  0  0  0
   -4.8001    2.7713    0.0000 C   0  0  0  0  0  0  0  0  0  0  0  0
   -6.3999    2.7713    0.0000 C   0  0  0  0  0  0  0  0  0  0  0  0
   -8.0000    2.7713    0.0000 H   0  0  0  0  0  0  0  0  0  0  0  0
   -7.2000    4.1569    0.0000 H   0  0  0  0  0  0  0  0  0  0  0  0
   -7.2000    1.3857    0.0000 H   0  0  0  0  0  0  0  0  0  0  0  0
   -4.0000    4.1569    0.0000 O   0  0  0  0  0  0  0  0  0  0  0  0
    0.8000   -1.3857    0.0000 C   0  0  0  0  0  0  0  0  0  0  0  0
   -0.0001   -2.7713    0.0000 O   0  0  0  0  0  0  0  0  0  0  0  0
    0.8000   -4.1569    0.0000 C   0  0  0  0  0  0  0  0  0  0  0  0
   -0.0001   -5.5426    0.0000 H   0  0  0  0  0  0  0  0  0  0  0  0
    1.6000   -5.5426    0.0000 H   0  0  0  0  0  0  0  0  0  0  0  0
   -0.7999   -4.1569    0.0000 H   0  0  0  0  0  0  0  0  0  0  0  0
    2.4000   -1.3857    0.0000 C   0  0  0  0  0  0  0  0  0  0  0  0
    3.2001   -2.7713    0.0000 H   0  0  0  0  0  0  0  0  0  0  0  0
    3.2001    0.0001    0.0000 C   0  0  0  0  0  0  0  0  0  0  0  0
    4.7999    0.0001    0.0000 Cl  0  0  0  0  0  0  0  0  0  0  0  0
  1  2  1  0  0  0  0
  1  3  1  0  0  0  0
  1  4  1  0  0  0  0
  1  5  1  0  0  0  0
  5  6  1  0  0  0  0
  6  7  1  0  0  0  0
  7  8  1  0  0  0  0
  7  9  2  0  0  0  0
  9 10  1  0  0  0  0
 10 11  1  0  0  0  0
 10 12  1  0  0  0  0
 12 13  2  0  0  0  0
 12 14  1  0  0  0  0
 14 15  1  0  0  0  0
 14 16  1  0  0  0  0
 14 17  1  0  0  0  0
 17 18  1  0  0  0  0
 18 19  1  0  0  0  0
 18 20  1  0  0  0  0
 18 21  1  0  0  0  0
 17 22  2  0  0  0  0
  9 23  1  0  0  0  0
 23 24  1  0  0  0  0
 24 25  1  0  0  0  0
 25 26  1  0  0  0  0
 25 27  1  0  0  0  0
 25 28  1  0  0  0  0
 23 29  2  0  0  0  0
 29 30  1  0  0  0  0
 29 31  1  0  0  0  0
 31  6  2  0  0  0  0
 31 32  1  0  0  0  0
M  END
> <ChemID>
201369

> <source_casrn>
4433-79-8

> <CAS>
4433-79-8

> <SMILES>
COc1cc(NC(=O)CC(C)=O)c(OC)cc1Cl

> <NAME>


> <preferred_name>
N-(4-Chloro-2,5-dimethoxyphenyl)-3-oxobutanamide

> <iupac>
N-(4-chloro-2,5-dimethoxyphenyl)-3-oxobutanamide

> <MPID>
101249

> <dsstox_substance_id>
DTXSID5029265

> <Canonical_QSARr>
CC(=O)CC(=O)Nc1cc(OC)c(Cl)cc1OC

> <InChI_Code_QSARr>
InChI=1S/C12H14ClNO4/c1-7(15)4-12(16)14-9-6-10(17-2)8(13)5-11(9)18-3/h5-6H,4H2,1-3H3,(H,14,16)

> <InChI Key_QSARr>
MOUVJGIRLPZEES-UHFFFAOYSA-N

> <Salt_Solvent>


> <Ready_Biodeg>
0.0

$$$$
201371
  -INDIGO-08031722522D

 30 30  0  0  0  0  0  0  0  0999 V2000
    8.3139    0.0000    0.0000 C   0  0  0  0  0  0  0  0  0  0  0  0
    9.6995    0.8001    0.0000 H   0  0  0  0  0  0  0  0  0  0  0  0
    9.6995   -0.7999    0.0000 H   0  0  0  0  0  0  0  0  0  0  0  0
    8.3139    1.6000    0.0000 H   0  0  0  0  0  0  0  0  0  0  0  0
    6.9282   -0.7999    0.0000 C   0  0  0  0  0  0  0  0  0  0  0  0
    6.9282   -2.3999    0.0000 O   0  0  0  0  0  0  0  0  0  0  0  0
    5.5425    0.0000    0.0000 C   0  0  0  0  0  0  0  0  0  0  0  0
    6.1548    1.4782    0.0000 H   0  0  0  0  0  0  0  0  0  0  0  0
    4.9304    1.4782    0.0000 H   0  0  0  0  0  0  0  0  0  0  0  0
    4.1569   -0.7999    0.0000 C   0  0  0  0  0  0  0  0  0  0  0  0
    4.1569   -2.3999    0.0000 O   0  0  0  0  0  0  0  0  0  0  0  0
    2.7714    0.0000    0.0000 N   0  0  0  0  0  0  0  0  0  0  0  0
    2.7714    1.6000    0.0000 H   0  0  0  0  0  0  0  0  0  0  0  0
    1.3856   -0.7999    0.0000 C   0  0  0  0  0  0  0  0  0  0  0  0
    1.3856   -2.4001    0.0000 C   0  0  0  0  0  0  0  0  0  0  0  0
    2.7714   -3.2000    0.0000 H   0  0  0  0  0  0  0  0  0  0  0  0
    0.0001   -3.2000    0.0000 C   0  0  0  0  0  0  0  0  0  0  0  0
    0.0001   -4.8000    0.0000 H   0  0  0  0  0  0  0  0  0  0  0  0
   -1.3856   -2.3999    0.0000 C   0  0  0  0  0  0  0  0  0  0  0  0
   -2.7712   -3.2000    0.0000 C   0  0  0  0  0  0  0  0  0  0  0  0
   -4.1569   -3.9999    0.0000 H   0  0  0  0  0  0  0  0  0  0  0  0
   -2.7712   -4.8000    0.0000 H   0  0  0  0  0  0  0  0  0  0  0  0
   -4.1569   -2.3999    0.0000 H   0  0  0  0  0  0  0  0  0  0  0  0
   -1.3856   -0.7999    0.0000 C   0  0  0  0  0  0  0  0  0  0  0  0
   -2.7712    0.0000    0.0000 H   0  0  0  0  0  0  0  0  0  0  0  0
    0.0001    0.0000    0.0000 C   0  0  0  0  0  0  0  0  0  0  0  0
    0.0001    1.6000    0.0000 C   0  0  0  0  0  0  0  0  0  0  0  0
    0.0001    3.2000    0.0000 H   0  0  0  0  0  0  0  0  0  0  0  0
   -1.3856    2.4001    0.0000 H   0  0  0  0  0  0  0  0  0  0  0  0
    1.3856    2.4001    0.0000 H   0  0  0  0  0  0  0  0  0  0  0  0
  1  2  1  0  0  0  0
  1  3  1  0  0  0  0
  1  4  1  0  0  0  0
  1  5  1  0  0  0  0
  5  6  2  0  0  0  0
  5  7  1  0  0  0  0
  7  8  1  0  0  0  0
  7  9  1  0  0  0  0
  7 10  1  0  0  0  0
 10 11  2  0  0  0  0
 10 12  1  0  0  0  0
 12 13  1  0  0  0  0
 12 14  1  0  0  0  0
 14 15  1  0  0  0  0
 15 16  1  0  0  0  0
 15 17  2  0  0  0  0
 17 18  1  0  0  0  0
 17 19  1  0  0  0  0
 19 20  1  0  0  0  0
 20 21  1  0  0  0  0
 20 22  1  0  0  0  0
 20 23  1  0  0  0  0
 19 24  2  0  0  0  0
 24 25  1  0  0  0  0
 24 26  1  0  0  0  0
 26 14  2  0  0  0  0
 26 27  1  0  0  0  0
 27 28  1  0  0  0  0
 27 29  1  0  0  0  0
 27 30  1  0  0  0  0
M  END
> <ChemID>
201371

> <source_casrn>
97-36-9

> <CAS>
97-36-9

> <SMILES>
CC(=O)CC(=O)Nc1ccc(C)cc1C

> <NAME>


> <preferred_name>
N-(2,4-Dimethylphenyl)-3-oxobutanamide

> <iupac>
C12H15NO2

> <MPID>
101250

> <dsstox_substance_id>
DTXSID4040719

> <Canonical_QSARr>
CC(=O)CC(=O)Nc1ccc(C)cc1C

> <InChI_Code_QSARr>
InChI=1S/C12H15NO2/c1-8-4-5-11(9(2)6-8)13-12(15)7-10(3)14/h4-6H,7H2,1-3H3,(H,13,15)

> <InChI Key_QSARr>
HGVIAKXYAZRSEG-UHFFFAOYSA-N

> <Salt_Solvent>


> <Ready_Biodeg>
0.0

$$$$
201373
  -INDIGO-08031722522D

 24 24  0  0  0  0  0  0  0  0999 V2000
    2.7712   -0.0000    0.0000 C   0  0  0  0  0  0  0  0  0  0  0  0
    4.1569    0.8000    0.0000 H   0  0  0  0  0  0  0  0  0  0  0  0
    4.1569   -0.8000    0.0000 H   0  0  0  0  0  0  0  0  0  0  0  0
    2.7712    1.6000    0.0000 H   0  0  0  0  0  0  0  0  0  0  0  0
    1.3857   -0.8000    0.0000 C   0  0  0  0  0  0  0  0  0  0  0  0
    1.3857   -2.4000    0.0000 O   0  0  0  0  0  0  0  0  0  0  0  0
    0.0000   -0.0000    0.0000 C   0  0  0  0  0  0  0  0  0  0  0  0
   -0.6124    1.4782    0.0000 H   0  0  0  0  0  0  0  0  0  0  0  0
    0.6124    1.4782    0.0000 H   0  0  0  0  0  0  0  0  0  0  0  0
   -1.3857   -0.8000    0.0000 C   0  0  0  0  0  0  0  0  0  0  0  0
   -1.3857   -2.4000    0.0000 O   0  0  0  0  0  0  0  0  0  0  0  0
   -2.7712   -0.0000    0.0000 N   0  0  0  0  0  0  0  0  0  0  0  0
   -2.7712    1.6000    0.0000 H   0  0  0  0  0  0  0  0  0  0  0  0
   -4.1569   -0.8000    0.0000 C   0  0  0  0  0  0  0  0  0  0  0  0
   -5.5426   -0.0000    0.0000 C   0  0  0  0  0  0  0  0  0  0  0  0
   -5.5426    1.6000    0.0000 H   0  0  0  0  0  0  0  0  0  0  0  0
   -6.9281   -0.8000    0.0000 C   0  0  0  0  0  0  0  0  0  0  0  0
   -8.3138   -0.0000    0.0000 H   0  0  0  0  0  0  0  0  0  0  0  0
   -6.9281   -2.4000    0.0000 C   0  0  0  0  0  0  0  0  0  0  0  0
   -8.3138   -3.2000    0.0000 H   0  0  0  0  0  0  0  0  0  0  0  0
   -5.5426   -3.2000    0.0000 C   0  0  0  0  0  0  0  0  0  0  0  0
   -5.5426   -4.8000    0.0000 H   0  0  0  0  0  0  0  0  0  0  0  0
   -4.1569   -2.4000    0.0000 C   0  0  0  0  0  0  0  0  0  0  0  0
   -2.7712   -3.2000    0.0000 H   0  0  0  0  0  0  0  0  0  0  0  0
  1  2  1  0  0  0  0
  1  3  1  0  0  0  0
  1  4  1  0  0  0  0
  1  5  1  0  0  0  0
  5  6  2  0  0  0  0
  5  7  1  0  0  0  0
  7  8  1  0  0  0  0
  7  9  1  0  0  0  0
  7 10  1  0  0  0  0
 10 11  2  0  0  0  0
 10 12  1  0  0  0  0
 12 13  1  0  0  0  0
 12 14  1  0  0  0  0
 14 15  1  0  0  0  0
 15 16  1  0  0  0  0
 15 17  2  0  0  0  0
 17 18  1  0  0  0  0
 17 19  1  0  0  0  0
 19 20  1  0  0  0  0
 19 21  2  0  0  0  0
 21 22  1  0  0  0  0
 21 23  1  0  0  0  0
 23 14  2  0  0  0  0
 23 24  1  0  0  0  0
M  END
> <ChemID>
201373

> <source_casrn>
102-01-2

> <CAS>
102-01-2

> <SMILES>
CC(=O)CC(=O)Nc1ccccc1

> <NAME>


> <preferred_name>
Acetoacetanilide

> <iupac>
3-oxo-N-phenylbutanamide

> <MPID>
101252

> <dsstox_substance_id>
DTXSID0024397

> <Canonical_QSARr>
CC(=O)CC(=O)Nc1ccccc1

> <InChI_Code_QSARr>
InChI=1S/C10H11NO2/c1-8(12)7-10(13)11-9-5-3-2-4-6-9/h2-6H,7H2,1H3,(H,11,13)

> <InChI Key_QSARr>
DYRDKSSFIWVSNM-UHFFFAOYSA-N

> <Salt_Solvent>


> <Ready_Biodeg>
1.0

$$$$
201375
  -INDIGO-08031722522D

 16 15  0  0  0  0  0  0  0  0999 V2000
    4.1569    0.8000    0.0000 C   0  0  0  0  0  0  0  0  0  0  0  0
    5.5426    1.6000    0.0000 H   0  0  0  0  0  0  0  0  0  0  0  0
    5.5426    0.0000    0.0000 H   0  0  0  0  0  0  0  0  0  0  0  0
    4.1569    2.4000    0.0000 H   0  0  0  0  0  0  0  0  0  0  0  0
    2.7713    0.0000    0.0000 O   0  0  0  0  0  0  0  0  0  0  0  0
    1.3857    0.8000    0.0000 C   0  0  0  0  0  0  0  0  0  0  0  0
    1.3857    2.4000    0.0000 O   0  0  0  0  0  0  0  0  0  0  0  0
   -0.0001    0.0000    0.0000 C   0  0  0  0  0  0  0  0  0  0  0  0
   -0.6124   -1.4782    0.0000 H   0  0  0  0  0  0  0  0  0  0  0  0
    0.6122   -1.4782    0.0000 H   0  0  0  0  0  0  0  0  0  0  0  0
   -1.3857    0.8000    0.0000 C   0  0  0  0  0  0  0  0  0  0  0  0
   -2.7713    0.0000    0.0000 C   0  0  0  0  0  0  0  0  0  0  0  0
   -4.1569   -0.8000    0.0000 H   0  0  0  0  0  0  0  0  0  0  0  0
   -4.1569    0.8000    0.0000 H   0  0  0  0  0  0  0  0  0  0  0  0
   -2.7713   -1.6000    0.0000 H   0  0  0  0  0  0  0  0  0  0  0  0
   -1.3857    2.4000    0.0000 O   0  0  0  0  0  0  0  0  0  0  0  0
  1  2  1  0  0  0  0
  1  3  1  0  0  0  0
  1  4  1  0  0  0  0
  1  5  1  0  0  0  0
  5  6  1  0  0  0  0
  6  7  2  0  0  0  0
  6  8  1  0  0  0  0
  8  9  1  0  0  0  0
  8 10  1  0  0  0  0
  8 11  1  0  0  0  0
 11 12  1  0  0  0  0
 12 13  1  0  0  0  0
 12 14  1  0  0  0  0
 12 15  1  0  0  0  0
 11 16  2  0  0  0  0
M  END
> <ChemID>
201375

> <source_casrn>
105-45-3

> <CAS>
105-45-3

> <SMILES>
COC(=O)CC(C)=O

> <NAME>


> <preferred_name>
Methyl acetoacetate

> <iupac>
methyl 3-oxobutanoate

> <MPID>
101253

> <dsstox_substance_id>
DTXSID9026716

> <Canonical_QSARr>
CC(=O)CC(=O)OC

> <InChI_Code_QSARr>
InChI=1S/C5H8O3/c1-4(6)3-5(7)8-2/h3H2,1-2H3

> <InChI Key_QSARr>
WRQNANDWMGAFTP-UHFFFAOYSA-N

> <Salt_Solvent>


> <Ready_Biodeg>
1.0

$$$$
201381
  -INDIGO-08031722522D

 30 30  0  0  0  0  0  0  0  0999 V2000
    4.1569    0.8000    0.0000 C   0  0  0  0  0  0  0  0  0  0  0  0
    5.5426    1.6000    0.0000 H   0  0  0  0  0  0  0  0  0  0  0  0
    5.5426   -0.0001    0.0000 H   0  0  0  0  0  0  0  0  0  0  0  0
    4.1569    2.4000    0.0000 H   0  0  0  0  0  0  0  0  0  0  0  0
    2.7714   -0.0001    0.0000 C   0  0  0  0  0  0  0  0  0  0  0  0
    2.7714   -1.6000    0.0000 O   0  0  0  0  0  0  0  0  0  0  0  0
    1.3857    0.8000    0.0000 N   0  0  0  0  0  0  0  0  0  0  0  0
    1.6635    2.3757    0.0000 H   0  0  0  0  0  0  0  0  0  0  0  0
   -0.0000   -0.0001    0.0000 C   0  0  0  0  0  0  0  0  0  0  0  0
    1.2256   -1.0284    0.0000 H   0  0  0  0  0  0  0  0  0  0  0  0
   -0.8000    1.3857    0.0000 C   0  0  0  0  0  0  0  0  0  0  0  0
    0.7035    1.9329    0.0000 H   0  0  0  0  0  0  0  0  0  0  0  0
   -1.0779    2.9613    0.0000 O   0  0  0  0  0  0  0  0  0  0  0  0
   -2.5814    3.5086    0.0000 H   0  0  0  0  0  0  0  0  0  0  0  0
   -2.4000    1.3857    0.0000 O   0  0  0  0  0  0  0  0  0  0  0  0
   -3.2000   -0.0001    0.0000 C   0  0  0  0  0  0  0  0  0  0  0  0
   -4.4257   -1.0284    0.0000 H   0  0  0  0  0  0  0  0  0  0  0  0
   -4.4257    1.0284    0.0000 C   0  0  0  0  0  0  0  0  0  0  0  0
   -4.7719    2.5905    0.0000 H   0  0  0  0  0  0  0  0  0  0  0  0
   -3.5660    2.3779    0.0000 H   0  0  0  0  0  0  0  0  0  0  0  0
   -5.9292    0.4812    0.0000 O   0  0  0  0  0  0  0  0  0  0  0  0
   -7.1549    1.5097    0.0000 H   0  0  0  0  0  0  0  0  0  0  0  0
   -2.4000   -1.3856    0.0000 C   0  0  0  0  0  0  0  0  0  0  0  0
   -2.1222   -2.9613    0.0000 H   0  0  0  0  0  0  0  0  0  0  0  0
   -3.9035   -1.9329    0.0000 O   0  0  0  0  0  0  0  0  0  0  0  0
   -4.1814   -3.5086    0.0000 H   0  0  0  0  0  0  0  0  0  0  0  0
   -0.8000   -1.3856    0.0000 C   0  0  0  0  0  0  0  0  0  0  0  0
    0.7035   -1.9329    0.0000 H   0  0  0  0  0  0  0  0  0  0  0  0
   -1.0779   -2.9613    0.0000 O   0  0  0  0  0  0  0  0  0  0  0  0
    0.1478   -3.9898    0.0000 H   0  0  0  0  0  0  0  0  0  0  0  0
  1  2  1  0  0  0  0
  1  3  1  0  0  0  0
  1  4  1  0  0  0  0
  1  5  1  0  0  0  0
  5  6  2  0  0  0  0
  5  7  1  0  0  0  0
  7  8  1  0  0  0  0
  7  9  1  0  0  0  0
  9 10  1  0  0  0  0
  9 11  1  0  0  0  0
 11 12  1  0  0  0  0
 11 13  1  0  0  0  0
 13 14  1  0  0  0  0
 11 15  1  0  0  0  0
 15 16  1  0  0  0  0
 16 17  1  0  0  0  0
 16 18  1  0  0  0  0
 18 19  1  0  0  0  0
 18 20  1  0  0  0  0
 18 21  1  0  0  0  0
 21 22  1  0  0  0  0
 16 23  1  0  0  0  0
 23 24  1  0  0  0  0
 23 25  1  0  0  0  0
 25 26  1  0  0  0  0
 23 27  1  0  0  0  0
 27  9  1  0  0  0  0
 27 28  1  0  0  0  0
 27 29  1  0  0  0  0
 29 30  1  0  0  0  0
M  END
> <ChemID>
201381

> <source_casrn>
72-87-7

> <CAS>
NOCAS_859634

> <SMILES>
CC(=O)NC1C(O)OC(CO)C(O)C1O

> <NAME>


> <preferred_name>
2-Acetamido-2-deoxy-D-glucopyranose

> <iupac>
C9H16O6

> <MPID>
101254

> <dsstox_substance_id>
DTXSID80859634

> <Canonical_QSARr>
CC(=O)NC1C(O)C(O)C(CO)OC1O

> <InChI_Code_QSARr>
InChI=1S/C8H15NO6/c1-3(11)9-5-7(13)6(12)4(2-10)15-8(5)14/h4-8,10,12-14H,2H2,1H3,(H,9,11)

> <InChI Key_QSARr>
OVRNDRQMDRJTHS-UHFFFAOYSA-N

> <Salt_Solvent>


> <Ready_Biodeg>
1.0

$$$$
201383
  -INDIGO-08031722522D

 25 25  0  0  0  0  0  0  0  0999 V2000
    5.6000    1.3856    0.0000 C   0  0  0  0  0  0  0  0  0  0  0  0
    7.2000    1.3856    0.0000 H   0  0  0  0  0  0  0  0  0  0  0  0
    6.4000    2.7713    0.0000 H   0  0  0  0  0  0  0  0  0  0  0  0
    6.4000    0.0000    0.0000 H   0  0  0  0  0  0  0  0  0  0  0  0
    4.8000    0.0000    0.0000 O   0  0  0  0  0  0  0  0  0  0  0  0
    3.1999    0.0000    0.0000 C   0  0  0  0  0  0  0  0  0  0  0  0
    2.3999    1.3856    0.0000 C   0  0  0  0  0  0  0  0  0  0  0  0
    3.1999    2.7713    0.0000 H   0  0  0  0  0  0  0  0  0  0  0  0
    0.8001    1.3856    0.0000 C   0  0  0  0  0  0  0  0  0  0  0  0
    0.0001    2.7713    0.0000 H   0  0  0  0  0  0  0  0  0  0  0  0
    0.0001    0.0000    0.0000 C   0  0  0  0  0  0  0  0  0  0  0  0
   -1.5999    0.0000    0.0000 N   0  0  0  0  0  0  0  0  0  0  0  0
   -2.4000   -1.3856    0.0000 H   0  0  0  0  0  0  0  0  0  0  0  0
   -2.4000    1.3856    0.0000 C   0  0  0  0  0  0  0  0  0  0  0  0
   -4.0000    1.3856    0.0000 C   0  0  0  0  0  0  0  0  0  0  0  0
   -5.6000    1.3856    0.0000 H   0  0  0  0  0  0  0  0  0  0  0  0
   -4.8000    2.7713    0.0000 H   0  0  0  0  0  0  0  0  0  0  0  0
   -4.8000    0.0000    0.0000 H   0  0  0  0  0  0  0  0  0  0  0  0
   -1.5999    2.7713    0.0000 O   0  0  0  0  0  0  0  0  0  0  0  0
    0.8001   -1.3856    0.0000 C   0  0  0  0  0  0  0  0  0  0  0  0
    0.0001   -2.7713    0.0000 H   0  0  0  0  0  0  0  0  0  0  0  0
    2.3999   -1.3856    0.0000 C   0  0  0  0  0  0  0  0  0  0  0  0
    3.1999   -2.7713    0.0000 N   0  0  0  0  0  0  0  0  0  0  0  0
    2.3999   -4.1569    0.0000 H   0  0  0  0  0  0  0  0  0  0  0  0
    4.8000   -2.7713    0.0000 H   0  0  0  0  0  0  0  0  0  0  0  0
  1  2  1  0  0  0  0
  1  3  1  0  0  0  0
  1  4  1  0  0  0  0
  1  5  1  0  0  0  0
  5  6  1  0  0  0  0
  6  7  1  0  0  0  0
  7  8  1  0  0  0  0
  7  9  2  0  0  0  0
  9 10  1  0  0  0  0
  9 11  1  0  0  0  0
 11 12  1  0  0  0  0
 12 13  1  0  0  0  0
 12 14  1  0  0  0  0
 14 15  1  0  0  0  0
 15 16  1  0  0  0  0
 15 17  1  0  0  0  0
 15 18  1  0  0  0  0
 14 19  2  0  0  0  0
 11 20  2  0  0  0  0
 20 21  1  0  0  0  0
 20 22  1  0  0  0  0
 22  6  2  0  0  0  0
 22 23  1  0  0  0  0
 23 24  1  0  0  0  0
 23 25  1  0  0  0  0
M  END
> <ChemID>
201383

> <source_casrn>
6375-47-9

> <CAS>
6375-47-9

> <SMILES>
COc1ccc(NC(C)=O)cc1N

> <NAME>


> <preferred_name>
N-(3-Amino-4-methoxyphenyl)acetamide

> <iupac>
N-(3-amino-4-methoxyphenyl)acetamide

> <MPID>
101255

> <dsstox_substance_id>
DTXSID2027620

> <Canonical_QSARr>
CC(=O)Nc1cc(N)c(cc1)OC

> <InChI_Code_QSARr>
InChI=1S/C9H12N2O2/c1-6(12)11-7-3-4-9(13-2)8(10)5-7/h3-5H,10H2,1-2H3,(H,11,12)

> <InChI Key_QSARr>
SJWQCBCAGCEWCV-UHFFFAOYSA-N

> <Salt_Solvent>


> <Ready_Biodeg>
0.0

$$$$
201389
  -INDIGO-08031722522D

 66 69  0  0  0  0  0  0  0  0999 V2000
    6.3035    3.3185    0.0000 C   0  0  0  0  0  0  0  0  0  0  0  0
    7.9035    3.3185    0.0000 H   0  0  0  0  0  0  0  0  0  0  0  0
    7.1035    4.7041    0.0000 H   0  0  0  0  0  0  0  0  0  0  0  0
    7.1035    1.9329    0.0000 H   0  0  0  0  0  0  0  0  0  0  0  0
    4.7036    3.3185    0.0000 C   0  0  0  0  0  0  0  0  0  0  0  0
    3.9036    4.7041    0.0000 O   0  0  0  0  0  0  0  0  0  0  0  0
    3.9036    1.9329    0.0000 O   0  0  0  0  0  0  0  0  0  0  0  0
    2.3036    1.9329    0.0000 C   0  0  0  0  0  0  0  0  0  0  0  0
    2.0946    3.5193    0.0000 H   0  0  0  0  0  0  0  0  0  0  0  0
    1.0342    2.9069    0.0000 H   0  0  0  0  0  0  0  0  0  0  0  0
    1.5036    0.5473    0.0000 C   0  0  0  0  0  0  0  0  0  0  0  0
    2.2423   -0.8719    0.0000 H   0  0  0  0  0  0  0  0  0  0  0  0
    3.0296    0.0661    0.0000 H   0  0  0  0  0  0  0  0  0  0  0  0
    0.0001   -0.0001    0.0000 N   0  0  0  0  0  0  0  0  0  0  0  0
   -0.2780   -1.5758    0.0000 C   0  0  0  0  0  0  0  0  0  0  0  0
   -1.6272   -2.4353    0.0000 H   0  0  0  0  0  0  0  0  0  0  0  0
   -1.8398   -1.2293    0.0000 H   0  0  0  0  0  0  0  0  0  0  0  0
    0.7506   -2.8014    0.0000 C   0  0  0  0  0  0  0  0  0  0  0  0
   -0.3304   -3.9809    0.0000 H   0  0  0  0  0  0  0  0  0  0  0  0
    0.8203   -4.3999    0.0000 H   0  0  0  0  0  0  0  0  0  0  0  0
    2.3264   -2.5234    0.0000 O   0  0  0  0  0  0  0  0  0  0  0  0
    3.3549   -3.7493    0.0000 C   0  0  0  0  0  0  0  0  0  0  0  0
    4.9304   -3.4714    0.0000 C   0  0  0  0  0  0  0  0  0  0  0  0
    6.5063   -3.1934    0.0000 H   0  0  0  0  0  0  0  0  0  0  0  0
    5.9590   -4.6970    0.0000 H   0  0  0  0  0  0  0  0  0  0  0  0
    5.4778   -1.9678    0.0000 H   0  0  0  0  0  0  0  0  0  0  0  0
    2.8076   -5.2526    0.0000 O   0  0  0  0  0  0  0  0  0  0  0  0
   -1.3857    0.8001    0.0000 C   0  0  0  0  0  0  0  0  0  0  0  0
   -1.3857    2.3999    0.0000 C   0  0  0  0  0  0  0  0  0  0  0  0
    0.0001    3.2001    0.0000 H   0  0  0  0  0  0  0  0  0  0  0  0
   -2.7712    3.2001    0.0000 C   0  0  0  0  0  0  0  0  0  0  0  0
   -2.7712    4.7999    0.0000 H   0  0  0  0  0  0  0  0  0  0  0  0
   -4.1570    2.3999    0.0000 C   0  0  0  0  0  0  0  0  0  0  0  0
   -5.5424    3.2001    0.0000 N   0  0  0  0  0  0  0  0  0  0  0  0
   -5.5424    4.7999    0.0000 N   0  0  0  0  0  0  0  0  0  0  0  0
   -6.9282    5.6001    0.0000 C   0  0  0  0  0  0  0  0  0  0  0  0
   -8.3900    4.9492    0.0000 S   0  0  0  0  0  0  0  0  0  0  0  0
   -9.4605    6.1381    0.0000 C   0  0  0  0  0  0  0  0  0  0  0  0
  -11.0605    6.1381    0.0000 C   0  0  0  0  0  0  0  0  0  0  0  0
  -11.8605    4.7525    0.0000 H   0  0  0  0  0  0  0  0  0  0  0  0
  -11.8605    7.5240    0.0000 C   0  0  0  0  0  0  0  0  0  0  0  0
  -13.4605    7.5240    0.0000 Cl  0  0  0  0  0  0  0  0  0  0  0  0
  -11.0605    8.9096    0.0000 C   0  0  0  0  0  0  0  0  0  0  0  0
  -11.8605   10.2952    0.0000 H   0  0  0  0  0  0  0  0  0  0  0  0
   -9.4605    8.9096    0.0000 C   0  0  0  0  0  0  0  0  0  0  0  0
   -8.6606   10.2952    0.0000 H   0  0  0  0  0  0  0  0  0  0  0  0
   -8.6606    7.5240    0.0000 C   0  0  0  0  0  0  0  0  0  0  0  0
   -7.0955    7.1913    0.0000 N   0  0  0  0  0  0  0  0  0  0  0  0
   -4.1570    0.8001    0.0000 C   0  0  0  0  0  0  0  0  0  0  0  0
   -5.5424   -0.0001    0.0000 N   0  0  0  0  0  0  0  0  0  0  0  0
   -6.9282    0.8001    0.0000 H   0  0  0  0  0  0  0  0  0  0  0  0
   -5.5424   -1.6000    0.0000 C   0  0  0  0  0  0  0  0  0  0  0  0
   -4.1570   -2.3999    0.0000 O   0  0  0  0  0  0  0  0  0  0  0  0
   -6.9282   -2.3999    0.0000 C   0  0  0  0  0  0  0  0  0  0  0  0
   -8.3137   -1.6000    0.0000 C   0  0  0  0  0  0  0  0  0  0  0  0
   -8.3137   -0.0001    0.0000 H   0  0  0  0  0  0  0  0  0  0  0  0
   -9.6995   -2.3999    0.0000 C   0  0  0  0  0  0  0  0  0  0  0  0
  -11.0850   -1.6000    0.0000 H   0  0  0  0  0  0  0  0  0  0  0  0
   -9.6995   -4.0000    0.0000 C   0  0  0  0  0  0  0  0  0  0  0  0
  -11.0850   -4.7999    0.0000 H   0  0  0  0  0  0  0  0  0  0  0  0
   -8.3137   -4.7999    0.0000 C   0  0  0  0  0  0  0  0  0  0  0  0
   -8.3137   -6.4000    0.0000 H   0  0  0  0  0  0  0  0  0  0  0  0
   -6.9282   -4.0000    0.0000 C   0  0  0  0  0  0  0  0  0  0  0  0
   -5.5424   -4.7999    0.0000 H   0  0  0  0  0  0  0  0  0  0  0  0
   -2.7712   -0.0001    0.0000 C   0  0  0  0  0  0  0  0  0  0  0  0
   -2.7712   -1.6000    0.0000 H   0  0  0  0  0  0  0  0  0  0  0  0
  1  2  1  0  0  0  0
  1  3  1  0  0  0  0
  1  4  1  0  0  0  0
  1  5  1  0  0  0  0
  5  6  2  0  0  0  0
  5  7  1  0  0  0  0
  7  8  1  0  0  0  0
  8  9  1  0  0  0  0
  8 10  1  0  0  0  0
  8 11  1  0  0  0  0
 11 12  1  0  0  0  0
 11 13  1  0  0  0  0
 11 14  1  0  0  0  0
 14 15  1  0  0  0  0
 15 16  1  0  0  0  0
 15 17  1  0  0  0  0
 15 18  1  0  0  0  0
 18 19  1  0  0  0  0
 18 20  1  0  0  0  0
 18 21  1  0  0  0  0
 21 22  1  0  0  0  0
 22 23  1  0  0  0  0
 23 24  1  0  0  0  0
 23 25  1  0  0  0  0
 23 26  1  0  0  0  0
 22 27  2  0  0  0  0
 14 28  1  0  0  0  0
 28 29  1  0  0  0  0
 29 30  1  0  0  0  0
 29 31  2  0  0  0  0
 31 32  1  0  0  0  0
 31 33  1  0  0  0  0
 33 34  1  0  0  0  0
 34 35  2  0  0  0  0
 35 36  1  0  0  0  0
 36 37  1  0  0  0  0
 37 38  1  0  0  0  0
 38 39  1  0  0  0  0
 39 40  1  0  0  0  0
 39 41  2  0  0  0  0
 41 42  1  0  0  0  0
 41 43  1  0  0  0  0
 43 44  1  0  0  0  0
 43 45  2  0  0  0  0
 45 46  1  0  0  0  0
 45 47  1  0  0  0  0
 47 38  2  0  0  0  0
 47 48  1  0  0  0  0
 48 36  2  0  0  0  0
 33 49  2  0  0  0  0
 49 50  1  0  0  0  0
 50 51  1  0  0  0  0
 50 52  1  0  0  0  0
 52 53  2  0  0  0  0
 52 54  1  0  0  0  0
 54 55  1  0  0  0  0
 55 56  1  0  0  0  0
 55 57  2  0  0  0  0
 57 58  1  0  0  0  0
 57 59  1  0  0  0  0
 59 60  1  0  0  0  0
 59 61  2  0  0  0  0
 61 62  1  0  0  0  0
 61 63  1  0  0  0  0
 63 54  2  0  0  0  0
 63 64  1  0  0  0  0
 49 65  1  0  0  0  0
 65 28  2  0  0  0  0
 65 66  1  0  0  0  0
M  END
> <ChemID>
201389

> <source_casrn>


> <CAS>
26630-87-5

> <SMILES>
CC(=O)OCCN(CCOC(C)=O)c1ccc(N=Nc2sc3cc(Cl)ccc3n2)c(NC(=O)c4ccccc4)c1

> <NAME>


> <preferred_name>


> <iupac>


> <MPID>
101256

> <dsstox_substance_id>


> <Canonical_QSARr>
CC(=O)OCCN(CCOC(C)=O)c1cc(NC(=O)c2ccccc2)c(cc1)N=Nc1[n]c2ccc(Cl)cc2[s]1

> <InChI_Code_QSARr>
InChI=1S/C28H26ClN5O5S/c1-18(35)38-14-12-34(13-15-39-19(2)36)22-9-11-23(25(17-22)30-27(37)20-6-4-3-5-7-20)32-33-28-31-24-10-8-21(29)16-26(24)40-28/h3-11,16-17H,12-15H2,1-2H3,(H,30,37)/b33-32+

> <InChI Key_QSARr>
UGFKGKQLDQFUEG-ULIFNZDWSA-N

> <Salt_Solvent>


> <Ready_Biodeg>
0.0

$$$$
201391
  -INDIGO-08031722522D

 21 20  0  0  0  0  0  0  0  0999 V2000
    5.5426    0.0000    0.0000 C   0  0  0  0  0  0  0  0  0  0  0  0
    6.9282   -0.8000    0.0000 H   0  0  0  0  0  0  0  0  0  0  0  0
    6.9282    0.8000    0.0000 H   0  0  0  0  0  0  0  0  0  0  0  0
    5.5426   -1.6000    0.0000 H   0  0  0  0  0  0  0  0  0  0  0  0
    4.1570    0.8000    0.0000 C   0  0  0  0  0  0  0  0  0  0  0  0
    4.1570    2.4000    0.0000 O   0  0  0  0  0  0  0  0  0  0  0  0
    2.7713    0.0000    0.0000 O   0  0  0  0  0  0  0  0  0  0  0  0
    1.3856    0.8000    0.0000 O   0  0  0  0  0  0  0  0  0  0  0  0
   -0.0000    0.0000    0.0000 C   0  0  0  0  0  0  0  0  0  0  0  0
   -0.8000    1.3856    0.0000 C   0  0  0  0  0  0  0  0  0  0  0  0
   -1.6000    2.7713    0.0000 H   0  0  0  0  0  0  0  0  0  0  0  0
   -0.0000    2.7713    0.0000 H   0  0  0  0  0  0  0  0  0  0  0  0
   -2.3999    1.3856    0.0000 H   0  0  0  0  0  0  0  0  0  0  0  0
   -1.3857   -0.8000    0.0000 C   0  0  0  0  0  0  0  0  0  0  0  0
   -2.7713   -1.6000    0.0000 H   0  0  0  0  0  0  0  0  0  0  0  0
   -1.3857   -2.4000    0.0000 H   0  0  0  0  0  0  0  0  0  0  0  0
   -2.7713    0.0000    0.0000 H   0  0  0  0  0  0  0  0  0  0  0  0
    0.8001   -1.3856    0.0000 C   0  0  0  0  0  0  0  0  0  0  0  0
    1.6000   -2.7713    0.0000 H   0  0  0  0  0  0  0  0  0  0  0  0
    2.4000   -1.3856    0.0000 H   0  0  0  0  0  0  0  0  0  0  0  0
   -0.0000   -2.7713    0.0000 H   0  0  0  0  0  0  0  0  0  0  0  0
  1  2  1  0  0  0  0
  1  3  1  0  0  0  0
  1  4  1  0  0  0  0
  1  5  1  0  0  0  0
  5  6  2  0  0  0  0
  5  7  1  0  0  0  0
  7  8  1  0  0  0  0
  8  9  1  0  0  0  0
  9 10  1  0  0  0  0
 10 11  1  0  0  0  0
 10 12  1  0  0  0  0
 10 13  1  0  0  0  0
  9 14  1  0  0  0  0
 14 15  1  0  0  0  0
 14 16  1  0  0  0  0
 14 17  1  0  0  0  0
  9 18  1  0  0  0  0
 18 19  1  0  0  0  0
 18 20  1  0  0  0  0
 18 21  1  0  0  0  0
M  END
> <ChemID>
201391

> <source_casrn>
107-71-1

> <CAS>
107-71-1

> <SMILES>
CC(=O)OOC(C)(C)C

> <NAME>


> <preferred_name>
tert-Butyl peroxyacetate

> <iupac>
tert-butyl ethaneperoxoate

> <MPID>
101257

> <dsstox_substance_id>
DTXSID9029142

> <Canonical_QSARr>
CC(=O)OOC(C)(C)C

> <InChI_Code_QSARr>
InChI=1S/C6H12O3/c1-5(7)8-9-6(2,3)4/h1-4H3

> <InChI Key_QSARr>
SWAXTRYEYUTSAP-UHFFFAOYSA-N

> <Salt_Solvent>


> <Ready_Biodeg>
0.0

$$$$
201395
  -INDIGO-08031722522D

 25 25  0  0  0  0  0  0  0  0999 V2000
    0.0000    1.6000    0.0000 C   0  0  0  0  0  0  0  0  0  0  0  0
    0.0000    3.2000    0.0000 H   0  0  0  0  0  0  0  0  0  0  0  0
   -1.3856    2.4000    0.0000 H   0  0  0  0  0  0  0  0  0  0  0  0
    1.3856    2.4000    0.0000 H   0  0  0  0  0  0  0  0  0  0  0  0
    0.0000    0.0000    0.0000 C   0  0  0  0  0  0  0  0  0  0  0  0
    0.0000   -1.6000    0.0000 Br  0  0  0  0  0  0  0  0  0  0  0  0
    1.6000    0.0000    0.0000 C   0  0  0  0  0  0  0  0  0  0  0  0
    3.2000    0.0000    0.0000 H   0  0  0  0  0  0  0  0  0  0  0  0
    2.4000    1.3857    0.0000 H   0  0  0  0  0  0  0  0  0  0  0  0
    2.4000   -1.3857    0.0000 Br  0  0  0  0  0  0  0  0  0  0  0  0
   -1.6000    0.0000    0.0000 C   0  0  0  0  0  0  0  0  0  0  0  0
   -1.8089   -1.5863    0.0000 H   0  0  0  0  0  0  0  0  0  0  0  0
   -2.8693   -0.9740    0.0000 H   0  0  0  0  0  0  0  0  0  0  0  0
   -2.4000    1.3857    0.0000 O   0  0  0  0  0  0  0  0  0  0  0  0
   -4.0000    1.3857    0.0000 C   0  0  0  0  0  0  0  0  0  0  0  0
   -4.8000    2.7713    0.0000 C   0  0  0  0  0  0  0  0  0  0  0  0
   -4.0000    4.1569    0.0000 Br  0  0  0  0  0  0  0  0  0  0  0  0
   -6.4000    2.7713    0.0000 C   0  0  0  0  0  0  0  0  0  0  0  0
   -7.2000    4.1569    0.0000 H   0  0  0  0  0  0  0  0  0  0  0  0
   -7.2000    1.3857    0.0000 C   0  0  0  0  0  0  0  0  0  0  0  0
   -8.8000    1.3857    0.0000 Br  0  0  0  0  0  0  0  0  0  0  0  0
   -6.4000    0.0000    0.0000 C   0  0  0  0  0  0  0  0  0  0  0  0
   -7.2000   -1.3857    0.0000 H   0  0  0  0  0  0  0  0  0  0  0  0
   -4.8000    0.0000    0.0000 C   0  0  0  0  0  0  0  0  0  0  0  0
   -4.0000   -1.3857    0.0000 Br  0  0  0  0  0  0  0  0  0  0  0  0
  1  2  1  0  0  0  0
  1  3  1  0  0  0  0
  1  4  1  0  0  0  0
  1  5  1  0  0  0  0
  5  6  1  0  0  0  0
  5  7  1  0  0  0  0
  7  8  1  0  0  0  0
  7  9  1  0  0  0  0
  7 10  1  0  0  0  0
  5 11  1  0  0  0  0
 11 12  1  0  0  0  0
 11 13  1  0  0  0  0
 11 14  1  0  0  0  0
 14 15  1  0  0  0  0
 15 16  1  0  0  0  0
 16 17  1  0  0  0  0
 16 18  2  0  0  0  0
 18 19  1  0  0  0  0
 18 20  1  0  0  0  0
 20 21  1  0  0  0  0
 20 22  2  0  0  0  0
 22 23  1  0  0  0  0
 22 24  1  0  0  0  0
 24 15  2  0  0  0  0
 24 25  1  0  0  0  0
M  END
> <ChemID>
201395

> <source_casrn>


> <CAS>
36065-30-2

> <SMILES>
CC(Br)(CBr)COc1c(Br)cc(Br)cc1Br

> <NAME>


> <preferred_name>


> <iupac>


> <MPID>
101258

> <dsstox_substance_id>


> <Canonical_QSARr>
CC(Br)(COc1c(Br)cc(Br)cc1Br)CBr

> <InChI_Code_QSARr>
InChI=1S/C10H9Br5O/c1-10(15,4-11)5-16-9-7(13)2-6(12)3-8(9)14/h2-3H,4-5H2,1H3

> <InChI Key_QSARr>
WNMLTOIDDCEBNY-UHFFFAOYSA-N

> <Salt_Solvent>


> <Ready_Biodeg>
0.0

$$$$
201398
  -INDIGO-08031722522D

 16 15  0  0  0  0  0  0  0  0999 V2000
    0.8000   -1.3856    0.0000 C   0  0  0  0  0  0  0  0  0  0  0  0
    1.6000   -2.7713    0.0000 H   0  0  0  0  0  0  0  0  0  0  0  0
   -0.0000   -2.7713    0.0000 H   0  0  0  0  0  0  0  0  0  0  0  0
    2.4000   -1.3856    0.0000 H   0  0  0  0  0  0  0  0  0  0  0  0
   -0.0000    0.0000    0.0000 C   0  0  0  0  0  0  0  0  0  0  0  0
   -0.8000    1.3856    0.0000 C   0  0  0  0  0  0  0  0  0  0  0  0
   -1.6000    2.7713    0.0000 H   0  0  0  0  0  0  0  0  0  0  0  0
   -2.4000    1.3856    0.0000 H   0  0  0  0  0  0  0  0  0  0  0  0
   -0.0000    2.7713    0.0000 H   0  0  0  0  0  0  0  0  0  0  0  0
    1.3856    0.8000    0.0000 C   0  0  0  0  0  0  0  0  0  0  0  0
    2.7713    1.6000    0.0000 H   0  0  0  0  0  0  0  0  0  0  0  0
    2.7713    0.0000    0.0000 H   0  0  0  0  0  0  0  0  0  0  0  0
    1.3856    2.4000    0.0000 H   0  0  0  0  0  0  0  0  0  0  0  0
   -1.3856   -0.8000    0.0000 N   0  0  0  0  0  0  0  0  0  0  0  0
   -1.3856   -2.4000    0.0000 H   0  0  0  0  0  0  0  0  0  0  0  0
   -2.7713    0.0000    0.0000 H   0  0  0  0  0  0  0  0  0  0  0  0
  1  2  1  0  0  0  0
  1  3  1  0  0  0  0
  1  4  1  0  0  0  0
  1  5  1  0  0  0  0
  5  6  1  0  0  0  0
  6  7  1  0  0  0  0
  6  8  1  0  0  0  0
  6  9  1  0  0  0  0
  5 10  1  0  0  0  0
 10 11  1  0  0  0  0
 10 12  1  0  0  0  0
 10 13  1  0  0  0  0
  5 14  1  0  0  0  0
 14 15  1  0  0  0  0
 14 16  1  0  0  0  0
M  END
> <ChemID>
201398

> <source_casrn>
75-64-9

> <CAS>
75-64-9

> <SMILES>
CC(C)(C)N

> <NAME>


> <preferred_name>
tert-Butylamine

> <iupac>
2-methylpropan-2-amine

> <MPID>
101260

> <dsstox_substance_id>
DTXSID5024681

> <Canonical_QSARr>
CC(C)(C)N

> <InChI_Code_QSARr>
InChI=1S/C4H11N/c1-4(2,3)5/h5H2,1-3H3

> <InChI Key_QSARr>
YBRBMKDOPFTVDT-UHFFFAOYSA-N

> <Salt_Solvent>


> <Ready_Biodeg>
0.0

$$$$
201399
  -INDIGO-08031722522D

 23 22  0  0  0  0  0  0  0  0999 V2000
    0.8000   -1.3857    0.0000 C   0  0  0  0  0  0  0  0  0  0  0  0
    1.6000   -2.7713    0.0000 H   0  0  0  0  0  0  0  0  0  0  0  0
    0.0000   -2.7713    0.0000 H   0  0  0  0  0  0  0  0  0  0  0  0
    2.3999   -1.3857    0.0000 H   0  0  0  0  0  0  0  0  0  0  0  0
    0.0000   -0.0000    0.0000 C   0  0  0  0  0  0  0  0  0  0  0  0
    1.3857    0.8000    0.0000 C   0  0  0  0  0  0  0  0  0  0  0  0
    2.7713    1.6000    0.0000 H   0  0  0  0  0  0  0  0  0  0  0  0
    2.7713   -0.0000    0.0000 H   0  0  0  0  0  0  0  0  0  0  0  0
    1.3857    2.4000    0.0000 H   0  0  0  0  0  0  0  0  0  0  0  0
   -1.0284    1.2257    0.0000 C   0  0  0  0  0  0  0  0  0  0  0  0
   -2.0569    2.4514    0.0000 H   0  0  0  0  0  0  0  0  0  0  0  0
   -1.9116    1.3494    0.0000 H   0  0  0  0  0  0  0  0  0  0  0  0
   -0.4813    2.7292    0.0000 H   0  0  0  0  0  0  0  0  0  0  0  0
   -1.3856   -0.8000    0.0000 N   0  0  0  0  0  0  0  0  0  0  0  0
   -1.3856   -2.4000    0.0000 H   0  0  0  0  0  0  0  0  0  0  0  0
   -2.7713   -0.0000    0.0000 C   0  0  0  0  0  0  0  0  0  0  0  0
   -2.6164    0.8782    0.0000 H   0  0  0  0  0  0  0  0  0  0  0  0
   -3.3836    1.4782    0.0000 H   0  0  0  0  0  0  0  0  0  0  0  0
   -4.1570   -0.8000    0.0000 C   0  0  0  0  0  0  0  0  0  0  0  0
   -4.7693   -2.2782    0.0000 H   0  0  0  0  0  0  0  0  0  0  0  0
   -3.5447   -2.2782    0.0000 H   0  0  0  0  0  0  0  0  0  0  0  0
   -5.5426   -0.0000    0.0000 O   0  0  0  0  0  0  0  0  0  0  0  0
   -6.9282   -0.8000    0.0000 H   0  0  0  0  0  0  0  0  0  0  0  0
  1  2  1  0  0  0  0
  1  3  1  0  0  0  0
  1  4  1  0  0  0  0
  1  5  1  0  0  0  0
  5  6  1  0  0  0  0
  6  7  1  0  0  0  0
  6  8  1  0  0  0  0
  6  9  1  0  0  0  0
  5 10  1  0  0  0  0
 10 11  1  0  0  0  0
 10 12  1  0  0  0  0
 10 13  1  0  0  0  0
  5 14  1  0  0  0  0
 14 15  1  0  0  0  0
 14 16  1  0  0  0  0
 16 17  1  0  0  0  0
 16 18  1  0  0  0  0
 16 19  1  0  0  0  0
 19 20  1  0  0  0  0
 19 21  1  0  0  0  0
 19 22  1  0  0  0  0
 22 23  1  0  0  0  0
M  END
> <ChemID>
201399

> <source_casrn>
4620-70-6

> <CAS>
4620-70-6

> <SMILES>
CC(C)(C)NCCO

> <NAME>


> <preferred_name>
2-(tert-Butylamino)ethanol

> <iupac>
2-(tert-butylamino)ethanol

> <MPID>
101261

> <dsstox_substance_id>
DTXSID1044431

> <Canonical_QSARr>
CC(C)(C)NCCO

> <InChI_Code_QSARr>
InChI=1S/C6H15NO/c1-6(2,3)7-4-5-8/h7-8H,4-5H2,1-3H3

> <InChI Key_QSARr>
IUXYVKZUDNLISR-UHFFFAOYSA-N

> <Salt_Solvent>


> <Ready_Biodeg>
0.0

$$$$
201400
  -INDIGO-08031722522D

 22 21  0  0  0  0  0  0  0  0999 V2000
    0.8000   -1.3857    0.0000 C   0  0  0  0  0  0  0  0  0  0  0  0
    1.6000   -2.7713    0.0000 H   0  0  0  0  0  0  0  0  0  0  0  0
    0.0000   -2.7713    0.0000 H   0  0  0  0  0  0  0  0  0  0  0  0
    2.3999   -1.3857    0.0000 H   0  0  0  0  0  0  0  0  0  0  0  0
    0.0000   -0.0000    0.0000 C   0  0  0  0  0  0  0  0  0  0  0  0
   -1.0284    1.2257    0.0000 C   0  0  0  0  0  0  0  0  0  0  0  0
   -2.0569    2.4514    0.0000 H   0  0  0  0  0  0  0  0  0  0  0  0
   -0.4813    2.7292    0.0000 H   0  0  0  0  0  0  0  0  0  0  0  0
   -1.9116    1.3494    0.0000 H   0  0  0  0  0  0  0  0  0  0  0  0
    1.3857    0.8000    0.0000 C   0  0  0  0  0  0  0  0  0  0  0  0
    2.7713    1.6000    0.0000 H   0  0  0  0  0  0  0  0  0  0  0  0
    2.7713   -0.0000    0.0000 H   0  0  0  0  0  0  0  0  0  0  0  0
    1.3857    2.4000    0.0000 H   0  0  0  0  0  0  0  0  0  0  0  0
   -1.3856   -0.8000    0.0000 O   0  0  0  0  0  0  0  0  0  0  0  0
   -2.7713   -0.0000    0.0000 C   0  0  0  0  0  0  0  0  0  0  0  0
   -2.6164    0.8782    0.0000 H   0  0  0  0  0  0  0  0  0  0  0  0
   -3.3836    1.4782    0.0000 H   0  0  0  0  0  0  0  0  0  0  0  0
   -4.1570   -0.8000    0.0000 C   0  0  0  0  0  0  0  0  0  0  0  0
   -4.7693   -2.2782    0.0000 H   0  0  0  0  0  0  0  0  0  0  0  0
   -3.5447   -2.2782    0.0000 H   0  0  0  0  0  0  0  0  0  0  0  0
   -5.5426   -0.0000    0.0000 O   0  0  0  0  0  0  0  0  0  0  0  0
   -6.9282   -0.8000    0.0000 H   0  0  0  0  0  0  0  0  0  0  0  0
  1  2  1  0  0  0  0
  1  3  1  0  0  0  0
  1  4  1  0  0  0  0
  1  5  1  0  0  0  0
  5  6  1  0  0  0  0
  6  7  1  0  0  0  0
  6  8  1  0  0  0  0
  6  9  1  0  0  0  0
  5 10  1  0  0  0  0
 10 11  1  0  0  0  0
 10 12  1  0  0  0  0
 10 13  1  0  0  0  0
  5 14  1  0  0  0  0
 14 15  1  0  0  0  0
 15 16  1  0  0  0  0
 15 17  1  0  0  0  0
 15 18  1  0  0  0  0
 18 19  1  0  0  0  0
 18 20  1  0  0  0  0
 18 21  1  0  0  0  0
 21 22  1  0  0  0  0
M  END
> <ChemID>
201400

> <source_casrn>
7580-85-0

> <CAS>
7580-85-0

> <SMILES>
CC(C)(C)OCCO

> <NAME>


> <preferred_name>
Ethanol, 2-(1,1-dimethylethoxy)-

> <iupac>
2-[(2-methylpropan-2-yl)oxy]ethanol

> <MPID>
101262

> <dsstox_substance_id>
DTXSID4073384

> <Canonical_QSARr>
CC(C)(C)OCCO

> <InChI_Code_QSARr>
InChI=1S/C6H14O2/c1-6(2,3)8-5-4-7/h7H,4-5H2,1-3H3

> <InChI Key_QSARr>
BDLXTDLGTWNUFM-UHFFFAOYSA-N

> <Salt_Solvent>


> <Ready_Biodeg>
0.0

$$$$
201402
  -INDIGO-08031722522D

 28 28  0  0  0  0  0  0  0  0999 V2000
    0.7999   -1.3856    0.0000 C   0  0  0  0  0  0  0  0  0  0  0  0
    1.5999   -2.7713    0.0000 H   0  0  0  0  0  0  0  0  0  0  0  0
   -0.0001   -2.7713    0.0000 H   0  0  0  0  0  0  0  0  0  0  0  0
    2.4001   -1.3856    0.0000 H   0  0  0  0  0  0  0  0  0  0  0  0
   -0.0001    0.0001    0.0000 C   0  0  0  0  0  0  0  0  0  0  0  0
   -1.3856   -0.8000    0.0000 C   0  0  0  0  0  0  0  0  0  0  0  0
   -2.7713   -1.6000    0.0000 H   0  0  0  0  0  0  0  0  0  0  0  0
   -2.7713    0.0001    0.0000 H   0  0  0  0  0  0  0  0  0  0  0  0
   -1.3856   -2.4000    0.0000 H   0  0  0  0  0  0  0  0  0  0  0  0
   -0.8001    1.3856    0.0000 C   0  0  0  0  0  0  0  0  0  0  0  0
   -1.6000    2.7713    0.0000 H   0  0  0  0  0  0  0  0  0  0  0  0
   -0.0001    2.7713    0.0000 H   0  0  0  0  0  0  0  0  0  0  0  0
   -2.4000    1.3856    0.0000 H   0  0  0  0  0  0  0  0  0  0  0  0
    1.3856    0.8000    0.0000 O   0  0  0  0  0  0  0  0  0  0  0  0
    2.7713    0.0001    0.0000 O   0  0  0  0  0  0  0  0  0  0  0  0
    4.1569    0.8000    0.0000 C   0  0  0  0  0  0  0  0  0  0  0  0
    4.1569    2.4000    0.0000 O   0  0  0  0  0  0  0  0  0  0  0  0
    5.5426    0.0001    0.0000 C   0  0  0  0  0  0  0  0  0  0  0  0
    5.5426   -1.6000    0.0000 C   0  0  0  0  0  0  0  0  0  0  0  0
    4.1569   -2.4000    0.0000 H   0  0  0  0  0  0  0  0  0  0  0  0
    6.9283   -2.4000    0.0000 C   0  0  0  0  0  0  0  0  0  0  0  0
    6.9283   -4.0000    0.0000 H   0  0  0  0  0  0  0  0  0  0  0  0
    8.3138   -1.6000    0.0000 C   0  0  0  0  0  0  0  0  0  0  0  0
    9.6995   -2.4000    0.0000 H   0  0  0  0  0  0  0  0  0  0  0  0
    8.3138    0.0001    0.0000 C   0  0  0  0  0  0  0  0  0  0  0  0
    9.6995    0.8000    0.0000 H   0  0  0  0  0  0  0  0  0  0  0  0
    6.9283    0.8000    0.0000 C   0  0  0  0  0  0  0  0  0  0  0  0
    6.9283    2.4000    0.0000 H   0  0  0  0  0  0  0  0  0  0  0  0
  1  2  1  0  0  0  0
  1  3  1  0  0  0  0
  1  4  1  0  0  0  0
  1  5  1  0  0  0  0
  5  6  1  0  0  0  0
  6  7  1  0  0  0  0
  6  8  1  0  0  0  0
  6  9  1  0  0  0  0
  5 10  1  0  0  0  0
 10 11  1  0  0  0  0
 10 12  1  0  0  0  0
 10 13  1  0  0  0  0
  5 14  1  0  0  0  0
 14 15  1  0  0  0  0
 15 16  1  0  0  0  0
 16 17  2  0  0  0  0
 16 18  1  0  0  0  0
 18 19  1  0  0  0  0
 19 20  1  0  0  0  0
 19 21  2  0  0  0  0
 21 22  1  0  0  0  0
 21 23  1  0  0  0  0
 23 24  1  0  0  0  0
 23 25  2  0  0  0  0
 25 26  1  0  0  0  0
 25 27  1  0  0  0  0
 27 18  2  0  0  0  0
 27 28  1  0  0  0  0
M  END
> <ChemID>
201402

> <source_casrn>
614-45-9

> <CAS>
614-45-9

> <SMILES>
CC(C)(C)OOC(=O)c1ccccc1

> <NAME>


> <preferred_name>
tert-Butyl perbenzoate

> <iupac>
tert-butyl benzenecarboperoxoate

> <MPID>
101264

> <dsstox_substance_id>
DTXSID9024699

> <Canonical_QSARr>
CC(C)(C)OOC(=O)c1ccccc1

> <InChI_Code_QSARr>
InChI=1S/C11H14O3/c1-11(2,3)14-13-10(12)9-7-5-4-6-8-9/h4-8H,1-3H3

> <InChI Key_QSARr>
GJBRNHKUVLOCEB-UHFFFAOYSA-N

> <Salt_Solvent>


> <Ready_Biodeg>
0.0

$$$$
201403
  -INDIGO-08031722522D

 54 53  0  0  0  0  0  0  0  0999 V2000
    3.7275   -2.0508    0.0000 C   0  0  0  0  0  0  0  0  0  0  0  0
    4.7561   -3.2765    0.0000 H   0  0  0  0  0  0  0  0  0  0  0  0
    2.1517   -2.3286    0.0000 H   0  0  0  0  0  0  0  0  0  0  0  0
    3.1803   -3.5542    0.0000 H   0  0  0  0  0  0  0  0  0  0  0  0
    4.2747   -0.5472    0.0000 C   0  0  0  0  0  0  0  0  0  0  0  0
    5.7784   -1.0945    0.0000 C   0  0  0  0  0  0  0  0  0  0  0  0
    7.2818   -1.6417    0.0000 H   0  0  0  0  0  0  0  0  0  0  0  0
    7.0040   -0.0661    0.0000 H   0  0  0  0  0  0  0  0  0  0  0  0
    6.0562   -2.6702    0.0000 H   0  0  0  0  0  0  0  0  0  0  0  0
    4.8219    0.9563    0.0000 C   0  0  0  0  0  0  0  0  0  0  0  0
    5.3692    2.4597    0.0000 H   0  0  0  0  0  0  0  0  0  0  0  0
    6.3977    1.2342    0.0000 H   0  0  0  0  0  0  0  0  0  0  0  0
    3.7936    2.1820    0.0000 H   0  0  0  0  0  0  0  0  0  0  0  0
    2.7713   -0.0000    0.0000 O   0  0  0  0  0  0  0  0  0  0  0  0
    1.3856   -0.8000    0.0000 O   0  0  0  0  0  0  0  0  0  0  0  0
    0.0001   -0.0000    0.0000 C   0  0  0  0  0  0  0  0  0  0  0  0
    0.8001    1.3857    0.0000 C   0  0  0  0  0  0  0  0  0  0  0  0
    1.6001    2.7713    0.0000 H   0  0  0  0  0  0  0  0  0  0  0  0
    0.0001    2.7713    0.0000 H   0  0  0  0  0  0  0  0  0  0  0  0
    2.4001    1.3857    0.0000 H   0  0  0  0  0  0  0  0  0  0  0  0
   -1.2258    1.0285    0.0000 C   0  0  0  0  0  0  0  0  0  0  0  0
   -2.4514    2.0569    0.0000 H   0  0  0  0  0  0  0  0  0  0  0  0
   -2.7292    0.4812    0.0000 H   0  0  0  0  0  0  0  0  0  0  0  0
   -0.9478    2.6041    0.0000 H   0  0  0  0  0  0  0  0  0  0  0  0
   -0.5471   -1.5036    0.0000 C   0  0  0  0  0  0  0  0  0  0  0  0
    0.9787   -1.9846    0.0000 H   0  0  0  0  0  0  0  0  0  0  0  0
    0.1914   -2.9227    0.0000 H   0  0  0  0  0  0  0  0  0  0  0  0
   -2.0508   -2.0508    0.0000 C   0  0  0  0  0  0  0  0  0  0  0  0
   -3.3201   -1.0768    0.0000 H   0  0  0  0  0  0  0  0  0  0  0  0
   -2.2596   -0.4645    0.0000 H   0  0  0  0  0  0  0  0  0  0  0  0
   -2.8508   -3.4364    0.0000 C   0  0  0  0  0  0  0  0  0  0  0  0
   -3.6508   -4.8221    0.0000 C   0  0  0  0  0  0  0  0  0  0  0  0
   -4.4508   -6.2077    0.0000 H   0  0  0  0  0  0  0  0  0  0  0  0
   -2.8508   -6.2077    0.0000 H   0  0  0  0  0  0  0  0  0  0  0  0
   -5.2508   -4.8221    0.0000 H   0  0  0  0  0  0  0  0  0  0  0  0
   -1.6251   -4.4649    0.0000 C   0  0  0  0  0  0  0  0  0  0  0  0
   -0.3995   -5.4933    0.0000 H   0  0  0  0  0  0  0  0  0  0  0  0
   -1.9029   -6.0405    0.0000 H   0  0  0  0  0  0  0  0  0  0  0  0
   -0.1215   -3.9175    0.0000 H   0  0  0  0  0  0  0  0  0  0  0  0
   -4.2365   -2.6364    0.0000 O   0  0  0  0  0  0  0  0  0  0  0  0
   -5.6220   -3.4364    0.0000 O   0  0  0  0  0  0  0  0  0  0  0  0
   -7.0077   -2.6364    0.0000 C   0  0  0  0  0  0  0  0  0  0  0  0
   -8.3932   -1.8364    0.0000 C   0  0  0  0  0  0  0  0  0  0  0  0
   -9.7789   -1.0364    0.0000 H   0  0  0  0  0  0  0  0  0  0  0  0
   -8.3932   -0.2364    0.0000 H   0  0  0  0  0  0  0  0  0  0  0  0
   -9.7789   -2.6364    0.0000 H   0  0  0  0  0  0  0  0  0  0  0  0
   -6.2077   -1.2508    0.0000 C   0  0  0  0  0  0  0  0  0  0  0  0
   -5.4077    0.1349    0.0000 H   0  0  0  0  0  0  0  0  0  0  0  0
   -7.0077    0.1349    0.0000 H   0  0  0  0  0  0  0  0  0  0  0  0
   -4.6077   -1.2508    0.0000 H   0  0  0  0  0  0  0  0  0  0  0  0
   -7.8077   -4.0221    0.0000 C   0  0  0  0  0  0  0  0  0  0  0  0
   -7.0077   -5.4077    0.0000 H   0  0  0  0  0  0  0  0  0  0  0  0
   -9.4077   -4.0221    0.0000 H   0  0  0  0  0  0  0  0  0  0  0  0
   -8.6077   -5.4077    0.0000 H   0  0  0  0  0  0  0  0  0  0  0  0
  1  2  1  0  0  0  0
  1  3  1  0  0  0  0
  1  4  1  0  0  0  0
  1  5  1  0  0  0  0
  5  6  1  0  0  0  0
  6  7  1  0  0  0  0
  6  8  1  0  0  0  0
  6  9  1  0  0  0  0
  5 10  1  0  0  0  0
 10 11  1  0  0  0  0
 10 12  1  0  0  0  0
 10 13  1  0  0  0  0
  5 14  1  0  0  0  0
 14 15  1  0  0  0  0
 15 16  1  0  0  0  0
 16 17  1  0  0  0  0
 17 18  1  0  0  0  0
 17 19  1  0  0  0  0
 17 20  1  0  0  0  0
 16 21  1  0  0  0  0
 21 22  1  0  0  0  0
 21 23  1  0  0  0  0
 21 24  1  0  0  0  0
 16 25  1  0  0  0  0
 25 26  1  0  0  0  0
 25 27  1  0  0  0  0
 25 28  1  0  0  0  0
 28 29  1  0  0  0  0
 28 30  1  0  0  0  0
 28 31  1  0  0  0  0
 31 32  1  0  0  0  0
 32 33  1  0  0  0  0
 32 34  1  0  0  0  0
 32 35  1  0  0  0  0
 31 36  1  0  0  0  0
 36 37  1  0  0  0  0
 36 38  1  0  0  0  0
 36 39  1  0  0  0  0
 31 40  1  0  0  0  0
 40 41  1  0  0  0  0
 41 42  1  0  0  0  0
 42 43  1  0  0  0  0
 43 44  1  0  0  0  0
 43 45  1  0  0  0  0
 43 46  1  0  0  0  0
 42 47  1  0  0  0  0
 47 48  1  0  0  0  0
 47 49  1  0  0  0  0
 47 50  1  0  0  0  0
 42 51  1  0  0  0  0
 51 52  1  0  0  0  0
 51 53  1  0  0  0  0
 51 54  1  0  0  0  0
M  END
> <ChemID>
201403

> <source_casrn>
78-63-7

> <CAS>
78-63-7

> <SMILES>
CC(C)(C)OOC(C)(C)CCC(C)(C)OOC(C)(C)C

> <NAME>


> <preferred_name>
2,5-Dimethyl-2,5-di-(tert-butylperoxy)hexane

> <iupac>
2,5-bis(tert-butylperoxy)-2,5-dimethylhexane

> <MPID>
101265

> <dsstox_substance_id>
DTXSID9025110

> <Canonical_QSARr>
CC(C)(C)OOC(C)(C)CCC(C)(C)OOC(C)(C)C

> <InChI_Code_QSARr>
InChI=1S/C16H34O4/c1-13(2,3)17-19-15(7,8)11-12-16(9,10)20-18-14(4,5)6/h11-12H2,1-10H3

> <InChI Key_QSARr>
DMWVYCCGCQPJEA-UHFFFAOYSA-N

> <Salt_Solvent>


> <Ready_Biodeg>
0.0

$$$$
201404
  -INDIGO-08031722522D

 58 58  0  0  0  0  0  0  0  0999 V2000
   -1.8144   -3.5712    0.0000 C   0  0  0  0  0  0  0  0  0  0  0  0
   -1.8144   -5.1712    0.0000 H   0  0  0  0  0  0  0  0  0  0  0  0
   -0.4287   -4.3713    0.0000 H   0  0  0  0  0  0  0  0  0  0  0  0
   -3.2000   -4.3713    0.0000 H   0  0  0  0  0  0  0  0  0  0  0  0
   -3.2000   -2.7713    0.0000 C   0  0  0  0  0  0  0  0  0  0  0  0
   -4.2285   -3.9969    0.0000 C   0  0  0  0  0  0  0  0  0  0  0  0
   -5.2570   -5.2226    0.0000 H   0  0  0  0  0  0  0  0  0  0  0  0
   -5.8043   -3.7190    0.0000 H   0  0  0  0  0  0  0  0  0  0  0  0
   -3.6813   -5.5005    0.0000 H   0  0  0  0  0  0  0  0  0  0  0  0
   -4.5858   -1.9713    0.0000 C   0  0  0  0  0  0  0  0  0  0  0  0
   -5.9713   -1.1713    0.0000 H   0  0  0  0  0  0  0  0  0  0  0  0
   -5.9713   -2.7713    0.0000 H   0  0  0  0  0  0  0  0  0  0  0  0
   -4.5858   -0.3713    0.0000 H   0  0  0  0  0  0  0  0  0  0  0  0
   -2.4001   -1.3857    0.0000 O   0  0  0  0  0  0  0  0  0  0  0  0
   -0.8001   -1.3857    0.0000 O   0  0  0  0  0  0  0  0  0  0  0  0
    0.0001   -0.0000    0.0000 C   0  0  0  0  0  0  0  0  0  0  0  0
   -1.3857    0.8000    0.0000 C   0  0  0  0  0  0  0  0  0  0  0  0
   -2.7712    1.6000    0.0000 H   0  0  0  0  0  0  0  0  0  0  0  0
   -2.7712   -0.0000    0.0000 H   0  0  0  0  0  0  0  0  0  0  0  0
   -1.6634    2.3757    0.0000 H   0  0  0  0  0  0  0  0  0  0  0  0
    0.8000    1.3856    0.0000 C   0  0  0  0  0  0  0  0  0  0  0  0
    1.8285    2.6113    0.0000 H   0  0  0  0  0  0  0  0  0  0  0  0
    0.2528    2.8891    0.0000 H   0  0  0  0  0  0  0  0  0  0  0  0
   -0.7758    1.6634    0.0000 H   0  0  0  0  0  0  0  0  0  0  0  0
    1.3856   -0.8000    0.0000 C   0  0  0  0  0  0  0  0  0  0  0  0
    1.3856   -2.4000    0.0000 C   0  0  0  0  0  0  0  0  0  0  0  0
    0.0001   -3.2000    0.0000 H   0  0  0  0  0  0  0  0  0  0  0  0
    2.7714   -3.2000    0.0000 C   0  0  0  0  0  0  0  0  0  0  0  0
    2.7714   -4.8000    0.0000 H   0  0  0  0  0  0  0  0  0  0  0  0
    4.1569   -2.4000    0.0000 C   0  0  0  0  0  0  0  0  0  0  0  0
    5.5425   -3.2000    0.0000 C   0  0  0  0  0  0  0  0  0  0  0  0
    6.9282   -4.0000    0.0000 C   0  0  0  0  0  0  0  0  0  0  0  0
    8.3138   -4.8000    0.0000 H   0  0  0  0  0  0  0  0  0  0  0  0
    8.3138   -3.2000    0.0000 H   0  0  0  0  0  0  0  0  0  0  0  0
    7.2060   -5.5757    0.0000 H   0  0  0  0  0  0  0  0  0  0  0  0
    4.7426   -4.5856    0.0000 C   0  0  0  0  0  0  0  0  0  0  0  0
    3.7140   -5.8113    0.0000 H   0  0  0  0  0  0  0  0  0  0  0  0
    5.2898   -6.0891    0.0000 H   0  0  0  0  0  0  0  0  0  0  0  0
    6.3183   -4.8634    0.0000 H   0  0  0  0  0  0  0  0  0  0  0  0
    6.3426   -1.8143    0.0000 O   0  0  0  0  0  0  0  0  0  0  0  0
    7.9426   -1.8143    0.0000 O   0  0  0  0  0  0  0  0  0  0  0  0
    8.7425   -0.4287    0.0000 C   0  0  0  0  0  0  0  0  0  0  0  0
    9.7711    0.7970    0.0000 C   0  0  0  0  0  0  0  0  0  0  0  0
   10.7996    2.0226    0.0000 H   0  0  0  0  0  0  0  0  0  0  0  0
   11.3468    0.5192    0.0000 H   0  0  0  0  0  0  0  0  0  0  0  0
    9.2238    2.3005    0.0000 H   0  0  0  0  0  0  0  0  0  0  0  0
   10.1283   -1.2287    0.0000 C   0  0  0  0  0  0  0  0  0  0  0  0
   11.5138   -2.0287    0.0000 H   0  0  0  0  0  0  0  0  0  0  0  0
   11.5138   -0.4287    0.0000 H   0  0  0  0  0  0  0  0  0  0  0  0
   10.1283   -2.8287    0.0000 H   0  0  0  0  0  0  0  0  0  0  0  0
    7.3570    0.3712    0.0000 C   0  0  0  0  0  0  0  0  0  0  0  0
    7.3570    1.9712    0.0000 H   0  0  0  0  0  0  0  0  0  0  0  0
    5.9712    1.1713    0.0000 H   0  0  0  0  0  0  0  0  0  0  0  0
    8.7425    1.1713    0.0000 H   0  0  0  0  0  0  0  0  0  0  0  0
    4.1569   -0.8000    0.0000 C   0  0  0  0  0  0  0  0  0  0  0  0
    5.5425   -0.0000    0.0000 H   0  0  0  0  0  0  0  0  0  0  0  0
    2.7714   -0.0000    0.0000 C   0  0  0  0  0  0  0  0  0  0  0  0
    2.7714    1.6000    0.0000 H   0  0  0  0  0  0  0  0  0  0  0  0
  1  2  1  0  0  0  0
  1  3  1  0  0  0  0
  1  4  1  0  0  0  0
  1  5  1  0  0  0  0
  5  6  1  0  0  0  0
  6  7  1  0  0  0  0
  6  8  1  0  0  0  0
  6  9  1  0  0  0  0
  5 10  1  0  0  0  0
 10 11  1  0  0  0  0
 10 12  1  0  0  0  0
 10 13  1  0  0  0  0
  5 14  1  0  0  0  0
 14 15  1  0  0  0  0
 15 16  1  0  0  0  0
 16 17  1  0  0  0  0
 17 18  1  0  0  0  0
 17 19  1  0  0  0  0
 17 20  1  0  0  0  0
 16 21  1  0  0  0  0
 21 22  1  0  0  0  0
 21 23  1  0  0  0  0
 21 24  1  0  0  0  0
 16 25  1  0  0  0  0
 25 26  1  0  0  0  0
 26 27  1  0  0  0  0
 26 28  2  0  0  0  0
 28 29  1  0  0  0  0
 28 30  1  0  0  0  0
 30 31  1  0  0  0  0
 31 32  1  0  0  0  0
 32 33  1  0  0  0  0
 32 34  1  0  0  0  0
 32 35  1  0  0  0  0
 31 36  1  0  0  0  0
 36 37  1  0  0  0  0
 36 38  1  0  0  0  0
 36 39  1  0  0  0  0
 31 40  1  0  0  0  0
 40 41  1  0  0  0  0
 41 42  1  0  0  0  0
 42 43  1  0  0  0  0
 43 44  1  0  0  0  0
 43 45  1  0  0  0  0
 43 46  1  0  0  0  0
 42 47  1  0  0  0  0
 47 48  1  0  0  0  0
 47 49  1  0  0  0  0
 47 50  1  0  0  0  0
 42 51  1  0  0  0  0
 51 52  1  0  0  0  0
 51 53  1  0  0  0  0
 51 54  1  0  0  0  0
 30 55  2  0  0  0  0
 55 56  1  0  0  0  0
 55 57  1  0  0  0  0
 57 25  2  0  0  0  0
 57 58  1  0  0  0  0
M  END
> <ChemID>
201404

> <source_casrn>
25155-25-3

> <CAS>
25155-25-3

> <SMILES>
CC(C)(C)OOC(C)(C)c1ccc(cc1)C(C)(C)OOC(C)(C)C

> <NAME>


> <preferred_name>
Bis(t-butyl dioxyisopropyl)benzene

> <iupac>
1,4-bis[2-(tert-butylperoxy)propan-2-yl]benzene

> <MPID>
101266

> <dsstox_substance_id>
DTXSID7024611

> <Canonical_QSARr>
CC(C)(C)OOC(C)(C)c1ccc(cc1)C(C)(C)OOC(C)(C)C

> <InChI_Code_QSARr>
InChI=1S/C20H34O4/c1-17(2,3)21-23-19(7,8)15-11-13-16(14-12-15)20(9,10)24-22-18(4,5)6/h11-14H,1-10H3

> <InChI Key_QSARr>
GWQOYRSARAWVTC-UHFFFAOYSA-N

> <Salt_Solvent>


> <Ready_Biodeg>
0.0

$$$$
201407
  -INDIGO-08031722522D

193196  0  0  0  0  0  0  0  0999 V2000
   -8.8721   -7.4332    0.0000 C   0  0  0  0  0  0  0  0  0  0  0  0
   -7.3688   -7.9805    0.0000 H   0  0  0  0  0  0  0  0  0  0  0  0
   -8.3251   -8.9367    0.0000 H   0  0  0  0  0  0  0  0  0  0  0  0
   -9.9005   -8.6592    0.0000 H   0  0  0  0  0  0  0  0  0  0  0  0
  -10.3758   -6.8859    0.0000 C   0  0  0  0  0  0  0  0  0  0  0  0
  -10.9228   -8.3894    0.0000 C   0  0  0  0  0  0  0  0  0  0  0  0
  -11.4702   -9.8929    0.0000 H   0  0  0  0  0  0  0  0  0  0  0  0
  -10.1229   -9.7755    0.0000 H   0  0  0  0  0  0  0  0  0  0  0  0
  -12.4265   -8.9367    0.0000 H   0  0  0  0  0  0  0  0  0  0  0  0
  -11.8790   -6.3391    0.0000 C   0  0  0  0  0  0  0  0  0  0  0  0
  -13.1047   -7.3673    0.0000 H   0  0  0  0  0  0  0  0  0  0  0  0
  -11.8790   -7.9388    0.0000 H   0  0  0  0  0  0  0  0  0  0  0  0
  -10.8506   -5.1131    0.0000 H   0  0  0  0  0  0  0  0  0  0  0  0
   -9.8283   -5.3824    0.0000 C   0  0  0  0  0  0  0  0  0  0  0  0
   -8.2285   -5.3824    0.0000 C   0  0  0  0  0  0  0  0  0  0  0  0
   -7.4287   -6.7681    0.0000 H   0  0  0  0  0  0  0  0  0  0  0  0
   -7.4287   -3.9968    0.0000 C   0  0  0  0  0  0  0  0  0  0  0  0
   -5.8284   -3.9968    0.0000 C   0  0  0  0  0  0  0  0  0  0  0  0
   -4.5591   -4.9711    0.0000 H   0  0  0  0  0  0  0  0  0  0  0  0
   -5.6197   -5.5834    0.0000 H   0  0  0  0  0  0  0  0  0  0  0  0
   -5.0285   -2.6112    0.0000 C   0  0  0  0  0  0  0  0  0  0  0  0
   -6.2979   -1.6374    0.0000 H   0  0  0  0  0  0  0  0  0  0  0  0
   -5.2373   -1.0251    0.0000 H   0  0  0  0  0  0  0  0  0  0  0  0
   -3.4283   -2.6112    0.0000 C   0  0  0  0  0  0  0  0  0  0  0  0
   -2.6284   -3.9968    0.0000 O   0  0  0  0  0  0  0  0  0  0  0  0
   -2.6284   -1.2256    0.0000 O   0  0  0  0  0  0  0  0  0  0  0  0
   -1.0286   -1.2256    0.0000 C   0  0  0  0  0  0  0  0  0  0  0  0
    0.0526   -2.4053    0.0000 H   0  0  0  0  0  0  0  0  0  0  0  0
   -1.0984   -2.8241    0.0000 H   0  0  0  0  0  0  0  0  0  0  0  0
    0.0002   -0.0001    0.0000 C   0  0  0  0  0  0  0  0  0  0  0  0
   -1.2258    1.0286    0.0000 C   0  0  0  0  0  0  0  0  0  0  0  0
   -2.4053   -0.0525    0.0000 H   0  0  0  0  0  0  0  0  0  0  0  0
   -2.8240    1.0982    0.0000 H   0  0  0  0  0  0  0  0  0  0  0  0
   -1.2258    2.6283    0.0000 O   0  0  0  0  0  0  0  0  0  0  0  0
   -2.7291    3.1756    0.0000 C   0  0  0  0  0  0  0  0  0  0  0  0
   -3.9547    2.1473    0.0000 O   0  0  0  0  0  0  0  0  0  0  0  0
   -3.0071    4.7515    0.0000 C   0  0  0  0  0  0  0  0  0  0  0  0
   -2.2683    6.1707    0.0000 H   0  0  0  0  0  0  0  0  0  0  0  0
   -1.4812    5.2325    0.0000 H   0  0  0  0  0  0  0  0  0  0  0  0
   -4.5104    5.2988    0.0000 C   0  0  0  0  0  0  0  0  0  0  0  0
   -5.2493    3.8792    0.0000 H   0  0  0  0  0  0  0  0  0  0  0  0
   -6.0364    4.8174    0.0000 H   0  0  0  0  0  0  0  0  0  0  0  0
   -4.7885    6.8743    0.0000 C   0  0  0  0  0  0  0  0  0  0  0  0
   -3.5628    7.9026    0.0000 C   0  0  0  0  0  0  0  0  0  0  0  0
   -2.0591    7.3557    0.0000 H   0  0  0  0  0  0  0  0  0  0  0  0
   -3.8405    9.4785    0.0000 C   0  0  0  0  0  0  0  0  0  0  0  0
   -2.6148   10.5068    0.0000 C   0  0  0  0  0  0  0  0  0  0  0  0
   -1.3892   11.5354    0.0000 C   0  0  0  0  0  0  0  0  0  0  0  0
   -0.1636   12.5637    0.0000 H   0  0  0  0  0  0  0  0  0  0  0  0
    0.1867   11.2575    0.0000 H   0  0  0  0  0  0  0  0  0  0  0  0
   -1.3892   13.1355    0.0000 H   0  0  0  0  0  0  0  0  0  0  0  0
   -3.6433   11.7327    0.0000 C   0  0  0  0  0  0  0  0  0  0  0  0
   -4.8689   12.7610    0.0000 H   0  0  0  0  0  0  0  0  0  0  0  0
   -3.3656   13.3083    0.0000 H   0  0  0  0  0  0  0  0  0  0  0  0
   -2.1400   12.2800    0.0000 H   0  0  0  0  0  0  0  0  0  0  0  0
   -1.5864    9.2812    0.0000 C   0  0  0  0  0  0  0  0  0  0  0  0
   -0.7865    7.8956    0.0000 H   0  0  0  0  0  0  0  0  0  0  0  0
    0.0134    9.2812    0.0000 H   0  0  0  0  0  0  0  0  0  0  0  0
   -0.7865   10.6668    0.0000 H   0  0  0  0  0  0  0  0  0  0  0  0
   -5.3441   10.0258    0.0000 C   0  0  0  0  0  0  0  0  0  0  0  0
   -5.6218   11.6014    0.0000 O   0  0  0  0  0  0  0  0  0  0  0  0
   -7.1254   12.1486    0.0000 H   0  0  0  0  0  0  0  0  0  0  0  0
   -6.5698    8.9971    0.0000 C   0  0  0  0  0  0  0  0  0  0  0  0
   -8.1452    9.2751    0.0000 C   0  0  0  0  0  0  0  0  0  0  0  0
   -9.7211    9.5530    0.0000 C   0  0  0  0  0  0  0  0  0  0  0  0
  -11.2970    9.8306    0.0000 H   0  0  0  0  0  0  0  0  0  0  0  0
  -10.5210   10.9386    0.0000 H   0  0  0  0  0  0  0  0  0  0  0  0
  -10.9467    8.5244    0.0000 H   0  0  0  0  0  0  0  0  0  0  0  0
   -7.8676   10.8506    0.0000 C   0  0  0  0  0  0  0  0  0  0  0  0
   -8.8960   12.0766    0.0000 H   0  0  0  0  0  0  0  0  0  0  0  0
   -9.4674   10.8506    0.0000 H   0  0  0  0  0  0  0  0  0  0  0  0
   -6.4819   10.0508    0.0000 H   0  0  0  0  0  0  0  0  0  0  0  0
   -8.4233    7.6996    0.0000 C   0  0  0  0  0  0  0  0  0  0  0  0
   -8.7009    6.1236    0.0000 H   0  0  0  0  0  0  0  0  0  0  0  0
   -9.8090    6.8993    0.0000 H   0  0  0  0  0  0  0  0  0  0  0  0
   -9.8090    8.4994    0.0000 H   0  0  0  0  0  0  0  0  0  0  0  0
   -6.2917    7.4216    0.0000 C   0  0  0  0  0  0  0  0  0  0  0  0
   -7.5173    6.3929    0.0000 H   0  0  0  0  0  0  0  0  0  0  0  0
    1.0286    1.2255    0.0000 C   0  0  0  0  0  0  0  0  0  0  0  0
   -0.0526    2.4052    0.0000 H   0  0  0  0  0  0  0  0  0  0  0  0
    1.0984    2.8243    0.0000 H   0  0  0  0  0  0  0  0  0  0  0  0
    2.6284    1.2255    0.0000 O   0  0  0  0  0  0  0  0  0  0  0  0
    3.4283    2.6115    0.0000 C   0  0  0  0  0  0  0  0  0  0  0  0
    2.6284    3.9971    0.0000 O   0  0  0  0  0  0  0  0  0  0  0  0
    5.0285    2.6115    0.0000 C   0  0  0  0  0  0  0  0  0  0  0  0
    6.2979    1.6373    0.0000 H   0  0  0  0  0  0  0  0  0  0  0  0
    5.2373    1.0249    0.0000 H   0  0  0  0  0  0  0  0  0  0  0  0
    5.8284    3.9971    0.0000 C   0  0  0  0  0  0  0  0  0  0  0  0
    4.5591    4.9709    0.0000 H   0  0  0  0  0  0  0  0  0  0  0  0
    5.6197    5.5833    0.0000 H   0  0  0  0  0  0  0  0  0  0  0  0
    7.4287    3.9971    0.0000 C   0  0  0  0  0  0  0  0  0  0  0  0
    8.2285    2.6115    0.0000 C   0  0  0  0  0  0  0  0  0  0  0  0
    7.4287    1.2255    0.0000 H   0  0  0  0  0  0  0  0  0  0  0  0
    9.8283    2.6115    0.0000 C   0  0  0  0  0  0  0  0  0  0  0  0
   10.6287    1.2255    0.0000 C   0  0  0  0  0  0  0  0  0  0  0  0
   11.4286   -0.1601    0.0000 C   0  0  0  0  0  0  0  0  0  0  0  0
   12.2284   -1.5457    0.0000 H   0  0  0  0  0  0  0  0  0  0  0  0
   13.0040   -0.4377    0.0000 H   0  0  0  0  0  0  0  0  0  0  0  0
   10.8811   -1.6636    0.0000 H   0  0  0  0  0  0  0  0  0  0  0  0
   12.0139    2.0257    0.0000 C   0  0  0  0  0  0  0  0  0  0  0  0
   13.2400    3.0540    0.0000 H   0  0  0  0  0  0  0  0  0  0  0  0
   13.5176    1.4784    0.0000 H   0  0  0  0  0  0  0  0  0  0  0  0
   12.2920    0.4498    0.0000 H   0  0  0  0  0  0  0  0  0  0  0  0
    9.2430    0.4256    0.0000 C   0  0  0  0  0  0  0  0  0  0  0  0
    7.7393   -0.1216    0.0000 H   0  0  0  0  0  0  0  0  0  0  0  0
    8.9649   -1.1499    0.0000 H   0  0  0  0  0  0  0  0  0  0  0  0
   10.4686   -0.6026    0.0000 H   0  0  0  0  0  0  0  0  0  0  0  0
   10.6287    3.9971    0.0000 C   0  0  0  0  0  0  0  0  0  0  0  0
   12.2284    3.9971    0.0000 O   0  0  0  0  0  0  0  0  0  0  0  0
   13.0283    5.3827    0.0000 H   0  0  0  0  0  0  0  0  0  0  0  0
    9.8283    5.3827    0.0000 C   0  0  0  0  0  0  0  0  0  0  0  0
   10.3758    6.8862    0.0000 C   0  0  0  0  0  0  0  0  0  0  0  0
   10.9228    8.3897    0.0000 C   0  0  0  0  0  0  0  0  0  0  0  0
   11.4702    9.8932    0.0000 H   0  0  0  0  0  0  0  0  0  0  0  0
   12.4265    8.9370    0.0000 H   0  0  0  0  0  0  0  0  0  0  0  0
   10.1229    9.7753    0.0000 H   0  0  0  0  0  0  0  0  0  0  0  0
   11.8790    6.3389    0.0000 C   0  0  0  0  0  0  0  0  0  0  0  0
   13.2647    7.1388    0.0000 H   0  0  0  0  0  0  0  0  0  0  0  0
   12.1571    7.9145    0.0000 H   0  0  0  0  0  0  0  0  0  0  0  0
   10.8506    5.1134    0.0000 H   0  0  0  0  0  0  0  0  0  0  0  0
    8.8721    7.4335    0.0000 C   0  0  0  0  0  0  0  0  0  0  0  0
    7.3688    7.9808    0.0000 H   0  0  0  0  0  0  0  0  0  0  0  0
    8.3251    8.9370    0.0000 H   0  0  0  0  0  0  0  0  0  0  0  0
    9.9005    8.6590    0.0000 H   0  0  0  0  0  0  0  0  0  0  0  0
    8.2285    5.3827    0.0000 C   0  0  0  0  0  0  0  0  0  0  0  0
    7.4287    6.7683    0.0000 H   0  0  0  0  0  0  0  0  0  0  0  0
    1.2258   -1.0283    0.0000 C   0  0  0  0  0  0  0  0  0  0  0  0
    2.4053    0.0523    0.0000 H   0  0  0  0  0  0  0  0  0  0  0  0
    2.8240   -1.0983    0.0000 H   0  0  0  0  0  0  0  0  0  0  0  0
    1.2258   -2.6284    0.0000 O   0  0  0  0  0  0  0  0  0  0  0  0
    2.6111   -3.4283    0.0000 C   0  0  0  0  0  0  0  0  0  0  0  0
    3.9968   -2.6284    0.0000 O   0  0  0  0  0  0  0  0  0  0  0  0
    2.6111   -5.0284    0.0000 C   0  0  0  0  0  0  0  0  0  0  0  0
    1.6371   -6.2977    0.0000 H   0  0  0  0  0  0  0  0  0  0  0  0
    1.0249   -5.2371    0.0000 H   0  0  0  0  0  0  0  0  0  0  0  0
    3.9968   -5.8286    0.0000 C   0  0  0  0  0  0  0  0  0  0  0  0
    4.9708   -4.5593    0.0000 H   0  0  0  0  0  0  0  0  0  0  0  0
    5.5834   -5.6195    0.0000 H   0  0  0  0  0  0  0  0  0  0  0  0
    3.9968   -7.4283    0.0000 C   0  0  0  0  0  0  0  0  0  0  0  0
    2.6111   -8.2286    0.0000 C   0  0  0  0  0  0  0  0  0  0  0  0
    1.2258   -7.4283    0.0000 H   0  0  0  0  0  0  0  0  0  0  0  0
    2.6111   -9.8287    0.0000 C   0  0  0  0  0  0  0  0  0  0  0  0
    1.2258  -10.6285    0.0000 C   0  0  0  0  0  0  0  0  0  0  0  0
   -0.1599  -11.4284    0.0000 C   0  0  0  0  0  0  0  0  0  0  0  0
   -1.5455  -12.2286    0.0000 H   0  0  0  0  0  0  0  0  0  0  0  0
   -0.4379  -13.0043    0.0000 H   0  0  0  0  0  0  0  0  0  0  0  0
   -1.6635  -10.8811    0.0000 H   0  0  0  0  0  0  0  0  0  0  0  0
    0.4255   -9.2429    0.0000 C   0  0  0  0  0  0  0  0  0  0  0  0
   -0.1215   -7.7394    0.0000 H   0  0  0  0  0  0  0  0  0  0  0  0
   -1.1499   -8.9650    0.0000 H   0  0  0  0  0  0  0  0  0  0  0  0
   -0.6029  -10.4685    0.0000 H   0  0  0  0  0  0  0  0  0  0  0  0
    2.0257  -12.0141    0.0000 C   0  0  0  0  0  0  0  0  0  0  0  0
    3.0542  -13.2397    0.0000 H   0  0  0  0  0  0  0  0  0  0  0  0
    1.4783  -13.5176    0.0000 H   0  0  0  0  0  0  0  0  0  0  0  0
    0.4499  -12.2921    0.0000 H   0  0  0  0  0  0  0  0  0  0  0  0
    3.9968  -10.6285    0.0000 C   0  0  0  0  0  0  0  0  0  0  0  0
    3.9968  -12.2286    0.0000 O   0  0  0  0  0  0  0  0  0  0  0  0
    5.3825  -13.0285    0.0000 H   0  0  0  0  0  0  0  0  0  0  0  0
    5.3825   -9.8283    0.0000 C   0  0  0  0  0  0  0  0  0  0  0  0
    6.8862  -10.3755    0.0000 C   0  0  0  0  0  0  0  0  0  0  0  0
    8.3894  -10.9228    0.0000 C   0  0  0  0  0  0  0  0  0  0  0  0
    9.8931  -11.4701    0.0000 H   0  0  0  0  0  0  0  0  0  0  0  0
    9.7751  -10.1230    0.0000 H   0  0  0  0  0  0  0  0  0  0  0  0
    8.9369  -12.4263    0.0000 H   0  0  0  0  0  0  0  0  0  0  0  0
    7.4332   -8.8720    0.0000 C   0  0  0  0  0  0  0  0  0  0  0  0
    7.9806   -7.3685    0.0000 H   0  0  0  0  0  0  0  0  0  0  0  0
    8.9369   -8.3248    0.0000 H   0  0  0  0  0  0  0  0  0  0  0  0
    8.6588   -9.9007    0.0000 H   0  0  0  0  0  0  0  0  0  0  0  0
    6.3387  -11.8790    0.0000 C   0  0  0  0  0  0  0  0  0  0  0  0
    7.3672  -13.1050    0.0000 H   0  0  0  0  0  0  0  0  0  0  0  0
    7.9390  -11.8790    0.0000 H   0  0  0  0  0  0  0  0  0  0  0  0
    5.1131  -10.8508    0.0000 H   0  0  0  0  0  0  0  0  0  0  0  0
    5.3825   -8.2286    0.0000 C   0  0  0  0  0  0  0  0  0  0  0  0
    6.7682   -7.4283    0.0000 H   0  0  0  0  0  0  0  0  0  0  0  0
   -8.2285   -2.6112    0.0000 C   0  0  0  0  0  0  0  0  0  0  0  0
   -7.4287   -1.2256    0.0000 H   0  0  0  0  0  0  0  0  0  0  0  0
   -9.8283   -2.6112    0.0000 C   0  0  0  0  0  0  0  0  0  0  0  0
  -10.6287   -1.2256    0.0000 C   0  0  0  0  0  0  0  0  0  0  0  0
  -11.4286    0.1600    0.0000 C   0  0  0  0  0  0  0  0  0  0  0  0
  -12.2284    1.5456    0.0000 H   0  0  0  0  0  0  0  0  0  0  0  0
  -13.0040    0.4379    0.0000 H   0  0  0  0  0  0  0  0  0  0  0  0
  -10.8811    1.6635    0.0000 H   0  0  0  0  0  0  0  0  0  0  0  0
  -12.0139   -2.0259    0.0000 C   0  0  0  0  0  0  0  0  0  0  0  0
  -13.2400   -3.0541    0.0000 H   0  0  0  0  0  0  0  0  0  0  0  0
  -13.5176   -1.4786    0.0000 H   0  0  0  0  0  0  0  0  0  0  0  0
  -12.2920   -0.4499    0.0000 H   0  0  0  0  0  0  0  0  0  0  0  0
   -9.2430   -0.4258    0.0000 C   0  0  0  0  0  0  0  0  0  0  0  0
   -7.7393    0.1215    0.0000 H   0  0  0  0  0  0  0  0  0  0  0  0
   -8.9649    1.1502    0.0000 H   0  0  0  0  0  0  0  0  0  0  0  0
  -10.4686    0.6029    0.0000 H   0  0  0  0  0  0  0  0  0  0  0  0
  -10.6287   -3.9968    0.0000 C   0  0  0  0  0  0  0  0  0  0  0  0
  -12.2284   -3.9968    0.0000 O   0  0  0  0  0  0  0  0  0  0  0  0
  -13.0283   -5.3824    0.0000 H   0  0  0  0  0  0  0  0  0  0  0  0
  1  2  1  0  0  0  0
  1  3  1  0  0  0  0
  1  4  1  0  0  0  0
  1  5  1  0  0  0  0
  5  6  1  0  0  0  0
  6  7  1  0  0  0  0
  6  8  1  0  0  0  0
  6  9  1  0  0  0  0
  5 10  1  0  0  0  0
 10 11  1  0  0  0  0
 10 12  1  0  0  0  0
 10 13  1  0  0  0  0
  5 14  1  0  0  0  0
 14 15  1  0  0  0  0
 15 16  1  0  0  0  0
 15 17  1  0  0  0  0
 17 18  1  0  0  0  0
 18 19  1  0  0  0  0
 18 20  1  0  0  0  0
 18 21  1  0  0  0  0
 21 22  1  0  0  0  0
 21 23  1  0  0  0  0
 21 24  1  0  0  0  0
 24 25  2  0  0  0  0
 24 26  1  0  0  0  0
 26 27  1  0  0  0  0
 27 28  1  0  0  0  0
 27 29  1  0  0  0  0
 27 30  1  0  0  0  0
 30 31  1  0  0  0  0
 31 32  1  0  0  0  0
 31 33  1  0  0  0  0
 31 34  1  0  0  0  0
 34 35  1  0  0  0  0
 35 36  2  0  0  0  0
 35 37  1  0  0  0  0
 37 38  1  0  0  0  0
 37 39  1  0  0  0  0
 37 40  1  0  0  0  0
 40 41  1  0  0  0  0
 40 42  1  0  0  0  0
 40 43  1  0  0  0  0
 43 44  1  0  0  0  0
 44 45  1  0  0  0  0
 44 46  1  0  0  0  0
 46 47  1  0  0  0  0
 47 48  1  0  0  0  0
 48 49  1  0  0  0  0
 48 50  1  0  0  0  0
 48 51  1  0  0  0  0
 47 52  1  0  0  0  0
 52 53  1  0  0  0  0
 52 54  1  0  0  0  0
 52 55  1  0  0  0  0
 47 56  1  0  0  0  0
 56 57  1  0  0  0  0
 56 58  1  0  0  0  0
 56 59  1  0  0  0  0
 46 60  1  0  0  0  0
 60 61  1  0  0  0  0
 61 62  1  0  0  0  0
 60 63  1  0  0  0  0
 63 64  1  0  0  0  0
 64 65  1  0  0  0  0
 65 66  1  0  0  0  0
 65 67  1  0  0  0  0
 65 68  1  0  0  0  0
 64 69  1  0  0  0  0
 69 70  1  0  0  0  0
 69 71  1  0  0  0  0
 69 72  1  0  0  0  0
 64 73  1  0  0  0  0
 73 74  1  0  0  0  0
 73 75  1  0  0  0  0
 73 76  1  0  0  0  0
 63 77  1  0  0  0  0
 77 43  1  0  0  0  0
 77 78  1  0  0  0  0
 30 79  1  0  0  0  0
 79 80  1  0  0  0  0
 79 81  1  0  0  0  0
 79 82  1  0  0  0  0
 82 83  1  0  0  0  0
 83 84  2  0  0  0  0
 83 85  1  0  0  0  0
 85 86  1  0  0  0  0
 85 87  1  0  0  0  0
 85 88  1  0  0  0  0
 88 89  1  0  0  0  0
 88 90  1  0  0  0  0
 88 91  1  0  0  0  0
 91 92  1  0  0  0  0
 92 93  1  0  0  0  0
 92 94  2  0  0  0  0
 94 95  1  0  0  0  0
 95 96  1  0  0  0  0
 96 97  1  0  0  0  0
 96 98  1  0  0  0  0
 96 99  1  0  0  0  0
 95100  1  0  0  0  0
100101  1  0  0  0  0
100102  1  0  0  0  0
100103  1  0  0  0  0
 95104  1  0  0  0  0
104105  1  0  0  0  0
104106  1  0  0  0  0
104107  1  0  0  0  0
 94108  1  0  0  0  0
108109  1  0  0  0  0
109110  1  0  0  0  0
108111  2  0  0  0  0
111112  1  0  0  0  0
112113  1  0  0  0  0
113114  1  0  0  0  0
113115  1  0  0  0  0
113116  1  0  0  0  0
112117  1  0  0  0  0
117118  1  0  0  0  0
117119  1  0  0  0  0
117120  1  0  0  0  0
112121  1  0  0  0  0
121122  1  0  0  0  0
121123  1  0  0  0  0
121124  1  0  0  0  0
111125  1  0  0  0  0
125 91  2  0  0  0  0
125126  1  0  0  0  0
 30127  1  0  0  0  0
127128  1  0  0  0  0
127129  1  0  0  0  0
127130  1  0  0  0  0
130131  1  0  0  0  0
131132  2  0  0  0  0
131133  1  0  0  0  0
133134  1  0  0  0  0
133135  1  0  0  0  0
133136  1  0  0  0  0
136137  1  0  0  0  0
136138  1  0  0  0  0
136139  1  0  0  0  0
139140  1  0  0  0  0
140141  1  0  0  0  0
140142  2  0  0  0  0
142143  1  0  0  0  0
143144  1  0  0  0  0
144145  1  0  0  0  0
144146  1  0  0  0  0
144147  1  0  0  0  0
143148  1  0  0  0  0
148149  1  0  0  0  0
148150  1  0  0  0  0
148151  1  0  0  0  0
143152  1  0  0  0  0
152153  1  0  0  0  0
152154  1  0  0  0  0
152155  1  0  0  0  0
142156  1  0  0  0  0
156157  1  0  0  0  0
157158  1  0  0  0  0
156159  2  0  0  0  0
159160  1  0  0  0  0
160161  1  0  0  0  0
161162  1  0  0  0  0
161163  1  0  0  0  0
161164  1  0  0  0  0
160165  1  0  0  0  0
165166  1  0  0  0  0
165167  1  0  0  0  0
165168  1  0  0  0  0
160169  1  0  0  0  0
169170  1  0  0  0  0
169171  1  0  0  0  0
169172  1  0  0  0  0
159173  1  0  0  0  0
173139  2  0  0  0  0
173174  1  0  0  0  0
 17175  1  0  0  0  0
175176  1  0  0  0  0
175177  1  0  0  0  0
177178  1  0  0  0  0
178179  1  0  0  0  0
179180  1  0  0  0  0
179181  1  0  0  0  0
179182  1  0  0  0  0
178183  1  0  0  0  0
183184  1  0  0  0  0
183185  1  0  0  0  0
183186  1  0  0  0  0
178187  1  0  0  0  0
187188  1  0  0  0  0
187189  1  0  0  0  0
187190  1  0  0  0  0
177191  1  0  0  0  0
191 14  1  0  0  0  0
191192  1  0  0  0  0
192193  1  0  0  0  0
M  END
> <ChemID>
201407

> <source_casrn>
6683-19-8

> <CAS>
6683-19-8

> <SMILES>
CC(C)(C)c1cc(CCC(=O)OCC(COC(=O)CCc2cc(c(O)c(c2)C(C)(C)C)C(C)(C)C)(COC(=O)CCc3cc(c(O)c(c3)C(C)(C)C)C(C)(C)C)COC(=O)CCc4cc(c(O)c(c4)C(C)(C)C)C(C)(C)C)cc(c1O)C(C)(C)C

> <NAME>


> <preferred_name>
Irganox 1010

> <iupac>
3-{[3-(3,5-di-tert-butyl-4-hydroxyphenyl)propanoyl]oxy}-2,2-bis({[3-(3,5-di-tert-butyl-4-hydroxyphenyl)propanoyl]oxy}methyl)propyl 3-(3,5-di-tert-butyl-4-hydroxyphenyl)propanoate

> <MPID>
101267

> <dsstox_substance_id>
DTXSID1027633

> <Canonical_QSARr>
CC(C)(C)C1CC(CC(C1O)C(C)(C)C)CCC(=O)OCC(COC(=O)CCC1CC(C(O)C(C1)C(C)(C)C)C(C)(C)C)(COC(=O)CCc1cc(c(O)c(c1)C(C)(C)C)C(C)(C)C)COC(=O)CCc1cc(c(O)c(c1)C(C)(C)C)C(C)(C)C

> <InChI_Code_QSARr>
InChI=1S/C73H120O12/c1-65(2,3)49-33-45(34-50(61(49)78)66(4,5)6)25-29-57(74)82-41-73(42-83-58(75)30-26-46-35-51(67(7,8)9)62(79)52(36-46)68(10,11)12,43-84-59(76)31-27-47-37-53(69(13,14)15)63(80)54(38-47)70(16,17)18)44-85-60(77)32-28-48-39-55(71(19,20)21)64(81)56(40-48)72(22,23)24/h33-36,47-48,53-56,63-64,78-81H,25-32,37-44H2,1-24H3

> <InChI Key_QSARr>
KFAQFBMCVQJUGP-UHFFFAOYSA-N

> <Salt_Solvent>


> <Ready_Biodeg>
0.0

$$$$
201408
  -INDIGO-08031722522D

126129  0  0  0  0  0  0  0  0999 V2000
    0.0000   -1.6001    0.0000 C   0  0  0  0  0  0  0  0  0  0  0  0
    1.3856   -2.4001    0.0000 H   0  0  0  0  0  0  0  0  0  0  0  0
    0.0000   -3.1999    0.0000 H   0  0  0  0  0  0  0  0  0  0  0  0
    1.5034   -1.0527    0.0000 H   0  0  0  0  0  0  0  0  0  0  0  0
    0.0000    0.0001    0.0000 C   0  0  0  0  0  0  0  0  0  0  0  0
    0.0000    1.5999    0.0000 C   0  0  0  0  0  0  0  0  0  0  0  0
    0.0000    3.2001    0.0000 H   0  0  0  0  0  0  0  0  0  0  0  0
    1.3856    2.4000    0.0000 H   0  0  0  0  0  0  0  0  0  0  0  0
   -1.5037    1.0529    0.0000 H   0  0  0  0  0  0  0  0  0  0  0  0
    1.6001    0.0001    0.0000 C   0  0  0  0  0  0  0  0  0  0  0  0
    2.6284    1.2258    0.0000 H   0  0  0  0  0  0  0  0  0  0  0  0
    1.0527    1.5036    0.0000 H   0  0  0  0  0  0  0  0  0  0  0  0
    3.1758   -0.2777    0.0000 H   0  0  0  0  0  0  0  0  0  0  0  0
   -1.6000    0.0001    0.0000 C   0  0  0  0  0  0  0  0  0  0  0  0
   -2.3999   -1.3855    0.0000 C   0  0  0  0  0  0  0  0  0  0  0  0
   -1.6000   -2.7714    0.0000 H   0  0  0  0  0  0  0  0  0  0  0  0
   -4.0000   -1.3855    0.0000 C   0  0  0  0  0  0  0  0  0  0  0  0
   -4.8001   -2.7714    0.0000 C   0  0  0  0  0  0  0  0  0  0  0  0
   -6.1494   -1.9116    0.0000 H   0  0  0  0  0  0  0  0  0  0  0  0
   -6.3622   -3.1176    0.0000 H   0  0  0  0  0  0  0  0  0  0  0  0
   -4.5221   -4.3471    0.0000 N   0  0  0  0  0  0  0  0  0  0  0  0
   -5.7480   -5.3754    0.0000 C   0  0  0  0  0  0  0  0  0  0  0  0
   -7.2513   -4.8283    0.0000 O   0  0  0  0  0  0  0  0  0  0  0  0
   -5.4699   -6.9510    0.0000 N   0  0  0  0  0  0  0  0  0  0  0  0
   -6.6958   -7.9797    0.0000 C   0  0  0  0  0  0  0  0  0  0  0  0
   -5.6146   -9.1593    0.0000 H   0  0  0  0  0  0  0  0  0  0  0  0
   -6.7656   -9.5782    0.0000 H   0  0  0  0  0  0  0  0  0  0  0  0
   -8.2955   -7.9797    0.0000 C   0  0  0  0  0  0  0  0  0  0  0  0
   -9.0957   -6.5941    0.0000 C   0  0  0  0  0  0  0  0  0  0  0  0
   -8.2955   -5.2082    0.0000 H   0  0  0  0  0  0  0  0  0  0  0  0
  -10.6958   -6.5941    0.0000 C   0  0  0  0  0  0  0  0  0  0  0  0
  -11.4956   -5.2082    0.0000 C   0  0  0  0  0  0  0  0  0  0  0  0
  -10.1101   -4.4084    0.0000 C   0  0  0  0  0  0  0  0  0  0  0  0
   -8.7245   -3.6083    0.0000 H   0  0  0  0  0  0  0  0  0  0  0  0
  -11.3357   -3.3798    0.0000 H   0  0  0  0  0  0  0  0  0  0  0  0
  -10.1101   -2.8083    0.0000 H   0  0  0  0  0  0  0  0  0  0  0  0
  -12.2955   -3.8226    0.0000 C   0  0  0  0  0  0  0  0  0  0  0  0
  -11.4956   -2.4370    0.0000 H   0  0  0  0  0  0  0  0  0  0  0  0
  -13.8956   -3.8226    0.0000 H   0  0  0  0  0  0  0  0  0  0  0  0
  -13.0957   -2.4370    0.0000 H   0  0  0  0  0  0  0  0  0  0  0  0
  -12.9993   -5.7555    0.0000 C   0  0  0  0  0  0  0  0  0  0  0  0
  -14.2249   -4.7269    0.0000 H   0  0  0  0  0  0  0  0  0  0  0  0
  -14.5027   -6.3029    0.0000 H   0  0  0  0  0  0  0  0  0  0  0  0
  -13.7992   -7.1411    0.0000 H   0  0  0  0  0  0  0  0  0  0  0  0
  -11.4956   -7.9797    0.0000 C   0  0  0  0  0  0  0  0  0  0  0  0
  -13.0957   -7.9797    0.0000 O   0  0  0  0  0  0  0  0  0  0  0  0
  -13.8956   -9.3652    0.0000 H   0  0  0  0  0  0  0  0  0  0  0  0
  -10.6958   -9.3652    0.0000 C   0  0  0  0  0  0  0  0  0  0  0  0
  -11.4956  -10.7508    0.0000 C   0  0  0  0  0  0  0  0  0  0  0  0
  -12.2955  -12.1364    0.0000 C   0  0  0  0  0  0  0  0  0  0  0  0
  -13.0957  -13.5220    0.0000 H   0  0  0  0  0  0  0  0  0  0  0  0
  -11.4956  -13.5220    0.0000 H   0  0  0  0  0  0  0  0  0  0  0  0
  -13.8956  -12.1364    0.0000 H   0  0  0  0  0  0  0  0  0  0  0  0
  -12.8812   -9.9508    0.0000 C   0  0  0  0  0  0  0  0  0  0  0  0
  -14.2671  -10.7508    0.0000 H   0  0  0  0  0  0  0  0  0  0  0  0
  -13.1593  -11.5264    0.0000 H   0  0  0  0  0  0  0  0  0  0  0  0
  -11.6556   -8.9225    0.0000 H   0  0  0  0  0  0  0  0  0  0  0  0
  -10.1101  -11.5509    0.0000 C   0  0  0  0  0  0  0  0  0  0  0  0
   -8.6064  -12.0979    0.0000 H   0  0  0  0  0  0  0  0  0  0  0  0
   -9.8323  -13.1266    0.0000 H   0  0  0  0  0  0  0  0  0  0  0  0
  -11.3357  -12.5792    0.0000 H   0  0  0  0  0  0  0  0  0  0  0  0
   -9.0957   -9.3652    0.0000 C   0  0  0  0  0  0  0  0  0  0  0  0
   -8.2955  -10.7508    0.0000 H   0  0  0  0  0  0  0  0  0  0  0  0
   -3.9665   -7.4984    0.0000 C   0  0  0  0  0  0  0  0  0  0  0  0
   -3.6888   -9.0741    0.0000 O   0  0  0  0  0  0  0  0  0  0  0  0
   -2.7409   -6.4698    0.0000 N   0  0  0  0  0  0  0  0  0  0  0  0
   -1.2373   -7.0172    0.0000 C   0  0  0  0  0  0  0  0  0  0  0  0
   -0.4984   -5.5979    0.0000 H   0  0  0  0  0  0  0  0  0  0  0  0
    0.2885   -6.5359    0.0000 H   0  0  0  0  0  0  0  0  0  0  0  0
   -0.4374   -8.4027    0.0000 C   0  0  0  0  0  0  0  0  0  0  0  0
   -1.2373   -9.7883    0.0000 C   0  0  0  0  0  0  0  0  0  0  0  0
   -2.8373   -9.7883    0.0000 H   0  0  0  0  0  0  0  0  0  0  0  0
   -0.4374  -11.1739    0.0000 C   0  0  0  0  0  0  0  0  0  0  0  0
   -1.2373  -12.5598    0.0000 C   0  0  0  0  0  0  0  0  0  0  0  0
   -2.0374  -13.9454    0.0000 C   0  0  0  0  0  0  0  0  0  0  0  0
   -2.8373  -15.3310    0.0000 H   0  0  0  0  0  0  0  0  0  0  0  0
   -3.6372  -13.9454    0.0000 H   0  0  0  0  0  0  0  0  0  0  0  0
   -1.2373  -15.3310    0.0000 H   0  0  0  0  0  0  0  0  0  0  0  0
    0.1483  -13.3596    0.0000 C   0  0  0  0  0  0  0  0  0  0  0  0
    0.4261  -14.9352    0.0000 H   0  0  0  0  0  0  0  0  0  0  0  0
    1.6520  -13.9069    0.0000 H   0  0  0  0  0  0  0  0  0  0  0  0
   -1.0773  -14.3882    0.0000 H   0  0  0  0  0  0  0  0  0  0  0  0
   -2.6228  -11.7597    0.0000 C   0  0  0  0  0  0  0  0  0  0  0  0
   -4.0087  -10.9597    0.0000 H   0  0  0  0  0  0  0  0  0  0  0  0
   -4.0087  -12.5598    0.0000 H   0  0  0  0  0  0  0  0  0  0  0  0
   -2.9009  -13.3354    0.0000 H   0  0  0  0  0  0  0  0  0  0  0  0
    1.1627  -11.1739    0.0000 C   0  0  0  0  0  0  0  0  0  0  0  0
    1.9629  -12.5598    0.0000 O   0  0  0  0  0  0  0  0  0  0  0  0
    3.5626  -12.5598    0.0000 H   0  0  0  0  0  0  0  0  0  0  0  0
    1.9629   -9.7883    0.0000 C   0  0  0  0  0  0  0  0  0  0  0  0
    3.5626   -9.7883    0.0000 C   0  0  0  0  0  0  0  0  0  0  0  0
    5.1626   -9.7883    0.0000 C   0  0  0  0  0  0  0  0  0  0  0  0
    6.7627   -9.7883    0.0000 H   0  0  0  0  0  0  0  0  0  0  0  0
    5.9628   -8.4027    0.0000 H   0  0  0  0  0  0  0  0  0  0  0  0
    5.9628  -11.1739    0.0000 H   0  0  0  0  0  0  0  0  0  0  0  0
    3.5626   -8.1885    0.0000 C   0  0  0  0  0  0  0  0  0  0  0  0
    3.2848   -6.6128    0.0000 H   0  0  0  0  0  0  0  0  0  0  0  0
    4.7885   -7.1599    0.0000 H   0  0  0  0  0  0  0  0  0  0  0  0
    5.0663   -8.7355    0.0000 H   0  0  0  0  0  0  0  0  0  0  0  0
    3.5626  -11.3885    0.0000 C   0  0  0  0  0  0  0  0  0  0  0  0
    4.9485  -12.1885    0.0000 H   0  0  0  0  0  0  0  0  0  0  0  0
    5.0663  -10.8411    0.0000 H   0  0  0  0  0  0  0  0  0  0  0  0
    2.0592  -10.8411    0.0000 H   0  0  0  0  0  0  0  0  0  0  0  0
    1.1627   -8.4027    0.0000 C   0  0  0  0  0  0  0  0  0  0  0  0
    1.9629   -7.0172    0.0000 H   0  0  0  0  0  0  0  0  0  0  0  0
   -3.0187   -4.8941    0.0000 C   0  0  0  0  0  0  0  0  0  0  0  0
   -1.7931   -3.8658    0.0000 O   0  0  0  0  0  0  0  0  0  0  0  0
   -4.8001    0.0001    0.0000 C   0  0  0  0  0  0  0  0  0  0  0  0
   -6.3999    0.0001    0.0000 H   0  0  0  0  0  0  0  0  0  0  0  0
   -4.0000    1.3857    0.0000 C   0  0  0  0  0  0  0  0  0  0  0  0
   -4.8001    2.7713    0.0000 C   0  0  0  0  0  0  0  0  0  0  0  0
   -5.8284    3.9970    0.0000 C   0  0  0  0  0  0  0  0  0  0  0  0
   -6.8571    5.2226    0.0000 H   0  0  0  0  0  0  0  0  0  0  0  0
   -7.4042    3.7191    0.0000 H   0  0  0  0  0  0  0  0  0  0  0  0
   -5.2814    5.5005    0.0000 H   0  0  0  0  0  0  0  0  0  0  0  0
   -6.0257    1.7430    0.0000 C   0  0  0  0  0  0  0  0  0  0  0  0
   -7.2513    0.7143    0.0000 H   0  0  0  0  0  0  0  0  0  0  0  0
   -7.5291    2.2900    0.0000 H   0  0  0  0  0  0  0  0  0  0  0  0
   -6.5728    3.2465    0.0000 H   0  0  0  0  0  0  0  0  0  0  0  0
   -3.5742    3.7999    0.0000 C   0  0  0  0  0  0  0  0  0  0  0  0
   -3.5742    5.3997    0.0000 H   0  0  0  0  0  0  0  0  0  0  0  0
   -4.9601    4.5996    0.0000 H   0  0  0  0  0  0  0  0  0  0  0  0
   -3.2965    2.2242    0.0000 H   0  0  0  0  0  0  0  0  0  0  0  0
   -2.3999    1.3857    0.0000 C   0  0  0  0  0  0  0  0  0  0  0  0
   -1.6000    2.7713    0.0000 O   0  0  0  0  0  0  0  0  0  0  0  0
   -2.3999    4.1568    0.0000 H   0  0  0  0  0  0  0  0  0  0  0  0
  1  2  1  0  0  0  0
  1  3  1  0  0  0  0
  1  4  1  0  0  0  0
  1  5  1  0  0  0  0
  5  6  1  0  0  0  0
  6  7  1  0  0  0  0
  6  8  1  0  0  0  0
  6  9  1  0  0  0  0
  5 10  1  0  0  0  0
 10 11  1  0  0  0  0
 10 12  1  0  0  0  0
 10 13  1  0  0  0  0
  5 14  1  0  0  0  0
 14 15  1  0  0  0  0
 15 16  1  0  0  0  0
 15 17  2  0  0  0  0
 17 18  1  0  0  0  0
 18 19  1  0  0  0  0
 18 20  1  0  0  0  0
 18 21  1  0  0  0  0
 21 22  1  0  0  0  0
 22 23  2  0  0  0  0
 22 24  1  0  0  0  0
 24 25  1  0  0  0  0
 25 26  1  0  0  0  0
 25 27  1  0  0  0  0
 25 28  1  0  0  0  0
 28 29  1  0  0  0  0
 29 30  1  0  0  0  0
 29 31  2  0  0  0  0
 31 32  1  0  0  0  0
 32 33  1  0  0  0  0
 33 34  1  0  0  0  0
 33 35  1  0  0  0  0
 33 36  1  0  0  0  0
 32 37  1  0  0  0  0
 37 38  1  0  0  0  0
 37 39  1  0  0  0  0
 37 40  1  0  0  0  0
 32 41  1  0  0  0  0
 41 42  1  0  0  0  0
 41 43  1  0  0  0  0
 41 44  1  0  0  0  0
 31 45  1  0  0  0  0
 45 46  1  0  0  0  0
 46 47  1  0  0  0  0
 45 48  2  0  0  0  0
 48 49  1  0  0  0  0
 49 50  1  0  0  0  0
 50 51  1  0  0  0  0
 50 52  1  0  0  0  0
 50 53  1  0  0  0  0
 49 54  1  0  0  0  0
 54 55  1  0  0  0  0
 54 56  1  0  0  0  0
 54 57  1  0  0  0  0
 49 58  1  0  0  0  0
 58 59  1  0  0  0  0
 58 60  1  0  0  0  0
 58 61  1  0  0  0  0
 48 62  1  0  0  0  0
 62 28  2  0  0  0  0
 62 63  1  0  0  0  0
 24 64  1  0  0  0  0
 64 65  2  0  0  0  0
 64 66  1  0  0  0  0
 66 67  1  0  0  0  0
 67 68  1  0  0  0  0
 67 69  1  0  0  0  0
 67 70  1  0  0  0  0
 70 71  1  0  0  0  0
 71 72  1  0  0  0  0
 71 73  2  0  0  0  0
 73 74  1  0  0  0  0
 74 75  1  0  0  0  0
 75 76  1  0  0  0  0
 75 77  1  0  0  0  0
 75 78  1  0  0  0  0
 74 79  1  0  0  0  0
 79 80  1  0  0  0  0
 79 81  1  0  0  0  0
 79 82  1  0  0  0  0
 74 83  1  0  0  0  0
 83 84  1  0  0  0  0
 83 85  1  0  0  0  0
 83 86  1  0  0  0  0
 73 87  1  0  0  0  0
 87 88  1  0  0  0  0
 88 89  1  0  0  0  0
 87 90  2  0  0  0  0
 90 91  1  0  0  0  0
 91 92  1  0  0  0  0
 92 93  1  0  0  0  0
 92 94  1  0  0  0  0
 92 95  1  0  0  0  0
 91 96  1  0  0  0  0
 96 97  1  0  0  0  0
 96 98  1  0  0  0  0
 96 99  1  0  0  0  0
 91100  1  0  0  0  0
100101  1  0  0  0  0
100102  1  0  0  0  0
100103  1  0  0  0  0
 90104  1  0  0  0  0
104 70  2  0  0  0  0
104105  1  0  0  0  0
 66106  1  0  0  0  0
106 21  1  0  0  0  0
106107  2  0  0  0  0
 17108  1  0  0  0  0
108109  1  0  0  0  0
108110  2  0  0  0  0
110111  1  0  0  0  0
111112  1  0  0  0  0
112113  1  0  0  0  0
112114  1  0  0  0  0
112115  1  0  0  0  0
111116  1  0  0  0  0
116117  1  0  0  0  0
116118  1  0  0  0  0
116119  1  0  0  0  0
111120  1  0  0  0  0
120121  1  0  0  0  0
120122  1  0  0  0  0
120123  1  0  0  0  0
110124  1  0  0  0  0
124 14  2  0  0  0  0
124125  1  0  0  0  0
125126  1  0  0  0  0
M  END
> <ChemID>
201408

> <source_casrn>
27676-62-6

> <CAS>
27676-62-6

> <SMILES>
CC(C)(C)c1cc(CN2C(=O)N(Cc3cc(c(O)c(c3)C(C)(C)C)C(C)(C)C)C(=O)N(Cc4cc(c(O)c(c4)C(C)(C)C)C(C)(C)C)C2=O)cc(c1O)C(C)(C)C

> <NAME>


> <preferred_name>
1,3,5-Triazine-2,4,6(1H,3H,5H)-trione, 1,3,5-tris[[3,5-bis(1,1-dimethylethyl)-4-hydroxyphenyl]methyl]-

> <iupac>
1,3,5-tris(3,5-di-tert-butyl-4-hydroxybenzyl)-1,3,5-triazinane-2,4,6-trione

> <MPID>
101268

> <dsstox_substance_id>
DTXSID0027935

> <Canonical_QSARr>
CC(C)(C)c1cc(CN2C(=O)N(Cc3cc(c(O)c(c3)C(C)(C)C)C(C)(C)C)C(=O)N(Cc3cc(c(O)c(c3)C(C)(C)C)C(C)(C)C)C2=O)cc(c1O)C(C)(C)C

> <InChI_Code_QSARr>
InChI=1S/C48H69N3O6/c1-43(2,3)31-19-28(20-32(37(31)52)44(4,5)6)25-49-40(55)50(26-29-21-33(45(7,8)9)38(53)34(22-29)46(10,11)12)42(57)51(41(49)56)27-30-23-35(47(13,14)15)39(54)36(24-30)48(16,17)18/h19-24,52-54H,25-27H2,1-18H3

> <InChI Key_QSARr>
VNQNXQYZMPJLQX-UHFFFAOYSA-N

> <Salt_Solvent>


> <Ready_Biodeg>
0.0

$$$$
201410
  -INDIGO-08031722522D

135138  0  0  0  0  0  0  0  0999 V2000
   -1.6986    8.6056    0.0000 C   0  0  0  0  0  0  0  0  0  0  0  0
   -0.3129    9.4054    0.0000 H   0  0  0  0  0  0  0  0  0  0  0  0
   -0.3129    7.8054    0.0000 H   0  0  0  0  0  0  0  0  0  0  0  0
   -1.6986   10.2056    0.0000 H   0  0  0  0  0  0  0  0  0  0  0  0
   -3.0840    7.8054    0.0000 C   0  0  0  0  0  0  0  0  0  0  0  0
   -4.4698    8.6056    0.0000 C   0  0  0  0  0  0  0  0  0  0  0  0
   -4.4698   10.2056    0.0000 C   0  0  0  0  0  0  0  0  0  0  0  0
   -6.0318    9.8591    0.0000 H   0  0  0  0  0  0  0  0  0  0  0  0
   -5.8192   11.0651    0.0000 H   0  0  0  0  0  0  0  0  0  0  0  0
   -3.9227   11.7092    0.0000 C   0  0  0  0  0  0  0  0  0  0  0  0
   -2.4190   12.2561    0.0000 C   0  0  0  0  0  0  0  0  0  0  0  0
   -1.1932   11.2276    0.0000 H   0  0  0  0  0  0  0  0  0  0  0  0
   -2.1413   13.8319    0.0000 C   0  0  0  0  0  0  0  0  0  0  0  0
   -0.6376   14.3792    0.0000 C   0  0  0  0  0  0  0  0  0  0  0  0
    0.8657   14.9264    0.0000 C   0  0  0  0  0  0  0  0  0  0  0  0
    2.3694   15.4737    0.0000 H   0  0  0  0  0  0  0  0  0  0  0  0
    1.1437   16.5022    0.0000 H   0  0  0  0  0  0  0  0  0  0  0  0
    2.0915   13.8979    0.0000 H   0  0  0  0  0  0  0  0  0  0  0  0
   -1.1847   15.8827    0.0000 C   0  0  0  0  0  0  0  0  0  0  0  0
   -1.9847   17.2684    0.0000 H   0  0  0  0  0  0  0  0  0  0  0  0
   -0.3848   17.2684    0.0000 H   0  0  0  0  0  0  0  0  0  0  0  0
    0.4152   15.8827    0.0000 H   0  0  0  0  0  0  0  0  0  0  0  0
   -0.0905   12.8756    0.0000 C   0  0  0  0  0  0  0  0  0  0  0  0
    1.4132   12.3283    0.0000 H   0  0  0  0  0  0  0  0  0  0  0  0
    1.1352   13.9041    0.0000 H   0  0  0  0  0  0  0  0  0  0  0  0
   -1.6905   12.8756    0.0000 H   0  0  0  0  0  0  0  0  0  0  0  0
   -3.3667   14.8604    0.0000 C   0  0  0  0  0  0  0  0  0  0  0  0
   -3.0891   16.4361    0.0000 O   0  0  0  0  0  0  0  0  0  0  0  0
   -4.3145   17.4646    0.0000 H   0  0  0  0  0  0  0  0  0  0  0  0
   -4.8704   14.3131    0.0000 C   0  0  0  0  0  0  0  0  0  0  0  0
   -6.0962   15.3416    0.0000 C   0  0  0  0  0  0  0  0  0  0  0  0
   -7.3216   16.3701    0.0000 C   0  0  0  0  0  0  0  0  0  0  0  0
   -8.5473   17.3985    0.0000 H   0  0  0  0  0  0  0  0  0  0  0  0
   -8.8253   15.8228    0.0000 H   0  0  0  0  0  0  0  0  0  0  0  0
   -7.0439   17.9458    0.0000 H   0  0  0  0  0  0  0  0  0  0  0  0
   -7.1246   14.1159    0.0000 C   0  0  0  0  0  0  0  0  0  0  0  0
   -7.9246   12.7302    0.0000 H   0  0  0  0  0  0  0  0  0  0  0  0
   -8.7246   14.1159    0.0000 H   0  0  0  0  0  0  0  0  0  0  0  0
   -7.9246   15.5015    0.0000 H   0  0  0  0  0  0  0  0  0  0  0  0
   -5.0677   16.5673    0.0000 C   0  0  0  0  0  0  0  0  0  0  0  0
   -5.6148   18.0708    0.0000 H   0  0  0  0  0  0  0  0  0  0  0  0
   -6.5711   17.1145    0.0000 H   0  0  0  0  0  0  0  0  0  0  0  0
   -4.2674   15.1816    0.0000 H   0  0  0  0  0  0  0  0  0  0  0  0
   -5.1481   12.7373    0.0000 C   0  0  0  0  0  0  0  0  0  0  0  0
   -6.6517   12.1904    0.0000 H   0  0  0  0  0  0  0  0  0  0  0  0
   -5.8555    7.8054    0.0000 C   0  0  0  0  0  0  0  0  0  0  0  0
   -7.2409    8.6056    0.0000 C   0  0  0  0  0  0  0  0  0  0  0  0
   -8.6266    9.4054    0.0000 H   0  0  0  0  0  0  0  0  0  0  0  0
   -7.2409   10.2056    0.0000 H   0  0  0  0  0  0  0  0  0  0  0  0
   -8.6266    7.8054    0.0000 H   0  0  0  0  0  0  0  0  0  0  0  0
   -5.8555    6.2054    0.0000 C   0  0  0  0  0  0  0  0  0  0  0  0
   -7.2409    5.4055    0.0000 C   0  0  0  0  0  0  0  0  0  0  0  0
   -7.3107    3.8071    0.0000 H   0  0  0  0  0  0  0  0  0  0  0  0
   -6.1602    4.2258    0.0000 H   0  0  0  0  0  0  0  0  0  0  0  0
   -8.8168    5.1277    0.0000 C   0  0  0  0  0  0  0  0  0  0  0  0
   -9.0944    3.5519    0.0000 C   0  0  0  0  0  0  0  0  0  0  0  0
   -7.8690    2.5234    0.0000 H   0  0  0  0  0  0  0  0  0  0  0  0
  -10.5981    3.0046    0.0000 C   0  0  0  0  0  0  0  0  0  0  0  0
  -10.8757    1.4292    0.0000 C   0  0  0  0  0  0  0  0  0  0  0  0
  -11.1537   -0.1466    0.0000 C   0  0  0  0  0  0  0  0  0  0  0  0
  -11.4317   -1.7223    0.0000 H   0  0  0  0  0  0  0  0  0  0  0  0
   -9.9280   -1.1751    0.0000 H   0  0  0  0  0  0  0  0  0  0  0  0
  -12.6574   -0.6938    0.0000 H   0  0  0  0  0  0  0  0  0  0  0  0
   -9.3002    1.1513    0.0000 C   0  0  0  0  0  0  0  0  0  0  0  0
   -7.7002    1.1513    0.0000 H   0  0  0  0  0  0  0  0  0  0  0  0
   -8.5002   -0.2343    0.0000 H   0  0  0  0  0  0  0  0  0  0  0  0
  -10.1002   -0.2343    0.0000 H   0  0  0  0  0  0  0  0  0  0  0  0
  -12.4516    1.7070    0.0000 C   0  0  0  0  0  0  0  0  0  0  0  0
  -13.4801    0.4813    0.0000 H   0  0  0  0  0  0  0  0  0  0  0  0
  -12.1737    0.1313    0.0000 H   0  0  0  0  0  0  0  0  0  0  0  0
  -11.6517    3.0924    0.0000 H   0  0  0  0  0  0  0  0  0  0  0  0
  -11.8239    4.0331    0.0000 C   0  0  0  0  0  0  0  0  0  0  0  0
  -13.3272    3.4858    0.0000 O   0  0  0  0  0  0  0  0  0  0  0  0
  -13.6052    1.9104    0.0000 H   0  0  0  0  0  0  0  0  0  0  0  0
  -11.5459    5.6089    0.0000 C   0  0  0  0  0  0  0  0  0  0  0  0
  -12.7716    6.6373    0.0000 C   0  0  0  0  0  0  0  0  0  0  0  0
  -13.8001    5.4117    0.0000 C   0  0  0  0  0  0  0  0  0  0  0  0
  -15.3756    5.6895    0.0000 H   0  0  0  0  0  0  0  0  0  0  0  0
  -14.8285    4.1860    0.0000 H   0  0  0  0  0  0  0  0  0  0  0  0
  -12.2964    4.8644    0.0000 H   0  0  0  0  0  0  0  0  0  0  0  0
  -13.9974    7.6658    0.0000 C   0  0  0  0  0  0  0  0  0  0  0  0
  -15.5729    7.3880    0.0000 H   0  0  0  0  0  0  0  0  0  0  0  0
  -14.5445    6.1623    0.0000 H   0  0  0  0  0  0  0  0  0  0  0  0
  -15.0258    8.8915    0.0000 H   0  0  0  0  0  0  0  0  0  0  0  0
  -11.7432    7.8630    0.0000 C   0  0  0  0  0  0  0  0  0  0  0  0
  -12.2903    9.3666    0.0000 H   0  0  0  0  0  0  0  0  0  0  0  0
  -13.2465    8.4103    0.0000 H   0  0  0  0  0  0  0  0  0  0  0  0
  -10.7147    9.0887    0.0000 H   0  0  0  0  0  0  0  0  0  0  0  0
  -10.0425    6.1561    0.0000 C   0  0  0  0  0  0  0  0  0  0  0  0
   -9.7646    7.7319    0.0000 H   0  0  0  0  0  0  0  0  0  0  0  0
   -4.4698    5.4055    0.0000 C   0  0  0  0  0  0  0  0  0  0  0  0
   -4.4698    3.8055    0.0000 C   0  0  0  0  0  0  0  0  0  0  0  0
   -4.4698    2.2054    0.0000 H   0  0  0  0  0  0  0  0  0  0  0  0
   -3.0840    3.0056    0.0000 H   0  0  0  0  0  0  0  0  0  0  0  0
   -5.8555    3.0056    0.0000 H   0  0  0  0  0  0  0  0  0  0  0  0
   -3.0840    6.2054    0.0000 C   0  0  0  0  0  0  0  0  0  0  0  0
   -1.6986    5.4055    0.0000 C   0  0  0  0  0  0  0  0  0  0  0  0
   -1.2173    6.9314    0.0000 H   0  0  0  0  0  0  0  0  0  0  0  0
   -0.2793    6.1442    0.0000 H   0  0  0  0  0  0  0  0  0  0  0  0
   -0.6698    4.1798    0.0000 C   0  0  0  0  0  0  0  0  0  0  0  0
    0.8335    4.7271    0.0000 C   0  0  0  0  0  0  0  0  0  0  0  0
    0.8335    6.3271    0.0000 H   0  0  0  0  0  0  0  0  0  0  0  0
    2.0593    3.6986    0.0000 C   0  0  0  0  0  0  0  0  0  0  0  0
    3.6348    3.9764    0.0000 C   0  0  0  0  0  0  0  0  0  0  0  0
    4.4348    2.5908    0.0000 C   0  0  0  0  0  0  0  0  0  0  0  0
    5.2348    1.2051    0.0000 H   0  0  0  0  0  0  0  0  0  0  0  0
    6.0348    2.5908    0.0000 H   0  0  0  0  0  0  0  0  0  0  0  0
    2.8348    2.5908    0.0000 H   0  0  0  0  0  0  0  0  0  0  0  0
    5.1385    4.5237    0.0000 C   0  0  0  0  0  0  0  0  0  0  0  0
    6.3639    3.4952    0.0000 H   0  0  0  0  0  0  0  0  0  0  0  0
    5.4162    6.0995    0.0000 H   0  0  0  0  0  0  0  0  0  0  0  0
    6.6419    5.0710    0.0000 H   0  0  0  0  0  0  0  0  0  0  0  0
    3.3569    5.5522    0.0000 C   0  0  0  0  0  0  0  0  0  0  0  0
    1.8535    6.0995    0.0000 H   0  0  0  0  0  0  0  0  0  0  0  0
    3.0792    7.1280    0.0000 H   0  0  0  0  0  0  0  0  0  0  0  0
    4.5826    6.5807    0.0000 H   0  0  0  0  0  0  0  0  0  0  0  0
    1.7813    2.1228    0.0000 C   0  0  0  0  0  0  0  0  0  0  0  0
    2.5813    0.7372    0.0000 O   0  0  0  0  0  0  0  0  0  0  0  0
    4.1813    0.7372    0.0000 H   0  0  0  0  0  0  0  0  0  0  0  0
    0.2779    1.5756    0.0000 C   0  0  0  0  0  0  0  0  0  0  0  0
   -0.0000    0.0001    0.0000 C   0  0  0  0  0  0  0  0  0  0  0  0
   -0.2780   -1.5756    0.0000 C   0  0  0  0  0  0  0  0  0  0  0  0
   -0.5556   -3.1514    0.0000 H   0  0  0  0  0  0  0  0  0  0  0  0
    0.9478   -2.6041    0.0000 H   0  0  0  0  0  0  0  0  0  0  0  0
   -1.7813   -2.1229    0.0000 H   0  0  0  0  0  0  0  0  0  0  0  0
    1.5755   -0.2777    0.0000 C   0  0  0  0  0  0  0  0  0  0  0  0
    2.1230   -1.7813    0.0000 H   0  0  0  0  0  0  0  0  0  0  0  0
    3.1514   -0.5556    0.0000 H   0  0  0  0  0  0  0  0  0  0  0  0
    0.7756   -1.6634    0.0000 H   0  0  0  0  0  0  0  0  0  0  0  0
   -1.5756    0.2780    0.0000 C   0  0  0  0  0  0  0  0  0  0  0  0
   -2.8013   -0.7505    0.0000 H   0  0  0  0  0  0  0  0  0  0  0  0
   -1.2980   -1.2978    0.0000 H   0  0  0  0  0  0  0  0  0  0  0  0
   -0.7756    1.6633    0.0000 H   0  0  0  0  0  0  0  0  0  0  0  0
   -0.9478    2.6040    0.0000 C   0  0  0  0  0  0  0  0  0  0  0  0
   -2.4515    2.0568    0.0000 H   0  0  0  0  0  0  0  0  0  0  0  0
  1  2  1  0  0  0  0
  1  3  1  0  0  0  0
  1  4  1  0  0  0  0
  1  5  1  0  0  0  0
  5  6  1  0  0  0  0
  6  7  1  0  0  0  0
  7  8  1  0  0  0  0
  7  9  1  0  0  0  0
  7 10  1  0  0  0  0
 10 11  1  0  0  0  0
 11 12  1  0  0  0  0
 11 13  1  0  0  0  0
 13 14  1  0  0  0  0
 14 15  1  0  0  0  0
 15 16  1  0  0  0  0
 15 17  1  0  0  0  0
 15 18  1  0  0  0  0
 14 19  1  0  0  0  0
 19 20  1  0  0  0  0
 19 21  1  0  0  0  0
 19 22  1  0  0  0  0
 14 23  1  0  0  0  0
 23 24  1  0  0  0  0
 23 25  1  0  0  0  0
 23 26  1  0  0  0  0
 13 27  1  0  0  0  0
 27 28  1  0  0  0  0
 28 29  1  0  0  0  0
 27 30  1  0  0  0  0
 30 31  1  0  0  0  0
 31 32  1  0  0  0  0
 32 33  1  0  0  0  0
 32 34  1  0  0  0  0
 32 35  1  0  0  0  0
 31 36  1  0  0  0  0
 36 37  1  0  0  0  0
 36 38  1  0  0  0  0
 36 39  1  0  0  0  0
 31 40  1  0  0  0  0
 40 41  1  0  0  0  0
 40 42  1  0  0  0  0
 40 43  1  0  0  0  0
 30 44  1  0  0  0  0
 44 10  1  0  0  0  0
 44 45  1  0  0  0  0
  6 46  2  0  0  0  0
 46 47  1  0  0  0  0
 47 48  1  0  0  0  0
 47 49  1  0  0  0  0
 47 50  1  0  0  0  0
 46 51  1  0  0  0  0
 51 52  1  0  0  0  0
 52 53  1  0  0  0  0
 52 54  1  0  0  0  0
 52 55  1  0  0  0  0
 55 56  1  0  0  0  0
 56 57  1  0  0  0  0
 56 58  2  0  0  0  0
 58 59  1  0  0  0  0
 59 60  1  0  0  0  0
 60 61  1  0  0  0  0
 60 62  1  0  0  0  0
 60 63  1  0  0  0  0
 59 64  1  0  0  0  0
 64 65  1  0  0  0  0
 64 66  1  0  0  0  0
 64 67  1  0  0  0  0
 59 68  1  0  0  0  0
 68 69  1  0  0  0  0
 68 70  1  0  0  0  0
 68 71  1  0  0  0  0
 58 72  1  0  0  0  0
 72 73  1  0  0  0  0
 73 74  1  0  0  0  0
 72 75  2  0  0  0  0
 75 76  1  0  0  0  0
 76 77  1  0  0  0  0
 77 78  1  0  0  0  0
 77 79  1  0  0  0  0
 77 80  1  0  0  0  0
 76 81  1  0  0  0  0
 81 82  1  0  0  0  0
 81 83  1  0  0  0  0
 81 84  1  0  0  0  0
 76 85  1  0  0  0  0
 85 86  1  0  0  0  0
 85 87  1  0  0  0  0
 85 88  1  0  0  0  0
 75 89  1  0  0  0  0
 89 55  2  0  0  0  0
 89 90  1  0  0  0  0
 51 91  2  0  0  0  0
 91 92  1  0  0  0  0
 92 93  1  0  0  0  0
 92 94  1  0  0  0  0
 92 95  1  0  0  0  0
 91 96  1  0  0  0  0
 96  5  2  0  0  0  0
 96 97  1  0  0  0  0
 97 98  1  0  0  0  0
 97 99  1  0  0  0  0
 97100  1  0  0  0  0
100101  1  0  0  0  0
101102  1  0  0  0  0
101103  2  0  0  0  0
103104  1  0  0  0  0
104105  1  0  0  0  0
105106  1  0  0  0  0
105107  1  0  0  0  0
105108  1  0  0  0  0
104109  1  0  0  0  0
109110  1  0  0  0  0
109111  1  0  0  0  0
109112  1  0  0  0  0
104113  1  0  0  0  0
113114  1  0  0  0  0
113115  1  0  0  0  0
113116  1  0  0  0  0
103117  1  0  0  0  0
117118  1  0  0  0  0
118119  1  0  0  0  0
117120  2  0  0  0  0
120121  1  0  0  0  0
121122  1  0  0  0  0
122123  1  0  0  0  0
122124  1  0  0  0  0
122125  1  0  0  0  0
121126  1  0  0  0  0
126127  1  0  0  0  0
126128  1  0  0  0  0
126129  1  0  0  0  0
121130  1  0  0  0  0
130131  1  0  0  0  0
130132  1  0  0  0  0
130133  1  0  0  0  0
120134  1  0  0  0  0
134100  2  0  0  0  0
134135  1  0  0  0  0
M  END
> <ChemID>
201410

> <source_casrn>
1709-70-2

> <CAS>
1709-70-2

> <SMILES>
Cc1c(Cc2cc(c(O)c(c2)C(C)(C)C)C(C)(C)C)c(C)c(Cc3cc(c(O)c(c3)C(C)(C)C)C(C)(C)C)c(C)c1Cc4cc(c(O)c(c4)C(C)(C)C)C(C)(C)C

> <NAME>


> <preferred_name>
Ionox 330

> <iupac>
4,4',4''-[(2,4,6-trimethylbenzene-1,3,5-triyl)trimethanediyl]tris(2,6-di-tert-butylphenol)

> <MPID>
101270

> <dsstox_substance_id>
DTXSID6027428

> <Canonical_QSARr>
Cc1c(Cc2cc(c(O)c(c2)C(C)(C)C)C(C)(C)C)c(C)c(CC2CC(C(O)C(C2)C(C)(C)C)C(C)(C)C)c(C)c1Cc1cc(c(O)c(c1)C(C)(C)C)C(C)(C)C

> <InChI_Code_QSARr>
InChI=1S/C54H84O3/c1-31-37(22-34-25-40(49(4,5)6)46(55)41(26-34)50(7,8)9)32(2)39(24-36-29-44(53(16,17)18)48(57)45(30-36)54(19,20)21)33(3)38(31)23-35-27-42(51(10,11)12)47(56)43(28-35)52(13,14)15/h25-28,36,44-45,48,55-57H,22-24,29-30H2,1-21H3

> <InChI Key_QSARr>
QWQAQEIHNCSRBL-UHFFFAOYSA-N

> <Salt_Solvent>


> <Ready_Biodeg>
0.0

$$$$
201414
  -INDIGO-08031722522D

 40 40  0  0  0  0  0  0  0  0999 V2000
   -3.4144    3.5713    0.0000 C   0  0  0  0  0  0  0  0  0  0  0  0
   -1.9108    4.1185    0.0000 H   0  0  0  0  0  0  0  0  0  0  0  0
   -3.1366    5.1469    0.0000 H   0  0  0  0  0  0  0  0  0  0  0  0
   -4.6400    4.5997    0.0000 H   0  0  0  0  0  0  0  0  0  0  0  0
   -4.8000    2.7713    0.0000 C   0  0  0  0  0  0  0  0  0  0  0  0
   -5.6000    4.1569    0.0000 C   0  0  0  0  0  0  0  0  0  0  0  0
   -6.3999    5.5425    0.0000 H   0  0  0  0  0  0  0  0  0  0  0  0
   -5.0527    5.6604    0.0000 H   0  0  0  0  0  0  0  0  0  0  0  0
   -7.1757    4.4347    0.0000 H   0  0  0  0  0  0  0  0  0  0  0  0
   -6.1856    1.9712    0.0000 C   0  0  0  0  0  0  0  0  0  0  0  0
   -7.4113    0.9428    0.0000 H   0  0  0  0  0  0  0  0  0  0  0  0
   -7.6891    2.5185    0.0000 H   0  0  0  0  0  0  0  0  0  0  0  0
   -6.4634    3.5470    0.0000 H   0  0  0  0  0  0  0  0  0  0  0  0
   -3.9999    1.3856    0.0000 C   0  0  0  0  0  0  0  0  0  0  0  0
   -4.8000   -0.0000    0.0000 C   0  0  0  0  0  0  0  0  0  0  0  0
   -6.3999   -0.0000    0.0000 H   0  0  0  0  0  0  0  0  0  0  0  0
   -3.9999   -1.3857    0.0000 C   0  0  0  0  0  0  0  0  0  0  0  0
   -4.8000   -2.7712    0.0000 C   0  0  0  0  0  0  0  0  0  0  0  0
   -6.3999   -2.7712    0.0000 O   0  0  0  0  0  0  0  0  0  0  0  0
   -7.2000   -4.1569    0.0000 H   0  0  0  0  0  0  0  0  0  0  0  0
   -3.9999   -4.1569    0.0000 O   0  0  0  0  0  0  0  0  0  0  0  0
   -2.4000   -1.3857    0.0000 C   0  0  0  0  0  0  0  0  0  0  0  0
   -1.6000   -2.7712    0.0000 O   0  0  0  0  0  0  0  0  0  0  0  0
   -2.4000   -4.1569    0.0000 H   0  0  0  0  0  0  0  0  0  0  0  0
   -1.6000   -0.0000    0.0000 C   0  0  0  0  0  0  0  0  0  0  0  0
   -0.0000   -0.0000    0.0000 C   0  0  0  0  0  0  0  0  0  0  0  0
    1.6001   -0.0000    0.0000 C   0  0  0  0  0  0  0  0  0  0  0  0
    3.2000   -0.0000    0.0000 H   0  0  0  0  0  0  0  0  0  0  0  0
    2.6284    1.2257    0.0000 H   0  0  0  0  0  0  0  0  0  0  0  0
    2.6284   -1.2257    0.0000 H   0  0  0  0  0  0  0  0  0  0  0  0
   -0.0000   -1.5999    0.0000 C   0  0  0  0  0  0  0  0  0  0  0  0
   -0.2778   -3.1757    0.0000 H   0  0  0  0  0  0  0  0  0  0  0  0
    1.2257   -2.6285    0.0000 H   0  0  0  0  0  0  0  0  0  0  0  0
    1.5035   -1.0527    0.0000 H   0  0  0  0  0  0  0  0  0  0  0  0
   -0.0000    1.6000    0.0000 C   0  0  0  0  0  0  0  0  0  0  0  0
   -0.2778    3.1756    0.0000 H   0  0  0  0  0  0  0  0  0  0  0  0
    1.2257    2.6284    0.0000 H   0  0  0  0  0  0  0  0  0  0  0  0
    1.5035    1.0528    0.0000 H   0  0  0  0  0  0  0  0  0  0  0  0
   -2.4000    1.3856    0.0000 C   0  0  0  0  0  0  0  0  0  0  0  0
   -1.6000    2.7713    0.0000 H   0  0  0  0  0  0  0  0  0  0  0  0
  1  2  1  0  0  0  0
  1  3  1  0  0  0  0
  1  4  1  0  0  0  0
  1  5  1  0  0  0  0
  5  6  1  0  0  0  0
  6  7  1  0  0  0  0
  6  8  1  0  0  0  0
  6  9  1  0  0  0  0
  5 10  1  0  0  0  0
 10 11  1  0  0  0  0
 10 12  1  0  0  0  0
 10 13  1  0  0  0  0
  5 14  1  0  0  0  0
 14 15  1  0  0  0  0
 15 16  1  0  0  0  0
 15 17  2  0  0  0  0
 17 18  1  0  0  0  0
 18 19  1  0  0  0  0
 19 20  1  0  0  0  0
 18 21  2  0  0  0  0
 17 22  1  0  0  0  0
 22 23  1  0  0  0  0
 23 24  1  0  0  0  0
 22 25  2  0  0  0  0
 25 26  1  0  0  0  0
 26 27  1  0  0  0  0
 27 28  1  0  0  0  0
 27 29  1  0  0  0  0
 27 30  1  0  0  0  0
 26 31  1  0  0  0  0
 31 32  1  0  0  0  0
 31 33  1  0  0  0  0
 31 34  1  0  0  0  0
 26 35  1  0  0  0  0
 35 36  1  0  0  0  0
 35 37  1  0  0  0  0
 35 38  1  0  0  0  0
 25 39  1  0  0  0  0
 39 14  2  0  0  0  0
 39 40  1  0  0  0  0
M  END
> <ChemID>
201414

> <source_casrn>
19715-19-6

> <CAS>
19715-19-6

> <SMILES>
CC(C)(C)c1cc(C(O)=O)c(O)c(c1)C(C)(C)C

> <NAME>


> <preferred_name>
Benzoic acid, 3,5-bis(1,1-dimethylethyl)-2-hydroxy-

> <iupac>
3,5-ditert-butyl-2-hydroxybenzoic acid

> <MPID>
101271

> <dsstox_substance_id>
DTXSID2066519

> <Canonical_QSARr>
CC(C)(C)c1cc(cc(C(O)=O)c1O)C(C)(C)C

> <InChI_Code_QSARr>
InChI=1S/C15H22O3/c1-14(2,3)9-7-10(13(17)18)12(16)11(8-9)15(4,5)6/h7-8,16H,1-6H3,(H,17,18)

> <InChI Key_QSARr>
ZWQBZEFLFSFEOS-UHFFFAOYSA-N

> <Salt_Solvent>


> <Ready_Biodeg>
0.0

$$$$
201415
  -INDIGO-08031722522D

 51 52  0  0  0  0  0  0  0  0999 V2000
    1.3856    4.7426    0.0000 C   0  0  0  0  0  0  0  0  0  0  0  0
    2.6113    3.7140    0.0000 H   0  0  0  0  0  0  0  0  0  0  0  0
    2.8891    5.2898    0.0000 H   0  0  0  0  0  0  0  0  0  0  0  0
    1.6634    6.3182    0.0000 H   0  0  0  0  0  0  0  0  0  0  0  0
   -0.0001    5.5425    0.0000 C   0  0  0  0  0  0  0  0  0  0  0  0
    0.8001    6.9281    0.0000 C   0  0  0  0  0  0  0  0  0  0  0  0
    1.6001    8.3139    0.0000 H   0  0  0  0  0  0  0  0  0  0  0  0
    2.3757    7.2061    0.0000 H   0  0  0  0  0  0  0  0  0  0  0  0
    0.2528    8.4317    0.0000 H   0  0  0  0  0  0  0  0  0  0  0  0
   -1.3857    6.3425    0.0000 C   0  0  0  0  0  0  0  0  0  0  0  0
   -2.8891    6.8898    0.0000 H   0  0  0  0  0  0  0  0  0  0  0  0
   -1.6636    7.9183    0.0000 H   0  0  0  0  0  0  0  0  0  0  0  0
   -0.1600    7.3711    0.0000 H   0  0  0  0  0  0  0  0  0  0  0  0
   -0.8000    4.1570    0.0000 C   0  0  0  0  0  0  0  0  0  0  0  0
   -2.3999    4.1570    0.0000 C   0  0  0  0  0  0  0  0  0  0  0  0
   -3.2001    5.5425    0.0000 H   0  0  0  0  0  0  0  0  0  0  0  0
   -3.2001    2.7714    0.0000 C   0  0  0  0  0  0  0  0  0  0  0  0
   -4.8000    2.7714    0.0000 N   0  0  0  0  0  0  0  0  0  0  0  0
   -5.5999    4.1570    0.0000 N   0  0  0  0  0  0  0  0  0  0  0  0
   -7.2001    4.1570    0.0000 C   0  0  0  0  0  0  0  0  0  0  0  0
   -8.0000    5.5425    0.0000 C   0  0  0  0  0  0  0  0  0  0  0  0
   -7.2001    6.9281    0.0000 H   0  0  0  0  0  0  0  0  0  0  0  0
   -9.5999    5.5425    0.0000 C   0  0  0  0  0  0  0  0  0  0  0  0
  -10.4001    6.9281    0.0000 H   0  0  0  0  0  0  0  0  0  0  0  0
  -10.4001    4.1570    0.0000 C   0  0  0  0  0  0  0  0  0  0  0  0
  -12.0000    4.1570    0.0000 H   0  0  0  0  0  0  0  0  0  0  0  0
   -9.5999    2.7712    0.0000 C   0  0  0  0  0  0  0  0  0  0  0  0
  -10.4001    1.3856    0.0000 H   0  0  0  0  0  0  0  0  0  0  0  0
   -8.0000    2.7714    0.0000 C   0  0  0  0  0  0  0  0  0  0  0  0
   -7.2001    1.3856    0.0000 N   0  0  0  0  0  0  0  0  0  0  0  0
   -8.0000    0.0000    0.0000 O   0  0  0  0  0  0  0  0  0  0  0  0
   -5.5999    1.3856    0.0000 O   0  0  0  0  0  0  0  0  0  0  0  0
   -2.3999    1.3856    0.0000 C   0  0  0  0  0  0  0  0  0  0  0  0
   -3.2001    0.0000    0.0000 O   0  0  0  0  0  0  0  0  0  0  0  0
   -4.8000    0.0000    0.0000 H   0  0  0  0  0  0  0  0  0  0  0  0
   -0.8000    1.3856    0.0000 C   0  0  0  0  0  0  0  0  0  0  0  0
   -0.0001    0.0000    0.0000 C   0  0  0  0  0  0  0  0  0  0  0  0
    0.8001   -1.3856    0.0000 C   0  0  0  0  0  0  0  0  0  0  0  0
    1.6001   -2.7713    0.0000 H   0  0  0  0  0  0  0  0  0  0  0  0
    0.2528   -2.8891    0.0000 H   0  0  0  0  0  0  0  0  0  0  0  0
    2.3757   -1.6635    0.0000 H   0  0  0  0  0  0  0  0  0  0  0  0
   -1.3857   -0.8000    0.0000 C   0  0  0  0  0  0  0  0  0  0  0  0
   -2.8891   -1.3472    0.0000 H   0  0  0  0  0  0  0  0  0  0  0  0
   -1.6636   -2.3757    0.0000 H   0  0  0  0  0  0  0  0  0  0  0  0
   -0.1600   -1.8285    0.0000 H   0  0  0  0  0  0  0  0  0  0  0  0
    1.3856    0.8000    0.0000 C   0  0  0  0  0  0  0  0  0  0  0  0
    2.6113    1.8285    0.0000 H   0  0  0  0  0  0  0  0  0  0  0  0
    2.8891    0.2527    0.0000 H   0  0  0  0  0  0  0  0  0  0  0  0
    1.6634   -0.7756    0.0000 H   0  0  0  0  0  0  0  0  0  0  0  0
   -0.0001    2.7714    0.0000 C   0  0  0  0  0  0  0  0  0  0  0  0
    1.6001    2.7714    0.0000 H   0  0  0  0  0  0  0  0  0  0  0  0
  1  2  1  0  0  0  0
  1  3  1  0  0  0  0
  1  4  1  0  0  0  0
  1  5  1  0  0  0  0
  5  6  1  0  0  0  0
  6  7  1  0  0  0  0
  6  8  1  0  0  0  0
  6  9  1  0  0  0  0
  5 10  1  0  0  0  0
 10 11  1  0  0  0  0
 10 12  1  0  0  0  0
 10 13  1  0  0  0  0
  5 14  1  0  0  0  0
 14 15  1  0  0  0  0
 15 16  1  0  0  0  0
 15 17  2  0  0  0  0
 17 18  1  0  0  0  0
 18 19  2  0  0  0  0
 19 20  1  0  0  0  0
 20 21  1  0  0  0  0
 21 22  1  0  0  0  0
 21 23  2  0  0  0  0
 23 24  1  0  0  0  0
 23 25  1  0  0  0  0
 25 26  1  0  0  0  0
 25 27  2  0  0  0  0
 27 28  1  0  0  0  0
 27 29  1  0  0  0  0
 29 20  2  0  0  0  0
 29 30  1  0  0  0  0
 30 31  1  0  0  0  0
 30 32  2  0  0  0  0
 17 33  1  0  0  0  0
 33 34  1  0  0  0  0
 34 35  1  0  0  0  0
 33 36  2  0  0  0  0
 36 37  1  0  0  0  0
 37 38  1  0  0  0  0
 38 39  1  0  0  0  0
 38 40  1  0  0  0  0
 38 41  1  0  0  0  0
 37 42  1  0  0  0  0
 42 43  1  0  0  0  0
 42 44  1  0  0  0  0
 42 45  1  0  0  0  0
 37 46  1  0  0  0  0
 46 47  1  0  0  0  0
 46 48  1  0  0  0  0
 46 49  1  0  0  0  0
 36 50  1  0  0  0  0
 50 14  2  0  0  0  0
 50 51  1  0  0  0  0
M  CHG  2  30   1  31  -1
M  END
> <ChemID>
201415

> <source_casrn>


> <CAS>
52184-14-2

> <SMILES>
CC(C)(C)c1cc(N=Nc2ccccc2[N+]([O-])=O)c(O)c(c1)C(C)(C)C

> <NAME>


> <preferred_name>


> <iupac>


> <MPID>
101272

> <dsstox_substance_id>


> <Canonical_QSARr>
CC(C)(C)c1cc(cc(N=Nc2ccccc2[N+]([O-])=O)c1O)C(C)(C)C

> <InChI_Code_QSARr>
InChI=1S/C20H25N3O3/c1-19(2,3)13-11-14(20(4,5)6)18(24)16(12-13)22-21-15-9-7-8-10-17(15)23(25)26/h7-12,24H,1-6H3/b22-21+

> <InChI Key_QSARr>
BBUYLEHVHUQHME-QURGRASLSA-N

> <Salt_Solvent>


> <Ready_Biodeg>
0.0

$$$$
201418
  -INDIGO-08031722522D

 49 51  0  0  0  0  0  0  0  0999 V2000
    1.3857    6.3425    0.0000 C   0  0  0  0  0  0  0  0  0  0  0  0
    2.8892    6.8898    0.0000 H   0  0  0  0  0  0  0  0  0  0  0  0
    1.6635    7.9183    0.0000 H   0  0  0  0  0  0  0  0  0  0  0  0
    0.1600    7.3711    0.0000 H   0  0  0  0  0  0  0  0  0  0  0  0
    0.0000    5.5425    0.0000 C   0  0  0  0  0  0  0  0  0  0  0  0
   -0.8000    6.9281    0.0000 C   0  0  0  0  0  0  0  0  0  0  0  0
   -1.5999    8.3139    0.0000 H   0  0  0  0  0  0  0  0  0  0  0  0
   -0.2528    8.4317    0.0000 H   0  0  0  0  0  0  0  0  0  0  0  0
   -2.3756    7.2061    0.0000 H   0  0  0  0  0  0  0  0  0  0  0  0
   -1.3857    4.7426    0.0000 C   0  0  0  0  0  0  0  0  0  0  0  0
   -2.8891    5.2898    0.0000 H   0  0  0  0  0  0  0  0  0  0  0  0
   -2.6112    3.7140    0.0000 H   0  0  0  0  0  0  0  0  0  0  0  0
   -1.6634    6.3182    0.0000 H   0  0  0  0  0  0  0  0  0  0  0  0
    0.8000    4.1570    0.0000 C   0  0  0  0  0  0  0  0  0  0  0  0
    2.4001    4.1570    0.0000 C   0  0  0  0  0  0  0  0  0  0  0  0
    3.2001    5.5425    0.0000 H   0  0  0  0  0  0  0  0  0  0  0  0
    3.2001    2.7712    0.0000 C   0  0  0  0  0  0  0  0  0  0  0  0
    4.8000    2.7712    0.0000 N   0  0  0  0  0  0  0  0  0  0  0  0
    5.7405    1.4768    0.0000 N   0  0  0  0  0  0  0  0  0  0  0  0
    7.2621    1.9712    0.0000 C   0  0  0  0  0  0  0  0  0  0  0  0
    8.6478    1.1712    0.0000 C   0  0  0  0  0  0  0  0  0  0  0  0
    8.6478   -0.4287    0.0000 H   0  0  0  0  0  0  0  0  0  0  0  0
   10.0333    1.9712    0.0000 C   0  0  0  0  0  0  0  0  0  0  0  0
   11.4191    1.1712    0.0000 H   0  0  0  0  0  0  0  0  0  0  0  0
   10.0333    3.5714    0.0000 C   0  0  0  0  0  0  0  0  0  0  0  0
   11.4191    4.3713    0.0000 H   0  0  0  0  0  0  0  0  0  0  0  0
    8.6478    4.3713    0.0000 C   0  0  0  0  0  0  0  0  0  0  0  0
    8.6478    5.9713    0.0000 H   0  0  0  0  0  0  0  0  0  0  0  0
    7.2621    3.5714    0.0000 C   0  0  0  0  0  0  0  0  0  0  0  0
    5.7405    4.0657    0.0000 N   0  0  0  0  0  0  0  0  0  0  0  0
    2.4001    1.3856    0.0000 C   0  0  0  0  0  0  0  0  0  0  0  0
    3.2001    0.0000    0.0000 O   0  0  0  0  0  0  0  0  0  0  0  0
    4.8000    0.0000    0.0000 H   0  0  0  0  0  0  0  0  0  0  0  0
    0.8000    1.3856    0.0000 C   0  0  0  0  0  0  0  0  0  0  0  0
    0.0000    0.0000    0.0000 C   0  0  0  0  0  0  0  0  0  0  0  0
   -0.8000   -1.3856    0.0000 C   0  0  0  0  0  0  0  0  0  0  0  0
   -1.5999   -2.7713    0.0000 H   0  0  0  0  0  0  0  0  0  0  0  0
   -0.2528   -2.8891    0.0000 H   0  0  0  0  0  0  0  0  0  0  0  0
   -2.3756   -1.6635    0.0000 H   0  0  0  0  0  0  0  0  0  0  0  0
   -1.3857    0.8000    0.0000 C   0  0  0  0  0  0  0  0  0  0  0  0
   -2.6112    1.8285    0.0000 H   0  0  0  0  0  0  0  0  0  0  0  0
   -2.8891    0.2527    0.0000 H   0  0  0  0  0  0  0  0  0  0  0  0
   -1.6634   -0.7756    0.0000 H   0  0  0  0  0  0  0  0  0  0  0  0
    1.3857   -0.8000    0.0000 C   0  0  0  0  0  0  0  0  0  0  0  0
    2.8892   -1.3472    0.0000 H   0  0  0  0  0  0  0  0  0  0  0  0
    1.6635   -2.3757    0.0000 H   0  0  0  0  0  0  0  0  0  0  0  0
    0.1600   -1.8285    0.0000 H   0  0  0  0  0  0  0  0  0  0  0  0
    0.0000    2.7714    0.0000 C   0  0  0  0  0  0  0  0  0  0  0  0
   -1.5999    2.7714    0.0000 H   0  0  0  0  0  0  0  0  0  0  0  0
  1  2  1  0  0  0  0
  1  3  1  0  0  0  0
  1  4  1  0  0  0  0
  1  5  1  0  0  0  0
  5  6  1  0  0  0  0
  6  7  1  0  0  0  0
  6  8  1  0  0  0  0
  6  9  1  0  0  0  0
  5 10  1  0  0  0  0
 10 11  1  0  0  0  0
 10 12  1  0  0  0  0
 10 13  1  0  0  0  0
  5 14  1  0  0  0  0
 14 15  1  0  0  0  0
 15 16  1  0  0  0  0
 15 17  2  0  0  0  0
 17 18  1  0  0  0  0
 18 19  1  0  0  0  0
 19 20  2  0  0  0  0
 20 21  1  0  0  0  0
 21 22  1  0  0  0  0
 21 23  2  0  0  0  0
 23 24  1  0  0  0  0
 23 25  1  0  0  0  0
 25 26  1  0  0  0  0
 25 27  2  0  0  0  0
 27 28  1  0  0  0  0
 27 29  1  0  0  0  0
 29 20  1  0  0  0  0
 29 30  2  0  0  0  0
 30 18  1  0  0  0  0
 17 31  1  0  0  0  0
 31 32  1  0  0  0  0
 32 33  1  0  0  0  0
 31 34  2  0  0  0  0
 34 35  1  0  0  0  0
 35 36  1  0  0  0  0
 36 37  1  0  0  0  0
 36 38  1  0  0  0  0
 36 39  1  0  0  0  0
 35 40  1  0  0  0  0
 40 41  1  0  0  0  0
 40 42  1  0  0  0  0
 40 43  1  0  0  0  0
 35 44  1  0  0  0  0
 44 45  1  0  0  0  0
 44 46  1  0  0  0  0
 44 47  1  0  0  0  0
 34 48  1  0  0  0  0
 48 14  2  0  0  0  0
 48 49  1  0  0  0  0
M  END
> <ChemID>
201418

> <source_casrn>
3846-71-7

> <CAS>
3846-71-7

> <SMILES>
CC(C)(C)c1cc(n2nc3ccccc3n2)c(O)c(c1)C(C)(C)C

> <NAME>


> <preferred_name>
2-Benzotriazol-2-yl-4,6-di-tert-butylphenol

> <iupac>
2-(2H-benzotriazol-2-yl)-4,6-di-tert-butylphenol

> <MPID>
101274

> <dsstox_substance_id>
DTXSID4052059

> <Canonical_QSARr>
CC(C)(C)c1cc(cc(c1O)-[n]1[n]c2ccccc2[n]1)C(C)(C)C

> <InChI_Code_QSARr>
InChI=1S/C20H25N3O/c1-19(2,3)13-11-14(20(4,5)6)18(24)17(12-13)23-21-15-9-7-8-10-16(15)22-23/h7-12,24H,1-6H3

> <InChI Key_QSARr>
LHPPDQUVECZQSW-UHFFFAOYSA-N

> <Salt_Solvent>


> <Ready_Biodeg>
0.0

$$$$
201424
  -INDIGO-08031722522D

 25 25  0  0  0  0  0  0  0  0999 V2000
    0.8001    1.3857    0.0000 C   0  0  0  0  0  0  0  0  0  0  0  0
    1.8285    2.6113    0.0000 H   0  0  0  0  0  0  0  0  0  0  0  0
    0.2528    2.8891    0.0000 H   0  0  0  0  0  0  0  0  0  0  0  0
   -0.7757    1.6635    0.0000 H   0  0  0  0  0  0  0  0  0  0  0  0
   -0.0000    0.0000    0.0000 C   0  0  0  0  0  0  0  0  0  0  0  0
   -1.3856    0.8000    0.0000 C   0  0  0  0  0  0  0  0  0  0  0  0
   -2.7713    1.6001    0.0000 H   0  0  0  0  0  0  0  0  0  0  0  0
   -1.6635    2.3757    0.0000 H   0  0  0  0  0  0  0  0  0  0  0  0
   -2.8891    0.2528    0.0000 H   0  0  0  0  0  0  0  0  0  0  0  0
   -0.8000   -1.3856    0.0000 C   0  0  0  0  0  0  0  0  0  0  0  0
   -1.3472   -2.8892    0.0000 H   0  0  0  0  0  0  0  0  0  0  0  0
   -2.3756   -1.6634    0.0000 H   0  0  0  0  0  0  0  0  0  0  0  0
   -1.8284   -0.1600    0.0000 H   0  0  0  0  0  0  0  0  0  0  0  0
    1.3856   -0.8000    0.0000 C   0  0  0  0  0  0  0  0  0  0  0  0
    1.3856   -2.4000    0.0000 C   0  0  0  0  0  0  0  0  0  0  0  0
   -0.0000   -3.2000    0.0000 H   0  0  0  0  0  0  0  0  0  0  0  0
    2.7713   -3.2000    0.0000 C   0  0  0  0  0  0  0  0  0  0  0  0
    2.7713   -4.8000    0.0000 H   0  0  0  0  0  0  0  0  0  0  0  0
    4.1570   -2.4000    0.0000 C   0  0  0  0  0  0  0  0  0  0  0  0
    5.5425   -3.2000    0.0000 H   0  0  0  0  0  0  0  0  0  0  0  0
    4.1570   -0.8000    0.0000 C   0  0  0  0  0  0  0  0  0  0  0  0
    5.5425    0.0000    0.0000 O   0  0  0  0  0  0  0  0  0  0  0  0
    6.9282   -0.8000    0.0000 H   0  0  0  0  0  0  0  0  0  0  0  0
    2.7713    0.0000    0.0000 C   0  0  0  0  0  0  0  0  0  0  0  0
    2.7713    1.6001    0.0000 H   0  0  0  0  0  0  0  0  0  0  0  0
  1  2  1  0  0  0  0
  1  3  1  0  0  0  0
  1  4  1  0  0  0  0
  1  5  1  0  0  0  0
  5  6  1  0  0  0  0
  6  7  1  0  0  0  0
  6  8  1  0  0  0  0
  6  9  1  0  0  0  0
  5 10  1  0  0  0  0
 10 11  1  0  0  0  0
 10 12  1  0  0  0  0
 10 13  1  0  0  0  0
  5 14  1  0  0  0  0
 14 15  1  0  0  0  0
 15 16  1  0  0  0  0
 15 17  2  0  0  0  0
 17 18  1  0  0  0  0
 17 19  1  0  0  0  0
 19 20  1  0  0  0  0
 19 21  2  0  0  0  0
 21 22  1  0  0  0  0
 22 23  1  0  0  0  0
 21 24  1  0  0  0  0
 24 14  2  0  0  0  0
 24 25  1  0  0  0  0
M  END
> <ChemID>
201424

> <source_casrn>
585-34-2

> <CAS>
585-34-2

> <SMILES>
CC(C)(C)c1cccc(O)c1

> <NAME>


> <preferred_name>
3-tert-Butylphenol

> <iupac>
3-tert-butylphenol

> <MPID>
101276

> <dsstox_substance_id>
DTXSID9044825

> <Canonical_QSARr>
CC(C)(C)c1cccc(O)c1

> <InChI_Code_QSARr>
InChI=1S/C10H14O/c1-10(2,3)8-5-4-6-9(11)7-8/h4-7,11H,1-3H3

> <InChI Key_QSARr>
CYEKUDPFXBLGHH-UHFFFAOYSA-N

> <Salt_Solvent>


> <Ready_Biodeg>
0.0

$$$$
201426
  -INDIGO-08031722522D

 80 81  0  0  0  0  0  0  0  0999 V2000
    1.9188    6.8862    0.0000 C   0  0  0  0  0  0  0  0  0  0  0  0
    2.4660    8.3896    0.0000 H   0  0  0  0  0  0  0  0  0  0  0  0
    0.8904    8.1118    0.0000 H   0  0  0  0  0  0  0  0  0  0  0  0
    3.4944    7.1640    0.0000 H   0  0  0  0  0  0  0  0  0  0  0  0
    2.9473    5.6605    0.0000 C   0  0  0  0  0  0  0  0  0  0  0  0
    4.5092    5.3142    0.0000 H   0  0  0  0  0  0  0  0  0  0  0  0
    4.2965    6.5201    0.0000 H   0  0  0  0  0  0  0  0  0  0  0  0
    2.4002    4.1569    0.0000 C   0  0  0  0  0  0  0  0  0  0  0  0
    1.0142    4.9569    0.0000 H   0  0  0  0  0  0  0  0  0  0  0  0
    1.6001    2.7712    0.0000 O   0  0  0  0  0  0  0  0  0  0  0  0
   -0.0001    2.7712    0.0000 C   0  0  0  0  0  0  0  0  0  0  0  0
   -0.7998    4.1569    0.0000 C   0  0  0  0  0  0  0  0  0  0  0  0
   -0.0001    5.5426    0.0000 H   0  0  0  0  0  0  0  0  0  0  0  0
   -2.4000    4.1569    0.0000 C   0  0  0  0  0  0  0  0  0  0  0  0
   -3.2001    5.5426    0.0000 H   0  0  0  0  0  0  0  0  0  0  0  0
   -3.2001    2.7712    0.0000 C   0  0  0  0  0  0  0  0  0  0  0  0
   -4.7999    2.7712    0.0000 C   0  0  0  0  0  0  0  0  0  0  0  0
   -4.5223    4.3470    0.0000 C   0  0  0  0  0  0  0  0  0  0  0  0
   -4.2443    5.9226    0.0000 H   0  0  0  0  0  0  0  0  0  0  0  0
   -5.7477    5.3755    0.0000 H   0  0  0  0  0  0  0  0  0  0  0  0
   -6.0257    3.7996    0.0000 H   0  0  0  0  0  0  0  0  0  0  0  0
   -4.5223    1.1956    0.0000 C   0  0  0  0  0  0  0  0  0  0  0  0
   -5.7477    0.1671    0.0000 H   0  0  0  0  0  0  0  0  0  0  0  0
   -4.2443   -0.3800    0.0000 H   0  0  0  0  0  0  0  0  0  0  0  0
   -6.0257    1.7427    0.0000 H   0  0  0  0  0  0  0  0  0  0  0  0
   -6.4001    2.7712    0.0000 C   0  0  0  0  0  0  0  0  0  0  0  0
   -6.8811    1.2454    0.0000 H   0  0  0  0  0  0  0  0  0  0  0  0
   -7.6694    1.7973    0.0000 H   0  0  0  0  0  0  0  0  0  0  0  0
   -7.1998    4.1569    0.0000 C   0  0  0  0  0  0  0  0  0  0  0  0
   -8.8000    4.1569    0.0000 H   0  0  0  0  0  0  0  0  0  0  0  0
   -7.9999    5.5426    0.0000 H   0  0  0  0  0  0  0  0  0  0  0  0
   -7.9999    2.7712    0.0000 H   0  0  0  0  0  0  0  0  0  0  0  0
   -2.4000    1.3857    0.0000 C   0  0  0  0  0  0  0  0  0  0  0  0
   -3.2001   -0.0000    0.0000 H   0  0  0  0  0  0  0  0  0  0  0  0
   -0.7998    1.3857    0.0000 C   0  0  0  0  0  0  0  0  0  0  0  0
   -0.0001   -0.0000    0.0000 C   0  0  0  0  0  0  0  0  0  0  0  0
   -1.3857   -0.8001    0.0000 C   0  0  0  0  0  0  0  0  0  0  0  0
   -2.8890   -1.3472    0.0000 H   0  0  0  0  0  0  0  0  0  0  0  0
   -1.6637   -2.3757    0.0000 H   0  0  0  0  0  0  0  0  0  0  0  0
   -0.1599   -1.8285    0.0000 H   0  0  0  0  0  0  0  0  0  0  0  0
    1.2257    1.0284    0.0000 C   0  0  0  0  0  0  0  0  0  0  0  0
    2.7290    0.4813    0.0000 H   0  0  0  0  0  0  0  0  0  0  0  0
    2.4514    2.0569    0.0000 H   0  0  0  0  0  0  0  0  0  0  0  0
    1.5037   -0.5472    0.0000 H   0  0  0  0  0  0  0  0  0  0  0  0
    0.8000   -1.3857    0.0000 C   0  0  0  0  0  0  0  0  0  0  0  0
    2.3623   -1.0394    0.0000 H   0  0  0  0  0  0  0  0  0  0  0  0
    2.2783   -1.9980    0.0000 H   0  0  0  0  0  0  0  0  0  0  0  0
   -0.0001   -2.7712    0.0000 C   0  0  0  0  0  0  0  0  0  0  0  0
    0.8000   -4.1569    0.0000 H   0  0  0  0  0  0  0  0  0  0  0  0
   -0.7998   -4.1569    0.0000 H   0  0  0  0  0  0  0  0  0  0  0  0
    1.6001   -2.7712    0.0000 H   0  0  0  0  0  0  0  0  0  0  0  0
    3.7857    3.3568    0.0000 C   0  0  0  0  0  0  0  0  0  0  0  0
    3.7857    1.7569    0.0000 O   0  0  0  0  0  0  0  0  0  0  0  0
    5.1713    4.1569    0.0000 N   0  0  0  0  0  0  0  0  0  0  0  0
    5.4493    5.7327    0.0000 H   0  0  0  0  0  0  0  0  0  0  0  0
    6.5568    3.3568    0.0000 C   0  0  0  0  0  0  0  0  0  0  0  0
    6.5568    1.7569    0.0000 C   0  0  0  0  0  0  0  0  0  0  0  0
    5.1713    0.9568    0.0000 H   0  0  0  0  0  0  0  0  0  0  0  0
    7.9424    0.9568    0.0000 C   0  0  0  0  0  0  0  0  0  0  0  0
    7.9424   -0.6431    0.0000 H   0  0  0  0  0  0  0  0  0  0  0  0
    9.3283    1.7569    0.0000 C   0  0  0  0  0  0  0  0  0  0  0  0
   10.7139    0.9568    0.0000 N   0  0  0  0  0  0  0  0  0  0  0  0
   10.7139   -0.6431    0.0000 H   0  0  0  0  0  0  0  0  0  0  0  0
   12.0994    1.7569    0.0000 C   0  0  0  0  0  0  0  0  0  0  0  0
   12.0994    3.3568    0.0000 O   0  0  0  0  0  0  0  0  0  0  0  0
   13.4850    0.9568    0.0000 C   0  0  0  0  0  0  0  0  0  0  0  0
   14.0975   -0.5213    0.0000 F   0  0  0  0  0  0  0  0  0  0  0  0
   12.8729   -0.5213    0.0000 F   0  0  0  0  0  0  0  0  0  0  0  0
   14.8709    1.7569    0.0000 C   0  0  0  0  0  0  0  0  0  0  0  0
   14.2585    3.2351    0.0000 F   0  0  0  0  0  0  0  0  0  0  0  0
   15.4830    3.2351    0.0000 F   0  0  0  0  0  0  0  0  0  0  0  0
   16.2565    0.9568    0.0000 C   0  0  0  0  0  0  0  0  0  0  0  0
   17.6420    0.1570    0.0000 F   0  0  0  0  0  0  0  0  0  0  0  0
   17.6420    1.7569    0.0000 F   0  0  0  0  0  0  0  0  0  0  0  0
   16.2565   -0.6431    0.0000 F   0  0  0  0  0  0  0  0  0  0  0  0
    9.3283    3.3568    0.0000 C   0  0  0  0  0  0  0  0  0  0  0  0
   10.7139    4.1569    0.0000 O   0  0  0  0  0  0  0  0  0  0  0  0
   10.7139    5.7570    0.0000 H   0  0  0  0  0  0  0  0  0  0  0  0
    7.9424    4.1569    0.0000 C   0  0  0  0  0  0  0  0  0  0  0  0
    7.9424    5.7570    0.0000 H   0  0  0  0  0  0  0  0  0  0  0  0
  1  2  1  0  0  0  0
  1  3  1  0  0  0  0
  1  4  1  0  0  0  0
  1  5  1  0  0  0  0
  5  6  1  0  0  0  0
  5  7  1  0  0  0  0
  5  8  1  0  0  0  0
  8  9  1  0  0  0  0
  8 10  1  0  0  0  0
 10 11  1  0  0  0  0
 11 12  1  0  0  0  0
 12 13  1  0  0  0  0
 12 14  2  0  0  0  0
 14 15  1  0  0  0  0
 14 16  1  0  0  0  0
 16 17  1  0  0  0  0
 17 18  1  0  0  0  0
 18 19  1  0  0  0  0
 18 20  1  0  0  0  0
 18 21  1  0  0  0  0
 17 22  1  0  0  0  0
 22 23  1  0  0  0  0
 22 24  1  0  0  0  0
 22 25  1  0  0  0  0
 17 26  1  0  0  0  0
 26 27  1  0  0  0  0
 26 28  1  0  0  0  0
 26 29  1  0  0  0  0
 29 30  1  0  0  0  0
 29 31  1  0  0  0  0
 29 32  1  0  0  0  0
 16 33  2  0  0  0  0
 33 34  1  0  0  0  0
 33 35  1  0  0  0  0
 35 11  2  0  0  0  0
 35 36  1  0  0  0  0
 36 37  1  0  0  0  0
 37 38  1  0  0  0  0
 37 39  1  0  0  0  0
 37 40  1  0  0  0  0
 36 41  1  0  0  0  0
 41 42  1  0  0  0  0
 41 43  1  0  0  0  0
 41 44  1  0  0  0  0
 36 45  1  0  0  0  0
 45 46  1  0  0  0  0
 45 47  1  0  0  0  0
 45 48  1  0  0  0  0
 48 49  1  0  0  0  0
 48 50  1  0  0  0  0
 48 51  1  0  0  0  0
  8 52  1  0  0  0  0
 52 53  2  0  0  0  0
 52 54  1  0  0  0  0
 54 55  1  0  0  0  0
 54 56  1  0  0  0  0
 56 57  1  0  0  0  0
 57 58  1  0  0  0  0
 57 59  2  0  0  0  0
 59 60  1  0  0  0  0
 59 61  1  0  0  0  0
 61 62  1  0  0  0  0
 62 63  1  0  0  0  0
 62 64  1  0  0  0  0
 64 65  2  0  0  0  0
 64 66  1  0  0  0  0
 66 67  1  0  0  0  0
 66 68  1  0  0  0  0
 66 69  1  0  0  0  0
 69 70  1  0  0  0  0
 69 71  1  0  0  0  0
 69 72  1  0  0  0  0
 72 73  1  0  0  0  0
 72 74  1  0  0  0  0
 72 75  1  0  0  0  0
 61 76  2  0  0  0  0
 76 77  1  0  0  0  0
 77 78  1  0  0  0  0
 76 79  1  0  0  0  0
 79 56  2  0  0  0  0
 79 80  1  0  0  0  0
M  END
> <ChemID>
201426

> <source_casrn>


> <CAS>
346-10-1

> <SMILES>
CCC(Oc1ccc(cc1C(C)(C)CC)C(C)(C)CC)C(=O)Nc2ccc(NC(=O)C(F)(F)C(F)(F)C(F)(F)F)c(O)c2

> <NAME>


> <preferred_name>


> <iupac>


> <MPID>
101278

> <dsstox_substance_id>


> <Canonical_QSARr>
CC(C)(CC)c1cc(c(cc1)OC(CC)C(=O)Nc1cc(O)c(cc1)NC(=O)C(F)(F)C(F)(F)C(F)(F)F)C(C)(C)CC

> <InChI_Code_QSARr>
InChI=1S/C30H37F7N2O4/c1-8-22(43-23-14-11-17(26(4,5)9-2)15-19(23)27(6,7)10-3)24(41)38-18-12-13-20(21(40)16-18)39-25(42)28(31,32)29(33,34)30(35,36)37/h11-16,22,40H,8-10H2,1-7H3,(H,38,41)(H,39,42)

> <InChI Key_QSARr>
GJVFPXBDZTWODC-UHFFFAOYSA-N

> <Salt_Solvent>


> <Ready_Biodeg>
0.0

$$$$
201427
  -INDIGO-08031722522D

 43 43  0  0  0  0  0  0  0  0999 V2000
    8.3139    0.0000    0.0000 C   0  0  0  0  0  0  0  0  0  0  0  0
    9.6995    0.8000    0.0000 H   0  0  0  0  0  0  0  0  0  0  0  0
    9.6995   -0.7999    0.0000 H   0  0  0  0  0  0  0  0  0  0  0  0
    8.3139    1.5999    0.0000 H   0  0  0  0  0  0  0  0  0  0  0  0
    6.9282    0.8000    0.0000 C   0  0  0  0  0  0  0  0  0  0  0  0
    7.5405    2.2782    0.0000 H   0  0  0  0  0  0  0  0  0  0  0  0
    6.5819    2.3621    0.0000 H   0  0  0  0  0  0  0  0  0  0  0  0
    5.5425    0.0000    0.0000 C   0  0  0  0  0  0  0  0  0  0  0  0
    6.0899   -1.5035    0.0000 C   0  0  0  0  0  0  0  0  0  0  0  0
    6.6371   -3.0071    0.0000 H   0  0  0  0  0  0  0  0  0  0  0  0
    7.6655   -1.7813    0.0000 H   0  0  0  0  0  0  0  0  0  0  0  0
    7.1183   -0.2778    0.0000 H   0  0  0  0  0  0  0  0  0  0  0  0
    4.5140    1.2256    0.0000 C   0  0  0  0  0  0  0  0  0  0  0  0
    5.0612    2.7292    0.0000 H   0  0  0  0  0  0  0  0  0  0  0  0
    3.4856    2.4514    0.0000 H   0  0  0  0  0  0  0  0  0  0  0  0
    6.0899    1.5036    0.0000 H   0  0  0  0  0  0  0  0  0  0  0  0
    4.1569   -0.7999    0.0000 C   0  0  0  0  0  0  0  0  0  0  0  0
    4.1569   -2.4000    0.0000 C   0  0  0  0  0  0  0  0  0  0  0  0
    5.5427   -3.2000    0.0000 H   0  0  0  0  0  0  0  0  0  0  0  0
    2.7714   -3.2000    0.0000 C   0  0  0  0  0  0  0  0  0  0  0  0
    2.7714   -4.8000    0.0000 H   0  0  0  0  0  0  0  0  0  0  0  0
    1.3856   -2.4000    0.0000 C   0  0  0  0  0  0  0  0  0  0  0  0
    0.0001   -3.2000    0.0000 O   0  0  0  0  0  0  0  0  0  0  0  0
   -0.0001   -4.8000    0.0000 H   0  0  0  0  0  0  0  0  0  0  0  0
    1.3856   -0.7999    0.0000 C   0  0  0  0  0  0  0  0  0  0  0  0
    0.0001    0.0000    0.0000 C   0  0  0  0  0  0  0  0  0  0  0  0
   -0.5473   -1.5035    0.0000 C   0  0  0  0  0  0  0  0  0  0  0  0
   -1.0945   -3.0071    0.0000 H   0  0  0  0  0  0  0  0  0  0  0  0
   -2.1229   -1.7813    0.0000 H   0  0  0  0  0  0  0  0  0  0  0  0
   -1.5757   -0.2778    0.0000 H   0  0  0  0  0  0  0  0  0  0  0  0
    1.0285    1.2256    0.0000 C   0  0  0  0  0  0  0  0  0  0  0  0
    0.4813    2.7292    0.0000 H   0  0  0  0  0  0  0  0  0  0  0  0
    2.0569    2.4514    0.0000 H   0  0  0  0  0  0  0  0  0  0  0  0
   -0.5473    1.5036    0.0000 H   0  0  0  0  0  0  0  0  0  0  0  0
   -1.3856    0.8000    0.0000 C   0  0  0  0  0  0  0  0  0  0  0  0
   -1.0393    2.3621    0.0000 H   0  0  0  0  0  0  0  0  0  0  0  0
   -1.9980    2.2782    0.0000 H   0  0  0  0  0  0  0  0  0  0  0  0
   -2.7712    0.0000    0.0000 C   0  0  0  0  0  0  0  0  0  0  0  0
   -4.1569    0.8000    0.0000 H   0  0  0  0  0  0  0  0  0  0  0  0
   -4.1569   -0.7999    0.0000 H   0  0  0  0  0  0  0  0  0  0  0  0
   -2.7712    1.5999    0.0000 H   0  0  0  0  0  0  0  0  0  0  0  0
    2.7714    0.0000    0.0000 C   0  0  0  0  0  0  0  0  0  0  0  0
    2.7714    1.5999    0.0000 H   0  0  0  0  0  0  0  0  0  0  0  0
  1  2  1  0  0  0  0
  1  3  1  0  0  0  0
  1  4  1  0  0  0  0
  1  5  1  0  0  0  0
  5  6  1  0  0  0  0
  5  7  1  0  0  0  0
  5  8  1  0  0  0  0
  8  9  1  0  0  0  0
  9 10  1  0  0  0  0
  9 11  1  0  0  0  0
  9 12  1  0  0  0  0
  8 13  1  0  0  0  0
 13 14  1  0  0  0  0
 13 15  1  0  0  0  0
 13 16  1  0  0  0  0
  8 17  1  0  0  0  0
 17 18  1  0  0  0  0
 18 19  1  0  0  0  0
 18 20  2  0  0  0  0
 20 21  1  0  0  0  0
 20 22  1  0  0  0  0
 22 23  1  0  0  0  0
 23 24  1  0  0  0  0
 22 25  2  0  0  0  0
 25 26  1  0  0  0  0
 26 27  1  0  0  0  0
 27 28  1  0  0  0  0
 27 29  1  0  0  0  0
 27 30  1  0  0  0  0
 26 31  1  0  0  0  0
 31 32  1  0  0  0  0
 31 33  1  0  0  0  0
 31 34  1  0  0  0  0
 26 35  1  0  0  0  0
 35 36  1  0  0  0  0
 35 37  1  0  0  0  0
 35 38  1  0  0  0  0
 38 39  1  0  0  0  0
 38 40  1  0  0  0  0
 38 41  1  0  0  0  0
 25 42  1  0  0  0  0
 42 17  2  0  0  0  0
 42 43  1  0  0  0  0
M  END
> <ChemID>
201427

> <source_casrn>
120-95-6

> <CAS>
120-95-6

> <SMILES>
CCC(C)(C)c1ccc(O)c(c1)C(C)(C)CC

> <NAME>


> <preferred_name>
2,4-Bis(2-methylbutan-2-yl)phenol

> <iupac>
2,4-bis(2-methylbutan-2-yl)phenol

> <MPID>
101279

> <dsstox_substance_id>
DTXSID9026974

> <Canonical_QSARr>
CC(C)(CC)c1cc(ccc1O)C(C)(C)CC

> <InChI_Code_QSARr>
InChI=1S/C16H26O/c1-7-15(3,4)12-9-10-14(17)13(11-12)16(5,6)8-2/h9-11,17H,7-8H2,1-6H3

> <InChI Key_QSARr>
WMVJWKURWRGJCI-UHFFFAOYSA-N

> <Salt_Solvent>


> <Ready_Biodeg>
0.0

$$$$
201428
  -INDIGO-08031722522D

 34 33  0  0  0  0  0  0  0  0999 V2000
    0.8000   -1.3857    0.0000 C   0  0  0  0  0  0  0  0  0  0  0  0
    1.5999   -2.7713    0.0000 H   0  0  0  0  0  0  0  0  0  0  0  0
    2.3999   -1.3857    0.0000 H   0  0  0  0  0  0  0  0  0  0  0  0
   -0.0000   -2.7713    0.0000 H   0  0  0  0  0  0  0  0  0  0  0  0
   -0.0000   -0.0000    0.0000 C   0  0  0  0  0  0  0  0  0  0  0  0
   -0.8000    1.3856    0.0000 C   0  0  0  0  0  0  0  0  0  0  0  0
   -1.6000    2.7712    0.0000 H   0  0  0  0  0  0  0  0  0  0  0  0
   -2.3757    1.6635    0.0000 H   0  0  0  0  0  0  0  0  0  0  0  0
   -0.2528    2.8891    0.0000 H   0  0  0  0  0  0  0  0  0  0  0  0
   -1.3857   -0.8000    0.0000 C   0  0  0  0  0  0  0  0  0  0  0  0
   -2.9720   -0.5911    0.0000 H   0  0  0  0  0  0  0  0  0  0  0  0
   -2.3597    0.4694    0.0000 H   0  0  0  0  0  0  0  0  0  0  0  0
   -1.3857   -2.4000    0.0000 O   0  0  0  0  0  0  0  0  0  0  0  0
   -2.7712   -3.2000    0.0000 H   0  0  0  0  0  0  0  0  0  0  0  0
    1.3857    0.8000    0.0000 C   0  0  0  0  0  0  0  0  0  0  0  0
    1.9980    2.2782    0.0000 H   0  0  0  0  0  0  0  0  0  0  0  0
    0.7734    2.2782    0.0000 H   0  0  0  0  0  0  0  0  0  0  0  0
    2.7712   -0.0000    0.0000 O   0  0  0  0  0  0  0  0  0  0  0  0
    4.1569    0.8000    0.0000 C   0  0  0  0  0  0  0  0  0  0  0  0
    4.1569    2.4000    0.0000 O   0  0  0  0  0  0  0  0  0  0  0  0
    5.5426   -0.0000    0.0000 C   0  0  0  0  0  0  0  0  0  0  0  0
    6.3426    1.3856    0.0000 C   0  0  0  0  0  0  0  0  0  0  0  0
    7.1426    2.7712    0.0000 H   0  0  0  0  0  0  0  0  0  0  0  0
    7.9183    1.6635    0.0000 H   0  0  0  0  0  0  0  0  0  0  0  0
    5.5426    2.7712    0.0000 H   0  0  0  0  0  0  0  0  0  0  0  0
    4.7426   -1.3857    0.0000 C   0  0  0  0  0  0  0  0  0  0  0  0
    5.2899   -2.8891    0.0000 H   0  0  0  0  0  0  0  0  0  0  0  0
    3.7141   -2.6113    0.0000 H   0  0  0  0  0  0  0  0  0  0  0  0
    6.3182   -1.6635    0.0000 H   0  0  0  0  0  0  0  0  0  0  0  0
    6.9281   -0.8000    0.0000 C   0  0  0  0  0  0  0  0  0  0  0  0
    7.9023    0.4694    0.0000 H   0  0  0  0  0  0  0  0  0  0  0  0
    8.5145   -0.5911    0.0000 H   0  0  0  0  0  0  0  0  0  0  0  0
    7.2060   -2.3757    0.0000 O   0  0  0  0  0  0  0  0  0  0  0  0
    8.7095   -2.9229    0.0000 H   0  0  0  0  0  0  0  0  0  0  0  0
  1  2  1  0  0  0  0
  1  3  1  0  0  0  0
  1  4  1  0  0  0  0
  1  5  1  0  0  0  0
  5  6  1  0  0  0  0
  6  7  1  0  0  0  0
  6  8  1  0  0  0  0
  6  9  1  0  0  0  0
  5 10  1  0  0  0  0
 10 11  1  0  0  0  0
 10 12  1  0  0  0  0
 10 13  1  0  0  0  0
 13 14  1  0  0  0  0
  5 15  1  0  0  0  0
 15 16  1  0  0  0  0
 15 17  1  0  0  0  0
 15 18  1  0  0  0  0
 18 19  1  0  0  0  0
 19 20  2  0  0  0  0
 19 21  1  0  0  0  0
 21 22  1  0  0  0  0
 22 23  1  0  0  0  0
 22 24  1  0  0  0  0
 22 25  1  0  0  0  0
 21 26  1  0  0  0  0
 26 27  1  0  0  0  0
 26 28  1  0  0  0  0
 26 29  1  0  0  0  0
 21 30  1  0  0  0  0
 30 31  1  0  0  0  0
 30 32  1  0  0  0  0
 30 33  1  0  0  0  0
 33 34  1  0  0  0  0
M  END
> <ChemID>
201428

> <source_casrn>
1115-20-4

> <CAS>
1115-20-4

> <SMILES>
CC(C)(CO)COC(=O)C(C)(C)CO

> <NAME>


> <preferred_name>
3-Hydroxy-2,2-dimethylpropyl 3-hydroxy-2,2-dimethylpropanoate

> <iupac>
3-hydroxy-2,2-dimethylpropyl 3-hydroxy-2,2-dimethylpropanoate

> <MPID>
101280

> <dsstox_substance_id>
DTXSID4027361

> <Canonical_QSARr>
CC(C)(CO)C(=O)OCC(C)(C)CO

> <InChI_Code_QSARr>
InChI=1S/C10H20O4/c1-9(2,5-11)7-14-8(13)10(3,4)6-12/h11-12H,5-7H2,1-4H3

> <InChI Key_QSARr>
SZCWBURCISJFEZ-UHFFFAOYSA-N

> <Salt_Solvent>


> <Ready_Biodeg>
0.0

$$$$
201432
  -INDIGO-08031722522D

 23 23  0  0  0  0  0  0  0  0999 V2000
    0.0000    1.6000    0.0000 C   0  0  0  0  0  0  0  0  0  0  0  0
    0.2779    3.1757    0.0000 H   0  0  0  0  0  0  0  0  0  0  0  0
   -1.2257    2.6284    0.0000 H   0  0  0  0  0  0  0  0  0  0  0  0
   -1.5035    1.0528    0.0000 H   0  0  0  0  0  0  0  0  0  0  0  0
    0.0000    0.0000    0.0000 C   0  0  0  0  0  0  0  0  0  0  0  0
   -1.6001    0.0000    0.0000 C   0  0  0  0  0  0  0  0  0  0  0  0
   -3.2000    0.0000    0.0000 H   0  0  0  0  0  0  0  0  0  0  0  0
   -2.4000   -1.3856    0.0000 H   0  0  0  0  0  0  0  0  0  0  0  0
   -2.6284    1.2257    0.0000 H   0  0  0  0  0  0  0  0  0  0  0  0
    0.0000   -1.6000    0.0000 O   0  0  0  0  0  0  0  0  0  0  0  0
   -1.3856   -2.4000    0.0000 O   0  0  0  0  0  0  0  0  0  0  0  0
   -1.3856   -4.0000    0.0000 H   0  0  0  0  0  0  0  0  0  0  0  0
    1.6001    0.0000    0.0000 C   0  0  0  0  0  0  0  0  0  0  0  0
    2.4000    1.3857    0.0000 C   0  0  0  0  0  0  0  0  0  0  0  0
    1.6001    2.7713    0.0000 H   0  0  0  0  0  0  0  0  0  0  0  0
    4.0000    1.3857    0.0000 C   0  0  0  0  0  0  0  0  0  0  0  0
    4.8001    2.7713    0.0000 H   0  0  0  0  0  0  0  0  0  0  0  0
    4.8001    0.0000    0.0000 C   0  0  0  0  0  0  0  0  0  0  0  0
    6.4000    0.0000    0.0000 H   0  0  0  0  0  0  0  0  0  0  0  0
    4.0000   -1.3856    0.0000 C   0  0  0  0  0  0  0  0  0  0  0  0
    4.8001   -2.7713    0.0000 H   0  0  0  0  0  0  0  0  0  0  0  0
    2.4000   -1.3856    0.0000 C   0  0  0  0  0  0  0  0  0  0  0  0
    1.5999   -2.7713    0.0000 H   0  0  0  0  0  0  0  0  0  0  0  0
  1  2  1  0  0  0  0
  1  3  1  0  0  0  0
  1  4  1  0  0  0  0
  1  5  1  0  0  0  0
  5  6  1  0  0  0  0
  6  7  1  0  0  0  0
  6  8  1  0  0  0  0
  6  9  1  0  0  0  0
  5 10  1  0  0  0  0
 10 11  1  0  0  0  0
 11 12  1  0  0  0  0
  5 13  1  0  0  0  0
 13 14  1  0  0  0  0
 14 15  1  0  0  0  0
 14 16  2  0  0  0  0
 16 17  1  0  0  0  0
 16 18  1  0  0  0  0
 18 19  1  0  0  0  0
 18 20  2  0  0  0  0
 20 21  1  0  0  0  0
 20 22  1  0  0  0  0
 22 13  2  0  0  0  0
 22 23  1  0  0  0  0
M  END
> <ChemID>
201432

> <source_casrn>
80-15-9

> <CAS>
80-15-9

> <SMILES>
CC(C)(OO)c1ccccc1

> <NAME>


> <preferred_name>
Cumene hydroperoxide

> <iupac>
2-phenylpropan-2-yl hydroperoxide

> <MPID>
101281

> <dsstox_substance_id>
DTXSID3024869

> <Canonical_QSARr>
CC(C)(OO)c1ccccc1

> <InChI_Code_QSARr>
InChI=1S/C9H12O2/c1-9(2,11-10)8-6-4-3-5-7-8/h3-7,10H,1-2H3

> <InChI Key_QSARr>
YQHLDYVWEZKEOX-UHFFFAOYSA-N

> <Salt_Solvent>


> <Ready_Biodeg>
0.0

$$$$
201435
  -INDIGO-08031722522D

 51 52  0  0  0  0  0  0  0  0999 V2000
    0.0001   -1.6000    0.0000 C   0  0  0  0  0  0  0  0  0  0  0  0
    0.0001   -3.2000    0.0000 H   0  0  0  0  0  0  0  0  0  0  0  0
    1.3856   -2.4000    0.0000 H   0  0  0  0  0  0  0  0  0  0  0  0
   -1.5036   -1.0527    0.0000 H   0  0  0  0  0  0  0  0  0  0  0  0
    0.0001   -0.0000    0.0000 C   0  0  0  0  0  0  0  0  0  0  0  0
   -0.2778    1.5757    0.0000 C   0  0  0  0  0  0  0  0  0  0  0  0
   -0.5558    3.1514    0.0000 H   0  0  0  0  0  0  0  0  0  0  0  0
    0.9479    2.6042    0.0000 H   0  0  0  0  0  0  0  0  0  0  0  0
    1.2255    1.0284    0.0000 H   0  0  0  0  0  0  0  0  0  0  0  0
    1.5755   -0.2778    0.0000 C   0  0  0  0  0  0  0  0  0  0  0  0
    2.6041    0.9479    0.0000 C   0  0  0  0  0  0  0  0  0  0  0  0
    2.3265    2.5235    0.0000 H   0  0  0  0  0  0  0  0  0  0  0  0
    4.1798    0.6700    0.0000 C   0  0  0  0  0  0  0  0  0  0  0  0
    5.2084    1.8956    0.0000 Br  0  0  0  0  0  0  0  0  0  0  0  0
    4.7270   -0.8335    0.0000 C   0  0  0  0  0  0  0  0  0  0  0  0
    6.3028   -1.1114    0.0000 O   0  0  0  0  0  0  0  0  0  0  0  0
    7.3314    0.1144    0.0000 C   0  0  0  0  0  0  0  0  0  0  0  0
    7.4010    1.7128    0.0000 H   0  0  0  0  0  0  0  0  0  0  0  0
    6.2501    1.2939    0.0000 H   0  0  0  0  0  0  0  0  0  0  0  0
    8.9068   -0.1635    0.0000 C   0  0  0  0  0  0  0  0  0  0  0  0
    8.8371   -1.7620    0.0000 H   0  0  0  0  0  0  0  0  0  0  0  0
    9.9880   -1.3432    0.0000 Br  0  0  0  0  0  0  0  0  0  0  0  0
    9.9353    1.0621    0.0000 C   0  0  0  0  0  0  0  0  0  0  0  0
   10.9639    2.2878    0.0000 H   0  0  0  0  0  0  0  0  0  0  0  0
   11.5111    0.7844    0.0000 H   0  0  0  0  0  0  0  0  0  0  0  0
    9.3881    2.5656    0.0000 Br  0  0  0  0  0  0  0  0  0  0  0  0
    3.6985   -2.0592    0.0000 C   0  0  0  0  0  0  0  0  0  0  0  0
    4.2457   -3.5627    0.0000 Br  0  0  0  0  0  0  0  0  0  0  0  0
    2.1231   -1.7813    0.0000 C   0  0  0  0  0  0  0  0  0  0  0  0
    1.8451   -3.3570    0.0000 H   0  0  0  0  0  0  0  0  0  0  0  0
   -1.5999   -0.0000    0.0000 C   0  0  0  0  0  0  0  0  0  0  0  0
   -2.4001    1.3856    0.0000 C   0  0  0  0  0  0  0  0  0  0  0  0
   -1.5999    2.7713    0.0000 H   0  0  0  0  0  0  0  0  0  0  0  0
   -4.0001    1.3856    0.0000 C   0  0  0  0  0  0  0  0  0  0  0  0
   -4.7999    2.7713    0.0000 Br  0  0  0  0  0  0  0  0  0  0  0  0
   -4.7999   -0.0000    0.0000 C   0  0  0  0  0  0  0  0  0  0  0  0
   -6.4000   -0.0000    0.0000 O   0  0  0  0  0  0  0  0  0  0  0  0
   -7.2001    1.3856    0.0000 C   0  0  0  0  0  0  0  0  0  0  0  0
   -6.9912    2.9719    0.0000 H   0  0  0  0  0  0  0  0  0  0  0  0
   -5.9307    2.3596    0.0000 H   0  0  0  0  0  0  0  0  0  0  0  0
   -8.8001    1.3856    0.0000 C   0  0  0  0  0  0  0  0  0  0  0  0
   -9.0088   -0.2006    0.0000 H   0  0  0  0  0  0  0  0  0  0  0  0
  -10.0692    0.4117    0.0000 Br  0  0  0  0  0  0  0  0  0  0  0  0
   -9.6000    2.7713    0.0000 C   0  0  0  0  0  0  0  0  0  0  0  0
  -10.4002    4.1569    0.0000 H   0  0  0  0  0  0  0  0  0  0  0  0
  -11.2000    2.7713    0.0000 H   0  0  0  0  0  0  0  0  0  0  0  0
   -8.8001    4.1569    0.0000 Br  0  0  0  0  0  0  0  0  0  0  0  0
   -4.0001   -1.3856    0.0000 C   0  0  0  0  0  0  0  0  0  0  0  0
   -4.7999   -2.7712    0.0000 Br  0  0  0  0  0  0  0  0  0  0  0  0
   -2.4001   -1.3856    0.0000 C   0  0  0  0  0  0  0  0  0  0  0  0
   -1.5999   -2.7712    0.0000 H   0  0  0  0  0  0  0  0  0  0  0  0
  1  2  1  0  0  0  0
  1  3  1  0  0  0  0
  1  4  1  0  0  0  0
  1  5  1  0  0  0  0
  5  6  1  0  0  0  0
  6  7  1  0  0  0  0
  6  8  1  0  0  0  0
  6  9  1  0  0  0  0
  5 10  1  0  0  0  0
 10 11  1  0  0  0  0
 11 12  1  0  0  0  0
 11 13  2  0  0  0  0
 13 14  1  0  0  0  0
 13 15  1  0  0  0  0
 15 16  1  0  0  0  0
 16 17  1  0  0  0  0
 17 18  1  0  0  0  0
 17 19  1  0  0  0  0
 17 20  1  0  0  0  0
 20 21  1  0  0  0  0
 20 22  1  0  0  0  0
 20 23  1  0  0  0  0
 23 24  1  0  0  0  0
 23 25  1  0  0  0  0
 23 26  1  0  0  0  0
 15 27  2  0  0  0  0
 27 28  1  0  0  0  0
 27 29  1  0  0  0  0
 29 10  2  0  0  0  0
 29 30  1  0  0  0  0
  5 31  1  0  0  0  0
 31 32  1  0  0  0  0
 32 33  1  0  0  0  0
 32 34  2  0  0  0  0
 34 35  1  0  0  0  0
 34 36  1  0  0  0  0
 36 37  1  0  0  0  0
 37 38  1  0  0  0  0
 38 39  1  0  0  0  0
 38 40  1  0  0  0  0
 38 41  1  0  0  0  0
 41 42  1  0  0  0  0
 41 43  1  0  0  0  0
 41 44  1  0  0  0  0
 44 45  1  0  0  0  0
 44 46  1  0  0  0  0
 44 47  1  0  0  0  0
 36 48  2  0  0  0  0
 48 49  1  0  0  0  0
 48 50  1  0  0  0  0
 50 31  2  0  0  0  0
 50 51  1  0  0  0  0
M  END
> <ChemID>
201435

> <source_casrn>
21850-44-2

> <CAS>
21850-44-2

> <SMILES>
CC(C)(c1cc(Br)c(OCC(Br)CBr)c(Br)c1)c2cc(Br)c(OCC(Br)CBr)c(Br)c2

> <NAME>


> <preferred_name>
Tetrabromobisphenol A-bis(2,3-dibromopropyl ether)

> <iupac>
1,1'-propane-2,2-diylbis[3,5-dibromo-4-(2,3-dibromopropoxy)benzene]

> <MPID>
101282

> <dsstox_substance_id>
DTXSID3032129

> <Canonical_QSARr>
CC(C)(c1cc(Br)c(OCC(Br)CBr)c(Br)c1)c1cc(Br)c(OCC(Br)CBr)c(Br)c1

> <InChI_Code_QSARr>
InChI=1S/C21H20Br8O2/c1-21(2,11-3-15(26)19(16(27)4-11)30-9-13(24)7-22)12-5-17(28)20(18(29)6-12)31-10-14(25)8-23/h3-6,13-14H,7-10H2,1-2H3

> <InChI Key_QSARr>
LXIZRZRTWSDLKK-UHFFFAOYSA-N

> <Salt_Solvent>


> <Ready_Biodeg>
0.0

$$$$
201438
  -INDIGO-08031722522D

 47 48  0  0  0  0  0  0  0  0999 V2000
    0.2777   -1.5757    0.0000 C   0  0  0  0  0  0  0  0  0  0  0  0
    0.5556   -3.1514    0.0000 H   0  0  0  0  0  0  0  0  0  0  0  0
    1.7813   -2.1229    0.0000 H   0  0  0  0  0  0  0  0  0  0  0  0
   -1.2255   -1.0284    0.0000 H   0  0  0  0  0  0  0  0  0  0  0  0
   -0.0002    0.0000    0.0000 C   0  0  0  0  0  0  0  0  0  0  0  0
   -0.2777    1.5757    0.0000 C   0  0  0  0  0  0  0  0  0  0  0  0
   -0.5556    3.1514    0.0000 H   0  0  0  0  0  0  0  0  0  0  0  0
    0.9480    2.6042    0.0000 H   0  0  0  0  0  0  0  0  0  0  0  0
    1.2255    1.0284    0.0000 H   0  0  0  0  0  0  0  0  0  0  0  0
    1.6001   -0.0000    0.0000 C   0  0  0  0  0  0  0  0  0  0  0  0
    2.4000    1.3856    0.0000 C   0  0  0  0  0  0  0  0  0  0  0  0
    2.1221    2.9613    0.0000 H   0  0  0  0  0  0  0  0  0  0  0  0
    3.9999    1.3856    0.0000 C   0  0  0  0  0  0  0  0  0  0  0  0
    4.8001    2.7713    0.0000 H   0  0  0  0  0  0  0  0  0  0  0  0
    4.8001   -0.0000    0.0000 C   0  0  0  0  0  0  0  0  0  0  0  0
    6.4001   -0.0000    0.0000 O   0  0  0  0  0  0  0  0  0  0  0  0
    7.1999    1.3856    0.0000 C   0  0  0  0  0  0  0  0  0  0  0  0
    6.9911    2.9719    0.0000 H   0  0  0  0  0  0  0  0  0  0  0  0
    5.9308    2.3597    0.0000 H   0  0  0  0  0  0  0  0  0  0  0  0
    8.7999    1.3856    0.0000 C   0  0  0  0  0  0  0  0  0  0  0  0
    9.0087   -0.2007    0.0000 H   0  0  0  0  0  0  0  0  0  0  0  0
   10.0693    0.4116    0.0000 H   0  0  0  0  0  0  0  0  0  0  0  0
    9.6000    2.7713    0.0000 O   0  0  0  0  0  0  0  0  0  0  0  0
   11.2000    2.7713    0.0000 H   0  0  0  0  0  0  0  0  0  0  0  0
    3.9999   -1.3856    0.0000 C   0  0  0  0  0  0  0  0  0  0  0  0
    4.8001   -2.7713    0.0000 H   0  0  0  0  0  0  0  0  0  0  0  0
    2.4000   -1.3856    0.0000 C   0  0  0  0  0  0  0  0  0  0  0  0
    2.4000   -2.9857    0.0000 H   0  0  0  0  0  0  0  0  0  0  0  0
   -1.6001    0.0000    0.0000 C   0  0  0  0  0  0  0  0  0  0  0  0
   -2.4000    1.3856    0.0000 C   0  0  0  0  0  0  0  0  0  0  0  0
   -1.6001    2.7713    0.0000 H   0  0  0  0  0  0  0  0  0  0  0  0
   -3.9999    1.3856    0.0000 C   0  0  0  0  0  0  0  0  0  0  0  0
   -4.8001    2.7713    0.0000 H   0  0  0  0  0  0  0  0  0  0  0  0
   -4.8001    0.0000    0.0000 C   0  0  0  0  0  0  0  0  0  0  0  0
   -6.4001    0.0000    0.0000 O   0  0  0  0  0  0  0  0  0  0  0  0
   -7.1999    1.3856    0.0000 C   0  0  0  0  0  0  0  0  0  0  0  0
   -6.9910    2.9719    0.0000 H   0  0  0  0  0  0  0  0  0  0  0  0
   -5.9308    2.3597    0.0000 H   0  0  0  0  0  0  0  0  0  0  0  0
   -8.7999    1.3856    0.0000 C   0  0  0  0  0  0  0  0  0  0  0  0
   -9.0087   -0.2007    0.0000 H   0  0  0  0  0  0  0  0  0  0  0  0
  -10.0693    0.4116    0.0000 H   0  0  0  0  0  0  0  0  0  0  0  0
   -9.6000    2.7713    0.0000 O   0  0  0  0  0  0  0  0  0  0  0  0
  -11.2000    2.7713    0.0000 H   0  0  0  0  0  0  0  0  0  0  0  0
   -3.9999   -1.3856    0.0000 C   0  0  0  0  0  0  0  0  0  0  0  0
   -4.8001   -2.7713    0.0000 H   0  0  0  0  0  0  0  0  0  0  0  0
   -2.4000   -1.3856    0.0000 C   0  0  0  0  0  0  0  0  0  0  0  0
   -1.6001   -2.7713    0.0000 H   0  0  0  0  0  0  0  0  0  0  0  0
  1  2  1  0  0  0  0
  1  3  1  0  0  0  0
  1  4  1  0  0  0  0
  1  5  1  0  0  0  0
  5  6  1  0  0  0  0
  6  7  1  0  0  0  0
  6  8  1  0  0  0  0
  6  9  1  0  0  0  0
  5 10  1  0  0  0  0
 10 11  1  0  0  0  0
 11 12  1  0  0  0  0
 11 13  2  0  0  0  0
 13 14  1  0  0  0  0
 13 15  1  0  0  0  0
 15 16  1  0  0  0  0
 16 17  1  0  0  0  0
 17 18  1  0  0  0  0
 17 19  1  0  0  0  0
 17 20  1  0  0  0  0
 20 21  1  0  0  0  0
 20 22  1  0  0  0  0
 20 23  1  0  0  0  0
 23 24  1  0  0  0  0
 15 25  2  0  0  0  0
 25 26  1  0  0  0  0
 25 27  1  0  0  0  0
 27 10  2  0  0  0  0
 27 28  1  0  0  0  0
  5 29  1  0  0  0  0
 29 30  1  0  0  0  0
 30 31  1  0  0  0  0
 30 32  2  0  0  0  0
 32 33  1  0  0  0  0
 32 34  1  0  0  0  0
 34 35  1  0  0  0  0
 35 36  1  0  0  0  0
 36 37  1  0  0  0  0
 36 38  1  0  0  0  0
 36 39  1  0  0  0  0
 39 40  1  0  0  0  0
 39 41  1  0  0  0  0
 39 42  1  0  0  0  0
 42 43  1  0  0  0  0
 34 44  2  0  0  0  0
 44 45  1  0  0  0  0
 44 46  1  0  0  0  0
 46 29  2  0  0  0  0
 46 47  1  0  0  0  0
M  END
> <ChemID>
201438

> <source_casrn>
901-44-0

> <CAS>
901-44-0

> <SMILES>
CC(C)(c1ccc(OCCO)cc1)c2ccc(OCCO)cc2

> <NAME>


> <preferred_name>
Ethanol, 2,2'-[(1-methylethylidene)bis(4,1-phenyleneoxy)]bis-

> <iupac>
2,2'-[propane-2,2-diylbis(benzene-4,1-diyloxy)]diethanol

> <MPID>
101284

> <dsstox_substance_id>
DTXSID6029204

> <Canonical_QSARr>
CC(C)(c1ccc(cc1)OCCO)c1ccc(cc1)OCCO

> <InChI_Code_QSARr>
InChI=1S/C19H24O4/c1-19(2,15-3-7-17(8-4-15)22-13-11-20)16-5-9-18(10-6-16)23-14-12-21/h3-10,20-21H,11-14H2,1-2H3

> <InChI Key_QSARr>
UUAGPGQUHZVJBQ-UHFFFAOYSA-N

> <Salt_Solvent>


> <Ready_Biodeg>
0.0

$$$$
201439
  -INDIGO-08031722522D

 32 33  0  0  0  0  0  0  0  0999 V2000
    0.2779   -1.5757    0.0000 C   0  0  0  0  0  0  0  0  0  0  0  0
    0.5557   -3.1514    0.0000 H   0  0  0  0  0  0  0  0  0  0  0  0
    1.7814   -2.1229    0.0000 H   0  0  0  0  0  0  0  0  0  0  0  0
   -1.2256   -1.0284    0.0000 H   0  0  0  0  0  0  0  0  0  0  0  0
    0.0000    0.0000    0.0000 C   0  0  0  0  0  0  0  0  0  0  0  0
   -0.2779    1.5757    0.0000 C   0  0  0  0  0  0  0  0  0  0  0  0
   -0.5557    3.1514    0.0000 H   0  0  0  0  0  0  0  0  0  0  0  0
    0.9478    2.6042    0.0000 H   0  0  0  0  0  0  0  0  0  0  0  0
    1.2256    1.0284    0.0000 H   0  0  0  0  0  0  0  0  0  0  0  0
    1.6000   -0.0000    0.0000 C   0  0  0  0  0  0  0  0  0  0  0  0
    2.4000   -1.3856    0.0000 C   0  0  0  0  0  0  0  0  0  0  0  0
    2.4000   -2.9857    0.0000 H   0  0  0  0  0  0  0  0  0  0  0  0
    4.0000   -1.3856    0.0000 C   0  0  0  0  0  0  0  0  0  0  0  0
    4.8000   -2.7713    0.0000 H   0  0  0  0  0  0  0  0  0  0  0  0
    4.8000    0.0000    0.0000 C   0  0  0  0  0  0  0  0  0  0  0  0
    6.4000    0.0000    0.0000 H   0  0  0  0  0  0  0  0  0  0  0  0
    4.0000    1.3856    0.0000 C   0  0  0  0  0  0  0  0  0  0  0  0
    4.8000    2.7713    0.0000 H   0  0  0  0  0  0  0  0  0  0  0  0
    2.4000    1.3856    0.0000 C   0  0  0  0  0  0  0  0  0  0  0  0
    2.1221    2.9613    0.0000 H   0  0  0  0  0  0  0  0  0  0  0  0
   -1.6000    0.0000    0.0000 C   0  0  0  0  0  0  0  0  0  0  0  0
   -2.4000    1.3856    0.0000 C   0  0  0  0  0  0  0  0  0  0  0  0
   -1.6000    2.7713    0.0000 H   0  0  0  0  0  0  0  0  0  0  0  0
   -4.0000    1.3856    0.0000 C   0  0  0  0  0  0  0  0  0  0  0  0
   -4.8000    2.7713    0.0000 H   0  0  0  0  0  0  0  0  0  0  0  0
   -4.8000    0.0000    0.0000 C   0  0  0  0  0  0  0  0  0  0  0  0
   -6.4000    0.0000    0.0000 O   0  0  0  0  0  0  0  0  0  0  0  0
   -7.2000    1.3856    0.0000 H   0  0  0  0  0  0  0  0  0  0  0  0
   -4.0000   -1.3856    0.0000 C   0  0  0  0  0  0  0  0  0  0  0  0
   -4.8000   -2.7713    0.0000 H   0  0  0  0  0  0  0  0  0  0  0  0
   -2.4000   -1.3856    0.0000 C   0  0  0  0  0  0  0  0  0  0  0  0
   -1.6000   -2.7713    0.0000 H   0  0  0  0  0  0  0  0  0  0  0  0
  1  2  1  0  0  0  0
  1  3  1  0  0  0  0
  1  4  1  0  0  0  0
  1  5  1  0  0  0  0
  5  6  1  0  0  0  0
  6  7  1  0  0  0  0
  6  8  1  0  0  0  0
  6  9  1  0  0  0  0
  5 10  1  0  0  0  0
 10 11  1  0  0  0  0
 11 12  1  0  0  0  0
 11 13  2  0  0  0  0
 13 14  1  0  0  0  0
 13 15  1  0  0  0  0
 15 16  1  0  0  0  0
 15 17  2  0  0  0  0
 17 18  1  0  0  0  0
 17 19  1  0  0  0  0
 19 10  2  0  0  0  0
 19 20  1  0  0  0  0
  5 21  1  0  0  0  0
 21 22  1  0  0  0  0
 22 23  1  0  0  0  0
 22 24  2  0  0  0  0
 24 25  1  0  0  0  0
 24 26  1  0  0  0  0
 26 27  1  0  0  0  0
 27 28  1  0  0  0  0
 26 29  2  0  0  0  0
 29 30  1  0  0  0  0
 29 31  1  0  0  0  0
 31 21  2  0  0  0  0
 31 32  1  0  0  0  0
M  END
> <ChemID>
201439

> <source_casrn>
599-64-4

> <CAS>
599-64-4

> <SMILES>
CC(C)(c1ccccc1)c2ccc(O)cc2

> <NAME>


> <preferred_name>
4-Cumylphenol

> <iupac>
C15H16O

> <MPID>
101285

> <dsstox_substance_id>
DTXSID3022536

> <Canonical_QSARr>
CC(C)(c1ccccc1)c1ccc(O)cc1

> <InChI_Code_QSARr>
InChI=1S/C15H16O/c1-15(2,12-6-4-3-5-7-12)13-8-10-14(16)11-9-13/h3-11,16H,1-2H3

> <InChI Key_QSARr>
QBDSZLJBMIMQRS-UHFFFAOYSA-N

> <Salt_Solvent>


> <Ready_Biodeg>
0.0

$$$$
201440
  -INDIGO-08031722522D

 26 26  0  0  0  0  0  0  0  0999 V2000
    2.4000    1.3857    0.0000 C   0  0  0  0  0  0  0  0  0  0  0  0
    3.2000    2.7713    0.0000 H   0  0  0  0  0  0  0  0  0  0  0  0
    4.0000    1.3857    0.0000 H   0  0  0  0  0  0  0  0  0  0  0  0
    1.6001    2.7713    0.0000 H   0  0  0  0  0  0  0  0  0  0  0  0
    1.6001   -0.0000    0.0000 C   0  0  0  0  0  0  0  0  0  0  0  0
    2.4000   -1.3857    0.0000 C   0  0  0  0  0  0  0  0  0  0  0  0
    4.0000   -1.3857    0.0000 H   0  0  0  0  0  0  0  0  0  0  0  0
    3.2000   -2.7713    0.0000 H   0  0  0  0  0  0  0  0  0  0  0  0
    3.2000   -0.0000    0.0000 H   0  0  0  0  0  0  0  0  0  0  0  0
   -0.0000   -0.0000    0.0000 C   0  0  0  0  0  0  0  0  0  0  0  0
   -0.8000    1.3857    0.0000 C   0  0  0  0  0  0  0  0  0  0  0  0
    0.7035    1.9329    0.0000 H   0  0  0  0  0  0  0  0  0  0  0  0
   -1.0779    2.9613    0.0000 H   0  0  0  0  0  0  0  0  0  0  0  0
   -2.4000    1.3857    0.0000 C   0  0  0  0  0  0  0  0  0  0  0  0
   -2.1221    2.9613    0.0000 H   0  0  0  0  0  0  0  0  0  0  0  0
   -3.9036    1.9329    0.0000 H   0  0  0  0  0  0  0  0  0  0  0  0
   -3.1999   -0.0000    0.0000 C   0  0  0  0  0  0  0  0  0  0  0  0
   -4.8000   -0.0000    0.0000 C   0  0  0  0  0  0  0  0  0  0  0  0
   -6.4000   -0.0000    0.0000 H   0  0  0  0  0  0  0  0  0  0  0  0
   -5.6000   -1.3857    0.0000 H   0  0  0  0  0  0  0  0  0  0  0  0
   -5.6000    1.3857    0.0000 H   0  0  0  0  0  0  0  0  0  0  0  0
   -2.4000   -1.3857    0.0000 C   0  0  0  0  0  0  0  0  0  0  0  0
   -3.1999   -2.7713    0.0000 H   0  0  0  0  0  0  0  0  0  0  0  0
   -0.8000   -1.3857    0.0000 C   0  0  0  0  0  0  0  0  0  0  0  0
   -1.0779   -2.9613    0.0000 H   0  0  0  0  0  0  0  0  0  0  0  0
    0.7035   -1.9329    0.0000 H   0  0  0  0  0  0  0  0  0  0  0  0
  1  2  1  0  0  0  0
  1  3  1  0  0  0  0
  1  4  1  0  0  0  0
  1  5  1  0  0  0  0
  5  6  1  0  0  0  0
  6  7  1  0  0  0  0
  6  8  1  0  0  0  0
  6  9  1  0  0  0  0
  5 10  2  0  0  0  0
 10 11  1  0  0  0  0
 11 12  1  0  0  0  0
 11 13  1  0  0  0  0
 11 14  1  0  0  0  0
 14 15  1  0  0  0  0
 14 16  1  0  0  0  0
 14 17  1  0  0  0  0
 17 18  1  0  0  0  0
 18 19  1  0  0  0  0
 18 20  1  0  0  0  0
 18 21  1  0  0  0  0
 17 22  2  0  0  0  0
 22 23  1  0  0  0  0
 22 24  1  0  0  0  0
 24 10  1  0  0  0  0
 24 25  1  0  0  0  0
 24 26  1  0  0  0  0
M  END
> <ChemID>
201440

> <source_casrn>
586-62-9

> <CAS>
586-62-9

> <SMILES>
CC(C)=C1CCC(=CC1)C

> <NAME>


> <preferred_name>
Terpinolene

> <iupac>
1-methyl-4-(propan-2-ylidene)cyclohexene

> <MPID>
101286

> <dsstox_substance_id>
DTXSID0027222

> <Canonical_QSARr>
CC(C)=C1CC=C(C)CC1

> <InChI_Code_QSARr>
InChI=1S/C10H16/c1-8(2)10-6-4-9(3)5-7-10/h4H,5-7H2,1-3H3

> <InChI Key_QSARr>
MOYAFQVGZZPNRA-UHFFFAOYSA-N

> <Salt_Solvent>


> <Ready_Biodeg>
1.0

$$$$
201442
  -INDIGO-08031722522D

 48 49  0  0  0  0  0  0  0  0999 V2000
    1.6000    4.3713    0.0000 C   0  0  0  0  0  0  0  0  0  0  0  0
    2.4000    5.7569    0.0000 H   0  0  0  0  0  0  0  0  0  0  0  0
    3.2000    4.3713    0.0000 H   0  0  0  0  0  0  0  0  0  0  0  0
    0.8000    5.7569    0.0000 H   0  0  0  0  0  0  0  0  0  0  0  0
    0.0001    4.3713    0.0000 C   0  0  0  0  0  0  0  0  0  0  0  0
   -0.7999    5.7569    0.0000 C   0  0  0  0  0  0  0  0  0  0  0  0
   -1.5999    7.1426    0.0000 H   0  0  0  0  0  0  0  0  0  0  0  0
    0.0001    7.1426    0.0000 H   0  0  0  0  0  0  0  0  0  0  0  0
   -2.3999    5.7569    0.0000 H   0  0  0  0  0  0  0  0  0  0  0  0
   -0.7999    2.9856    0.0000 C   0  0  0  0  0  0  0  0  0  0  0  0
   -1.6141    3.4114    0.0000 H   0  0  0  0  0  0  0  0  0  0  0  0
    0.0001    1.6000    0.0000 C   0  0  0  0  0  0  0  0  0  0  0  0
    1.5756    1.8778    0.0000 H   0  0  0  0  0  0  0  0  0  0  0  0
   -1.3857    0.8001    0.0000 C   0  0  0  0  0  0  0  0  0  0  0  0
   -2.4141   -0.4256    0.0000 H   0  0  0  0  0  0  0  0  0  0  0  0
   -2.4141    2.0257    0.0000 C   0  0  0  0  0  0  0  0  0  0  0  0
   -2.4006    2.9443    0.0000 O   0  0  0  0  0  0  0  0  0  0  0  0
   -3.9899    1.7479    0.0000 O   0  0  0  0  0  0  0  0  0  0  0  0
   -5.0183    2.9735    0.0000 C   0  0  0  0  0  0  0  0  0  0  0  0
   -3.6918    3.8682    0.0000 H   0  0  0  0  0  0  0  0  0  0  0  0
   -5.7695    4.3863    0.0000 C   0  0  0  0  0  0  0  0  0  0  0  0
   -4.2860    4.9857    0.0000 H   0  0  0  0  0  0  0  0  0  0  0  0
   -6.2104    5.9242    0.0000 H   0  0  0  0  0  0  0  0  0  0  0  0
   -7.3451    4.1085    0.0000 C   0  0  0  0  0  0  0  0  0  0  0  0
   -8.4959    5.2198    0.0000 O   0  0  0  0  0  0  0  0  0  0  0  0
   -7.5678    2.5240    0.0000 C   0  0  0  0  0  0  0  0  0  0  0  0
   -8.9804    1.7728    0.0000 C   0  0  0  0  0  0  0  0  0  0  0  0
   -8.4203    0.2741    0.0000 H   0  0  0  0  0  0  0  0  0  0  0  0
   -9.6440    0.3169    0.0000 H   0  0  0  0  0  0  0  0  0  0  0  0
  -10.3373    2.6207    0.0000 C   0  0  0  0  0  0  0  0  0  0  0  0
  -10.2815    4.2197    0.0000 H   0  0  0  0  0  0  0  0  0  0  0  0
  -11.7501    1.8695    0.0000 C   0  0  0  0  0  0  0  0  0  0  0  0
  -13.1070    2.7174    0.0000 H   0  0  0  0  0  0  0  0  0  0  0  0
  -11.8058    0.2706    0.0000 H   0  0  0  0  0  0  0  0  0  0  0  0
   -6.1298    1.8225    0.0000 C   0  0  0  0  0  0  0  0  0  0  0  0
   -5.8519    0.2469    0.0000 C   0  0  0  0  0  0  0  0  0  0  0  0
   -7.0776   -0.7817    0.0000 H   0  0  0  0  0  0  0  0  0  0  0  0
   -5.5739   -1.3288    0.0000 H   0  0  0  0  0  0  0  0  0  0  0  0
   -4.3485   -0.3003    0.0000 H   0  0  0  0  0  0  0  0  0  0  0  0
    0.0001    0.0000    0.0000 C   0  0  0  0  0  0  0  0  0  0  0  0
   -0.5474   -1.5035    0.0000 C   0  0  0  0  0  0  0  0  0  0  0  0
   -1.0945   -3.0070    0.0000 H   0  0  0  0  0  0  0  0  0  0  0  0
    0.4813   -2.7292    0.0000 H   0  0  0  0  0  0  0  0  0  0  0  0
   -2.1229   -1.7814    0.0000 H   0  0  0  0  0  0  0  0  0  0  0  0
    1.5756   -0.2779    0.0000 C   0  0  0  0  0  0  0  0  0  0  0  0
    3.1515   -0.5557    0.0000 H   0  0  0  0  0  0  0  0  0  0  0  0
    2.1228   -1.7814    0.0000 H   0  0  0  0  0  0  0  0  0  0  0  0
    2.6041    0.9478    0.0000 H   0  0  0  0  0  0  0  0  0  0  0  0
  1  2  1  0  0  0  0
  1  3  1  0  0  0  0
  1  4  1  0  0  0  0
  1  5  1  0  0  0  0
  5  6  1  0  0  0  0
  6  7  1  0  0  0  0
  6  8  1  0  0  0  0
  6  9  1  0  0  0  0
  5 10  2  0  0  0  0
 10 11  1  0  0  0  0
 10 12  1  0  0  0  0
 12 13  1  0  0  0  0
 12 14  1  0  0  0  0
 14 15  1  0  0  0  0
 14 16  1  0  0  0  0
 16 17  2  0  0  0  0
 16 18  1  0  0  0  0
 18 19  1  0  0  0  0
 19 20  1  0  0  0  0
 19 21  1  0  0  0  0
 21 22  1  0  0  0  0
 21 23  1  0  0  0  0
 21 24  1  0  0  0  0
 24 25  2  0  0  0  0
 24 26  1  0  0  0  0
 26 27  1  0  0  0  0
 27 28  1  0  0  0  0
 27 29  1  0  0  0  0
 27 30  1  0  0  0  0
 30 31  1  0  0  0  0
 30 32  2  0  0  0  0
 32 33  1  0  0  0  0
 32 34  1  0  0  0  0
 26 35  2  0  0  0  0
 35 19  1  0  0  0  0
 35 36  1  0  0  0  0
 36 37  1  0  0  0  0
 36 38  1  0  0  0  0
 36 39  1  0  0  0  0
 14 40  1  0  0  0  0
 40 12  1  0  0  0  0
 40 41  1  0  0  0  0
 41 42  1  0  0  0  0
 41 43  1  0  0  0  0
 41 44  1  0  0  0  0
 40 45  1  0  0  0  0
 45 46  1  0  0  0  0
 45 47  1  0  0  0  0
 45 48  1  0  0  0  0
M  END
> <ChemID>
201442

> <source_casrn>
584-79-2

> <CAS>
584-79-2

> <SMILES>
CC(C)=CC1C(C(=O)OC2CC(=O)C(=C2C)CC=C)C1(C)C

> <NAME>


> <preferred_name>
Allethrin

> <iupac>
C19H26O3

> <MPID>
101288

> <dsstox_substance_id>
DTXSID8035180

> <Canonical_QSARr>
CC(C)=CC1C(C(=O)OC2CC(=O)C(CC=C)=C2C)C1(C)C

> <InChI_Code_QSARr>
InChI=1S/C19H26O3/c1-7-8-13-12(4)16(10-15(13)20)22-18(21)17-14(9-11(2)3)19(17,5)6/h7,9,14,16-17H,1,8,10H2,2-6H3

> <InChI Key_QSARr>
ZCVAOQKBXKSDMS-UHFFFAOYSA-N

> <Salt_Solvent>


> <Ready_Biodeg>
0.0

$$$$
201443
  -INDIGO-08031722522D

 49 51  0  0  0  0  0  0  0  0999 V2000
    1.8778   -4.3470    0.0000 C   0  0  0  0  0  0  0  0  0  0  0  0
    2.6778   -5.7326    0.0000 H   0  0  0  0  0  0  0  0  0  0  0  0
    1.0780   -5.7326    0.0000 H   0  0  0  0  0  0  0  0  0  0  0  0
    3.4779   -4.3470    0.0000 H   0  0  0  0  0  0  0  0  0  0  0  0
    2.6778   -2.9614    0.0000 C   0  0  0  0  0  0  0  0  0  0  0  0
    4.2780   -2.9614    0.0000 C   0  0  0  0  0  0  0  0  0  0  0  0
    5.8778   -2.9614    0.0000 H   0  0  0  0  0  0  0  0  0  0  0  0
    5.0778   -4.3470    0.0000 H   0  0  0  0  0  0  0  0  0  0  0  0
    5.0778   -1.5757    0.0000 H   0  0  0  0  0  0  0  0  0  0  0  0
    1.8778   -1.5757    0.0000 C   0  0  0  0  0  0  0  0  0  0  0  0
    2.6778   -0.1900    0.0000 H   0  0  0  0  0  0  0  0  0  0  0  0
    0.2779   -1.5757    0.0000 C   0  0  0  0  0  0  0  0  0  0  0  0
    0.0001   -3.1514    0.0000 H   0  0  0  0  0  0  0  0  0  0  0  0
   -1.2257   -1.0284    0.0000 C   0  0  0  0  0  0  0  0  0  0  0  0
   -2.4513   -0.0001    0.0000 H   0  0  0  0  0  0  0  0  0  0  0  0
   -2.0258   -2.4141    0.0000 C   0  0  0  0  0  0  0  0  0  0  0  0
   -1.2257   -3.7997    0.0000 O   0  0  0  0  0  0  0  0  0  0  0  0
   -3.6257   -2.4141    0.0000 O   0  0  0  0  0  0  0  0  0  0  0  0
   -4.4257   -3.7997    0.0000 C   0  0  0  0  0  0  0  0  0  0  0  0
   -4.2167   -5.3860    0.0000 H   0  0  0  0  0  0  0  0  0  0  0  0
   -3.1563   -4.7738    0.0000 H   0  0  0  0  0  0  0  0  0  0  0  0
   -6.0256   -3.7997    0.0000 N   0  0  0  0  0  0  0  0  0  0  0  0
   -6.9662   -5.0942    0.0000 C   0  0  0  0  0  0  0  0  0  0  0  0
   -6.4716   -6.6158    0.0000 O   0  0  0  0  0  0  0  0  0  0  0  0
   -8.4878   -4.5997    0.0000 C   0  0  0  0  0  0  0  0  0  0  0  0
   -8.4878   -2.9998    0.0000 C   0  0  0  0  0  0  0  0  0  0  0  0
   -9.8735   -2.1997    0.0000 C   0  0  0  0  0  0  0  0  0  0  0  0
  -10.9020   -0.9741    0.0000 H   0  0  0  0  0  0  0  0  0  0  0  0
   -8.8450   -0.9741    0.0000 H   0  0  0  0  0  0  0  0  0  0  0  0
  -11.2592   -2.9998    0.0000 C   0  0  0  0  0  0  0  0  0  0  0  0
  -12.8348   -3.2775    0.0000 H   0  0  0  0  0  0  0  0  0  0  0  0
  -11.8063   -1.4963    0.0000 H   0  0  0  0  0  0  0  0  0  0  0  0
  -11.2592   -4.5997    0.0000 C   0  0  0  0  0  0  0  0  0  0  0  0
  -11.8063   -6.1032    0.0000 H   0  0  0  0  0  0  0  0  0  0  0  0
  -12.8348   -4.3219    0.0000 H   0  0  0  0  0  0  0  0  0  0  0  0
   -9.8735   -5.3998    0.0000 C   0  0  0  0  0  0  0  0  0  0  0  0
   -8.8450   -6.6254    0.0000 H   0  0  0  0  0  0  0  0  0  0  0  0
  -10.9020   -6.6254    0.0000 H   0  0  0  0  0  0  0  0  0  0  0  0
   -6.9662   -2.5053    0.0000 C   0  0  0  0  0  0  0  0  0  0  0  0
   -6.4716   -0.9837    0.0000 O   0  0  0  0  0  0  0  0  0  0  0  0
    0.0001   -0.0001    0.0000 C   0  0  0  0  0  0  0  0  0  0  0  0
   -0.8000    1.3856    0.0000 C   0  0  0  0  0  0  0  0  0  0  0  0
   -1.6001    2.7713    0.0000 H   0  0  0  0  0  0  0  0  0  0  0  0
    0.0001    2.7713    0.0000 H   0  0  0  0  0  0  0  0  0  0  0  0
   -2.3999    1.3856    0.0000 H   0  0  0  0  0  0  0  0  0  0  0  0
    1.5034    0.5472    0.0000 C   0  0  0  0  0  0  0  0  0  0  0  0
    1.7812    2.1229    0.0000 H   0  0  0  0  0  0  0  0  0  0  0  0
    3.0071    1.0944    0.0000 H   0  0  0  0  0  0  0  0  0  0  0  0
    0.2779    1.5757    0.0000 H   0  0  0  0  0  0  0  0  0  0  0  0
  1  2  1  0  0  0  0
  1  3  1  0  0  0  0
  1  4  1  0  0  0  0
  1  5  1  0  0  0  0
  5  6  1  0  0  0  0
  6  7  1  0  0  0  0
  6  8  1  0  0  0  0
  6  9  1  0  0  0  0
  5 10  2  0  0  0  0
 10 11  1  0  0  0  0
 10 12  1  0  0  0  0
 12 13  1  0  0  0  0
 12 14  1  0  0  0  0
 14 15  1  0  0  0  0
 14 16  1  0  0  0  0
 16 17  2  0  0  0  0
 16 18  1  0  0  0  0
 18 19  1  0  0  0  0
 19 20  1  0  0  0  0
 19 21  1  0  0  0  0
 19 22  1  0  0  0  0
 22 23  1  0  0  0  0
 23 24  2  0  0  0  0
 23 25  1  0  0  0  0
 25 26  2  0  0  0  0
 26 27  1  0  0  0  0
 27 28  1  0  0  0  0
 27 29  1  0  0  0  0
 27 30  1  0  0  0  0
 30 31  1  0  0  0  0
 30 32  1  0  0  0  0
 30 33  1  0  0  0  0
 33 34  1  0  0  0  0
 33 35  1  0  0  0  0
 33 36  1  0  0  0  0
 36 25  1  0  0  0  0
 36 37  1  0  0  0  0
 36 38  1  0  0  0  0
 26 39  1  0  0  0  0
 39 22  1  0  0  0  0
 39 40  2  0  0  0  0
 14 41  1  0  0  0  0
 41 12  1  0  0  0  0
 41 42  1  0  0  0  0
 42 43  1  0  0  0  0
 42 44  1  0  0  0  0
 42 45  1  0  0  0  0
 41 46  1  0  0  0  0
 46 47  1  0  0  0  0
 46 48  1  0  0  0  0
 46 49  1  0  0  0  0
M  END
> <ChemID>
201443

> <source_casrn>
7696-12-0

> <CAS>
7696-12-0

> <SMILES>
CC(C)=CC1C(C(=O)OCN2C(=O)C3=C(CCCC3)C2=O)C1(C)C

> <NAME>


> <preferred_name>
Tetramethrin

> <iupac>
(1,3-dioxo-1,3,4,5,6,7-hexahydro-2H-isoindol-2-yl)methyl (1R,3R)-2,2-dimethyl-3-(2-methylprop-1-en-1-yl)cyclopropanecarboxylate

> <MPID>
101289

> <dsstox_substance_id>
DTXSID6032649

> <Canonical_QSARr>
CC(C)=CC1C(C(=O)OCN2C(=O)C3CCCCC=3C2=O)C1(C)C

> <InChI_Code_QSARr>
InChI=1S/C19H25NO4/c1-11(2)9-14-15(19(14,3)4)18(23)24-10-20-16(21)12-7-5-6-8-13(12)17(20)22/h9,14-15H,5-8,10H2,1-4H3

> <InChI Key_QSARr>
CXBMCYHAMVGWJQ-UHFFFAOYSA-N

> <Salt_Solvent>


> <Ready_Biodeg>
0.0

$$$$
201447
  -INDIGO-08031722522D

 23 22  0  0  0  0  0  0  0  0999 V2000
   -2.7712   -1.6000    0.0000 C   0  0  0  0  0  0  0  0  0  0  0  0
   -2.7712   -3.2000    0.0000 H   0  0  0  0  0  0  0  0  0  0  0  0
   -4.1569   -2.4000    0.0000 H   0  0  0  0  0  0  0  0  0  0  0  0
   -1.3856   -2.4000    0.0000 H   0  0  0  0  0  0  0  0  0  0  0  0
   -2.7712    0.0000    0.0000 C   0  0  0  0  0  0  0  0  0  0  0  0
   -4.1569    0.8000    0.0000 C   0  0  0  0  0  0  0  0  0  0  0  0
   -5.5426    1.6000    0.0000 H   0  0  0  0  0  0  0  0  0  0  0  0
   -5.5426    0.0000    0.0000 H   0  0  0  0  0  0  0  0  0  0  0  0
   -4.1569    2.4000    0.0000 H   0  0  0  0  0  0  0  0  0  0  0  0
   -1.3856    0.8000    0.0000 C   0  0  0  0  0  0  0  0  0  0  0  0
   -1.3856    2.4000    0.0000 H   0  0  0  0  0  0  0  0  0  0  0  0
    0.0001    0.0000    0.0000 C   0  0  0  0  0  0  0  0  0  0  0  0
    0.6122   -1.4782    0.0000 H   0  0  0  0  0  0  0  0  0  0  0  0
   -0.6122   -1.4782    0.0000 H   0  0  0  0  0  0  0  0  0  0  0  0
    1.3856    0.8000    0.0000 C   0  0  0  0  0  0  0  0  0  0  0  0
    0.7734    2.2782    0.0000 H   0  0  0  0  0  0  0  0  0  0  0  0
    1.9979    2.2782    0.0000 H   0  0  0  0  0  0  0  0  0  0  0  0
    2.7712    0.0000    0.0000 C   0  0  0  0  0  0  0  0  0  0  0  0
    4.1569    0.8000    0.0000 C   0  0  0  0  0  0  0  0  0  0  0  0
    5.5426    1.6000    0.0000 H   0  0  0  0  0  0  0  0  0  0  0  0
    5.5426    0.0000    0.0000 H   0  0  0  0  0  0  0  0  0  0  0  0
    4.1569    2.4000    0.0000 H   0  0  0  0  0  0  0  0  0  0  0  0
    2.7712   -1.6000    0.0000 O   0  0  0  0  0  0  0  0  0  0  0  0
  1  2  1  0  0  0  0
  1  3  1  0  0  0  0
  1  4  1  0  0  0  0
  1  5  1  0  0  0  0
  5  6  1  0  0  0  0
  6  7  1  0  0  0  0
  6  8  1  0  0  0  0
  6  9  1  0  0  0  0
  5 10  2  0  0  0  0
 10 11  1  0  0  0  0
 10 12  1  0  0  0  0
 12 13  1  0  0  0  0
 12 14  1  0  0  0  0
 12 15  1  0  0  0  0
 15 16  1  0  0  0  0
 15 17  1  0  0  0  0
 15 18  1  0  0  0  0
 18 19  1  0  0  0  0
 19 20  1  0  0  0  0
 19 21  1  0  0  0  0
 19 22  1  0  0  0  0
 18 23  2  0  0  0  0
M  END
> <ChemID>
201447

> <source_casrn>
110-93-0

> <CAS>
110-93-0

> <SMILES>
CC(C)=CCCC(C)=O

> <NAME>


> <preferred_name>
6-Methyl-5-hepten-2-one

> <iupac>
6-methylhept-5-en-2-one

> <MPID>
101291

> <dsstox_substance_id>
DTXSID5021629

> <Canonical_QSARr>
CC(C)=CCCC(C)=O

> <InChI_Code_QSARr>
InChI=1S/C8H14O/c1-7(2)5-4-6-8(3)9/h5H,4,6H2,1-3H3

> <InChI Key_QSARr>
UHEPJGULSIKKTP-UHFFFAOYSA-N

> <Salt_Solvent>


> <Ready_Biodeg>
1.0

$$$$
201448
  -INDIGO-08031722522D

 17 16  0  0  0  0  0  0  0  0999 V2000
    1.3857   -0.8000    0.0000 C   0  0  0  0  0  0  0  0  0  0  0  0
    2.7713   -1.6000    0.0000 H   0  0  0  0  0  0  0  0  0  0  0  0
    1.3857   -2.4000    0.0000 H   0  0  0  0  0  0  0  0  0  0  0  0
    2.7713   -0.0000    0.0000 H   0  0  0  0  0  0  0  0  0  0  0  0
    0.0000   -0.0000    0.0000 C   0  0  0  0  0  0  0  0  0  0  0  0
    0.0000    1.6000    0.0000 C   0  0  0  0  0  0  0  0  0  0  0  0
    0.0000    3.2000    0.0000 H   0  0  0  0  0  0  0  0  0  0  0  0
   -1.3856    2.4000    0.0000 H   0  0  0  0  0  0  0  0  0  0  0  0
    1.3857    2.4000    0.0000 H   0  0  0  0  0  0  0  0  0  0  0  0
   -1.3856   -0.8000    0.0000 N   0  0  0  0  0  0  0  0  0  0  0  0
   -2.7713   -0.0000    0.0000 N   0  0  0  0  0  0  0  0  0  0  0  0
   -2.7713    1.6000    0.0000 H   0  0  0  0  0  0  0  0  0  0  0  0
   -4.1570   -0.8000    0.0000 C   0  0  0  0  0  0  0  0  0  0  0  0
   -5.5426   -0.0000    0.0000 N   0  0  0  0  0  0  0  0  0  0  0  0
   -6.9282   -0.8000    0.0000 H   0  0  0  0  0  0  0  0  0  0  0  0
   -5.5426    1.6000    0.0000 H   0  0  0  0  0  0  0  0  0  0  0  0
   -4.1570   -2.4000    0.0000 S   0  0  0  0  0  0  0  0  0  0  0  0
  1  2  1  0  0  0  0
  1  3  1  0  0  0  0
  1  4  1  0  0  0  0
  1  5  1  0  0  0  0
  5  6  1  0  0  0  0
  6  7  1  0  0  0  0
  6  8  1  0  0  0  0
  6  9  1  0  0  0  0
  5 10  2  0  0  0  0
 10 11  1  0  0  0  0
 11 12  1  0  0  0  0
 11 13  1  0  0  0  0
 13 14  1  0  0  0  0
 14 15  1  0  0  0  0
 14 16  1  0  0  0  0
 13 17  2  0  0  0  0
M  END
> <ChemID>
201448

> <source_casrn>
1752-30-3

> <CAS>
1752-30-3

> <SMILES>
CC(C)=NNC(N)=S

> <NAME>


> <preferred_name>
Acetone thiosemicarbazide

> <iupac>
2-(propan-2-ylidene)hydrazinecarbothioamide

> <MPID>
101292

> <dsstox_substance_id>
DTXSID6044480

> <Canonical_QSARr>
CC(C)=NNC(N)=S

> <InChI_Code_QSARr>
InChI=1S/C4H9N3S/c1-3(2)6-7-4(5)8/h1-2H3,(H3,5,7,8)

> <InChI Key_QSARr>
FQUDPIIGGVBZEQ-UHFFFAOYSA-N

> <Salt_Solvent>


> <Ready_Biodeg>
0.0

$$$$
201454
  -INDIGO-08031722522D

 26 25  0  0  0  0  0  0  0  0999 V2000
    0.8001    1.3857    0.0000 C   0  0  0  0  0  0  0  0  0  0  0  0
    1.6000    2.7713    0.0000 H   0  0  0  0  0  0  0  0  0  0  0  0
   -0.0000    2.7713    0.0000 H   0  0  0  0  0  0  0  0  0  0  0  0
    2.3756    1.6635    0.0000 H   0  0  0  0  0  0  0  0  0  0  0  0
   -0.0000   -0.0000    0.0000 C   0  0  0  0  0  0  0  0  0  0  0  0
   -0.8000   -1.3856    0.0000 H   0  0  0  0  0  0  0  0  0  0  0  0
   -1.3856    0.8000    0.0000 C   0  0  0  0  0  0  0  0  0  0  0  0
   -2.7713    1.6001    0.0000 H   0  0  0  0  0  0  0  0  0  0  0  0
   -2.7713   -0.0000    0.0000 H   0  0  0  0  0  0  0  0  0  0  0  0
   -1.3856    2.4000    0.0000 H   0  0  0  0  0  0  0  0  0  0  0  0
    1.3857   -0.8000    0.0000 C   0  0  0  0  0  0  0  0  0  0  0  0
    2.1856    0.5856    0.0000 H   0  0  0  0  0  0  0  0  0  0  0  0
    2.7712   -1.6000    0.0000 N   0  0  0  0  0  0  0  0  0  0  0  0
    2.7712   -3.1999    0.0000 H   0  0  0  0  0  0  0  0  0  0  0  0
    4.1569   -0.8000    0.0000 C   0  0  0  0  0  0  0  0  0  0  0  0
    5.5425   -1.6000    0.0000 N   0  0  0  0  0  0  0  0  0  0  0  0
    6.9282   -0.8000    0.0000 H   0  0  0  0  0  0  0  0  0  0  0  0
    5.5425   -3.1999    0.0000 H   0  0  0  0  0  0  0  0  0  0  0  0
    4.1569    0.8000    0.0000 O   0  0  0  0  0  0  0  0  0  0  0  0
    0.5856   -2.1856    0.0000 N   0  0  0  0  0  0  0  0  0  0  0  0
    1.3857   -3.5713    0.0000 H   0  0  0  0  0  0  0  0  0  0  0  0
   -0.9900   -2.4635    0.0000 C   0  0  0  0  0  0  0  0  0  0  0  0
   -1.5373   -3.9670    0.0000 N   0  0  0  0  0  0  0  0  0  0  0  0
   -3.1130   -4.2448    0.0000 H   0  0  0  0  0  0  0  0  0  0  0  0
   -0.5089   -5.1927    0.0000 H   0  0  0  0  0  0  0  0  0  0  0  0
   -2.0185   -1.2378    0.0000 O   0  0  0  0  0  0  0  0  0  0  0  0
  1  2  1  0  0  0  0
  1  3  1  0  0  0  0
  1  4  1  0  0  0  0
  1  5  1  0  0  0  0
  5  6  1  0  0  0  0
  5  7  1  0  0  0  0
  7  8  1  0  0  0  0
  7  9  1  0  0  0  0
  7 10  1  0  0  0  0
  5 11  1  0  0  0  0
 11 12  1  0  0  0  0
 11 13  1  0  0  0  0
 13 14  1  0  0  0  0
 13 15  1  0  0  0  0
 15 16  1  0  0  0  0
 16 17  1  0  0  0  0
 16 18  1  0  0  0  0
 15 19  2  0  0  0  0
 11 20  1  0  0  0  0
 20 21  1  0  0  0  0
 20 22  1  0  0  0  0
 22 23  1  0  0  0  0
 23 24  1  0  0  0  0
 23 25  1  0  0  0  0
 22 26  2  0  0  0  0
M  END
> <ChemID>
201454

> <source_casrn>
6104-30-9

> <CAS>
6104-30-9

> <SMILES>
CC(C)C(NC(N)=O)NC(N)=O

> <NAME>


> <preferred_name>
Isobutylidene diurea

> <iupac>
1,1'-(2-methylpropane-1,1-diyl)diurea

> <MPID>
101294

> <dsstox_substance_id>
DTXSID8027614

> <Canonical_QSARr>
CC(C)C(NC(N)=O)NC(N)=O

> <InChI_Code_QSARr>
InChI=1S/C6H14N4O2/c1-3(2)4(9-5(7)11)10-6(8)12/h3-4H,1-2H3,(H3,7,9,11)(H3,8,10,12)

> <InChI Key_QSARr>
QFHMNFAUXJAINK-UHFFFAOYSA-N

> <Salt_Solvent>


> <Ready_Biodeg>
1.0

$$$$
201456
  -INDIGO-08031722522D

 35 37  0  0  0  0  0  0  0  0999 V2000
    1.9980   -0.0061    0.0000 C   0  0  0  0  0  0  0  0  0  0  0  0
    3.5298    0.4558    0.0000 H   0  0  0  0  0  0  0  0  0  0  0  0
    2.3640    1.5515    0.0000 H   0  0  0  0  0  0  0  0  0  0  0  0
    2.8595   -0.1966    0.0000 H   0  0  0  0  0  0  0  0  0  0  0  0
    1.6321   -1.5637    0.0000 C   0  0  0  0  0  0  0  0  0  0  0  0
    1.5421   -3.1612    0.0000 H   0  0  0  0  0  0  0  0  0  0  0  0
    3.1024   -2.1945    0.0000 C   0  0  0  0  0  0  0  0  0  0  0  0
    4.5728   -2.8254    0.0000 H   0  0  0  0  0  0  0  0  0  0  0  0
    3.2914   -3.7833    0.0000 H   0  0  0  0  0  0  0  0  0  0  0  0
    4.3840   -1.2366    0.0000 H   0  0  0  0  0  0  0  0  0  0  0  0
    0.0744   -1.1977    0.0000 C   0  0  0  0  0  0  0  0  0  0  0  0
   -0.5256   -2.2369    0.0000 C   0  0  0  0  0  0  0  0  0  0  0  0
   -0.5845   -3.1770    0.0000 H   0  0  0  0  0  0  0  0  0  0  0  0
   -1.6000   -2.7713    0.0000 C   0  0  0  0  0  0  0  0  0  0  0  0
   -2.4000   -4.1569    0.0000 H   0  0  0  0  0  0  0  0  0  0  0  0
   -2.4000   -1.3856    0.0000 C   0  0  0  0  0  0  0  0  0  0  0  0
   -3.6256   -2.4142    0.0000 H   0  0  0  0  0  0  0  0  0  0  0  0
   -3.9035   -0.8385    0.0000 C   0  0  0  0  0  0  0  0  0  0  0  0
   -5.4070   -0.2912    0.0000 H   0  0  0  0  0  0  0  0  0  0  0  0
   -5.1293   -1.8669    0.0000 H   0  0  0  0  0  0  0  0  0  0  0  0
   -4.1813    0.7372    0.0000 H   0  0  0  0  0  0  0  0  0  0  0  0
   -1.6000    0.0000    0.0000 C   0  0  0  0  0  0  0  0  0  0  0  0
   -1.3222    1.5757    0.0000 H   0  0  0  0  0  0  0  0  0  0  0  0
   -3.1034    0.5472    0.0000 H   0  0  0  0  0  0  0  0  0  0  0  0
    0.0001    0.0000    0.0000 C   0  0  0  0  0  0  0  0  0  0  0  0
    0.8000    1.3856    0.0000 H   0  0  0  0  0  0  0  0  0  0  0  0
    0.8000   -1.3856    0.0000 C   0  0  0  0  0  0  0  0  0  0  0  0
    0.9672    0.2055    0.0000 H   0  0  0  0  0  0  0  0  0  0  0  0
    0.0001   -2.7713    0.0000 C   0  0  0  0  0  0  0  0  0  0  0  0
    0.1053   -3.7073    0.0000 H   0  0  0  0  0  0  0  0  0  0  0  0
    1.0706   -3.9603    0.0000 C   0  0  0  0  0  0  0  0  0  0  0  0
    0.7379   -5.5254    0.0000 O   0  0  0  0  0  0  0  0  0  0  0  0
    2.5322   -3.3095    0.0000 O   0  0  0  0  0  0  0  0  0  0  0  0
    2.3650   -1.7183    0.0000 C   0  0  0  0  0  0  0  0  0  0  0  0
    3.0635   -1.1792    0.0000 O   0  0  0  0  0  0  0  0  0  0  0  0
  1  2  1  0  0  0  0
  1  3  1  0  0  0  0
  1  4  1  0  0  0  0
  1  5  1  0  0  0  0
  5  6  1  0  0  0  0
  5  7  1  0  0  0  0
  7  8  1  0  0  0  0
  7  9  1  0  0  0  0
  7 10  1  0  0  0  0
  5 11  1  0  0  0  0
 11 12  2  0  0  0  0
 12 13  1  0  0  0  0
 12 14  1  0  0  0  0
 14 15  1  0  0  0  0
 14 16  1  0  0  0  0
 16 17  1  0  0  0  0
 16 18  1  0  0  0  0
 18 19  1  0  0  0  0
 18 20  1  0  0  0  0
 18 21  1  0  0  0  0
 16 22  1  0  0  0  0
 22 23  1  0  0  0  0
 22 24  1  0  0  0  0
 22 25  1  0  0  0  0
 25 11  1  0  0  0  0
 25 26  1  0  0  0  0
 25 27  1  0  0  0  0
 27 28  1  0  0  0  0
 27 29  1  0  0  0  0
 29 14  1  0  0  0  0
 29 30  1  0  0  0  0
 29 31  1  0  0  0  0
 31 32  2  0  0  0  0
 31 33  1  0  0  0  0
 33 34  1  0  0  0  0
 34 27  1  0  0  0  0
 34 35  2  0  0  0  0
M  END
> <ChemID>
201456

> <source_casrn>


> <CAS>
3733-79-7

> <SMILES>
CC(C)C1=CC2C(C)CC1C3C2C(=O)OC3=O

> <NAME>


> <preferred_name>


> <iupac>


> <MPID>
101295

> <dsstox_substance_id>


> <Canonical_QSARr>
CC(C)C1=CC2C3C(C1CC2C)C(=O)OC3=O

> <InChI_Code_QSARr>
InChI=1S/C14H18O3/c1-6(2)8-5-9-7(3)4-10(8)12-11(9)13(15)17-14(12)16/h5-7,9-12H,4H2,1-3H3

> <InChI Key_QSARr>
OITCDHHARKRUDP-UHFFFAOYSA-N

> <Salt_Solvent>


> <Ready_Biodeg>
0.0

$$$$
201458
  -INDIGO-08031722522D

 31 32  0  0  0  0  0  0  0  0999 V2000
   -1.5035    2.1473    0.0000 C   0  0  0  0  0  0  0  0  0  0  0  0
   -1.5035    3.7472    0.0000 H   0  0  0  0  0  0  0  0  0  0  0  0
   -2.8891    2.9473    0.0000 H   0  0  0  0  0  0  0  0  0  0  0  0
   -0.1179    2.9473    0.0000 H   0  0  0  0  0  0  0  0  0  0  0  0
   -1.5035    0.5472    0.0000 C   0  0  0  0  0  0  0  0  0  0  0  0
   -2.0257   -0.3571    0.0000 H   0  0  0  0  0  0  0  0  0  0  0  0
   -3.1034    0.5472    0.0000 C   0  0  0  0  0  0  0  0  0  0  0  0
   -4.7035    0.5472    0.0000 H   0  0  0  0  0  0  0  0  0  0  0  0
   -3.9035    1.9329    0.0000 H   0  0  0  0  0  0  0  0  0  0  0  0
   -3.9035   -0.8384    0.0000 H   0  0  0  0  0  0  0  0  0  0  0  0
    0.0000   -0.0001    0.0000 C   0  0  0  0  0  0  0  0  0  0  0  0
    0.2779    1.5757    0.0000 H   0  0  0  0  0  0  0  0  0  0  0  0
   -0.8000   -1.3856    0.0000 C   0  0  0  0  0  0  0  0  0  0  0  0
   -1.7814   -1.0285    0.0000 H   0  0  0  0  0  0  0  0  0  0  0  0
   -2.0257   -2.4140    0.0000 H   0  0  0  0  0  0  0  0  0  0  0  0
    0.0000   -2.7712    0.0000 C   0  0  0  0  0  0  0  0  0  0  0  0
   -1.5035   -3.3185    0.0000 H   0  0  0  0  0  0  0  0  0  0  0  0
    0.2779   -4.3470    0.0000 H   0  0  0  0  0  0  0  0  0  0  0  0
    1.5999   -2.7712    0.0000 C   0  0  0  0  0  0  0  0  0  0  0  0
    1.3222   -4.3470    0.0000 H   0  0  0  0  0  0  0  0  0  0  0  0
    3.1034   -3.3185    0.0000 H   0  0  0  0  0  0  0  0  0  0  0  0
    2.4000   -1.3856    0.0000 C   0  0  0  0  0  0  0  0  0  0  0  0
    4.0000   -1.3856    0.0000 C   0  0  0  0  0  0  0  0  0  0  0  0
    4.8001   -2.7712    0.0000 H   0  0  0  0  0  0  0  0  0  0  0  0
    4.7999   -0.0001    0.0000 C   0  0  0  0  0  0  0  0  0  0  0  0
    6.4000   -0.0001    0.0000 H   0  0  0  0  0  0  0  0  0  0  0  0
    4.0000    1.3856    0.0000 C   0  0  0  0  0  0  0  0  0  0  0  0
    4.8001    2.7713    0.0000 H   0  0  0  0  0  0  0  0  0  0  0  0
    2.4000    1.3856    0.0000 C   0  0  0  0  0  0  0  0  0  0  0  0
    1.6001    2.7713    0.0000 H   0  0  0  0  0  0  0  0  0  0  0  0
    1.5999   -0.0001    0.0000 C   0  0  0  0  0  0  0  0  0  0  0  0
  1  2  1  0  0  0  0
  1  3  1  0  0  0  0
  1  4  1  0  0  0  0
  1  5  1  0  0  0  0
  5  6  1  0  0  0  0
  5  7  1  0  0  0  0
  7  8  1  0  0  0  0
  7  9  1  0  0  0  0
  7 10  1  0  0  0  0
  5 11  1  0  0  0  0
 11 12  1  0  0  0  0
 11 13  1  0  0  0  0
 13 14  1  0  0  0  0
 13 15  1  0  0  0  0
 13 16  1  0  0  0  0
 16 17  1  0  0  0  0
 16 18  1  0  0  0  0
 16 19  1  0  0  0  0
 19 20  1  0  0  0  0
 19 21  1  0  0  0  0
 19 22  1  0  0  0  0
 22 23  1  0  0  0  0
 23 24  1  0  0  0  0
 23 25  2  0  0  0  0
 25 26  1  0  0  0  0
 25 27  1  0  0  0  0
 27 28  1  0  0  0  0
 27 29  2  0  0  0  0
 29 30  1  0  0  0  0
 29 31  1  0  0  0  0
 31 11  1  0  0  0  0
 31 22  2  0  0  0  0
M  END
> <ChemID>
201458

> <source_casrn>


> <CAS>
26916-60-9

> <SMILES>
CC(C)C1CCCc2ccccc12

> <NAME>


> <preferred_name>


> <iupac>


> <MPID>
101296

> <dsstox_substance_id>


> <Canonical_QSARr>
CC(C)C1CCCc2ccccc21

> <InChI_Code_QSARr>
InChI=1S/C13H18/c1-10(2)12-9-5-7-11-6-3-4-8-13(11)12/h3-4,6,8,10,12H,5,7,9H2,1-2H3

> <InChI Key_QSARr>
LRCMZPVVFRECQR-UHFFFAOYSA-N

> <Salt_Solvent>


> <Ready_Biodeg>
0.0

$$$$
201459
  -INDIGO-08031722522D

 20 20  0  0  0  0  0  0  0  0999 V2000
    0.4944    1.5217    0.0000 C   0  0  0  0  0  0  0  0  0  0  0  0
    0.9889    3.0434    0.0000 H   0  0  0  0  0  0  0  0  0  0  0  0
    2.0594    1.8544    0.0000 H   0  0  0  0  0  0  0  0  0  0  0  0
   -0.5761    2.7107    0.0000 H   0  0  0  0  0  0  0  0  0  0  0  0
   -0.0001   -0.0000    0.0000 C   0  0  0  0  0  0  0  0  0  0  0  0
   -0.4944   -1.5217    0.0000 H   0  0  0  0  0  0  0  0  0  0  0  0
    1.5217   -0.4944    0.0000 C   0  0  0  0  0  0  0  0  0  0  0  0
    3.0434   -0.9888    0.0000 H   0  0  0  0  0  0  0  0  0  0  0  0
    2.7107    0.5761    0.0000 H   0  0  0  0  0  0  0  0  0  0  0  0
    1.8543   -2.0595    0.0000 H   0  0  0  0  0  0  0  0  0  0  0  0
   -1.5845    0.2226    0.0000 C   0  0  0  0  0  0  0  0  0  0  0  0
   -0.9336    1.6844    0.0000 H   0  0  0  0  0  0  0  0  0  0  0  0
   -1.9171   -1.3423    0.0000 N   0  0  0  0  0  0  0  0  0  0  0  0
   -0.8465   -2.5314    0.0000 H   0  0  0  0  0  0  0  0  0  0  0  0
   -3.5083   -1.5096    0.0000 C   0  0  0  0  0  0  0  0  0  0  0  0
   -4.3083   -2.8952    0.0000 O   0  0  0  0  0  0  0  0  0  0  0  0
   -4.1591   -0.0479    0.0000 N   0  0  0  0  0  0  0  0  0  0  0  0
   -5.7241    0.2847    0.0000 H   0  0  0  0  0  0  0  0  0  0  0  0
   -2.9701    1.0227    0.0000 C   0  0  0  0  0  0  0  0  0  0  0  0
   -3.1373    2.6139    0.0000 O   0  0  0  0  0  0  0  0  0  0  0  0
  1  2  1  0  0  0  0
  1  3  1  0  0  0  0
  1  4  1  0  0  0  0
  1  5  1  0  0  0  0
  5  6  1  0  0  0  0
  5  7  1  0  0  0  0
  7  8  1  0  0  0  0
  7  9  1  0  0  0  0
  7 10  1  0  0  0  0
  5 11  1  0  0  0  0
 11 12  1  0  0  0  0
 11 13  1  0  0  0  0
 13 14  1  0  0  0  0
 13 15  1  0  0  0  0
 15 16  2  0  0  0  0
 15 17  1  0  0  0  0
 17 18  1  0  0  0  0
 17 19  1  0  0  0  0
 19 11  1  0  0  0  0
 19 20  2  0  0  0  0
M  END
> <ChemID>
201459

> <source_casrn>


> <CAS>
16935-34-5

> <SMILES>
CC(C)C1NC(=O)NC1=O

> <NAME>


> <preferred_name>


> <iupac>


> <MPID>
101297

> <dsstox_substance_id>


> <Canonical_QSARr>
CC(C)C1NC(=O)NC1=O

> <InChI_Code_QSARr>
InChI=1S/C6H10N2O2/c1-3(2)4-5(9)8-6(10)7-4/h3-4H,1-2H3,(H2,7,8,9,10)

> <InChI Key_QSARr>
PBNUQCWZHRMSMS-UHFFFAOYSA-N

> <Salt_Solvent>


> <Ready_Biodeg>
0.0

$$$$
201463
  -INDIGO-08031722522D

 44 45  0  0  0  0  0  0  0  0999 V2000
    1.3855   -4.0000    0.0000 C   0  0  0  0  0  0  0  0  0  0  0  0
    1.3855   -5.6000    0.0000 H   0  0  0  0  0  0  0  0  0  0  0  0
    0.0001   -4.8000    0.0000 H   0  0  0  0  0  0  0  0  0  0  0  0
    2.7712   -4.8000    0.0000 H   0  0  0  0  0  0  0  0  0  0  0  0
    1.3855   -2.4000    0.0000 C   0  0  0  0  0  0  0  0  0  0  0  0
   -0.2144   -2.4000    0.0000 H   0  0  0  0  0  0  0  0  0  0  0  0
    2.9857   -2.4000    0.0000 C   0  0  0  0  0  0  0  0  0  0  0  0
    4.5856   -2.4000    0.0000 H   0  0  0  0  0  0  0  0  0  0  0  0
    3.7855   -3.7856    0.0000 H   0  0  0  0  0  0  0  0  0  0  0  0
    4.0142   -1.1743    0.0000 H   0  0  0  0  0  0  0  0  0  0  0  0
    1.3855   -0.8000    0.0000 C   0  0  0  0  0  0  0  0  0  0  0  0
    2.9719   -0.5912    0.0000 H   0  0  0  0  0  0  0  0  0  0  0  0
    2.3596    0.4693    0.0000 H   0  0  0  0  0  0  0  0  0  0  0  0
    0.0001    0.0000    0.0000 C   0  0  0  0  0  0  0  0  0  0  0  0
   -0.8000   -1.3857    0.0000 H   0  0  0  0  0  0  0  0  0  0  0  0
    0.7999    1.3856    0.0000 C   0  0  0  0  0  0  0  0  0  0  0  0
    1.6000    2.7713    0.0000 H   0  0  0  0  0  0  0  0  0  0  0  0
    0.0001    2.7713    0.0000 H   0  0  0  0  0  0  0  0  0  0  0  0
    2.3757    1.6635    0.0000 H   0  0  0  0  0  0  0  0  0  0  0  0
   -1.3856    0.8000    0.0000 N   0  0  0  0  0  0  0  0  0  0  0  0
   -1.3856    2.3999    0.0000 H   0  0  0  0  0  0  0  0  0  0  0  0
   -2.7713    0.0000    0.0000 C   0  0  0  0  0  0  0  0  0  0  0  0
   -4.1570    0.8000    0.0000 C   0  0  0  0  0  0  0  0  0  0  0  0
   -4.1570    2.3999    0.0000 H   0  0  0  0  0  0  0  0  0  0  0  0
   -5.5427    0.0000    0.0000 C   0  0  0  0  0  0  0  0  0  0  0  0
   -6.9281    0.8000    0.0000 H   0  0  0  0  0  0  0  0  0  0  0  0
   -5.5427   -1.6000    0.0000 C   0  0  0  0  0  0  0  0  0  0  0  0
   -6.9281   -2.4000    0.0000 N   0  0  0  0  0  0  0  0  0  0  0  0
   -6.6502   -3.9757    0.0000 H   0  0  0  0  0  0  0  0  0  0  0  0
   -8.5038   -2.1222    0.0000 C   0  0  0  0  0  0  0  0  0  0  0  0
   -9.0511   -0.6186    0.0000 C   0  0  0  0  0  0  0  0  0  0  0  0
   -8.0226    0.6070    0.0000 H   0  0  0  0  0  0  0  0  0  0  0  0
  -10.6268   -0.3408    0.0000 C   0  0  0  0  0  0  0  0  0  0  0  0
  -11.1741    1.1627    0.0000 H   0  0  0  0  0  0  0  0  0  0  0  0
  -11.6552   -1.5664    0.0000 C   0  0  0  0  0  0  0  0  0  0  0  0
  -13.2310   -1.2886    0.0000 H   0  0  0  0  0  0  0  0  0  0  0  0
  -11.1080   -3.0700    0.0000 C   0  0  0  0  0  0  0  0  0  0  0  0
  -12.1364   -4.2957    0.0000 H   0  0  0  0  0  0  0  0  0  0  0  0
   -9.5323   -3.3479    0.0000 C   0  0  0  0  0  0  0  0  0  0  0  0
   -8.9850   -4.8513    0.0000 H   0  0  0  0  0  0  0  0  0  0  0  0
   -4.1570   -2.4000    0.0000 C   0  0  0  0  0  0  0  0  0  0  0  0
   -4.1570   -4.0000    0.0000 H   0  0  0  0  0  0  0  0  0  0  0  0
   -2.7713   -1.6000    0.0000 C   0  0  0  0  0  0  0  0  0  0  0  0
   -1.3856   -2.4000    0.0000 H   0  0  0  0  0  0  0  0  0  0  0  0
  1  2  1  0  0  0  0
  1  3  1  0  0  0  0
  1  4  1  0  0  0  0
  1  5  1  0  0  0  0
  5  6  1  0  0  0  0
  5  7  1  0  0  0  0
  7  8  1  0  0  0  0
  7  9  1  0  0  0  0
  7 10  1  0  0  0  0
  5 11  1  0  0  0  0
 11 12  1  0  0  0  0
 11 13  1  0  0  0  0
 11 14  1  0  0  0  0
 14 15  1  0  0  0  0
 14 16  1  0  0  0  0
 16 17  1  0  0  0  0
 16 18  1  0  0  0  0
 16 19  1  0  0  0  0
 14 20  1  0  0  0  0
 20 21  1  0  0  0  0
 20 22  1  0  0  0  0
 22 23  1  0  0  0  0
 23 24  1  0  0  0  0
 23 25  2  0  0  0  0
 25 26  1  0  0  0  0
 25 27  1  0  0  0  0
 27 28  1  0  0  0  0
 28 29  1  0  0  0  0
 28 30  1  0  0  0  0
 30 31  1  0  0  0  0
 31 32  1  0  0  0  0
 31 33  2  0  0  0  0
 33 34  1  0  0  0  0
 33 35  1  0  0  0  0
 35 36  1  0  0  0  0
 35 37  2  0  0  0  0
 37 38  1  0  0  0  0
 37 39  1  0  0  0  0
 39 30  2  0  0  0  0
 39 40  1  0  0  0  0
 27 41  2  0  0  0  0
 41 42  1  0  0  0  0
 41 43  1  0  0  0  0
 43 22  2  0  0  0  0
 43 44  1  0  0  0  0
M  END
> <ChemID>
201463

> <source_casrn>
793-24-8

> <CAS>
793-24-8

> <SMILES>
CC(C)CC(C)Nc1ccc(Nc2ccccc2)cc1

> <NAME>


> <preferred_name>
N-(1,3-Dimethylbutyl)-N'-phenyl-p-phenylenediamine

> <iupac>
N-(4-methylpentan-2-yl)-N'-phenylbenzene-1,4-diamine

> <MPID>
101299

> <dsstox_substance_id>
DTXSID9025114

> <Canonical_QSARr>
CC(C)CC(C)Nc1ccc(cc1)Nc1ccccc1

> <InChI_Code_QSARr>
InChI=1S/C18H24N2/c1-14(2)13-15(3)19-17-9-11-18(12-10-17)20-16-7-5-4-6-8-16/h4-12,14-15,19-20H,13H2,1-3H3

> <InChI Key_QSARr>
ZZMVLMVFYMGSMY-UHFFFAOYSA-N

> <Salt_Solvent>


> <Ready_Biodeg>
0.0

$$$$
201464
  -INDIGO-08031722522D

 18 17  0  0  0  0  0  0  0  0999 V2000
    0.8000    1.3856    0.0000 C   0  0  0  0  0  0  0  0  0  0  0  0
    1.6000    2.7713    0.0000 H   0  0  0  0  0  0  0  0  0  0  0  0
   -0.0001    2.7713    0.0000 H   0  0  0  0  0  0  0  0  0  0  0  0
    2.4000    1.3856    0.0000 H   0  0  0  0  0  0  0  0  0  0  0  0
   -0.0001    0.0000    0.0000 C   0  0  0  0  0  0  0  0  0  0  0  0
   -0.8000   -1.3856    0.0000 H   0  0  0  0  0  0  0  0  0  0  0  0
    1.3857   -0.8000    0.0000 C   0  0  0  0  0  0  0  0  0  0  0  0
    2.7713   -1.6000    0.0000 H   0  0  0  0  0  0  0  0  0  0  0  0
    1.3857   -2.4000    0.0000 H   0  0  0  0  0  0  0  0  0  0  0  0
    2.7713    0.0000    0.0000 H   0  0  0  0  0  0  0  0  0  0  0  0
   -1.5035    0.5472    0.0000 C   0  0  0  0  0  0  0  0  0  0  0  0
   -1.1572    2.1093    0.0000 H   0  0  0  0  0  0  0  0  0  0  0  0
   -2.3632    1.8967    0.0000 H   0  0  0  0  0  0  0  0  0  0  0  0
   -2.7292   -0.4813    0.0000 C   0  0  0  0  0  0  0  0  0  0  0  0
   -2.4513   -2.0569    0.0000 H   0  0  0  0  0  0  0  0  0  0  0  0
   -4.2327    0.0660    0.0000 C   0  0  0  0  0  0  0  0  0  0  0  0
   -5.4584   -0.9624    0.0000 H   0  0  0  0  0  0  0  0  0  0  0  0
   -4.5105    1.6417    0.0000 H   0  0  0  0  0  0  0  0  0  0  0  0
  1  2  1  0  0  0  0
  1  3  1  0  0  0  0
  1  4  1  0  0  0  0
  1  5  1  0  0  0  0
  5  6  1  0  0  0  0
  5  7  1  0  0  0  0
  7  8  1  0  0  0  0
  7  9  1  0  0  0  0
  7 10  1  0  0  0  0
  5 11  1  0  0  0  0
 11 12  1  0  0  0  0
 11 13  1  0  0  0  0
 11 14  1  0  0  0  0
 14 15  1  0  0  0  0
 14 16  2  0  0  0  0
 16 17  1  0  0  0  0
 16 18  1  0  0  0  0
M  END
> <ChemID>
201464

> <source_casrn>
691-37-2

> <CAS>
691-37-2

> <SMILES>
CC(C)CC=C

> <NAME>


> <preferred_name>
4-Methyl-1-pentene

> <iupac>
4-Methylpent-1-ene

> <MPID>
101300

> <dsstox_substance_id>
DTXSID3061001

> <Canonical_QSARr>
CC(C)CC=C

> <InChI_Code_QSARr>
InChI=1S/C6H12/c1-4-5-6(2)3/h4,6H,1,5H2,2-3H3

> <InChI Key_QSARr>
WSSSPWUEQFSQQG-UHFFFAOYSA-N

> <Salt_Solvent>


> <Ready_Biodeg>
0.0

$$$$
201466
  -INDIGO-08031722522D

 72 72  0  0  0  0  0  0  0  0999 V2000
    1.5034   -0.5473    0.0000 C   0  0  0  0  0  0  0  0  0  0  0  0
    3.0070   -1.0945    0.0000 H   0  0  0  0  0  0  0  0  0  0  0  0
    1.7813   -2.1230    0.0000 H   0  0  0  0  0  0  0  0  0  0  0  0
    2.7291    0.4812    0.0000 H   0  0  0  0  0  0  0  0  0  0  0  0
    0.0002    0.0000    0.0000 C   0  0  0  0  0  0  0  0  0  0  0  0
   -1.5034    0.5473    0.0000 H   0  0  0  0  0  0  0  0  0  0  0  0
    0.5474    1.5035    0.0000 C   0  0  0  0  0  0  0  0  0  0  0  0
    1.0945    3.0070    0.0000 H   0  0  0  0  0  0  0  0  0  0  0  0
    2.1230    1.7813    0.0000 H   0  0  0  0  0  0  0  0  0  0  0  0
   -0.4811    2.7292    0.0000 H   0  0  0  0  0  0  0  0  0  0  0  0
   -0.8002   -1.3857    0.0000 C   0  0  0  0  0  0  0  0  0  0  0  0
   -0.5912   -2.9720    0.0000 H   0  0  0  0  0  0  0  0  0  0  0  0
    0.4693   -2.3598    0.0000 H   0  0  0  0  0  0  0  0  0  0  0  0
   -2.4000   -1.3857    0.0000 C   0  0  0  0  0  0  0  0  0  0  0  0
   -2.6090    0.2006    0.0000 H   0  0  0  0  0  0  0  0  0  0  0  0
   -3.6695   -0.4116    0.0000 H   0  0  0  0  0  0  0  0  0  0  0  0
   -3.2000   -2.7713    0.0000 C   0  0  0  0  0  0  0  0  0  0  0  0
   -2.9910   -4.3576    0.0000 H   0  0  0  0  0  0  0  0  0  0  0  0
   -1.9305   -3.7452    0.0000 H   0  0  0  0  0  0  0  0  0  0  0  0
   -4.7999   -2.7713    0.0000 C   0  0  0  0  0  0  0  0  0  0  0  0
   -5.0088   -1.1850    0.0000 H   0  0  0  0  0  0  0  0  0  0  0  0
   -6.0693   -1.7972    0.0000 H   0  0  0  0  0  0  0  0  0  0  0  0
   -5.5998   -4.1570    0.0000 C   0  0  0  0  0  0  0  0  0  0  0  0
   -5.3912   -5.7433    0.0000 H   0  0  0  0  0  0  0  0  0  0  0  0
   -4.3307   -5.1309    0.0000 H   0  0  0  0  0  0  0  0  0  0  0  0
   -7.2001   -4.1570    0.0000 C   0  0  0  0  0  0  0  0  0  0  0  0
   -7.4086   -2.5707    0.0000 H   0  0  0  0  0  0  0  0  0  0  0  0
   -8.4692   -3.1829    0.0000 H   0  0  0  0  0  0  0  0  0  0  0  0
   -8.0000   -5.5427    0.0000 O   0  0  0  0  0  0  0  0  0  0  0  0
   -9.5999   -5.5427    0.0000 C   0  0  0  0  0  0  0  0  0  0  0  0
  -10.3998   -4.1570    0.0000 O   0  0  0  0  0  0  0  0  0  0  0  0
  -10.3998   -6.9281    0.0000 C   0  0  0  0  0  0  0  0  0  0  0  0
   -9.5999   -8.3138    0.0000 C   0  0  0  0  0  0  0  0  0  0  0  0
   -8.0000   -8.3138    0.0000 H   0  0  0  0  0  0  0  0  0  0  0  0
  -10.3998   -9.6995    0.0000 C   0  0  0  0  0  0  0  0  0  0  0  0
   -9.5999  -11.0851    0.0000 H   0  0  0  0  0  0  0  0  0  0  0  0
  -12.0002   -9.6995    0.0000 C   0  0  0  0  0  0  0  0  0  0  0  0
  -12.8001  -11.0851    0.0000 H   0  0  0  0  0  0  0  0  0  0  0  0
  -12.8001   -8.3138    0.0000 C   0  0  0  0  0  0  0  0  0  0  0  0
  -14.4000   -8.3138    0.0000 H   0  0  0  0  0  0  0  0  0  0  0  0
  -12.0002   -6.9281    0.0000 C   0  0  0  0  0  0  0  0  0  0  0  0
  -12.8001   -5.5427    0.0000 C   0  0  0  0  0  0  0  0  0  0  0  0
  -12.0002   -4.1570    0.0000 O   0  0  0  0  0  0  0  0  0  0  0  0
  -14.4000   -5.5427    0.0000 O   0  0  0  0  0  0  0  0  0  0  0  0
  -15.1999   -4.1570    0.0000 C   0  0  0  0  0  0  0  0  0  0  0  0
  -13.9308   -3.1829    0.0000 H   0  0  0  0  0  0  0  0  0  0  0  0
  -14.9914   -2.5707    0.0000 H   0  0  0  0  0  0  0  0  0  0  0  0
  -16.8002   -4.1570    0.0000 C   0  0  0  0  0  0  0  0  0  0  0  0
  -18.0693   -5.1309    0.0000 H   0  0  0  0  0  0  0  0  0  0  0  0
  -17.0088   -5.7433    0.0000 H   0  0  0  0  0  0  0  0  0  0  0  0
  -17.6001   -2.7713    0.0000 C   0  0  0  0  0  0  0  0  0  0  0  0
  -16.3307   -1.7972    0.0000 H   0  0  0  0  0  0  0  0  0  0  0  0
  -17.3912   -1.1850    0.0000 H   0  0  0  0  0  0  0  0  0  0  0  0
  -19.2000   -2.7713    0.0000 C   0  0  0  0  0  0  0  0  0  0  0  0
  -20.4695   -3.7452    0.0000 H   0  0  0  0  0  0  0  0  0  0  0  0
  -19.4090   -4.3576    0.0000 H   0  0  0  0  0  0  0  0  0  0  0  0
  -20.0000   -1.3857    0.0000 C   0  0  0  0  0  0  0  0  0  0  0  0
  -18.7305   -0.4116    0.0000 H   0  0  0  0  0  0  0  0  0  0  0  0
  -19.7910    0.2006    0.0000 H   0  0  0  0  0  0  0  0  0  0  0  0
  -21.5998   -1.3857    0.0000 C   0  0  0  0  0  0  0  0  0  0  0  0
  -22.8693   -2.3598    0.0000 H   0  0  0  0  0  0  0  0  0  0  0  0
  -21.8088   -2.9720    0.0000 H   0  0  0  0  0  0  0  0  0  0  0  0
  -22.4002    0.0000    0.0000 C   0  0  0  0  0  0  0  0  0  0  0  0
  -20.8966    0.5473    0.0000 H   0  0  0  0  0  0  0  0  0  0  0  0
  -22.9474    1.5035    0.0000 C   0  0  0  0  0  0  0  0  0  0  0  0
  -23.4945    3.0070    0.0000 H   0  0  0  0  0  0  0  0  0  0  0  0
  -24.5230    1.7813    0.0000 H   0  0  0  0  0  0  0  0  0  0  0  0
  -21.9189    2.7292    0.0000 H   0  0  0  0  0  0  0  0  0  0  0  0
  -23.9034   -0.5473    0.0000 C   0  0  0  0  0  0  0  0  0  0  0  0
  -25.4070   -1.0945    0.0000 H   0  0  0  0  0  0  0  0  0  0  0  0
  -24.1813   -2.1230    0.0000 H   0  0  0  0  0  0  0  0  0  0  0  0
  -25.1291    0.4812    0.0000 H   0  0  0  0  0  0  0  0  0  0  0  0
  1  2  1  0  0  0  0
  1  3  1  0  0  0  0
  1  4  1  0  0  0  0
  1  5  1  0  0  0  0
  5  6  1  0  0  0  0
  5  7  1  0  0  0  0
  7  8  1  0  0  0  0
  7  9  1  0  0  0  0
  7 10  1  0  0  0  0
  5 11  1  0  0  0  0
 11 12  1  0  0  0  0
 11 13  1  0  0  0  0
 11 14  1  0  0  0  0
 14 15  1  0  0  0  0
 14 16  1  0  0  0  0
 14 17  1  0  0  0  0
 17 18  1  0  0  0  0
 17 19  1  0  0  0  0
 17 20  1  0  0  0  0
 20 21  1  0  0  0  0
 20 22  1  0  0  0  0
 20 23  1  0  0  0  0
 23 24  1  0  0  0  0
 23 25  1  0  0  0  0
 23 26  1  0  0  0  0
 26 27  1  0  0  0  0
 26 28  1  0  0  0  0
 26 29  1  0  0  0  0
 29 30  1  0  0  0  0
 30 31  2  0  0  0  0
 30 32  1  0  0  0  0
 32 33  1  0  0  0  0
 33 34  1  0  0  0  0
 33 35  2  0  0  0  0
 35 36  1  0  0  0  0
 35 37  1  0  0  0  0
 37 38  1  0  0  0  0
 37 39  2  0  0  0  0
 39 40  1  0  0  0  0
 39 41  1  0  0  0  0
 41 32  2  0  0  0  0
 41 42  1  0  0  0  0
 42 43  2  0  0  0  0
 42 44  1  0  0  0  0
 44 45  1  0  0  0  0
 45 46  1  0  0  0  0
 45 47  1  0  0  0  0
 45 48  1  0  0  0  0
 48 49  1  0  0  0  0
 48 50  1  0  0  0  0
 48 51  1  0  0  0  0
 51 52  1  0  0  0  0
 51 53  1  0  0  0  0
 51 54  1  0  0  0  0
 54 55  1  0  0  0  0
 54 56  1  0  0  0  0
 54 57  1  0  0  0  0
 57 58  1  0  0  0  0
 57 59  1  0  0  0  0
 57 60  1  0  0  0  0
 60 61  1  0  0  0  0
 60 62  1  0  0  0  0
 60 63  1  0  0  0  0
 63 64  1  0  0  0  0
 63 65  1  0  0  0  0
 65 66  1  0  0  0  0
 65 67  1  0  0  0  0
 65 68  1  0  0  0  0
 63 69  1  0  0  0  0
 69 70  1  0  0  0  0
 69 71  1  0  0  0  0
 69 72  1  0  0  0  0
M  END
> <ChemID>
201466

> <source_casrn>
28553-12-0

> <CAS>
20548-62-3

> <SMILES>
CC(C)CCCCCCOC(=O)c1ccccc1C(=O)OCCCCCCC(C)C

> <NAME>


> <preferred_name>


> <iupac>


> <MPID>
101302

> <dsstox_substance_id>
DTXSID60860420

> <Canonical_QSARr>
CC(C)CCCCCCOC(=O)c1ccccc1C(=O)OCCCCCCC(C)C

> <InChI_Code_QSARr>
InChI=1S/C26H42O4/c1-21(2)15-9-5-7-13-19-29-25(27)23-17-11-12-18-24(23)26(28)30-20-14-8-6-10-16-22(3)4/h11-12,17-18,21-22H,5-10,13-16,19-20H2,1-4H3

> <InChI Key_QSARr>
HBGGXOJOCNVPFY-UHFFFAOYSA-N

> <Salt_Solvent>


> <Ready_Biodeg>
1.0

$$$$
201476
  -INDIGO-08031722522D

 14 13  0  0  0  0  0  0  0  0999 V2000
    0.8000   -1.3856    0.0000 C   0  0  0  0  0  0  0  0  0  0  0  0
    1.6000   -2.7713    0.0000 H   0  0  0  0  0  0  0  0  0  0  0  0
    0.0000   -2.7713    0.0000 H   0  0  0  0  0  0  0  0  0  0  0  0
    2.4000   -1.3856    0.0000 H   0  0  0  0  0  0  0  0  0  0  0  0
    0.0000    0.0000    0.0000 C   0  0  0  0  0  0  0  0  0  0  0  0
   -1.3857   -0.8000    0.0000 H   0  0  0  0  0  0  0  0  0  0  0  0
   -0.8000    1.3856    0.0000 C   0  0  0  0  0  0  0  0  0  0  0  0
   -1.6000    2.7713    0.0000 H   0  0  0  0  0  0  0  0  0  0  0  0
   -2.4000    1.3856    0.0000 H   0  0  0  0  0  0  0  0  0  0  0  0
    0.0000    2.7713    0.0000 H   0  0  0  0  0  0  0  0  0  0  0  0
    1.3856    0.8000    0.0000 O   0  0  0  0  0  0  0  0  0  0  0  0
    2.9613    0.5222    0.0000 C   0  0  0  0  0  0  0  0  0  0  0  0
    3.9898    1.7479    0.0000 Cl  0  0  0  0  0  0  0  0  0  0  0  0
    3.5085   -0.9814    0.0000 O   0  0  0  0  0  0  0  0  0  0  0  0
  1  2  1  0  0  0  0
  1  3  1  0  0  0  0
  1  4  1  0  0  0  0
  1  5  1  0  0  0  0
  5  6  1  0  0  0  0
  5  7  1  0  0  0  0
  7  8  1  0  0  0  0
  7  9  1  0  0  0  0
  7 10  1  0  0  0  0
  5 11  1  0  0  0  0
 11 12  1  0  0  0  0
 12 13  1  0  0  0  0
 12 14  2  0  0  0  0
M  END
> <ChemID>
201476

> <source_casrn>
108-23-6

> <CAS>
108-23-6

> <SMILES>
CC(C)OC(Cl)=O

> <NAME>


> <preferred_name>
Isopropyl chloroformate

> <iupac>
propan-2-yl carbonochloridate

> <MPID>
101304

> <dsstox_substance_id>
DTXSID7026786

> <Canonical_QSARr>
CC(C)OC(=O)Cl

> <InChI_Code_QSARr>
InChI=1S/C4H7ClO2/c1-3(2)7-4(5)6/h3H,1-2H3

> <InChI Key_QSARr>
IVRIRQXJSNCSPQ-UHFFFAOYSA-N

> <Salt_Solvent>


> <Ready_Biodeg>
0.0

$$$$
201479
  -INDIGO-08031722522D

 19 18  0  0  0  0  0  0  0  0999 V2000
    0.0000   -1.6000    0.0000 C   0  0  0  0  0  0  0  0  0  0  0  0
    0.0000   -3.2000    0.0000 H   0  0  0  0  0  0  0  0  0  0  0  0
   -1.3856   -2.4000    0.0000 H   0  0  0  0  0  0  0  0  0  0  0  0
    1.3856   -2.4000    0.0000 H   0  0  0  0  0  0  0  0  0  0  0  0
    0.0000   -0.0000    0.0000 C   0  0  0  0  0  0  0  0  0  0  0  0
   -1.5999   -0.0000    0.0000 H   0  0  0  0  0  0  0  0  0  0  0  0
   -0.5472    1.5035    0.0000 C   0  0  0  0  0  0  0  0  0  0  0  0
   -1.0945    3.0070    0.0000 H   0  0  0  0  0  0  0  0  0  0  0  0
    0.4813    2.7292    0.0000 H   0  0  0  0  0  0  0  0  0  0  0  0
   -2.1229    1.7813    0.0000 H   0  0  0  0  0  0  0  0  0  0  0  0
    1.5758   -0.2778    0.0000 O   0  0  0  0  0  0  0  0  0  0  0  0
    2.6042    0.9479    0.0000 C   0  0  0  0  0  0  0  0  0  0  0  0
    2.6739    2.5463    0.0000 H   0  0  0  0  0  0  0  0  0  0  0  0
    1.3348    1.9219    0.0000 H   0  0  0  0  0  0  0  0  0  0  0  0
    4.1798    0.6700    0.0000 C   0  0  0  0  0  0  0  0  0  0  0  0
    4.1101   -0.9285    0.0000 H   0  0  0  0  0  0  0  0  0  0  0  0
    5.2608   -0.5097    0.0000 H   0  0  0  0  0  0  0  0  0  0  0  0
    5.2082    1.8957    0.0000 O   0  0  0  0  0  0  0  0  0  0  0  0
    6.7840    1.6179    0.0000 H   0  0  0  0  0  0  0  0  0  0  0  0
  1  2  1  0  0  0  0
  1  3  1  0  0  0  0
  1  4  1  0  0  0  0
  1  5  1  0  0  0  0
  5  6  1  0  0  0  0
  5  7  1  0  0  0  0
  7  8  1  0  0  0  0
  7  9  1  0  0  0  0
  7 10  1  0  0  0  0
  5 11  1  0  0  0  0
 11 12  1  0  0  0  0
 12 13  1  0  0  0  0
 12 14  1  0  0  0  0
 12 15  1  0  0  0  0
 15 16  1  0  0  0  0
 15 17  1  0  0  0  0
 15 18  1  0  0  0  0
 18 19  1  0  0  0  0
M  END
> <ChemID>
201479

> <source_casrn>
109-59-1

> <CAS>
109-59-1

> <SMILES>
CC(C)OCCO

> <NAME>


> <preferred_name>
2-Isopropoxyethanol

> <iupac>
C5H12O2

> <MPID>
101306

> <dsstox_substance_id>
DTXSID4047466

> <Canonical_QSARr>
CC(C)OCCO

> <InChI_Code_QSARr>
InChI=1S/C5H12O2/c1-5(2)7-4-3-6/h5-6H,3-4H2,1-2H3

> <InChI Key_QSARr>
HCGFUIQPSOCUHI-UHFFFAOYSA-N

> <Salt_Solvent>


> <Ready_Biodeg>
0.0

$$$$
201481
  -INDIGO-08031722522D

 40 41  0  0  0  0  0  0  0  0999 V2000
   10.1567    2.6308    0.0000 C   0  0  0  0  0  0  0  0  0  0  0  0
   10.1567    4.2308    0.0000 H   0  0  0  0  0  0  0  0  0  0  0  0
    8.7710    3.4309    0.0000 H   0  0  0  0  0  0  0  0  0  0  0  0
   11.5421    3.4309    0.0000 H   0  0  0  0  0  0  0  0  0  0  0  0
   10.1567    1.0308    0.0000 C   0  0  0  0  0  0  0  0  0  0  0  0
   10.1567   -0.5692    0.0000 H   0  0  0  0  0  0  0  0  0  0  0  0
   11.7565    1.0308    0.0000 C   0  0  0  0  0  0  0  0  0  0  0  0
   13.3566    1.0308    0.0000 H   0  0  0  0  0  0  0  0  0  0  0  0
   12.5565    2.4165    0.0000 H   0  0  0  0  0  0  0  0  0  0  0  0
   12.5565   -0.3548    0.0000 H   0  0  0  0  0  0  0  0  0  0  0  0
    8.5566    1.0308    0.0000 O   0  0  0  0  0  0  0  0  0  0  0  0
    7.7565   -0.3548    0.0000 C   0  0  0  0  0  0  0  0  0  0  0  0
    6.1565   -0.3548    0.0000 C   0  0  0  0  0  0  0  0  0  0  0  0
    5.3567    1.0308    0.0000 H   0  0  0  0  0  0  0  0  0  0  0  0
    5.3567   -1.7405    0.0000 C   0  0  0  0  0  0  0  0  0  0  0  0
    3.7566   -1.7405    0.0000 N   0  0  0  0  0  0  0  0  0  0  0  0
    2.8162   -0.4460    0.0000 N   0  0  0  0  0  0  0  0  0  0  0  0
    1.2945   -0.9405    0.0000 C   0  0  0  0  0  0  0  0  0  0  0  0
    0.0000   -0.0000    0.0000 C   0  0  0  0  0  0  0  0  0  0  0  0
   -1.2944    0.9405    0.0000 C   0  0  0  0  0  0  0  0  0  0  0  0
   -2.5889    1.8809    0.0000 H   0  0  0  0  0  0  0  0  0  0  0  0
   -2.7561    0.2897    0.0000 H   0  0  0  0  0  0  0  0  0  0  0  0
   -1.1273    2.5317    0.0000 H   0  0  0  0  0  0  0  0  0  0  0  0
   -0.9404   -1.2944    0.0000 C   0  0  0  0  0  0  0  0  0  0  0  0
   -1.8808   -2.5888    0.0000 H   0  0  0  0  0  0  0  0  0  0  0  0
   -2.5316   -1.1272    0.0000 H   0  0  0  0  0  0  0  0  0  0  0  0
   -0.2896   -2.7561    0.0000 H   0  0  0  0  0  0  0  0  0  0  0  0
    0.9405    1.2944    0.0000 C   0  0  0  0  0  0  0  0  0  0  0  0
    1.8809    2.5888    0.0000 H   0  0  0  0  0  0  0  0  0  0  0  0
    0.2897    2.7561    0.0000 H   0  0  0  0  0  0  0  0  0  0  0  0
    2.5317    1.1272    0.0000 H   0  0  0  0  0  0  0  0  0  0  0  0
    1.2945   -2.5404    0.0000 O   0  0  0  0  0  0  0  0  0  0  0  0
    2.8162   -3.0348    0.0000 C   0  0  0  0  0  0  0  0  0  0  0  0
    3.3106   -4.5566    0.0000 O   0  0  0  0  0  0  0  0  0  0  0  0
    6.1565   -3.1261    0.0000 C   0  0  0  0  0  0  0  0  0  0  0  0
    5.3567   -4.5118    0.0000 Cl  0  0  0  0  0  0  0  0  0  0  0  0
    7.7565   -3.1261    0.0000 C   0  0  0  0  0  0  0  0  0  0  0  0
    8.5566   -4.5118    0.0000 H   0  0  0  0  0  0  0  0  0  0  0  0
    8.5566   -1.7405    0.0000 C   0  0  0  0  0  0  0  0  0  0  0  0
   10.1567   -1.7405    0.0000 Cl  0  0  0  0  0  0  0  0  0  0  0  0
  1  2  1  0  0  0  0
  1  3  1  0  0  0  0
  1  4  1  0  0  0  0
  1  5  1  0  0  0  0
  5  6  1  0  0  0  0
  5  7  1  0  0  0  0
  7  8  1  0  0  0  0
  7  9  1  0  0  0  0
  7 10  1  0  0  0  0
  5 11  1  0  0  0  0
 11 12  1  0  0  0  0
 12 13  1  0  0  0  0
 13 14  1  0  0  0  0
 13 15  2  0  0  0  0
 15 16  1  0  0  0  0
 16 17  1  0  0  0  0
 17 18  2  0  0  0  0
 18 19  1  0  0  0  0
 19 20  1  0  0  0  0
 20 21  1  0  0  0  0
 20 22  1  0  0  0  0
 20 23  1  0  0  0  0
 19 24  1  0  0  0  0
 24 25  1  0  0  0  0
 24 26  1  0  0  0  0
 24 27  1  0  0  0  0
 19 28  1  0  0  0  0
 28 29  1  0  0  0  0
 28 30  1  0  0  0  0
 28 31  1  0  0  0  0
 18 32  1  0  0  0  0
 32 33  1  0  0  0  0
 33 16  1  0  0  0  0
 33 34  2  0  0  0  0
 15 35  1  0  0  0  0
 35 36  1  0  0  0  0
 35 37  2  0  0  0  0
 37 38  1  0  0  0  0
 37 39  1  0  0  0  0
 39 12  2  0  0  0  0
 39 40  1  0  0  0  0
M  END
> <ChemID>
201481

> <source_casrn>
19666-30-9

> <CAS>
19666-30-9

> <SMILES>
CC(C)Oc1cc(N2N=C(OC2=O)C(C)(C)C)c(Cl)cc1Cl

> <NAME>


> <preferred_name>
Oxadiazon

> <iupac>
5-tert-butyl-3-[2,4-dichloro-5-(propan-2-yloxy)phenyl]-1,3,4-oxadiazol-2(3H)-one

> <MPID>
101307

> <dsstox_substance_id>
DTXSID3024239

> <Canonical_QSARr>
CC(C)Oc1cc(c(Cl)cc1Cl)N1N=C(OC1=O)C(C)(C)C

> <InChI_Code_QSARr>
InChI=1S/C15H18Cl2N2O3/c1-8(2)21-12-7-11(9(16)6-10(12)17)19-14(20)22-13(18-19)15(3,4)5/h6-8H,1-5H3

> <InChI Key_QSARr>
CHNUNORXWHYHNE-UHFFFAOYSA-N

> <Salt_Solvent>


> <Ready_Biodeg>
0.0

$$$$
201483
  -INDIGO-08031722522D

 23 23  0  0  0  0  0  0  0  0999 V2000
   -0.0001    1.6000    0.0000 C   0  0  0  0  0  0  0  0  0  0  0  0
   -0.0001    3.2000    0.0000 H   0  0  0  0  0  0  0  0  0  0  0  0
    1.3856    2.4000    0.0000 H   0  0  0  0  0  0  0  0  0  0  0  0
    1.3856    0.8000    0.0000 H   0  0  0  0  0  0  0  0  0  0  0  0
   -0.0001    0.0000    0.0000 C   0  0  0  0  0  0  0  0  0  0  0  0
   -0.0001   -1.6000    0.0000 H   0  0  0  0  0  0  0  0  0  0  0  0
    1.5757   -0.2778    0.0000 C   0  0  0  0  0  0  0  0  0  0  0  0
    3.1514   -0.5557    0.0000 H   0  0  0  0  0  0  0  0  0  0  0  0
    2.1230   -1.7813    0.0000 H   0  0  0  0  0  0  0  0  0  0  0  0
    2.6041    0.9478    0.0000 H   0  0  0  0  0  0  0  0  0  0  0  0
   -1.6000    0.0000    0.0000 C   0  0  0  0  0  0  0  0  0  0  0  0
   -2.4000    1.3856    0.0000 C   0  0  0  0  0  0  0  0  0  0  0  0
   -1.6000    2.7713    0.0000 H   0  0  0  0  0  0  0  0  0  0  0  0
   -4.0001    1.3856    0.0000 C   0  0  0  0  0  0  0  0  0  0  0  0
   -4.8001    2.7713    0.0000 H   0  0  0  0  0  0  0  0  0  0  0  0
   -4.8001    0.0000    0.0000 C   0  0  0  0  0  0  0  0  0  0  0  0
   -6.4000    0.0000    0.0000 N   0  0  0  0  0  0  0  0  0  0  0  0
   -7.2000   -1.3857    0.0000 H   0  0  0  0  0  0  0  0  0  0  0  0
   -7.2000    1.3856    0.0000 H   0  0  0  0  0  0  0  0  0  0  0  0
   -4.0001   -1.3857    0.0000 C   0  0  0  0  0  0  0  0  0  0  0  0
   -4.8001   -2.7713    0.0000 H   0  0  0  0  0  0  0  0  0  0  0  0
   -2.4000   -1.3857    0.0000 C   0  0  0  0  0  0  0  0  0  0  0  0
   -1.6000   -2.7713    0.0000 H   0  0  0  0  0  0  0  0  0  0  0  0
  1  2  1  0  0  0  0
  1  3  1  0  0  0  0
  1  4  1  0  0  0  0
  1  5  1  0  0  0  0
  5  6  1  0  0  0  0
  5  7  1  0  0  0  0
  7  8  1  0  0  0  0
  7  9  1  0  0  0  0
  7 10  1  0  0  0  0
  5 11  1  0  0  0  0
 11 12  1  0  0  0  0
 12 13  1  0  0  0  0
 12 14  2  0  0  0  0
 14 15  1  0  0  0  0
 14 16  1  0  0  0  0
 16 17  1  0  0  0  0
 17 18  1  0  0  0  0
 17 19  1  0  0  0  0
 16 20  2  0  0  0  0
 20 21  1  0  0  0  0
 20 22  1  0  0  0  0
 22 11  2  0  0  0  0
 22 23  1  0  0  0  0
M  END
> <ChemID>
201483

> <source_casrn>
99-88-7

> <CAS>
99-88-7

> <SMILES>
CC(C)c1ccc(N)cc1

> <NAME>


> <preferred_name>
Cumidine

> <iupac>
4-propan-2-ylaniline

> <MPID>
101309

> <dsstox_substance_id>
DTXSID20243932

> <Canonical_QSARr>
CC(C)c1ccc(N)cc1

> <InChI_Code_QSARr>
InChI=1S/C9H13N/c1-7(2)8-3-5-9(10)6-4-8/h3-7H,10H2,1-2H3

> <InChI Key_QSARr>
LRTFPLFDLJYEKT-UHFFFAOYSA-N

> <Salt_Solvent>


> <Ready_Biodeg>
0.0

$$$$
201485
  -INDIGO-08031722522D

 65 67  0  0  0  0  0  0  0  0999 V2000
    0.5471    1.5034    0.0000 C   0  0  0  0  0  0  0  0  0  0  0  0
    1.0946    3.0070    0.0000 H   0  0  0  0  0  0  0  0  0  0  0  0
   -0.4812    2.7292    0.0000 H   0  0  0  0  0  0  0  0  0  0  0  0
   -1.0284    1.2256    0.0000 H   0  0  0  0  0  0  0  0  0  0  0  0
   -0.0001    0.0001    0.0000 C   0  0  0  0  0  0  0  0  0  0  0  0
   -0.5473   -1.5035    0.0000 H   0  0  0  0  0  0  0  0  0  0  0  0
   -1.5756    0.2778    0.0000 C   0  0  0  0  0  0  0  0  0  0  0  0
   -3.1514    0.5556    0.0000 H   0  0  0  0  0  0  0  0  0  0  0  0
   -2.6042   -0.9477    0.0000 H   0  0  0  0  0  0  0  0  0  0  0  0
   -2.1231    1.7814    0.0000 H   0  0  0  0  0  0  0  0  0  0  0  0
    1.5035   -0.5473    0.0000 C   0  0  0  0  0  0  0  0  0  0  0  0
    1.7813   -2.1230    0.0000 C   0  0  0  0  0  0  0  0  0  0  0  0
    0.5558   -3.1513    0.0000 H   0  0  0  0  0  0  0  0  0  0  0  0
    3.2848   -2.6701    0.0000 C   0  0  0  0  0  0  0  0  0  0  0  0
    3.5626   -4.2458    0.0000 H   0  0  0  0  0  0  0  0  0  0  0  0
    4.5106   -1.6418    0.0000 C   0  0  0  0  0  0  0  0  0  0  0  0
    6.0139   -2.1889    0.0000 O   0  0  0  0  0  0  0  0  0  0  0  0
    6.8140   -3.5746    0.0000 P   0  0  0  0  0  0  0  0  0  0  0  0
    8.4140   -3.5746    0.0000 O   0  0  0  0  0  0  0  0  0  0  0  0
    7.6142   -2.1889    0.0000 O   0  0  0  0  0  0  0  0  0  0  0  0
    9.2142   -2.1889    0.0000 C   0  0  0  0  0  0  0  0  0  0  0  0
   10.0140   -3.5746    0.0000 C   0  0  0  0  0  0  0  0  0  0  0  0
    9.2142   -4.9602    0.0000 H   0  0  0  0  0  0  0  0  0  0  0  0
   11.6140   -3.5746    0.0000 C   0  0  0  0  0  0  0  0  0  0  0  0
   12.4141   -4.9602    0.0000 H   0  0  0  0  0  0  0  0  0  0  0  0
   12.4141   -2.1889    0.0000 C   0  0  0  0  0  0  0  0  0  0  0  0
   14.0141   -2.1889    0.0000 C   0  0  0  0  0  0  0  0  0  0  0  0
   14.0141   -3.7889    0.0000 H   0  0  0  0  0  0  0  0  0  0  0  0
   15.5896   -2.4667    0.0000 C   0  0  0  0  0  0  0  0  0  0  0  0
   17.1654   -2.7447    0.0000 H   0  0  0  0  0  0  0  0  0  0  0  0
   16.6182   -1.2411    0.0000 H   0  0  0  0  0  0  0  0  0  0  0  0
   16.1371   -3.9703    0.0000 H   0  0  0  0  0  0  0  0  0  0  0  0
   14.0141   -0.5889    0.0000 C   0  0  0  0  0  0  0  0  0  0  0  0
   14.0141    1.0111    0.0000 H   0  0  0  0  0  0  0  0  0  0  0  0
   15.3996    0.2112    0.0000 H   0  0  0  0  0  0  0  0  0  0  0  0
   15.3996   -1.3890    0.0000 H   0  0  0  0  0  0  0  0  0  0  0  0
   11.6140   -0.8033    0.0000 C   0  0  0  0  0  0  0  0  0  0  0  0
   12.4141    0.5824    0.0000 H   0  0  0  0  0  0  0  0  0  0  0  0
   10.0140   -0.8033    0.0000 C   0  0  0  0  0  0  0  0  0  0  0  0
    9.2142    0.5824    0.0000 H   0  0  0  0  0  0  0  0  0  0  0  0
    7.6142   -4.9602    0.0000 O   0  0  0  0  0  0  0  0  0  0  0  0
    6.8140   -6.3458    0.0000 C   0  0  0  0  0  0  0  0  0  0  0  0
    7.6142   -7.7315    0.0000 C   0  0  0  0  0  0  0  0  0  0  0  0
    9.2142   -7.7315    0.0000 H   0  0  0  0  0  0  0  0  0  0  0  0
    6.8140   -9.1171    0.0000 C   0  0  0  0  0  0  0  0  0  0  0  0
    7.6142  -10.5028    0.0000 H   0  0  0  0  0  0  0  0  0  0  0  0
    5.2140   -9.1171    0.0000 C   0  0  0  0  0  0  0  0  0  0  0  0
    4.4139  -10.5028    0.0000 C   0  0  0  0  0  0  0  0  0  0  0  0
    3.0284   -9.7027    0.0000 H   0  0  0  0  0  0  0  0  0  0  0  0
    3.3856  -11.7284    0.0000 C   0  0  0  0  0  0  0  0  0  0  0  0
    2.3573  -12.9542    0.0000 H   0  0  0  0  0  0  0  0  0  0  0  0
    1.8098  -11.4506    0.0000 H   0  0  0  0  0  0  0  0  0  0  0  0
    3.9328  -13.2320    0.0000 H   0  0  0  0  0  0  0  0  0  0  0  0
    5.7997  -11.3027    0.0000 C   0  0  0  0  0  0  0  0  0  0  0  0
    7.1854  -12.1028    0.0000 H   0  0  0  0  0  0  0  0  0  0  0  0
    5.7997  -12.9029    0.0000 H   0  0  0  0  0  0  0  0  0  0  0  0
    4.4139  -12.1028    0.0000 H   0  0  0  0  0  0  0  0  0  0  0  0
    4.4139   -7.7315    0.0000 C   0  0  0  0  0  0  0  0  0  0  0  0
    2.8139   -7.7315    0.0000 H   0  0  0  0  0  0  0  0  0  0  0  0
    5.2140   -6.3458    0.0000 C   0  0  0  0  0  0  0  0  0  0  0  0
    4.4139   -4.9602    0.0000 H   0  0  0  0  0  0  0  0  0  0  0  0
    4.2325   -0.0661    0.0000 C   0  0  0  0  0  0  0  0  0  0  0  0
    5.4583    0.9625    0.0000 H   0  0  0  0  0  0  0  0  0  0  0  0
    2.7293    0.4813    0.0000 C   0  0  0  0  0  0  0  0  0  0  0  0
    2.4512    2.0570    0.0000 H   0  0  0  0  0  0  0  0  0  0  0  0
  1  2  1  0  0  0  0
  1  3  1  0  0  0  0
  1  4  1  0  0  0  0
  1  5  1  0  0  0  0
  5  6  1  0  0  0  0
  5  7  1  0  0  0  0
  7  8  1  0  0  0  0
  7  9  1  0  0  0  0
  7 10  1  0  0  0  0
  5 11  1  0  0  0  0
 11 12  1  0  0  0  0
 12 13  1  0  0  0  0
 12 14  2  0  0  0  0
 14 15  1  0  0  0  0
 14 16  1  0  0  0  0
 16 17  1  0  0  0  0
 17 18  1  0  0  0  0
 18 19  2  0  0  0  0
 18 20  1  0  0  0  0
 20 21  1  0  0  0  0
 21 22  1  0  0  0  0
 22 23  1  0  0  0  0
 22 24  2  0  0  0  0
 24 25  1  0  0  0  0
 24 26  1  0  0  0  0
 26 27  1  0  0  0  0
 27 28  1  0  0  0  0
 27 29  1  0  0  0  0
 29 30  1  0  0  0  0
 29 31  1  0  0  0  0
 29 32  1  0  0  0  0
 27 33  1  0  0  0  0
 33 34  1  0  0  0  0
 33 35  1  0  0  0  0
 33 36  1  0  0  0  0
 26 37  2  0  0  0  0
 37 38  1  0  0  0  0
 37 39  1  0  0  0  0
 39 21  2  0  0  0  0
 39 40  1  0  0  0  0
 18 41  1  0  0  0  0
 41 42  1  0  0  0  0
 42 43  1  0  0  0  0
 43 44  1  0  0  0  0
 43 45  2  0  0  0  0
 45 46  1  0  0  0  0
 45 47  1  0  0  0  0
 47 48  1  0  0  0  0
 48 49  1  0  0  0  0
 48 50  1  0  0  0  0
 50 51  1  0  0  0  0
 50 52  1  0  0  0  0
 50 53  1  0  0  0  0
 48 54  1  0  0  0  0
 54 55  1  0  0  0  0
 54 56  1  0  0  0  0
 54 57  1  0  0  0  0
 47 58  2  0  0  0  0
 58 59  1  0  0  0  0
 58 60  1  0  0  0  0
 60 42  2  0  0  0  0
 60 61  1  0  0  0  0
 16 62  2  0  0  0  0
 62 63  1  0  0  0  0
 62 64  1  0  0  0  0
 64 11  2  0  0  0  0
 64 65  1  0  0  0  0
M  END
> <ChemID>
201485

> <source_casrn>
26967-76-0

> <CAS>
2502-15-0

> <SMILES>
CC(C)c1ccc(O[P](=O)(Oc2ccc(cc2)C(C)C)Oc3ccc(cc3)C(C)C)cc1

> <NAME>


> <preferred_name>


> <iupac>


> <MPID>
101310

> <dsstox_substance_id>
DTXSID80858783

> <Canonical_QSARr>
CC(C)c1ccc(cc1)OP(=O)(Oc1ccc(cc1)C(C)C)Oc1ccc(cc1)C(C)C

> <InChI_Code_QSARr>
InChI=1S/C27H33O4P/c1-19(2)22-7-13-25(14-8-22)29-32(28,30-26-15-9-23(10-16-26)20(3)4)31-27-17-11-24(12-18-27)21(5)6/h7-21H,1-6H3

> <InChI Key_QSARr>
ANVREEJNGJMLOV-UHFFFAOYSA-N

> <Salt_Solvent>


> <Ready_Biodeg>
0.0

$$$$
201488
  -INDIGO-08031722522D

 28 27  0  0  0  0  0  0  0  0999 V2000
    2.7713    0.0000    0.0000 C   0  0  0  0  0  0  0  0  0  0  0  0
    4.1569   -0.8000    0.0000 H   0  0  0  0  0  0  0  0  0  0  0  0
    4.1569    0.8000    0.0000 H   0  0  0  0  0  0  0  0  0  0  0  0
    2.7713   -1.6000    0.0000 H   0  0  0  0  0  0  0  0  0  0  0  0
    1.3856   -0.8000    0.0000 C   0  0  0  0  0  0  0  0  0  0  0  0
    0.7733   -2.2782    0.0000 H   0  0  0  0  0  0  0  0  0  0  0  0
    1.9979   -2.2782    0.0000 H   0  0  0  0  0  0  0  0  0  0  0  0
   -0.0001    0.0000    0.0000 C   0  0  0  0  0  0  0  0  0  0  0  0
   -0.8000   -1.3857    0.0000 H   0  0  0  0  0  0  0  0  0  0  0  0
    0.8000    1.3856    0.0000 C   0  0  0  0  0  0  0  0  0  0  0  0
    1.6001    2.7713    0.0000 H   0  0  0  0  0  0  0  0  0  0  0  0
    2.4000    1.3856    0.0000 H   0  0  0  0  0  0  0  0  0  0  0  0
   -0.0001    2.7713    0.0000 H   0  0  0  0  0  0  0  0  0  0  0  0
   -1.3856    0.8000    0.0000 N   0  0  0  0  0  0  0  0  0  0  0  0
   -1.3856    2.4000    0.0000 H   0  0  0  0  0  0  0  0  0  0  0  0
   -2.7712    0.0000    0.0000 C   0  0  0  0  0  0  0  0  0  0  0  0
   -1.9713   -1.3857    0.0000 H   0  0  0  0  0  0  0  0  0  0  0  0
   -3.5713    1.3856    0.0000 C   0  0  0  0  0  0  0  0  0  0  0  0
   -4.3714    2.7713    0.0000 H   0  0  0  0  0  0  0  0  0  0  0  0
   -5.1713    1.3856    0.0000 H   0  0  0  0  0  0  0  0  0  0  0  0
   -2.7712    2.7713    0.0000 H   0  0  0  0  0  0  0  0  0  0  0  0
   -4.1569   -0.8000    0.0000 C   0  0  0  0  0  0  0  0  0  0  0  0
   -4.7692   -2.2782    0.0000 H   0  0  0  0  0  0  0  0  0  0  0  0
   -3.5446   -2.2782    0.0000 H   0  0  0  0  0  0  0  0  0  0  0  0
   -5.5425    0.0000    0.0000 C   0  0  0  0  0  0  0  0  0  0  0  0
   -6.9282   -0.8000    0.0000 H   0  0  0  0  0  0  0  0  0  0  0  0
   -6.9282    0.8000    0.0000 H   0  0  0  0  0  0  0  0  0  0  0  0
   -5.5425   -1.6000    0.0000 H   0  0  0  0  0  0  0  0  0  0  0  0
  1  2  1  0  0  0  0
  1  3  1  0  0  0  0
  1  4  1  0  0  0  0
  1  5  1  0  0  0  0
  5  6  1  0  0  0  0
  5  7  1  0  0  0  0
  5  8  1  0  0  0  0
  8  9  1  0  0  0  0
  8 10  1  0  0  0  0
 10 11  1  0  0  0  0
 10 12  1  0  0  0  0
 10 13  1  0  0  0  0
  8 14  1  0  0  0  0
 14 15  1  0  0  0  0
 14 16  1  0  0  0  0
 16 17  1  0  0  0  0
 16 18  1  0  0  0  0
 18 19  1  0  0  0  0
 18 20  1  0  0  0  0
 18 21  1  0  0  0  0
 16 22  1  0  0  0  0
 22 23  1  0  0  0  0
 22 24  1  0  0  0  0
 22 25  1  0  0  0  0
 25 26  1  0  0  0  0
 25 27  1  0  0  0  0
 25 28  1  0  0  0  0
M  END
> <ChemID>
201488

> <source_casrn>
626-23-3

> <CAS>
NOCAS_870719

> <SMILES>
CCC(C)NC(C)CC

> <NAME>


> <preferred_name>


> <iupac>


> <MPID>
101312

> <dsstox_substance_id>
DTXSID90870719

> <Canonical_QSARr>
CC(CC)NC(C)CC

> <InChI_Code_QSARr>
InChI=1S/C8H19N/c1-5-7(3)9-8(4)6-2/h7-9H,5-6H2,1-4H3

> <InChI Key_QSARr>
OBYVIBDTOCAXSN-UHFFFAOYSA-N

> <Salt_Solvent>


> <Ready_Biodeg>
0.0

$$$$
201489
  -INDIGO-08031722522D

 33 34  0  0  0  0  0  0  0  0999 V2000
    1.7814   -2.1229    0.0000 C   0  0  0  0  0  0  0  0  0  0  0  0
    2.0592   -3.6986    0.0000 H   0  0  0  0  0  0  0  0  0  0  0  0
    3.2849   -2.6702    0.0000 H   0  0  0  0  0  0  0  0  0  0  0  0
    0.5558   -3.1513    0.0000 H   0  0  0  0  0  0  0  0  0  0  0  0
    1.5036   -0.5473    0.0000 C   0  0  0  0  0  0  0  0  0  0  0  0
    2.4776    0.7221    0.0000 H   0  0  0  0  0  0  0  0  0  0  0  0
    3.0294   -0.0661    0.0000 H   0  0  0  0  0  0  0  0  0  0  0  0
   -0.0001    0.0000    0.0000 C   0  0  0  0  0  0  0  0  0  0  0  0
   -0.0001   -1.6000    0.0000 H   0  0  0  0  0  0  0  0  0  0  0  0
   -0.0001    1.6000    0.0000 C   0  0  0  0  0  0  0  0  0  0  0  0
    1.3856    2.4000    0.0000 H   0  0  0  0  0  0  0  0  0  0  0  0
   -0.0001    3.2000    0.0000 H   0  0  0  0  0  0  0  0  0  0  0  0
    1.3856    0.8000    0.0000 H   0  0  0  0  0  0  0  0  0  0  0  0
   -1.6000    0.0000    0.0000 C   0  0  0  0  0  0  0  0  0  0  0  0
   -2.4000    1.3856    0.0000 C   0  0  0  0  0  0  0  0  0  0  0  0
   -1.6000    2.7713    0.0000 H   0  0  0  0  0  0  0  0  0  0  0  0
   -4.0000    1.3856    0.0000 C   0  0  0  0  0  0  0  0  0  0  0  0
   -4.8000    2.7713    0.0000 H   0  0  0  0  0  0  0  0  0  0  0  0
   -4.8000    0.0000    0.0000 C   0  0  0  0  0  0  0  0  0  0  0  0
   -6.3999    0.0000    0.0000 O   0  0  0  0  0  0  0  0  0  0  0  0
   -7.1999   -1.3856    0.0000 C   0  0  0  0  0  0  0  0  0  0  0  0
   -5.9307   -2.3596    0.0000 H   0  0  0  0  0  0  0  0  0  0  0  0
   -6.9910   -2.9720    0.0000 H   0  0  0  0  0  0  0  0  0  0  0  0
   -8.8001   -1.3856    0.0000 C   0  0  0  0  0  0  0  0  0  0  0  0
   -9.0779    0.1900    0.0000 H   0  0  0  0  0  0  0  0  0  0  0  0
  -10.3035   -1.9329    0.0000 C   0  0  0  0  0  0  0  0  0  0  0  0
  -11.1035   -0.5473    0.0000 H   0  0  0  0  0  0  0  0  0  0  0  0
  -11.5292   -2.9613    0.0000 H   0  0  0  0  0  0  0  0  0  0  0  0
   -9.0779   -2.9613    0.0000 O   0  0  0  0  0  0  0  0  0  0  0  0
   -4.0000   -1.3856    0.0000 C   0  0  0  0  0  0  0  0  0  0  0  0
   -4.8000   -2.7713    0.0000 H   0  0  0  0  0  0  0  0  0  0  0  0
   -2.4000   -1.3856    0.0000 C   0  0  0  0  0  0  0  0  0  0  0  0
   -1.6000   -2.7713    0.0000 H   0  0  0  0  0  0  0  0  0  0  0  0
  1  2  1  0  0  0  0
  1  3  1  0  0  0  0
  1  4  1  0  0  0  0
  1  5  1  0  0  0  0
  5  6  1  0  0  0  0
  5  7  1  0  0  0  0
  5  8  1  0  0  0  0
  8  9  1  0  0  0  0
  8 10  1  0  0  0  0
 10 11  1  0  0  0  0
 10 12  1  0  0  0  0
 10 13  1  0  0  0  0
  8 14  1  0  0  0  0
 14 15  1  0  0  0  0
 15 16  1  0  0  0  0
 15 17  2  0  0  0  0
 17 18  1  0  0  0  0
 17 19  1  0  0  0  0
 19 20  1  0  0  0  0
 20 21  1  0  0  0  0
 21 22  1  0  0  0  0
 21 23  1  0  0  0  0
 21 24  1  0  0  0  0
 24 25  1  0  0  0  0
 24 26  1  0  0  0  0
 26 27  1  0  0  0  0
 26 28  1  0  0  0  0
 26 29  1  0  0  0  0
 29 24  1  0  0  0  0
 19 30  2  0  0  0  0
 30 31  1  0  0  0  0
 30 32  1  0  0  0  0
 32 14  2  0  0  0  0
 32 33  1  0  0  0  0
M  END
> <ChemID>
201489

> <source_casrn>


> <CAS>
67557-76-0

> <SMILES>
CCC(C)c1ccc(OCC2CO2)cc1

> <NAME>


> <preferred_name>


> <iupac>


> <MPID>
101313

> <dsstox_substance_id>


> <Canonical_QSARr>
CC(CC)c1ccc(cc1)OCC1CO1

> <InChI_Code_QSARr>
InChI=1S/C13H18O2/c1-3-10(2)11-4-6-12(7-5-11)14-8-13-9-15-13/h4-7,10,13H,3,8-9H2,1-2H3

> <InChI Key_QSARr>
GQTBMBMBWQJACJ-UHFFFAOYSA-N

> <Salt_Solvent>


> <Ready_Biodeg>
0.0

$$$$
201491
  -INDIGO-08031722522D

 30 29  0  0  0  0  0  0  0  0999 V2000
    2.4001   -2.9856    0.0000 C   0  0  0  0  0  0  0  0  0  0  0  0
    2.4001   -4.5856    0.0000 H   0  0  0  0  0  0  0  0  0  0  0  0
    1.1743   -4.0141    0.0000 H   0  0  0  0  0  0  0  0  0  0  0  0
    3.6256   -4.0141    0.0000 H   0  0  0  0  0  0  0  0  0  0  0  0
    2.4001   -1.3857    0.0000 C   0  0  0  0  0  0  0  0  0  0  0  0
    2.4001    0.2143    0.0000 H   0  0  0  0  0  0  0  0  0  0  0  0
    3.9999   -1.3857    0.0000 C   0  0  0  0  0  0  0  0  0  0  0  0
    4.2088   -2.9720    0.0000 H   0  0  0  0  0  0  0  0  0  0  0  0
    5.2693   -2.3597    0.0000 H   0  0  0  0  0  0  0  0  0  0  0  0
    4.8000    0.0000    0.0000 C   0  0  0  0  0  0  0  0  0  0  0  0
    4.5912    1.5863    0.0000 H   0  0  0  0  0  0  0  0  0  0  0  0
    3.5307    0.9740    0.0000 H   0  0  0  0  0  0  0  0  0  0  0  0
    6.4000    0.0000    0.0000 O   0  0  0  0  0  0  0  0  0  0  0  0
    7.2000    1.3856    0.0000 H   0  0  0  0  0  0  0  0  0  0  0  0
    0.8000   -1.3857    0.0000 C   0  0  0  0  0  0  0  0  0  0  0  0
    0.5911   -2.9720    0.0000 H   0  0  0  0  0  0  0  0  0  0  0  0
   -0.4694   -2.3597    0.0000 H   0  0  0  0  0  0  0  0  0  0  0  0
    0.0000    0.0000    0.0000 C   0  0  0  0  0  0  0  0  0  0  0  0
   -1.0285    1.2257    0.0000 C   0  0  0  0  0  0  0  0  0  0  0  0
   -2.0569    2.4514    0.0000 H   0  0  0  0  0  0  0  0  0  0  0  0
   -2.6042    0.9479    0.0000 H   0  0  0  0  0  0  0  0  0  0  0  0
   -0.4812    2.7292    0.0000 H   0  0  0  0  0  0  0  0  0  0  0  0
    1.3857    0.8000    0.0000 C   0  0  0  0  0  0  0  0  0  0  0  0
    2.7713    1.5999    0.0000 H   0  0  0  0  0  0  0  0  0  0  0  0
    1.3857    2.4000    0.0000 H   0  0  0  0  0  0  0  0  0  0  0  0
    0.0000    1.5999    0.0000 H   0  0  0  0  0  0  0  0  0  0  0  0
   -1.3856   -0.8000    0.0000 C   0  0  0  0  0  0  0  0  0  0  0  0
   -2.7713   -1.6000    0.0000 H   0  0  0  0  0  0  0  0  0  0  0  0
   -1.6635   -2.3757    0.0000 H   0  0  0  0  0  0  0  0  0  0  0  0
   -2.7713    0.0000    0.0000 H   0  0  0  0  0  0  0  0  0  0  0  0
  1  2  1  0  0  0  0
  1  3  1  0  0  0  0
  1  4  1  0  0  0  0
  1  5  1  0  0  0  0
  5  6  1  0  0  0  0
  5  7  1  0  0  0  0
  7  8  1  0  0  0  0
  7  9  1  0  0  0  0
  7 10  1  0  0  0  0
 10 11  1  0  0  0  0
 10 12  1  0  0  0  0
 10 13  1  0  0  0  0
 13 14  1  0  0  0  0
  5 15  1  0  0  0  0
 15 16  1  0  0  0  0
 15 17  1  0  0  0  0
 15 18  1  0  0  0  0
 18 19  1  0  0  0  0
 19 20  1  0  0  0  0
 19 21  1  0  0  0  0
 19 22  1  0  0  0  0
 18 23  1  0  0  0  0
 23 24  1  0  0  0  0
 23 25  1  0  0  0  0
 23 26  1  0  0  0  0
 18 27  1  0  0  0  0
 27 28  1  0  0  0  0
 27 29  1  0  0  0  0
 27 30  1  0  0  0  0
M  END
> <ChemID>
201491

> <source_casrn>
3452-97-9

> <CAS>
3452-97-9

> <SMILES>
CC(CCO)CC(C)(C)C

> <NAME>


> <preferred_name>
3,5,5-Trimethyl-1-hexanol

> <iupac>
3,5,5-trimethylhexan-1-ol

> <MPID>
101315

> <dsstox_substance_id>
DTXSID7029661

> <Canonical_QSARr>
CC(CCO)CC(C)(C)C

> <InChI_Code_QSARr>
InChI=1S/C9H20O/c1-8(5-6-10)7-9(2,3)4/h8,10H,5-7H2,1-4H3

> <InChI Key_QSARr>
BODRLKRKPXBDBN-UHFFFAOYSA-N

> <Salt_Solvent>


> <Ready_Biodeg>
0.0

$$$$
201492
  -INDIGO-08031722522D

 22 21  0  0  0  0  0  0  0  0999 V2000
    0.0001    1.6000    0.0000 C   0  0  0  0  0  0  0  0  0  0  0  0
   -0.0001    3.2000    0.0000 H   0  0  0  0  0  0  0  0  0  0  0  0
    1.2257    2.6284    0.0000 H   0  0  0  0  0  0  0  0  0  0  0  0
   -1.2257    2.6284    0.0000 H   0  0  0  0  0  0  0  0  0  0  0  0
    0.0001    0.0000    0.0000 C   0  0  0  0  0  0  0  0  0  0  0  0
    0.0001   -1.6000    0.0000 H   0  0  0  0  0  0  0  0  0  0  0  0
   -1.6000    0.0000    0.0000 C   0  0  0  0  0  0  0  0  0  0  0  0
   -2.8693    0.9740    0.0000 H   0  0  0  0  0  0  0  0  0  0  0  0
   -1.8089    1.5864    0.0000 H   0  0  0  0  0  0  0  0  0  0  0  0
   -2.4000   -1.3856    0.0000 C   0  0  0  0  0  0  0  0  0  0  0  0
   -1.1307   -2.3597    0.0000 H   0  0  0  0  0  0  0  0  0  0  0  0
   -2.1912   -2.9720    0.0000 H   0  0  0  0  0  0  0  0  0  0  0  0
   -4.0000   -1.3856    0.0000 O   0  0  0  0  0  0  0  0  0  0  0  0
   -4.8000   -2.7713    0.0000 H   0  0  0  0  0  0  0  0  0  0  0  0
    1.6000    0.0000    0.0000 C   0  0  0  0  0  0  0  0  0  0  0  0
    1.8089    1.5864    0.0000 H   0  0  0  0  0  0  0  0  0  0  0  0
    2.8693    0.9740    0.0000 H   0  0  0  0  0  0  0  0  0  0  0  0
    2.4000   -1.3856    0.0000 C   0  0  0  0  0  0  0  0  0  0  0  0
    2.1912   -2.9720    0.0000 H   0  0  0  0  0  0  0  0  0  0  0  0
    1.1307   -2.3597    0.0000 H   0  0  0  0  0  0  0  0  0  0  0  0
    4.0000   -1.3856    0.0000 O   0  0  0  0  0  0  0  0  0  0  0  0
    4.8000   -2.7713    0.0000 H   0  0  0  0  0  0  0  0  0  0  0  0
  1  2  1  0  0  0  0
  1  3  1  0  0  0  0
  1  4  1  0  0  0  0
  1  5  1  0  0  0  0
  5  6  1  0  0  0  0
  5  7  1  0  0  0  0
  7  8  1  0  0  0  0
  7  9  1  0  0  0  0
  7 10  1  0  0  0  0
 10 11  1  0  0  0  0
 10 12  1  0  0  0  0
 10 13  1  0  0  0  0
 13 14  1  0  0  0  0
  5 15  1  0  0  0  0
 15 16  1  0  0  0  0
 15 17  1  0  0  0  0
 15 18  1  0  0  0  0
 18 19  1  0  0  0  0
 18 20  1  0  0  0  0
 18 21  1  0  0  0  0
 21 22  1  0  0  0  0
M  END
> <ChemID>
201492

> <source_casrn>
4457-71-0

> <CAS>
4457-71-0

> <SMILES>
CC(CCO)CCO

> <NAME>


> <preferred_name>
3-Methyl-1,5-pentanediol

> <iupac>
3-METHYLPENTANE-1,5-DIOL

> <MPID>
101316

> <dsstox_substance_id>
DTXSID1063483

> <Canonical_QSARr>
CC(CCO)CCO

> <InChI_Code_QSARr>
InChI=1S/C6H14O2/c1-6(2-4-7)3-5-8/h6-8H,2-5H2,1H3

> <InChI Key_QSARr>
SXFJDZNJHVPHPH-UHFFFAOYSA-N

> <Salt_Solvent>


> <Ready_Biodeg>
1.0

$$$$
201501
  -INDIGO-08031722522D

 52 51  0  0  0  0  0  0  0  0999 V2000
    2.4800   -3.8071    0.0000 C   0  0  0  0  0  0  0  0  0  0  0  0
    3.0274   -5.3105    0.0000 H   0  0  0  0  0  0  0  0  0  0  0  0
    4.0559   -4.0848    0.0000 H   0  0  0  0  0  0  0  0  0  0  0  0
    1.4517   -5.0326    0.0000 H   0  0  0  0  0  0  0  0  0  0  0  0
    1.9329   -2.3034    0.0000 C   0  0  0  0  0  0  0  0  0  0  0  0
    0.4293   -2.8508    0.0000 H   0  0  0  0  0  0  0  0  0  0  0  0
    3.4363   -1.7563    0.0000 O   0  0  0  0  0  0  0  0  0  0  0  0
    4.6621   -2.7846    0.0000 H   0  0  0  0  0  0  0  0  0  0  0  0
    1.3856   -0.8000    0.0000 C   0  0  0  0  0  0  0  0  0  0  0  0
    2.9719   -0.5912    0.0000 H   0  0  0  0  0  0  0  0  0  0  0  0
    2.3596    0.4693    0.0000 H   0  0  0  0  0  0  0  0  0  0  0  0
   -0.0001    0.0001    0.0000 N   0  0  0  0  0  0  0  0  0  0  0  0
   -1.3857   -0.8000    0.0000 C   0  0  0  0  0  0  0  0  0  0  0  0
   -1.4554   -2.3984    0.0000 H   0  0  0  0  0  0  0  0  0  0  0  0
   -0.3047   -1.9796    0.0000 H   0  0  0  0  0  0  0  0  0  0  0  0
   -2.9614   -0.5221    0.0000 C   0  0  0  0  0  0  0  0  0  0  0  0
   -2.6151    1.0400    0.0000 H   0  0  0  0  0  0  0  0  0  0  0  0
   -3.8210    0.8273    0.0000 H   0  0  0  0  0  0  0  0  0  0  0  0
   -4.1871   -1.5506    0.0000 N   0  0  0  0  0  0  0  0  0  0  0  0
   -5.6905   -1.0033    0.0000 C   0  0  0  0  0  0  0  0  0  0  0  0
   -6.4292   -2.4226    0.0000 H   0  0  0  0  0  0  0  0  0  0  0  0
   -7.2164   -1.4845    0.0000 H   0  0  0  0  0  0  0  0  0  0  0  0
   -6.4904    0.3822    0.0000 C   0  0  0  0  0  0  0  0  0  0  0  0
   -5.1049    1.1823    0.0000 H   0  0  0  0  0  0  0  0  0  0  0  0
   -7.2906    1.7679    0.0000 C   0  0  0  0  0  0  0  0  0  0  0  0
   -8.0905    3.1536    0.0000 H   0  0  0  0  0  0  0  0  0  0  0  0
   -8.8904    1.7679    0.0000 H   0  0  0  0  0  0  0  0  0  0  0  0
   -6.4904    3.1536    0.0000 H   0  0  0  0  0  0  0  0  0  0  0  0
   -7.8761   -0.4177    0.0000 O   0  0  0  0  0  0  0  0  0  0  0  0
   -9.2618    0.3822    0.0000 H   0  0  0  0  0  0  0  0  0  0  0  0
   -3.9092   -3.1263    0.0000 C   0  0  0  0  0  0  0  0  0  0  0  0
   -2.7296   -4.2072    0.0000 H   0  0  0  0  0  0  0  0  0  0  0  0
   -2.3106   -3.0564    0.0000 H   0  0  0  0  0  0  0  0  0  0  0  0
   -5.1349   -4.1548    0.0000 C   0  0  0  0  0  0  0  0  0  0  0  0
   -5.4126   -2.5792    0.0000 H   0  0  0  0  0  0  0  0  0  0  0  0
   -4.8570   -5.7305    0.0000 C   0  0  0  0  0  0  0  0  0  0  0  0
   -4.5791   -7.3062    0.0000 H   0  0  0  0  0  0  0  0  0  0  0  0
   -6.0827   -6.7590    0.0000 H   0  0  0  0  0  0  0  0  0  0  0  0
   -3.3536   -6.2776    0.0000 H   0  0  0  0  0  0  0  0  0  0  0  0
   -6.7105   -4.4325    0.0000 O   0  0  0  0  0  0  0  0  0  0  0  0
   -7.2578   -5.9362    0.0000 H   0  0  0  0  0  0  0  0  0  0  0  0
   -0.0001    1.6001    0.0000 C   0  0  0  0  0  0  0  0  0  0  0  0
   -0.9740    2.8694    0.0000 H   0  0  0  0  0  0  0  0  0  0  0  0
   -1.5863    1.8089    0.0000 H   0  0  0  0  0  0  0  0  0  0  0  0
    1.0285    2.8257    0.0000 C   0  0  0  0  0  0  0  0  0  0  0  0
    2.2542    1.7971    0.0000 H   0  0  0  0  0  0  0  0  0  0  0  0
    2.0570    4.0514    0.0000 C   0  0  0  0  0  0  0  0  0  0  0  0
    3.0854    5.2770    0.0000 H   0  0  0  0  0  0  0  0  0  0  0  0
    1.5097    5.5548    0.0000 H   0  0  0  0  0  0  0  0  0  0  0  0
    3.6327    3.7735    0.0000 H   0  0  0  0  0  0  0  0  0  0  0  0
   -0.1972    3.8542    0.0000 O   0  0  0  0  0  0  0  0  0  0  0  0
    0.0807    5.4298    0.0000 H   0  0  0  0  0  0  0  0  0  0  0  0
  1  2  1  0  0  0  0
  1  3  1  0  0  0  0
  1  4  1  0  0  0  0
  1  5  1  0  0  0  0
  5  6  1  0  0  0  0
  5  7  1  0  0  0  0
  7  8  1  0  0  0  0
  5  9  1  0  0  0  0
  9 10  1  0  0  0  0
  9 11  1  0  0  0  0
  9 12  1  0  0  0  0
 12 13  1  0  0  0  0
 13 14  1  0  0  0  0
 13 15  1  0  0  0  0
 13 16  1  0  0  0  0
 16 17  1  0  0  0  0
 16 18  1  0  0  0  0
 16 19  1  0  0  0  0
 19 20  1  0  0  0  0
 20 21  1  0  0  0  0
 20 22  1  0  0  0  0
 20 23  1  0  0  0  0
 23 24  1  0  0  0  0
 23 25  1  0  0  0  0
 25 26  1  0  0  0  0
 25 27  1  0  0  0  0
 25 28  1  0  0  0  0
 23 29  1  0  0  0  0
 29 30  1  0  0  0  0
 19 31  1  0  0  0  0
 31 32  1  0  0  0  0
 31 33  1  0  0  0  0
 31 34  1  0  0  0  0
 34 35  1  0  0  0  0
 34 36  1  0  0  0  0
 36 37  1  0  0  0  0
 36 38  1  0  0  0  0
 36 39  1  0  0  0  0
 34 40  1  0  0  0  0
 40 41  1  0  0  0  0
 12 42  1  0  0  0  0
 42 43  1  0  0  0  0
 42 44  1  0  0  0  0
 42 45  1  0  0  0  0
 45 46  1  0  0  0  0
 45 47  1  0  0  0  0
 47 48  1  0  0  0  0
 47 49  1  0  0  0  0
 47 50  1  0  0  0  0
 45 51  1  0  0  0  0
 51 52  1  0  0  0  0
M  END
> <ChemID>
201501

> <source_casrn>
102-60-3

> <CAS>
102-60-3

> <SMILES>
CC(O)CN(CCN(CC(C)O)CC(C)O)CC(C)O

> <NAME>


> <preferred_name>
N,N,N',N'-Tetrakis(2-Hydroxypropyl)ethylenediamine

> <iupac>
1,1',1'',1'''-(ethane-1,2-diyldinitrilo)tetrapropan-2-ol

> <MPID>
101319

> <dsstox_substance_id>
DTXSID9026689

> <Canonical_QSARr>
CC(O)CN(CC(C)O)CCN(CC(C)O)CC(C)O

> <InChI_Code_QSARr>
InChI=1S/C14H32N2O4/c1-11(17)7-15(8-12(2)18)5-6-16(9-13(3)19)10-14(4)20/h11-14,17-20H,5-10H2,1-4H3

> <InChI Key_QSARr>
NSOXQYCFHDMMGV-UHFFFAOYSA-N

> <Salt_Solvent>


> <Ready_Biodeg>
0.0

$$$$
201504
  -INDIGO-08031722522D

 33 32  0  0  0  0  0  0  0  0999 V2000
    5.0182   -2.9735    0.0000 C   0  0  0  0  0  0  0  0  0  0  0  0
    6.0468   -4.1992    0.0000 H   0  0  0  0  0  0  0  0  0  0  0  0
    6.5939   -2.6956    0.0000 H   0  0  0  0  0  0  0  0  0  0  0  0
    4.4711   -4.4771    0.0000 H   0  0  0  0  0  0  0  0  0  0  0  0
    3.9899   -1.7478    0.0000 C   0  0  0  0  0  0  0  0  0  0  0  0
    2.7642   -2.7763    0.0000 H   0  0  0  0  0  0  0  0  0  0  0  0
    5.2154   -0.7194    0.0000 O   0  0  0  0  0  0  0  0  0  0  0  0
    6.7190   -1.2666    0.0000 H   0  0  0  0  0  0  0  0  0  0  0  0
    2.9613   -0.5222    0.0000 C   0  0  0  0  0  0  0  0  0  0  0  0
    4.0423    0.6575    0.0000 H   0  0  0  0  0  0  0  0  0  0  0  0
    2.8915    1.0763    0.0000 H   0  0  0  0  0  0  0  0  0  0  0  0
    1.3857   -0.8000    0.0000 O   0  0  0  0  0  0  0  0  0  0  0  0
    0.0000    0.0000    0.0000 C   0  0  0  0  0  0  0  0  0  0  0  0
   -1.3856    0.8001    0.0000 H   0  0  0  0  0  0  0  0  0  0  0  0
    0.5471    1.5034    0.0000 C   0  0  0  0  0  0  0  0  0  0  0  0
    1.0944    3.0070    0.0000 H   0  0  0  0  0  0  0  0  0  0  0  0
   -0.4812    2.7292    0.0000 H   0  0  0  0  0  0  0  0  0  0  0  0
    2.1230    1.7813    0.0000 H   0  0  0  0  0  0  0  0  0  0  0  0
   -0.8001   -1.3857    0.0000 C   0  0  0  0  0  0  0  0  0  0  0  0
    0.4693   -2.3597    0.0000 H   0  0  0  0  0  0  0  0  0  0  0  0
   -0.5911   -2.9719    0.0000 H   0  0  0  0  0  0  0  0  0  0  0  0
   -2.3999   -1.3857    0.0000 O   0  0  0  0  0  0  0  0  0  0  0  0
   -3.2001   -2.7713    0.0000 C   0  0  0  0  0  0  0  0  0  0  0  0
   -1.8144   -3.5713    0.0000 H   0  0  0  0  0  0  0  0  0  0  0  0
   -4.5855   -1.9713    0.0000 C   0  0  0  0  0  0  0  0  0  0  0  0
   -5.9712   -1.1712    0.0000 H   0  0  0  0  0  0  0  0  0  0  0  0
   -4.5855   -0.3713    0.0000 H   0  0  0  0  0  0  0  0  0  0  0  0
   -5.9712   -2.7713    0.0000 H   0  0  0  0  0  0  0  0  0  0  0  0
   -4.0000   -4.1569    0.0000 C   0  0  0  0  0  0  0  0  0  0  0  0
   -2.7307   -5.1309    0.0000 H   0  0  0  0  0  0  0  0  0  0  0  0
   -3.7912   -5.7432    0.0000 H   0  0  0  0  0  0  0  0  0  0  0  0
   -5.6001   -4.1569    0.0000 O   0  0  0  0  0  0  0  0  0  0  0  0
   -6.4000   -5.5426    0.0000 H   0  0  0  0  0  0  0  0  0  0  0  0
  1  2  1  0  0  0  0
  1  3  1  0  0  0  0
  1  4  1  0  0  0  0
  1  5  1  0  0  0  0
  5  6  1  0  0  0  0
  5  7  1  0  0  0  0
  7  8  1  0  0  0  0
  5  9  1  0  0  0  0
  9 10  1  0  0  0  0
  9 11  1  0  0  0  0
  9 12  1  0  0  0  0
 12 13  1  0  0  0  0
 13 14  1  0  0  0  0
 13 15  1  0  0  0  0
 15 16  1  0  0  0  0
 15 17  1  0  0  0  0
 15 18  1  0  0  0  0
 13 19  1  0  0  0  0
 19 20  1  0  0  0  0
 19 21  1  0  0  0  0
 19 22  1  0  0  0  0
 22 23  1  0  0  0  0
 23 24  1  0  0  0  0
 23 25  1  0  0  0  0
 25 26  1  0  0  0  0
 25 27  1  0  0  0  0
 25 28  1  0  0  0  0
 23 29  1  0  0  0  0
 29 30  1  0  0  0  0
 29 31  1  0  0  0  0
 29 32  1  0  0  0  0
 32 33  1  0  0  0  0
M  END
> <ChemID>
201504

> <source_casrn>
24800-44-0

> <CAS>
NOCAS_871342

> <SMILES>
CC(O)COC(C)COC(C)CO

> <NAME>


> <preferred_name>


> <iupac>


> <MPID>
101321

> <dsstox_substance_id>
DTXSID90871342

> <Canonical_QSARr>
CC(O)COC(C)COC(C)CO

> <InChI_Code_QSARr>
InChI=1S/C9H20O4/c1-7(11)5-12-9(3)6-13-8(2)4-10/h7-11H,4-6H2,1-3H3

> <InChI Key_QSARr>
LCZVSXRMYJUNFX-UHFFFAOYSA-N

> <Salt_Solvent>


> <Ready_Biodeg>
0.0

$$$$
201505
  -INDIGO-08031722522D

 61 64  0  0  0  0  0  0  0  0999 V2000
    3.1670   -1.8284    0.0000 C   0  0  0  0  0  0  0  0  0  0  0  0
    3.4448   -3.4042    0.0000 H   0  0  0  0  0  0  0  0  0  0  0  0
    4.6704   -2.3757    0.0000 H   0  0  0  0  0  0  0  0  0  0  0  0
    4.3926   -0.8001    0.0000 H   0  0  0  0  0  0  0  0  0  0  0  0
    2.8893   -0.2527    0.0000 C   0  0  0  0  0  0  0  0  0  0  0  0
    2.3418    1.2507    0.0000 H   0  0  0  0  0  0  0  0  0  0  0  0
    4.3926    0.2945    0.0000 C   0  0  0  0  0  0  0  0  0  0  0  0
    5.6185   -0.7340    0.0000 C   0  0  0  0  0  0  0  0  0  0  0  0
    5.6185   -2.3341    0.0000 H   0  0  0  0  0  0  0  0  0  0  0  0
    7.1218   -0.1868    0.0000 C   0  0  0  0  0  0  0  0  0  0  0  0
    8.3476   -1.2153    0.0000 H   0  0  0  0  0  0  0  0  0  0  0  0
    7.3996    1.3889    0.0000 C   0  0  0  0  0  0  0  0  0  0  0  0
    8.9032    1.9362    0.0000 H   0  0  0  0  0  0  0  0  0  0  0  0
    6.1740    2.4173    0.0000 C   0  0  0  0  0  0  0  0  0  0  0  0
    6.4518    3.9930    0.0000 H   0  0  0  0  0  0  0  0  0  0  0  0
    4.6704    1.8701    0.0000 C   0  0  0  0  0  0  0  0  0  0  0  0
    3.4448    2.8986    0.0000 H   0  0  0  0  0  0  0  0  0  0  0  0
    1.3857   -0.8001    0.0000 C   0  0  0  0  0  0  0  0  0  0  0  0
    1.3857   -2.4000    0.0000 C   0  0  0  0  0  0  0  0  0  0  0  0
    2.6112   -3.4284    0.0000 H   0  0  0  0  0  0  0  0  0  0  0  0
   -0.0001   -3.1999    0.0000 C   0  0  0  0  0  0  0  0  0  0  0  0
   -0.0001   -4.8000    0.0000 H   0  0  0  0  0  0  0  0  0  0  0  0
   -1.3857   -2.4000    0.0000 C   0  0  0  0  0  0  0  0  0  0  0  0
   -2.7712   -3.1999    0.0000 O   0  0  0  0  0  0  0  0  0  0  0  0
   -2.7712   -4.8000    0.0000 H   0  0  0  0  0  0  0  0  0  0  0  0
   -1.3857   -0.8001    0.0000 C   0  0  0  0  0  0  0  0  0  0  0  0
   -2.9613   -0.5221    0.0000 C   0  0  0  0  0  0  0  0  0  0  0  0
   -2.6836    1.0535    0.0000 H   0  0  0  0  0  0  0  0  0  0  0  0
   -3.2391   -2.0978    0.0000 C   0  0  0  0  0  0  0  0  0  0  0  0
   -3.5169   -3.6736    0.0000 H   0  0  0  0  0  0  0  0  0  0  0  0
   -2.0135   -3.1263    0.0000 H   0  0  0  0  0  0  0  0  0  0  0  0
   -1.7358   -1.5506    0.0000 H   0  0  0  0  0  0  0  0  0  0  0  0
   -4.5370   -0.2444    0.0000 C   0  0  0  0  0  0  0  0  0  0  0  0
   -5.0843    1.2592    0.0000 C   0  0  0  0  0  0  0  0  0  0  0  0
   -4.0558    2.4848    0.0000 H   0  0  0  0  0  0  0  0  0  0  0  0
   -6.6599    1.5369    0.0000 C   0  0  0  0  0  0  0  0  0  0  0  0
   -7.2072    3.0405    0.0000 H   0  0  0  0  0  0  0  0  0  0  0  0
   -7.6884    0.3113    0.0000 C   0  0  0  0  0  0  0  0  0  0  0  0
   -9.2641    0.5891    0.0000 H   0  0  0  0  0  0  0  0  0  0  0  0
   -7.1412   -1.1922    0.0000 C   0  0  0  0  0  0  0  0  0  0  0  0
   -8.1697   -2.4178    0.0000 H   0  0  0  0  0  0  0  0  0  0  0  0
   -5.5655   -1.4700    0.0000 C   0  0  0  0  0  0  0  0  0  0  0  0
   -5.0183   -2.9735    0.0000 H   0  0  0  0  0  0  0  0  0  0  0  0
   -0.0001    0.0001    0.0000 C   0  0  0  0  0  0  0  0  0  0  0  0
   -0.0001    1.5999    0.0000 C   0  0  0  0  0  0  0  0  0  0  0  0
   -1.5758    1.3222    0.0000 H   0  0  0  0  0  0  0  0  0  0  0  0
    1.5756    1.8779    0.0000 C   0  0  0  0  0  0  0  0  0  0  0  0
    2.1231    0.3743    0.0000 H   0  0  0  0  0  0  0  0  0  0  0  0
    3.1756    1.8779    0.0000 H   0  0  0  0  0  0  0  0  0  0  0  0
    0.7758    0.4922    0.0000 H   0  0  0  0  0  0  0  0  0  0  0  0
   -0.2779    3.1756    0.0000 C   0  0  0  0  0  0  0  0  0  0  0  0
    0.9479    4.2041    0.0000 C   0  0  0  0  0  0  0  0  0  0  0  0
    2.4513    3.6569    0.0000 H   0  0  0  0  0  0  0  0  0  0  0  0
    0.6699    5.7799    0.0000 C   0  0  0  0  0  0  0  0  0  0  0  0
    1.8957    6.8084    0.0000 H   0  0  0  0  0  0  0  0  0  0  0  0
   -0.8334    6.3271    0.0000 C   0  0  0  0  0  0  0  0  0  0  0  0
   -1.1112    7.9028    0.0000 H   0  0  0  0  0  0  0  0  0  0  0  0
   -2.0593    5.2986    0.0000 C   0  0  0  0  0  0  0  0  0  0  0  0
   -3.5626    5.8458    0.0000 H   0  0  0  0  0  0  0  0  0  0  0  0
   -1.7812    3.7230    0.0000 C   0  0  0  0  0  0  0  0  0  0  0  0
   -3.0071    2.6945    0.0000 H   0  0  0  0  0  0  0  0  0  0  0  0
  1  2  1  0  0  0  0
  1  3  1  0  0  0  0
  1  4  1  0  0  0  0
  1  5  1  0  0  0  0
  5  6  1  0  0  0  0
  5  7  1  0  0  0  0
  7  8  1  0  0  0  0
  8  9  1  0  0  0  0
  8 10  2  0  0  0  0
 10 11  1  0  0  0  0
 10 12  1  0  0  0  0
 12 13  1  0  0  0  0
 12 14  2  0  0  0  0
 14 15  1  0  0  0  0
 14 16  1  0  0  0  0
 16  7  2  0  0  0  0
 16 17  1  0  0  0  0
  5 18  1  0  0  0  0
 18 19  1  0  0  0  0
 19 20  1  0  0  0  0
 19 21  2  0  0  0  0
 21 22  1  0  0  0  0
 21 23  1  0  0  0  0
 23 24  1  0  0  0  0
 24 25  1  0  0  0  0
 23 26  2  0  0  0  0
 26 27  1  0  0  0  0
 27 28  1  0  0  0  0
 27 29  1  0  0  0  0
 29 30  1  0  0  0  0
 29 31  1  0  0  0  0
 29 32  1  0  0  0  0
 27 33  1  0  0  0  0
 33 34  1  0  0  0  0
 34 35  1  0  0  0  0
 34 36  2  0  0  0  0
 36 37  1  0  0  0  0
 36 38  1  0  0  0  0
 38 39  1  0  0  0  0
 38 40  2  0  0  0  0
 40 41  1  0  0  0  0
 40 42  1  0  0  0  0
 42 33  2  0  0  0  0
 42 43  1  0  0  0  0
 26 44  1  0  0  0  0
 44 18  2  0  0  0  0
 44 45  1  0  0  0  0
 45 46  1  0  0  0  0
 45 47  1  0  0  0  0
 47 48  1  0  0  0  0
 47 49  1  0  0  0  0
 47 50  1  0  0  0  0
 45 51  1  0  0  0  0
 51 52  1  0  0  0  0
 52 53  1  0  0  0  0
 52 54  2  0  0  0  0
 54 55  1  0  0  0  0
 54 56  1  0  0  0  0
 56 57  1  0  0  0  0
 56 58  2  0  0  0  0
 58 59  1  0  0  0  0
 58 60  1  0  0  0  0
 60 51  2  0  0  0  0
 60 61  1  0  0  0  0
M  END
> <ChemID>
201505

> <source_casrn>


> <CAS>
25640-71-5

> <SMILES>
CC(c1ccccc1)c2ccc(O)c(C(C)c3ccccc3)c2C(C)c4ccccc4

> <NAME>


> <preferred_name>


> <iupac>


> <MPID>
101322

> <dsstox_substance_id>


> <Canonical_QSARr>
CC(c1c(C(C)c2ccccc2)c(O)ccc1C(C)c1ccccc1)c1ccccc1

> <InChI_Code_QSARr>
InChI=1S/C30H30O/c1-21(24-13-7-4-8-14-24)27-19-20-28(31)30(23(3)26-17-11-6-12-18-26)29(27)22(2)25-15-9-5-10-16-25/h4-23,31H,1-3H3

> <InChI Key_QSARr>
SFJOBYZKUSLNIG-UHFFFAOYSA-N

> <Salt_Solvent>


> <Ready_Biodeg>
0.0

$$$$
201509
  -INDIGO-08031722522D

 30 31  0  0  0  0  0  0  0  0999 V2000
    1.2368    1.0150    0.0000 C   0  0  0  0  0  0  0  0  0  0  0  0
    2.4736    2.0301    0.0000 H   0  0  0  0  0  0  0  0  0  0  0  0
    2.7342    0.4516    0.0000 H   0  0  0  0  0  0  0  0  0  0  0  0
    0.9761    2.5937    0.0000 H   0  0  0  0  0  0  0  0  0  0  0  0
   -0.0000    0.0001    0.0000 C   0  0  0  0  0  0  0  0  0  0  0  0
    0.4808   -1.5261    0.0000 C   0  0  0  0  0  0  0  0  0  0  0  0
    2.0427   -1.8728    0.0000 H   0  0  0  0  0  0  0  0  0  0  0  0
    0.9616   -3.0521    0.0000 H   0  0  0  0  0  0  0  0  0  0  0  0
    1.5620   -0.3467    0.0000 H   0  0  0  0  0  0  0  0  0  0  0  0
   -1.5908    0.1225    0.0000 C   0  0  0  0  0  0  0  0  0  0  0  0
   -1.0548   -1.3851    0.0000 H   0  0  0  0  0  0  0  0  0  0  0  0
   -2.7945   -1.0216    0.0000 C   0  0  0  0  0  0  0  0  0  0  0  0
   -3.2684   -2.5498    0.0000 H   0  0  0  0  0  0  0  0  0  0  0  0
   -1.6025   -2.0889    0.0000 H   0  0  0  0  0  0  0  0  0  0  0  0
   -4.2510   -0.9552    0.0000 C   0  0  0  0  0  0  0  0  0  0  0  0
   -5.0111   -1.2940    0.0000 H   0  0  0  0  0  0  0  0  0  0  0  0
   -4.3953   -2.5486    0.0000 H   0  0  0  0  0  0  0  0  0  0  0  0
   -3.9895    0.4855    0.0000 C   0  0  0  0  0  0  0  0  0  0  0  0
   -5.5236    0.0312    0.0000 C   0  0  0  0  0  0  0  0  0  0  0  0
   -6.9554   -0.6828    0.0000 H   0  0  0  0  0  0  0  0  0  0  0  0
   -6.8578    0.9142    0.0000 H   0  0  0  0  0  0  0  0  0  0  0  0
   -5.8365   -0.7399    0.0000 H   0  0  0  0  0  0  0  0  0  0  0  0
   -4.6221    1.9552    0.0000 O   0  0  0  0  0  0  0  0  0  0  0  0
   -6.2113    2.1420    0.0000 O   0  0  0  0  0  0  0  0  0  0  0  0
   -6.8439    3.6115    0.0000 H   0  0  0  0  0  0  0  0  0  0  0  0
   -2.7654    1.5159    0.0000 C   0  0  0  0  0  0  0  0  0  0  0  0
   -3.9800    2.5575    0.0000 H   0  0  0  0  0  0  0  0  0  0  0  0
   -1.9204    2.9050    0.0000 C   0  0  0  0  0  0  0  0  0  0  0  0
   -0.4594    3.5575    0.0000 H   0  0  0  0  0  0  0  0  0  0  0  0
   -2.9780    4.1057    0.0000 H   0  0  0  0  0  0  0  0  0  0  0  0
  1  2  1  0  0  0  0
  1  3  1  0  0  0  0
  1  4  1  0  0  0  0
  1  5  1  0  0  0  0
  5  6  1  0  0  0  0
  6  7  1  0  0  0  0
  6  8  1  0  0  0  0
  6  9  1  0  0  0  0
  5 10  1  0  0  0  0
 10 11  1  0  0  0  0
 10 12  1  0  0  0  0
 12 13  1  0  0  0  0
 12 14  1  0  0  0  0
 12 15  1  0  0  0  0
 15 16  1  0  0  0  0
 15 17  1  0  0  0  0
 15 18  1  0  0  0  0
 18 19  1  0  0  0  0
 19 20  1  0  0  0  0
 19 21  1  0  0  0  0
 19 22  1  0  0  0  0
 18 23  1  0  0  0  0
 23 24  1  0  0  0  0
 24 25  1  0  0  0  0
 18 26  1  0  0  0  0
 26  5  1  0  0  0  0
 26 27  1  0  0  0  0
 26 28  1  0  0  0  0
 28 10  1  0  0  0  0
 28 29  1  0  0  0  0
 28 30  1  0  0  0  0
M  END
> <ChemID>
201509

> <source_casrn>
5405-84-5

> <CAS>
5405-84-5

> <SMILES>
CC1(C)C2CCC(C)(OO)C1C2

> <NAME>


> <preferred_name>
pinanylhydroperoxide

> <iupac>
C10H18O2

> <MPID>
101324

> <dsstox_substance_id>
DTXSID20277954

> <Canonical_QSARr>
CC1(C)C2CC1CCC2(C)OO

> <InChI_Code_QSARr>
InChI=1S/C10H18O2/c1-9(2)7-4-5-10(3,12-11)8(9)6-7/h7-8,11H,4-6H2,1-3H3

> <InChI Key_QSARr>
QMQTYHMGPDPPPW-UHFFFAOYSA-N

> <Salt_Solvent>


> <Ready_Biodeg>
0.0

$$$$
201512
  -INDIGO-08031722522D

 34 34  0  0  0  0  0  0  0  0999 V2000
    4.3469    0.2779    0.0000 C   0  0  0  0  0  0  0  0  0  0  0  0
    5.9227    0.5557    0.0000 H   0  0  0  0  0  0  0  0  0  0  0  0
    5.3754   -0.9479    0.0000 H   0  0  0  0  0  0  0  0  0  0  0  0
    5.3754    1.5035    0.0000 H   0  0  0  0  0  0  0  0  0  0  0  0
    2.7713    0.0000    0.0000 C   0  0  0  0  0  0  0  0  0  0  0  0
    3.3185   -1.5036    0.0000 C   0  0  0  0  0  0  0  0  0  0  0  0
    4.8941   -1.7814    0.0000 H   0  0  0  0  0  0  0  0  0  0  0  0
    3.8658   -3.0070    0.0000 H   0  0  0  0  0  0  0  0  0  0  0  0
    2.7713   -3.0070    0.0000 H   0  0  0  0  0  0  0  0  0  0  0  0
    2.7713    1.6000    0.0000 C   0  0  0  0  0  0  0  0  0  0  0  0
    4.3469    1.3221    0.0000 H   0  0  0  0  0  0  0  0  0  0  0  0
    3.3185    3.1035    0.0000 H   0  0  0  0  0  0  0  0  0  0  0  0
    1.3856    2.4000    0.0000 C   0  0  0  0  0  0  0  0  0  0  0  0
    0.3572    3.6257    0.0000 H   0  0  0  0  0  0  0  0  0  0  0  0
    1.9328    3.9036    0.0000 N   0  0  0  0  0  0  0  0  0  0  0  0
    0.9045    5.1292    0.0000 H   0  0  0  0  0  0  0  0  0  0  0  0
    3.5086    4.1813    0.0000 H   0  0  0  0  0  0  0  0  0  0  0  0
    0.0001    1.6000    0.0000 C   0  0  0  0  0  0  0  0  0  0  0  0
   -0.5472    3.1035    0.0000 H   0  0  0  0  0  0  0  0  0  0  0  0
   -1.5757    1.3221    0.0000 H   0  0  0  0  0  0  0  0  0  0  0  0
    0.0001    0.0000    0.0000 C   0  0  0  0  0  0  0  0  0  0  0  0
   -0.5472   -1.5036    0.0000 C   0  0  0  0  0  0  0  0  0  0  0  0
   -1.0944   -3.0070    0.0000 H   0  0  0  0  0  0  0  0  0  0  0  0
    0.0001   -3.0070    0.0000 H   0  0  0  0  0  0  0  0  0  0  0  0
   -1.9329   -2.3035    0.0000 H   0  0  0  0  0  0  0  0  0  0  0  0
   -1.5757    0.2779    0.0000 C   0  0  0  0  0  0  0  0  0  0  0  0
   -2.6566   -0.9018    0.0000 H   0  0  0  0  0  0  0  0  0  0  0  0
   -1.5059   -1.3207    0.0000 H   0  0  0  0  0  0  0  0  0  0  0  0
   -2.6041    1.5035    0.0000 N   0  0  0  0  0  0  0  0  0  0  0  0
   -4.1798    1.2256    0.0000 H   0  0  0  0  0  0  0  0  0  0  0  0
   -2.0570    3.0071    0.0000 H   0  0  0  0  0  0  0  0  0  0  0  0
    1.3856   -0.8000    0.0000 C   0  0  0  0  0  0  0  0  0  0  0  0
    0.3572   -2.0257    0.0000 H   0  0  0  0  0  0  0  0  0  0  0  0
    2.4141   -2.0257    0.0000 H   0  0  0  0  0  0  0  0  0  0  0  0
  1  2  1  0  0  0  0
  1  3  1  0  0  0  0
  1  4  1  0  0  0  0
  1  5  1  0  0  0  0
  5  6  1  0  0  0  0
  6  7  1  0  0  0  0
  6  8  1  0  0  0  0
  6  9  1  0  0  0  0
  5 10  1  0  0  0  0
 10 11  1  0  0  0  0
 10 12  1  0  0  0  0
 10 13  1  0  0  0  0
 13 14  1  0  0  0  0
 13 15  1  0  0  0  0
 15 16  1  0  0  0  0
 15 17  1  0  0  0  0
 13 18  1  0  0  0  0
 18 19  1  0  0  0  0
 18 20  1  0  0  0  0
 18 21  1  0  0  0  0
 21 22  1  0  0  0  0
 22 23  1  0  0  0  0
 22 24  1  0  0  0  0
 22 25  1  0  0  0  0
 21 26  1  0  0  0  0
 26 27  1  0  0  0  0
 26 28  1  0  0  0  0
 26 29  1  0  0  0  0
 29 30  1  0  0  0  0
 29 31  1  0  0  0  0
 21 32  1  0  0  0  0
 32  5  1  0  0  0  0
 32 33  1  0  0  0  0
 32 34  1  0  0  0  0
M  END
> <ChemID>
201512

> <source_casrn>
2855-13-2

> <CAS>
2855-13-2

> <SMILES>
CC1(C)CC(N)CC(C)(CN)C1

> <NAME>


> <preferred_name>
Isophorone diamine

> <iupac>
3-(aminomethyl)-3,5,5-trimethylcyclohexanamine

> <MPID>
101326

> <dsstox_substance_id>
DTXSID6027503

> <Canonical_QSARr>
CC1(C)CC(N)CC(C)(C1)CN

> <InChI_Code_QSARr>
InChI=1S/C10H22N2/c1-9(2)4-8(12)5-10(3,6-9)7-11/h8H,4-7,11-12H2,1-3H3

> <InChI Key_QSARr>
RNLHGQLZWXBQNY-UHFFFAOYSA-N

> <Salt_Solvent>


> <Ready_Biodeg>
0.0

$$$$
201513
  -INDIGO-08031722522D

 30 30  0  0  0  0  0  0  0  0999 V2000
    1.2257    1.0284    0.0000 C   0  0  0  0  0  0  0  0  0  0  0  0
    2.4513    2.0570    0.0000 H   0  0  0  0  0  0  0  0  0  0  0  0
    2.7292    0.4812    0.0000 H   0  0  0  0  0  0  0  0  0  0  0  0
    1.5036    2.6041    0.0000 H   0  0  0  0  0  0  0  0  0  0  0  0
   -0.0000   -0.0000    0.0000 C   0  0  0  0  0  0  0  0  0  0  0  0
    1.2257   -1.0284    0.0000 C   0  0  0  0  0  0  0  0  0  0  0  0
    2.4513   -2.0569    0.0000 H   0  0  0  0  0  0  0  0  0  0  0  0
    2.7292   -0.4813    0.0000 H   0  0  0  0  0  0  0  0  0  0  0  0
    0.9479   -2.6042    0.0000 H   0  0  0  0  0  0  0  0  0  0  0  0
   -0.8000    1.3857    0.0000 C   0  0  0  0  0  0  0  0  0  0  0  0
    0.7035    1.9328    0.0000 H   0  0  0  0  0  0  0  0  0  0  0  0
   -1.0779    2.9614    0.0000 H   0  0  0  0  0  0  0  0  0  0  0  0
   -2.4000    1.3857    0.0000 C   0  0  0  0  0  0  0  0  0  0  0  0
   -2.1221    2.9614    0.0000 H   0  0  0  0  0  0  0  0  0  0  0  0
   -3.9036    1.9328    0.0000 O   0  0  0  0  0  0  0  0  0  0  0  0
   -4.1814    3.5086    0.0000 H   0  0  0  0  0  0  0  0  0  0  0  0
   -3.2000   -0.0000    0.0000 C   0  0  0  0  0  0  0  0  0  0  0  0
   -4.4257    1.0284    0.0000 H   0  0  0  0  0  0  0  0  0  0  0  0
   -4.4257   -1.0284    0.0000 H   0  0  0  0  0  0  0  0  0  0  0  0
   -2.4000   -1.3857    0.0000 C   0  0  0  0  0  0  0  0  0  0  0  0
   -3.9036   -1.9329    0.0000 C   0  0  0  0  0  0  0  0  0  0  0  0
   -5.4070   -2.4800    0.0000 H   0  0  0  0  0  0  0  0  0  0  0  0
   -4.1814   -3.5086    0.0000 H   0  0  0  0  0  0  0  0  0  0  0  0
   -5.4070   -1.3857    0.0000 H   0  0  0  0  0  0  0  0  0  0  0  0
   -2.1221   -2.9613    0.0000 C   0  0  0  0  0  0  0  0  0  0  0  0
   -1.8443   -4.5370    0.0000 H   0  0  0  0  0  0  0  0  0  0  0  0
   -3.3479   -3.9898    0.0000 H   0  0  0  0  0  0  0  0  0  0  0  0
   -0.6187   -3.5086    0.0000 H   0  0  0  0  0  0  0  0  0  0  0  0
   -0.8000   -1.3857    0.0000 N   0  0  0  0  0  0  0  0  0  0  0  0
   -0.0000   -2.7713    0.0000 H   0  0  0  0  0  0  0  0  0  0  0  0
  1  2  1  0  0  0  0
  1  3  1  0  0  0  0
  1  4  1  0  0  0  0
  1  5  1  0  0  0  0
  5  6  1  0  0  0  0
  6  7  1  0  0  0  0
  6  8  1  0  0  0  0
  6  9  1  0  0  0  0
  5 10  1  0  0  0  0
 10 11  1  0  0  0  0
 10 12  1  0  0  0  0
 10 13  1  0  0  0  0
 13 14  1  0  0  0  0
 13 15  1  0  0  0  0
 15 16  1  0  0  0  0
 13 17  1  0  0  0  0
 17 18  1  0  0  0  0
 17 19  1  0  0  0  0
 17 20  1  0  0  0  0
 20 21  1  0  0  0  0
 21 22  1  0  0  0  0
 21 23  1  0  0  0  0
 21 24  1  0  0  0  0
 20 25  1  0  0  0  0
 25 26  1  0  0  0  0
 25 27  1  0  0  0  0
 25 28  1  0  0  0  0
 20 29  1  0  0  0  0
 29  5  1  0  0  0  0
 29 30  1  0  0  0  0
M  END
> <ChemID>
201513

> <source_casrn>
2403-88-5

> <CAS>
2403-88-5

> <SMILES>
CC1(C)CC(O)CC(C)(C)N1

> <NAME>


> <preferred_name>
2,2,6,6-Tetramethyl- 4-piperidinol

> <iupac>
2,2,6,6-tetramethylpiperidin-4-ol

> <MPID>
101327

> <dsstox_substance_id>
DTXSID3029655

> <Canonical_QSARr>
CC1(C)CC(O)CC(C)(C)N1

> <InChI_Code_QSARr>
InChI=1S/C9H19NO/c1-8(2)5-7(11)6-9(3,4)10-8/h7,10-11H,5-6H2,1-4H3

> <InChI Key_QSARr>
VDVUCLWJZJHFAV-UHFFFAOYSA-N

> <Salt_Solvent>


> <Ready_Biodeg>
0.0

$$$$
201517
  -INDIGO-08031722522D

 35 36  0  0  0  0  0  0  0  0999 V2000
    9.6000   -2.7712    0.0000 C   0  0  0  0  0  0  0  0  0  0  0  0
   11.2000   -2.7712    0.0000 H   0  0  0  0  0  0  0  0  0  0  0  0
   10.4000   -4.1569    0.0000 H   0  0  0  0  0  0  0  0  0  0  0  0
   10.4000   -1.3856    0.0000 H   0  0  0  0  0  0  0  0  0  0  0  0
    7.9999   -2.7712    0.0000 C   0  0  0  0  0  0  0  0  0  0  0  0
    7.7912   -4.3576    0.0000 H   0  0  0  0  0  0  0  0  0  0  0  0
    6.7306   -3.7453    0.0000 H   0  0  0  0  0  0  0  0  0  0  0  0
    7.2001   -1.3856    0.0000 O   0  0  0  0  0  0  0  0  0  0  0  0
    5.6001   -1.3856    0.0000 C   0  0  0  0  0  0  0  0  0  0  0  0
    4.8000   -2.7712    0.0000 C   0  0  0  0  0  0  0  0  0  0  0  0
    5.6001   -4.1569    0.0000 H   0  0  0  0  0  0  0  0  0  0  0  0
    3.2000   -2.7712    0.0000 C   0  0  0  0  0  0  0  0  0  0  0  0
    2.4000   -4.1569    0.0000 H   0  0  0  0  0  0  0  0  0  0  0  0
    2.4000   -1.3856    0.0000 C   0  0  0  0  0  0  0  0  0  0  0  0
    0.7999   -1.3856    0.0000 N   0  0  0  0  0  0  0  0  0  0  0  0
   -0.0001   -2.7712    0.0000 H   0  0  0  0  0  0  0  0  0  0  0  0
   -0.0001    0.0000    0.0000 C   0  0  0  0  0  0  0  0  0  0  0  0
   -1.2256    1.0285    0.0000 C   0  0  0  0  0  0  0  0  0  0  0  0
   -2.4514    2.0570    0.0000 H   0  0  0  0  0  0  0  0  0  0  0  0
   -2.7292    0.4813    0.0000 H   0  0  0  0  0  0  0  0  0  0  0  0
   -0.9478    2.6042    0.0000 H   0  0  0  0  0  0  0  0  0  0  0  0
   -1.2256   -1.0284    0.0000 C   0  0  0  0  0  0  0  0  0  0  0  0
   -2.4514   -2.0569    0.0000 H   0  0  0  0  0  0  0  0  0  0  0  0
   -2.7292   -0.4812    0.0000 H   0  0  0  0  0  0  0  0  0  0  0  0
   -0.9478   -2.6042    0.0000 H   0  0  0  0  0  0  0  0  0  0  0  0
    0.7999    1.3857    0.0000 C   0  0  0  0  0  0  0  0  0  0  0  0
   -0.0001    2.7713    0.0000 H   0  0  0  0  0  0  0  0  0  0  0  0
    2.4000    1.3857    0.0000 C   0  0  0  0  0  0  0  0  0  0  0  0
    3.2000    2.7713    0.0000 C   0  0  0  0  0  0  0  0  0  0  0  0
    4.0000    4.1569    0.0000 H   0  0  0  0  0  0  0  0  0  0  0  0
    2.4000    4.1569    0.0000 H   0  0  0  0  0  0  0  0  0  0  0  0
    4.8000    2.7713    0.0000 H   0  0  0  0  0  0  0  0  0  0  0  0
    3.2000    0.0000    0.0000 C   0  0  0  0  0  0  0  0  0  0  0  0
    4.8000    0.0000    0.0000 C   0  0  0  0  0  0  0  0  0  0  0  0
    5.6001    1.3857    0.0000 H   0  0  0  0  0  0  0  0  0  0  0  0
  1  2  1  0  0  0  0
  1  3  1  0  0  0  0
  1  4  1  0  0  0  0
  1  5  1  0  0  0  0
  5  6  1  0  0  0  0
  5  7  1  0  0  0  0
  5  8  1  0  0  0  0
  8  9  1  0  0  0  0
  9 10  1  0  0  0  0
 10 11  1  0  0  0  0
 10 12  2  0  0  0  0
 12 13  1  0  0  0  0
 12 14  1  0  0  0  0
 14 15  1  0  0  0  0
 15 16  1  0  0  0  0
 15 17  1  0  0  0  0
 17 18  1  0  0  0  0
 18 19  1  0  0  0  0
 18 20  1  0  0  0  0
 18 21  1  0  0  0  0
 17 22  1  0  0  0  0
 22 23  1  0  0  0  0
 22 24  1  0  0  0  0
 22 25  1  0  0  0  0
 17 26  1  0  0  0  0
 26 27  1  0  0  0  0
 26 28  2  0  0  0  0
 28 29  1  0  0  0  0
 29 30  1  0  0  0  0
 29 31  1  0  0  0  0
 29 32  1  0  0  0  0
 28 33  1  0  0  0  0
 33 14  2  0  0  0  0
 33 34  1  0  0  0  0
 34  9  2  0  0  0  0
 34 35  1  0  0  0  0
M  END
> <ChemID>
201517

> <source_casrn>
91-53-2

> <CAS>
91-53-2

> <SMILES>
CCOc1ccc2NC(C)(C)C=C(C)c2c1

> <NAME>


> <preferred_name>
Ethoxyquin

> <iupac>
6-ethoxy-2,2,4-trimethyl-1,2-dihydroquinoline

> <MPID>
101329

> <dsstox_substance_id>
DTXSID9020582

> <Canonical_QSARr>
CC1=CC(C)(C)Nc2ccc(cc12)OCC

> <InChI_Code_QSARr>
InChI=1S/C14H19NO/c1-5-16-11-6-7-13-12(8-11)10(2)9-14(3,4)15-13/h6-9,15H,5H2,1-4H3

> <InChI Key_QSARr>
DECIPOUIJURFOJ-UHFFFAOYSA-N

> <Salt_Solvent>


> <Ready_Biodeg>
0.0

$$$$
201519
  -INDIGO-08031722522D

 23 25  0  0  0  0  0  0  0  0999 V2000
    2.8161   -0.4461    0.0000 C   0  0  0  0  0  0  0  0  0  0  0  0
    4.3378    0.0484    0.0000 H   0  0  0  0  0  0  0  0  0  0  0  0
    3.1488    1.1190    0.0000 H   0  0  0  0  0  0  0  0  0  0  0  0
    4.0051   -1.5167    0.0000 H   0  0  0  0  0  0  0  0  0  0  0  0
    1.2945   -0.9405    0.0000 C   0  0  0  0  0  0  0  0  0  0  0  0
    0.7999   -2.4621    0.0000 C   0  0  0  0  0  0  0  0  0  0  0  0
    1.7404   -3.7566    0.0000 H   0  0  0  0  0  0  0  0  0  0  0  0
   -0.8000   -2.4621    0.0000 C   0  0  0  0  0  0  0  0  0  0  0  0
   -1.2944   -3.9838    0.0000 H   0  0  0  0  0  0  0  0  0  0  0  0
    0.4945   -1.5217    0.0000 C   0  0  0  0  0  0  0  0  0  0  0  0
    2.0905   -1.4101    0.0000 H   0  0  0  0  0  0  0  0  0  0  0  0
    1.8801   -2.3217    0.0000 H   0  0  0  0  0  0  0  0  0  0  0  0
   -0.0001    0.0000    0.0000 C   0  0  0  0  0  0  0  0  0  0  0  0
    0.4945    1.5217    0.0000 H   0  0  0  0  0  0  0  0  0  0  0  0
   -1.6000    0.0000    0.0000 C   0  0  0  0  0  0  0  0  0  0  0  0
   -1.1056    1.5217    0.0000 H   0  0  0  0  0  0  0  0  0  0  0  0
   -2.0944   -1.5217    0.0000 C   0  0  0  0  0  0  0  0  0  0  0  0
   -2.5888   -3.0433    0.0000 H   0  0  0  0  0  0  0  0  0  0  0  0
   -3.6944   -1.5217    0.0000 C   0  0  0  0  0  0  0  0  0  0  0  0
   -4.6349   -2.8162    0.0000 O   0  0  0  0  0  0  0  0  0  0  0  0
   -4.1888    0.0000    0.0000 O   0  0  0  0  0  0  0  0  0  0  0  0
   -2.8944    0.9404    0.0000 C   0  0  0  0  0  0  0  0  0  0  0  0
   -2.8944    2.5405    0.0000 O   0  0  0  0  0  0  0  0  0  0  0  0
  1  2  1  0  0  0  0
  1  3  1  0  0  0  0
  1  4  1  0  0  0  0
  1  5  1  0  0  0  0
  5  6  2  0  0  0  0
  6  7  1  0  0  0  0
  6  8  1  0  0  0  0
  8  9  1  0  0  0  0
  8 10  1  0  0  0  0
 10 11  1  0  0  0  0
 10 12  1  0  0  0  0
 10 13  1  0  0  0  0
 13  5  1  0  0  0  0
 13 14  1  0  0  0  0
 13 15  1  0  0  0  0
 15 16  1  0  0  0  0
 15 17  1  0  0  0  0
 17  8  1  0  0  0  0
 17 18  1  0  0  0  0
 17 19  1  0  0  0  0
 19 20  2  0  0  0  0
 19 21  1  0  0  0  0
 21 22  1  0  0  0  0
 22 15  1  0  0  0  0
 22 23  2  0  0  0  0
M  END
> <ChemID>
201519

> <source_casrn>
25134-21-8

> <CAS>
25134-21-8

> <SMILES>
CC1=CC2CC1C3C2C(=O)OC3=O

> <NAME>


> <preferred_name>


> <iupac>


> <MPID>
101331

> <dsstox_substance_id>
DTXSID6027844

> <Canonical_QSARr>
CC1=CC2CC1C1C2C(=O)OC1=O

> <InChI_Code_QSARr>
InChI=1S/C10H10O3/c1-4-2-5-3-6(4)8-7(5)9(11)13-10(8)12/h2,5-8H,3H2,1H3

> <InChI Key_QSARr>
JIYNFFGKZCOPKN-UHFFFAOYSA-N

> <Salt_Solvent>


> <Ready_Biodeg>
0.0

$$$$
201520
  -INDIGO-08031722522D

 26 27  0  0  0  0  0  0  0  0999 V2000
    5.3736    1.2881    0.0000 C   0  0  0  0  0  0  0  0  0  0  0  0
    6.7578    2.0905    0.0000 H   0  0  0  0  0  0  0  0  0  0  0  0
    6.7607    0.4906    0.0000 H   0  0  0  0  0  0  0  0  0  0  0  0
    5.3709    2.8881    0.0000 H   0  0  0  0  0  0  0  0  0  0  0  0
    3.9894    0.4855    0.0000 C   0  0  0  0  0  0  0  0  0  0  0  0
    4.2510   -0.9552    0.0000 C   0  0  0  0  0  0  0  0  0  0  0  0
    5.5024   -1.9523    0.0000 H   0  0  0  0  0  0  0  0  0  0  0  0
    2.7945   -1.0216    0.0000 C   0  0  0  0  0  0  0  0  0  0  0  0
    3.2684   -2.5498    0.0000 H   0  0  0  0  0  0  0  0  0  0  0  0
    1.8060   -2.2796    0.0000 H   0  0  0  0  0  0  0  0  0  0  0  0
    1.5908    0.1225    0.0000 C   0  0  0  0  0  0  0  0  0  0  0  0
    1.0549   -1.3851    0.0000 H   0  0  0  0  0  0  0  0  0  0  0  0
    1.9203    2.9050    0.0000 C   0  0  0  0  0  0  0  0  0  0  0  0
    0.4594    3.5575    0.0000 H   0  0  0  0  0  0  0  0  0  0  0  0
    2.9779    4.1057    0.0000 H   0  0  0  0  0  0  0  0  0  0  0  0
    2.7654    1.5159    0.0000 C   0  0  0  0  0  0  0  0  0  0  0  0
    3.9800    2.5575    0.0000 H   0  0  0  0  0  0  0  0  0  0  0  0
    0.0000    0.0001    0.0000 C   0  0  0  0  0  0  0  0  0  0  0  0
   -0.4807   -1.5261    0.0000 C   0  0  0  0  0  0  0  0  0  0  0  0
   -2.0427   -1.8728    0.0000 H   0  0  0  0  0  0  0  0  0  0  0  0
   -0.9616   -3.0521    0.0000 H   0  0  0  0  0  0  0  0  0  0  0  0
   -1.5620   -0.3467    0.0000 H   0  0  0  0  0  0  0  0  0  0  0  0
   -1.2367    1.0150    0.0000 C   0  0  0  0  0  0  0  0  0  0  0  0
   -2.4736    2.0301    0.0000 H   0  0  0  0  0  0  0  0  0  0  0  0
   -0.9761    2.5937    0.0000 H   0  0  0  0  0  0  0  0  0  0  0  0
   -2.7342    0.4516    0.0000 H   0  0  0  0  0  0  0  0  0  0  0  0
  1  2  1  0  0  0  0
  1  3  1  0  0  0  0
  1  4  1  0  0  0  0
  1  5  1  0  0  0  0
  5  6  2  0  0  0  0
  6  7  1  0  0  0  0
  6  8  1  0  0  0  0
  8  9  1  0  0  0  0
  8 10  1  0  0  0  0
  8 11  1  0  0  0  0
 11 12  1  0  0  0  0
 11 13  1  0  0  0  0
 13 14  1  0  0  0  0
 13 15  1  0  0  0  0
 13 16  1  0  0  0  0
 16  5  1  0  0  0  0
 16 17  1  0  0  0  0
 16 18  1  0  0  0  0
 18 11  1  0  0  0  0
 18 19  1  0  0  0  0
 19 20  1  0  0  0  0
 19 21  1  0  0  0  0
 19 22  1  0  0  0  0
 18 23  1  0  0  0  0
 23 24  1  0  0  0  0
 23 25  1  0  0  0  0
 23 26  1  0  0  0  0
M  END
> <ChemID>
201520

> <source_casrn>
80-56-8

> <CAS>
80-56-8

> <SMILES>
CC1=CCC2CC1C2(C)C

> <NAME>


> <preferred_name>
alpha-Pinene

> <iupac>
2,6,6-trimethylbicyclo[3.1.1]hept-2-ene

> <MPID>
101332

> <dsstox_substance_id>
DTXSID4026501

> <Canonical_QSARr>
CC1=CCC2CC1C2(C)C

> <InChI_Code_QSARr>
InChI=1S/C10H16/c1-7-4-5-8-6-9(7)10(8,2)3/h4,8-9H,5-6H2,1-3H3

> <InChI Key_QSARr>
GRWFGVWFFZKLTI-UHFFFAOYSA-N

> <Salt_Solvent>


> <Ready_Biodeg>
1.0

$$$$
201521
  -INDIGO-08031722522D

 26 26  0  0  0  0  0  0  0  0999 V2000
    3.6256    2.4141    0.0000 C   0  0  0  0  0  0  0  0  0  0  0  0
    4.8513    3.4426    0.0000 H   0  0  0  0  0  0  0  0  0  0  0  0
    3.3478    3.9898    0.0000 H   0  0  0  0  0  0  0  0  0  0  0  0
    5.1292    1.8669    0.0000 H   0  0  0  0  0  0  0  0  0  0  0  0
    2.4000    1.3856    0.0000 C   0  0  0  0  0  0  0  0  0  0  0  0
    2.1222    2.9614    0.0000 H   0  0  0  0  0  0  0  0  0  0  0  0
    3.2001   -0.0000    0.0000 C   0  0  0  0  0  0  0  0  0  0  0  0
    4.4257    1.0285    0.0000 H   0  0  0  0  0  0  0  0  0  0  0  0
    4.4257   -1.0285    0.0000 H   0  0  0  0  0  0  0  0  0  0  0  0
    2.4000   -1.3856    0.0000 C   0  0  0  0  0  0  0  0  0  0  0  0
    3.2001   -2.7713    0.0000 O   0  0  0  0  0  0  0  0  0  0  0  0
    0.8000   -1.3856    0.0000 C   0  0  0  0  0  0  0  0  0  0  0  0
    1.0779   -2.9613    0.0000 H   0  0  0  0  0  0  0  0  0  0  0  0
   -0.7035   -1.9329    0.0000 H   0  0  0  0  0  0  0  0  0  0  0  0
    0.0000   -0.0000    0.0000 C   0  0  0  0  0  0  0  0  0  0  0  0
   -1.2256   -1.0285    0.0000 C   0  0  0  0  0  0  0  0  0  0  0  0
   -2.4513   -2.0569    0.0000 H   0  0  0  0  0  0  0  0  0  0  0  0
   -2.7292   -0.4813    0.0000 H   0  0  0  0  0  0  0  0  0  0  0  0
   -1.5035   -2.6042    0.0000 H   0  0  0  0  0  0  0  0  0  0  0  0
   -1.2256    1.0285    0.0000 C   0  0  0  0  0  0  0  0  0  0  0  0
   -2.4513    2.0569    0.0000 H   0  0  0  0  0  0  0  0  0  0  0  0
   -2.7292    0.4812    0.0000 H   0  0  0  0  0  0  0  0  0  0  0  0
   -1.5035    2.6041    0.0000 H   0  0  0  0  0  0  0  0  0  0  0  0
    0.8000    1.3856    0.0000 C   0  0  0  0  0  0  0  0  0  0  0  0
   -0.7035    1.9328    0.0000 H   0  0  0  0  0  0  0  0  0  0  0  0
    1.0779    2.9614    0.0000 H   0  0  0  0  0  0  0  0  0  0  0  0
  1  2  1  0  0  0  0
  1  3  1  0  0  0  0
  1  4  1  0  0  0  0
  1  5  1  0  0  0  0
  5  6  1  0  0  0  0
  5  7  1  0  0  0  0
  7  8  1  0  0  0  0
  7  9  1  0  0  0  0
  7 10  1  0  0  0  0
 10 11  2  0  0  0  0
 10 12  1  0  0  0  0
 12 13  1  0  0  0  0
 12 14  1  0  0  0  0
 12 15  1  0  0  0  0
 15 16  1  0  0  0  0
 16 17  1  0  0  0  0
 16 18  1  0  0  0  0
 16 19  1  0  0  0  0
 15 20  1  0  0  0  0
 20 21  1  0  0  0  0
 20 22  1  0  0  0  0
 20 23  1  0  0  0  0
 15 24  1  0  0  0  0
 24  5  1  0  0  0  0
 24 25  1  0  0  0  0
 24 26  1  0  0  0  0
M  END
> <ChemID>
201521

> <source_casrn>
873-94-9

> <CAS>
873-94-9

> <SMILES>
CC1CC(=O)CC(C)(C)C1

> <NAME>


> <preferred_name>
3,3,5-Trimethylcyclohexanone

> <iupac>
3,3,5-trimethylcyclohexanone

> <MPID>
101333

> <dsstox_substance_id>
DTXSID5044996

> <Canonical_QSARr>
CC1CC(=O)CC(C)(C)C1

> <InChI_Code_QSARr>
InChI=1S/C9H16O/c1-7-4-8(10)6-9(2,3)5-7/h7H,4-6H2,1-3H3

> <InChI Key_QSARr>
POSWICCRDBKBMH-UHFFFAOYSA-N

> <Salt_Solvent>


> <Ready_Biodeg>
0.0

$$$$
201525
  -INDIGO-08031722522D

 47 48  0  0  0  0  0  0  0  0999 V2000
    4.1076   -1.4951    0.0000 C   0  0  0  0  0  0  0  0  0  0  0  0
    5.6112   -2.0423    0.0000 H   0  0  0  0  0  0  0  0  0  0  0  0
    4.3855   -3.0707    0.0000 H   0  0  0  0  0  0  0  0  0  0  0  0
    5.3333   -0.4667    0.0000 H   0  0  0  0  0  0  0  0  0  0  0  0
    2.6042   -0.9479    0.0000 C   0  0  0  0  0  0  0  0  0  0  0  0
    2.6042   -2.5478    0.0000 H   0  0  0  0  0  0  0  0  0  0  0  0
    1.0284   -1.2256    0.0000 C   0  0  0  0  0  0  0  0  0  0  0  0
    1.5758   -2.7292    0.0000 H   0  0  0  0  0  0  0  0  0  0  0  0
    0.4975   -1.7068    0.0000 H   0  0  0  0  0  0  0  0  0  0  0  0
   -0.0000    0.0001    0.0000 C   0  0  0  0  0  0  0  0  0  0  0  0
   -1.2257    1.0285    0.0000 H   0  0  0  0  0  0  0  0  0  0  0  0
   -1.0285   -1.2256    0.0000 C   0  0  0  0  0  0  0  0  0  0  0  0
   -1.0982   -2.8242    0.0000 H   0  0  0  0  0  0  0  0  0  0  0  0
   -0.5780   -1.7829    0.0000 H   0  0  0  0  0  0  0  0  0  0  0  0
   -2.6042   -0.9479    0.0000 C   0  0  0  0  0  0  0  0  0  0  0  0
   -2.0569    0.5557    0.0000 H   0  0  0  0  0  0  0  0  0  0  0  0
   -2.6042   -2.5478    0.0000 C   0  0  0  0  0  0  0  0  0  0  0  0
   -1.1006   -2.0006    0.0000 H   0  0  0  0  0  0  0  0  0  0  0  0
   -2.0569   -4.0514    0.0000 H   0  0  0  0  0  0  0  0  0  0  0  0
   -3.9898   -3.3478    0.0000 C   0  0  0  0  0  0  0  0  0  0  0  0
   -2.9613   -4.5735    0.0000 H   0  0  0  0  0  0  0  0  0  0  0  0
   -5.0182   -4.5735    0.0000 H   0  0  0  0  0  0  0  0  0  0  0  0
   -5.3755   -2.5478    0.0000 C   0  0  0  0  0  0  0  0  0  0  0  0
   -6.9511   -2.2700    0.0000 H   0  0  0  0  0  0  0  0  0  0  0  0
   -5.9227   -4.0514    0.0000 N   0  0  0  0  0  0  0  0  0  0  0  0
   -7.4985   -4.3291    0.0000 H   0  0  0  0  0  0  0  0  0  0  0  0
   -5.1227   -5.4370    0.0000 H   0  0  0  0  0  0  0  0  0  0  0  0
   -5.3755   -0.9479    0.0000 C   0  0  0  0  0  0  0  0  0  0  0  0
   -5.9227    0.5557    0.0000 H   0  0  0  0  0  0  0  0  0  0  0  0
   -6.9754   -0.9479    0.0000 C   0  0  0  0  0  0  0  0  0  0  0  0
   -8.5754   -0.9479    0.0000 H   0  0  0  0  0  0  0  0  0  0  0  0
   -7.7755    0.4378    0.0000 H   0  0  0  0  0  0  0  0  0  0  0  0
   -7.7755   -2.3335    0.0000 H   0  0  0  0  0  0  0  0  0  0  0  0
   -3.9898   -0.1478    0.0000 C   0  0  0  0  0  0  0  0  0  0  0  0
   -5.0182    1.0779    0.0000 H   0  0  0  0  0  0  0  0  0  0  0  0
   -2.9613    1.0779    0.0000 H   0  0  0  0  0  0  0  0  0  0  0  0
    0.5473    1.5035    0.0000 C   0  0  0  0  0  0  0  0  0  0  0  0
   -1.0285    1.7814    0.0000 H   0  0  0  0  0  0  0  0  0  0  0  0
    0.5473    3.1036    0.0000 H   0  0  0  0  0  0  0  0  0  0  0  0
    2.1229    1.7814    0.0000 C   0  0  0  0  0  0  0  0  0  0  0  0
    1.5758    3.2848    0.0000 H   0  0  0  0  0  0  0  0  0  0  0  0
    3.5086    2.5813    0.0000 H   0  0  0  0  0  0  0  0  0  0  0  0
    3.1513    0.5557    0.0000 C   0  0  0  0  0  0  0  0  0  0  0  0
    4.5371   -0.2443    0.0000 H   0  0  0  0  0  0  0  0  0  0  0  0
    4.1798    1.7814    0.0000 N   0  0  0  0  0  0  0  0  0  0  0  0
    5.7555    1.5035    0.0000 H   0  0  0  0  0  0  0  0  0  0  0  0
    3.9020    3.3570    0.0000 H   0  0  0  0  0  0  0  0  0  0  0  0
  1  2  1  0  0  0  0
  1  3  1  0  0  0  0
  1  4  1  0  0  0  0
  1  5  1  0  0  0  0
  5  6  1  0  0  0  0
  5  7  1  0  0  0  0
  7  8  1  0  0  0  0
  7  9  1  0  0  0  0
  7 10  1  0  0  0  0
 10 11  1  0  0  0  0
 10 12  1  0  0  0  0
 12 13  1  0  0  0  0
 12 14  1  0  0  0  0
 12 15  1  0  0  0  0
 15 16  1  0  0  0  0
 15 17  1  0  0  0  0
 17 18  1  0  0  0  0
 17 19  1  0  0  0  0
 17 20  1  0  0  0  0
 20 21  1  0  0  0  0
 20 22  1  0  0  0  0
 20 23  1  0  0  0  0
 23 24  1  0  0  0  0
 23 25  1  0  0  0  0
 25 26  1  0  0  0  0
 25 27  1  0  0  0  0
 23 28  1  0  0  0  0
 28 29  1  0  0  0  0
 28 30  1  0  0  0  0
 30 31  1  0  0  0  0
 30 32  1  0  0  0  0
 30 33  1  0  0  0  0
 28 34  1  0  0  0  0
 34 15  1  0  0  0  0
 34 35  1  0  0  0  0
 34 36  1  0  0  0  0
 10 37  1  0  0  0  0
 37 38  1  0  0  0  0
 37 39  1  0  0  0  0
 37 40  1  0  0  0  0
 40 41  1  0  0  0  0
 40 42  1  0  0  0  0
 40 43  1  0  0  0  0
 43  5  1  0  0  0  0
 43 44  1  0  0  0  0
 43 45  1  0  0  0  0
 45 46  1  0  0  0  0
 45 47  1  0  0  0  0
M  END
> <ChemID>
201525

> <source_casrn>
6864-37-5

> <CAS>
6864-37-5

> <SMILES>
CC1CC(CCC1N)CC2CCC(N)C(C)C2

> <NAME>


> <preferred_name>
4,4'-Methylenebis(2-methylcyclohexanamine)

> <iupac>
4,4'-methanediylbis(2-methylcyclohexanamine)

> <MPID>
101335

> <dsstox_substance_id>
DTXSID6029670

> <Canonical_QSARr>
CC1CC(CC2CC(C)C(N)CC2)CCC1N

> <InChI_Code_QSARr>
InChI=1S/C15H30N2/c1-10-7-12(3-5-14(10)16)9-13-4-6-15(17)11(2)8-13/h10-15H,3-9,16-17H2,1-2H3

> <InChI Key_QSARr>
IGSBHTZEJMPDSZ-UHFFFAOYSA-N

> <Salt_Solvent>


> <Ready_Biodeg>
0.0

$$$$
201532
  -INDIGO-08031722522D

 27 27  0  0  0  0  0  0  0  0999 V2000
    0.5473    1.5035    0.0000 C   0  0  0  0  0  0  0  0  0  0  0  0
    1.0945    3.0070    0.0000 H   0  0  0  0  0  0  0  0  0  0  0  0
   -0.4812    2.7291    0.0000 H   0  0  0  0  0  0  0  0  0  0  0  0
    2.1229    1.7813    0.0000 H   0  0  0  0  0  0  0  0  0  0  0  0
    0.0000    0.0000    0.0000 C   0  0  0  0  0  0  0  0  0  0  0  0
   -1.0285    1.2257    0.0000 H   0  0  0  0  0  0  0  0  0  0  0  0
    1.3856   -0.8000    0.0000 C   0  0  0  0  0  0  0  0  0  0  0  0
    1.9328    0.7035    0.0000 H   0  0  0  0  0  0  0  0  0  0  0  0
    2.9613   -1.0779    0.0000 H   0  0  0  0  0  0  0  0  0  0  0  0
    1.3856   -2.4000    0.0000 C   0  0  0  0  0  0  0  0  0  0  0  0
    2.9613   -2.1222    0.0000 H   0  0  0  0  0  0  0  0  0  0  0  0
    1.9328   -3.9035    0.0000 H   0  0  0  0  0  0  0  0  0  0  0  0
    0.0000   -3.2000    0.0000 C   0  0  0  0  0  0  0  0  0  0  0  0
    1.0284   -4.4257    0.0000 H   0  0  0  0  0  0  0  0  0  0  0  0
   -1.0285   -4.4257    0.0000 H   0  0  0  0  0  0  0  0  0  0  0  0
   -1.3857   -2.4000    0.0000 C   0  0  0  0  0  0  0  0  0  0  0  0
   -1.9329   -3.9035    0.0000 H   0  0  0  0  0  0  0  0  0  0  0  0
   -2.9613   -2.1222    0.0000 H   0  0  0  0  0  0  0  0  0  0  0  0
   -1.3857   -0.8000    0.0000 C   0  0  0  0  0  0  0  0  0  0  0  0
   -1.9329    0.7035    0.0000 H   0  0  0  0  0  0  0  0  0  0  0  0
   -2.9613   -1.0779    0.0000 O   0  0  0  0  0  0  0  0  0  0  0  0
   -3.9898    0.1478    0.0000 C   0  0  0  0  0  0  0  0  0  0  0  0
   -5.5654   -0.1301    0.0000 C   0  0  0  0  0  0  0  0  0  0  0  0
   -7.1412   -0.4078    0.0000 H   0  0  0  0  0  0  0  0  0  0  0  0
   -6.5939    1.0956    0.0000 H   0  0  0  0  0  0  0  0  0  0  0  0
   -6.1127   -1.6335    0.0000 H   0  0  0  0  0  0  0  0  0  0  0  0
   -3.4426    1.6514    0.0000 O   0  0  0  0  0  0  0  0  0  0  0  0
  1  2  1  0  0  0  0
  1  3  1  0  0  0  0
  1  4  1  0  0  0  0
  1  5  1  0  0  0  0
  5  6  1  0  0  0  0
  5  7  1  0  0  0  0
  7  8  1  0  0  0  0
  7  9  1  0  0  0  0
  7 10  1  0  0  0  0
 10 11  1  0  0  0  0
 10 12  1  0  0  0  0
 10 13  1  0  0  0  0
 13 14  1  0  0  0  0
 13 15  1  0  0  0  0
 13 16  1  0  0  0  0
 16 17  1  0  0  0  0
 16 18  1  0  0  0  0
 16 19  1  0  0  0  0
 19  5  1  0  0  0  0
 19 20  1  0  0  0  0
 19 21  1  0  0  0  0
 21 22  1  0  0  0  0
 22 23  1  0  0  0  0
 23 24  1  0  0  0  0
 23 25  1  0  0  0  0
 23 26  1  0  0  0  0
 22 27  2  0  0  0  0
M  END
> <ChemID>
201532

> <source_casrn>
5726-19-2

> <CAS>
NOCAS_863609

> <SMILES>
CC1CCCCC1OC(C)=O

> <NAME>


> <preferred_name>


> <iupac>


> <MPID>
101336

> <dsstox_substance_id>
DTXSID70863609

> <Canonical_QSARr>
CC1CCCCC1OC(C)=O

> <InChI_Code_QSARr>
InChI=1S/C9H16O2/c1-7-5-3-4-6-9(7)11-8(2)10/h7,9H,3-6H2,1-2H3

> <InChI Key_QSARr>
AKIIJALHGMKJEJ-UHFFFAOYSA-N

> <Salt_Solvent>


> <Ready_Biodeg>
1.0

$$$$
201535
  -INDIGO-08031722522D

 28 28  0  0  0  0  0  0  0  0999 V2000
    1.3856    0.8000    0.0000 C   0  0  0  0  0  0  0  0  0  0  0  0
    2.7713    1.6000    0.0000 H   0  0  0  0  0  0  0  0  0  0  0  0
    1.3856    2.4000    0.0000 H   0  0  0  0  0  0  0  0  0  0  0  0
    2.7713    0.0000    0.0000 H   0  0  0  0  0  0  0  0  0  0  0  0
    0.0001    0.0000    0.0000 C   0  0  0  0  0  0  0  0  0  0  0  0
   -0.4141    1.5454    0.0000 H   0  0  0  0  0  0  0  0  0  0  0  0
    1.1314   -1.1313    0.0000 O   0  0  0  0  0  0  0  0  0  0  0  0
    1.1314   -2.7314    0.0000 C   0  0  0  0  0  0  0  0  0  0  0  0
    2.6768   -2.3173    0.0000 H   0  0  0  0  0  0  0  0  0  0  0  0
    1.9314   -4.1170    0.0000 C   0  0  0  0  0  0  0  0  0  0  0  0
    2.7314   -5.5027    0.0000 H   0  0  0  0  0  0  0  0  0  0  0  0
    3.5314   -4.1170    0.0000 H   0  0  0  0  0  0  0  0  0  0  0  0
    1.1314   -5.5027    0.0000 H   0  0  0  0  0  0  0  0  0  0  0  0
    0.0001   -3.8628    0.0000 O   0  0  0  0  0  0  0  0  0  0  0  0
   -1.6000   -3.8628    0.0000 C   0  0  0  0  0  0  0  0  0  0  0  0
   -1.1859   -5.4082    0.0000 H   0  0  0  0  0  0  0  0  0  0  0  0
   -2.9856   -4.6628    0.0000 C   0  0  0  0  0  0  0  0  0  0  0  0
   -4.3713   -5.4628    0.0000 H   0  0  0  0  0  0  0  0  0  0  0  0
   -2.9856   -6.2627    0.0000 H   0  0  0  0  0  0  0  0  0  0  0  0
   -4.3713   -3.8628    0.0000 H   0  0  0  0  0  0  0  0  0  0  0  0
   -2.7314   -2.7314    0.0000 O   0  0  0  0  0  0  0  0  0  0  0  0
   -2.7314   -1.1313    0.0000 C   0  0  0  0  0  0  0  0  0  0  0  0
   -4.2768   -1.5455    0.0000 H   0  0  0  0  0  0  0  0  0  0  0  0
   -3.5314    0.2542    0.0000 C   0  0  0  0  0  0  0  0  0  0  0  0
   -4.3314    1.6399    0.0000 H   0  0  0  0  0  0  0  0  0  0  0  0
   -5.1314    0.2542    0.0000 H   0  0  0  0  0  0  0  0  0  0  0  0
   -2.7314    1.6399    0.0000 H   0  0  0  0  0  0  0  0  0  0  0  0
   -1.6000    0.0000    0.0000 O   0  0  0  0  0  0  0  0  0  0  0  0
  1  2  1  0  0  0  0
  1  3  1  0  0  0  0
  1  4  1  0  0  0  0
  1  5  1  0  0  0  0
  5  6  1  0  0  0  0
  5  7  1  0  0  0  0
  7  8  1  0  0  0  0
  8  9  1  0  0  0  0
  8 10  1  0  0  0  0
 10 11  1  0  0  0  0
 10 12  1  0  0  0  0
 10 13  1  0  0  0  0
  8 14  1  0  0  0  0
 14 15  1  0  0  0  0
 15 16  1  0  0  0  0
 15 17  1  0  0  0  0
 17 18  1  0  0  0  0
 17 19  1  0  0  0  0
 17 20  1  0  0  0  0
 15 21  1  0  0  0  0
 21 22  1  0  0  0  0
 22 23  1  0  0  0  0
 22 24  1  0  0  0  0
 24 25  1  0  0  0  0
 24 26  1  0  0  0  0
 24 27  1  0  0  0  0
 22 28  1  0  0  0  0
 28  5  1  0  0  0  0
M  END
> <ChemID>
201535

> <source_casrn>
108-62-3

> <CAS>
108-62-3

> <SMILES>
CC1OC(C)OC(C)OC(C)O1

> <NAME>


> <preferred_name>
Metaldehyde acetaldehyde tetramer

> <iupac>
2,4,6,8-tetramethyl-1,3,5,7-tetroxocane

> <MPID>
101338

> <dsstox_substance_id>
DTXSID1034715

> <Canonical_QSARr>
CC1OC(C)OC(C)OC(C)O1

> <InChI_Code_QSARr>
InChI=1S/C8H16O4/c1-5-9-6(2)11-8(4)12-7(3)10-5/h5-8H,1-4H3

> <InChI Key_QSARr>
GKKDCARASOJPNG-UHFFFAOYSA-N

> <Salt_Solvent>


> <Ready_Biodeg>
0.0

$$$$
201539
  -INDIGO-08031722522D

 30 29  0  0  0  0  0  0  0  0999 V2000
    8.3139    0.0000    0.0000 C   0  0  0  0  0  0  0  0  0  0  0  0
    9.6995   -0.8000    0.0000 H   0  0  0  0  0  0  0  0  0  0  0  0
    9.6995    0.8000    0.0000 H   0  0  0  0  0  0  0  0  0  0  0  0
    8.3139   -1.6000    0.0000 H   0  0  0  0  0  0  0  0  0  0  0  0
    6.9283    0.8000    0.0000 C   0  0  0  0  0  0  0  0  0  0  0  0
    6.9283    2.4000    0.0000 H   0  0  0  0  0  0  0  0  0  0  0  0
    5.5427    0.0000    0.0000 C   0  0  0  0  0  0  0  0  0  0  0  0
    5.5427   -1.6000    0.0000 H   0  0  0  0  0  0  0  0  0  0  0  0
    4.1568    0.8000    0.0000 C   0  0  0  0  0  0  0  0  0  0  0  0
    3.5447    2.2782    0.0000 H   0  0  0  0  0  0  0  0  0  0  0  0
    4.7692    2.2782    0.0000 H   0  0  0  0  0  0  0  0  0  0  0  0
    2.7712    0.0000    0.0000 C   0  0  0  0  0  0  0  0  0  0  0  0
    2.7712   -1.6000    0.0000 H   0  0  0  0  0  0  0  0  0  0  0  0
    1.3856    0.8000    0.0000 C   0  0  0  0  0  0  0  0  0  0  0  0
    1.3856    2.4000    0.0000 H   0  0  0  0  0  0  0  0  0  0  0  0
    0.0000    0.0000    0.0000 C   0  0  0  0  0  0  0  0  0  0  0  0
    0.6124   -1.4782    0.0000 H   0  0  0  0  0  0  0  0  0  0  0  0
   -0.6124   -1.4782    0.0000 H   0  0  0  0  0  0  0  0  0  0  0  0
   -1.3856    0.8000    0.0000 C   0  0  0  0  0  0  0  0  0  0  0  0
   -1.3856    2.4000    0.0000 H   0  0  0  0  0  0  0  0  0  0  0  0
   -2.7712    0.0000    0.0000 C   0  0  0  0  0  0  0  0  0  0  0  0
   -2.7712   -1.6000    0.0000 H   0  0  0  0  0  0  0  0  0  0  0  0
   -4.1570    0.8000    0.0000 C   0  0  0  0  0  0  0  0  0  0  0  0
   -4.7692    2.2782    0.0000 H   0  0  0  0  0  0  0  0  0  0  0  0
   -3.5446    2.2782    0.0000 H   0  0  0  0  0  0  0  0  0  0  0  0
   -5.5426    0.0000    0.0000 C   0  0  0  0  0  0  0  0  0  0  0  0
   -5.5426   -1.6000    0.0000 H   0  0  0  0  0  0  0  0  0  0  0  0
   -6.9282    0.8000    0.0000 C   0  0  0  0  0  0  0  0  0  0  0  0
   -8.3138    0.0000    0.0000 H   0  0  0  0  0  0  0  0  0  0  0  0
   -6.9282    2.4000    0.0000 H   0  0  0  0  0  0  0  0  0  0  0  0
  1  2  1  0  0  0  0
  1  3  1  0  0  0  0
  1  4  1  0  0  0  0
  1  5  1  0  0  0  0
  5  6  1  0  0  0  0
  5  7  2  0  0  0  0
  7  8  1  0  0  0  0
  7  9  1  0  0  0  0
  9 10  1  0  0  0  0
  9 11  1  0  0  0  0
  9 12  1  0  0  0  0
 12 13  1  0  0  0  0
 12 14  2  0  0  0  0
 14 15  1  0  0  0  0
 14 16  1  0  0  0  0
 16 17  1  0  0  0  0
 16 18  1  0  0  0  0
 16 19  1  0  0  0  0
 19 20  1  0  0  0  0
 19 21  2  0  0  0  0
 21 22  1  0  0  0  0
 21 23  1  0  0  0  0
 23 24  1  0  0  0  0
 23 25  1  0  0  0  0
 23 26  1  0  0  0  0
 26 27  1  0  0  0  0
 26 28  2  0  0  0  0
 28 29  1  0  0  0  0
 28 30  1  0  0  0  0
M  END
> <ChemID>
201539

> <source_casrn>
6842-15-5

> <CAS>
6842-15-5

> <SMILES>
C\C=C\C\C=C\C\C=C\CC=C

> <NAME>


> <preferred_name>
1-Propene, tetramer

> <iupac>
(4E,7E,10E)-dodeca-1,4,7,10-tetraene

> <MPID>
101339

> <dsstox_substance_id>
DTXSID6027634

> <Canonical_QSARr>
CC=CCC=CCC=CCC=C

> <InChI_Code_QSARr>
InChI=1S/C12H18/c1-3-5-7-9-11-12-10-8-6-4-2/h3-4,6-7,9-10,12H,1,5,8,11H2,2H3/b6-4+,9-7+,12-10+

> <InChI Key_QSARr>
RCRMTWBZRLYXQC-FNCTZUPOSA-N

> <Salt_Solvent>


> <Ready_Biodeg>
0.0

$$$$
201544
  -INDIGO-08031722522D

 19 18  0  0  0  0  0  0  0  0999 V2000
    1.3856    0.8000    0.0000 C   0  0  0  0  0  0  0  0  0  0  0  0
    2.7713    1.6000    0.0000 H   0  0  0  0  0  0  0  0  0  0  0  0
    2.7713    0.0000    0.0000 H   0  0  0  0  0  0  0  0  0  0  0  0
    1.3856    2.4000    0.0000 H   0  0  0  0  0  0  0  0  0  0  0  0
   -0.0000    0.0000    0.0000 C   0  0  0  0  0  0  0  0  0  0  0  0
    0.6123   -1.4782    0.0000 H   0  0  0  0  0  0  0  0  0  0  0  0
   -0.6124   -1.4782    0.0000 H   0  0  0  0  0  0  0  0  0  0  0  0
   -1.3857    0.8000    0.0000 C   0  0  0  0  0  0  0  0  0  0  0  0
   -1.3857    2.4000    0.0000 O   0  0  0  0  0  0  0  0  0  0  0  0
   -2.7714    0.0000    0.0000 O   0  0  0  0  0  0  0  0  0  0  0  0
   -4.1569    0.8000    0.0000 C   0  0  0  0  0  0  0  0  0  0  0  0
   -4.1569    2.4000    0.0000 O   0  0  0  0  0  0  0  0  0  0  0  0
   -5.5425    0.0000    0.0000 C   0  0  0  0  0  0  0  0  0  0  0  0
   -4.9302   -1.4782    0.0000 H   0  0  0  0  0  0  0  0  0  0  0  0
   -6.1548   -1.4782    0.0000 H   0  0  0  0  0  0  0  0  0  0  0  0
   -6.9282    0.8000    0.0000 C   0  0  0  0  0  0  0  0  0  0  0  0
   -8.3138    1.6000    0.0000 H   0  0  0  0  0  0  0  0  0  0  0  0
   -8.3138    0.0000    0.0000 H   0  0  0  0  0  0  0  0  0  0  0  0
   -6.9282    2.4000    0.0000 H   0  0  0  0  0  0  0  0  0  0  0  0
  1  2  1  0  0  0  0
  1  3  1  0  0  0  0
  1  4  1  0  0  0  0
  1  5  1  0  0  0  0
  5  6  1  0  0  0  0
  5  7  1  0  0  0  0
  5  8  1  0  0  0  0
  8  9  2  0  0  0  0
  8 10  1  0  0  0  0
 10 11  1  0  0  0  0
 11 12  2  0  0  0  0
 11 13  1  0  0  0  0
 13 14  1  0  0  0  0
 13 15  1  0  0  0  0
 13 16  1  0  0  0  0
 16 17  1  0  0  0  0
 16 18  1  0  0  0  0
 16 19  1  0  0  0  0
M  END
> <ChemID>
201544

> <source_casrn>
123-62-6

> <CAS>
123-62-6

> <SMILES>
CCC(=O)OC(=O)CC

> <NAME>


> <preferred_name>
Propanoic anhydride

> <iupac>
propanoic anhydride

> <MPID>
101340

> <dsstox_substance_id>
DTXSID1027007

> <Canonical_QSARr>
CCC(=O)OC(=O)CC

> <InChI_Code_QSARr>
InChI=1S/C6H10O3/c1-3-5(7)9-6(8)4-2/h3-4H2,1-2H3

> <InChI Key_QSARr>
WYVAMUWZEOHJOQ-UHFFFAOYSA-N

> <Salt_Solvent>


> <Ready_Biodeg>
1.0

$$$$
201545
  -INDIGO-08031722522D

 15 14  0  0  0  0  0  0  0  0999 V2000
    1.3857    0.8000    0.0000 C   0  0  0  0  0  0  0  0  0  0  0  0
    2.7713    1.6000    0.0000 H   0  0  0  0  0  0  0  0  0  0  0  0
    2.7713    0.0000    0.0000 H   0  0  0  0  0  0  0  0  0  0  0  0
    1.3857    2.4000    0.0000 H   0  0  0  0  0  0  0  0  0  0  0  0
    0.0000    0.0000    0.0000 C   0  0  0  0  0  0  0  0  0  0  0  0
    0.6123   -1.4782    0.0000 H   0  0  0  0  0  0  0  0  0  0  0  0
   -0.6123   -1.4782    0.0000 H   0  0  0  0  0  0  0  0  0  0  0  0
   -1.3856    0.8000    0.0000 C   0  0  0  0  0  0  0  0  0  0  0  0
   -1.3856    2.4000    0.0000 O   0  0  0  0  0  0  0  0  0  0  0  0
   -2.7713    0.0000    0.0000 O   0  0  0  0  0  0  0  0  0  0  0  0
   -4.1570    0.8000    0.0000 C   0  0  0  0  0  0  0  0  0  0  0  0
   -4.1570    2.4000    0.0000 H   0  0  0  0  0  0  0  0  0  0  0  0
   -5.5426    0.0000    0.0000 C   0  0  0  0  0  0  0  0  0  0  0  0
   -6.9282    0.8000    0.0000 H   0  0  0  0  0  0  0  0  0  0  0  0
   -5.5426   -1.6000    0.0000 H   0  0  0  0  0  0  0  0  0  0  0  0
  1  2  1  0  0  0  0
  1  3  1  0  0  0  0
  1  4  1  0  0  0  0
  1  5  1  0  0  0  0
  5  6  1  0  0  0  0
  5  7  1  0  0  0  0
  5  8  1  0  0  0  0
  8  9  2  0  0  0  0
  8 10  1  0  0  0  0
 10 11  1  0  0  0  0
 11 12  1  0  0  0  0
 11 13  2  0  0  0  0
 13 14  1  0  0  0  0
 13 15  1  0  0  0  0
M  END
> <ChemID>
201545

> <source_casrn>
105-38-4

> <CAS>
105-38-4

> <SMILES>
CCC(=O)OC=C

> <NAME>


> <preferred_name>
Vinyl propionate

> <iupac>
vinyl propionate

> <MPID>
101341

> <dsstox_substance_id>
DTXSID9051537

> <Canonical_QSARr>
CCC(=O)OC=C

> <InChI_Code_QSARr>
InChI=1S/C5H8O2/c1-3-5(6)7-4-2/h4H,2-3H2,1H3

> <InChI Key_QSARr>
UIWXSTHGICQLQT-UHFFFAOYSA-N

> <Salt_Solvent>


> <Ready_Biodeg>
1.0

$$$$
201547
  -INDIGO-08031722522D

 27 27  0  0  0  0  0  0  0  0999 V2000
    2.7713    0.0000    0.0000 C   0  0  0  0  0  0  0  0  0  0  0  0
    4.1569    0.8000    0.0000 H   0  0  0  0  0  0  0  0  0  0  0  0
    4.1569   -0.7999    0.0000 H   0  0  0  0  0  0  0  0  0  0  0  0
    2.7713    1.5999    0.0000 H   0  0  0  0  0  0  0  0  0  0  0  0
    1.3857    0.8000    0.0000 C   0  0  0  0  0  0  0  0  0  0  0  0
    1.9980    2.2782    0.0000 H   0  0  0  0  0  0  0  0  0  0  0  0
    1.0394    2.3621    0.0000 H   0  0  0  0  0  0  0  0  0  0  0  0
    0.0001    0.0000    0.0000 C   0  0  0  0  0  0  0  0  0  0  0  0
    0.5472   -1.5035    0.0000 C   0  0  0  0  0  0  0  0  0  0  0  0
    1.0944   -3.0071    0.0000 H   0  0  0  0  0  0  0  0  0  0  0  0
    2.1229   -1.7813    0.0000 H   0  0  0  0  0  0  0  0  0  0  0  0
    1.5757   -0.2778    0.0000 H   0  0  0  0  0  0  0  0  0  0  0  0
   -1.0284    1.2256    0.0000 C   0  0  0  0  0  0  0  0  0  0  0  0
   -0.4812    2.7292    0.0000 H   0  0  0  0  0  0  0  0  0  0  0  0
   -2.0569    2.4514    0.0000 H   0  0  0  0  0  0  0  0  0  0  0  0
    0.5472    1.5036    0.0000 H   0  0  0  0  0  0  0  0  0  0  0  0
   -1.3857   -0.7999    0.0000 C   0  0  0  0  0  0  0  0  0  0  0  0
   -1.3857   -2.4000    0.0000 C   0  0  0  0  0  0  0  0  0  0  0  0
    0.0001   -3.2000    0.0000 H   0  0  0  0  0  0  0  0  0  0  0  0
   -2.7713   -3.2000    0.0000 C   0  0  0  0  0  0  0  0  0  0  0  0
   -2.7713   -4.8000    0.0000 H   0  0  0  0  0  0  0  0  0  0  0  0
   -4.1569   -2.4000    0.0000 C   0  0  0  0  0  0  0  0  0  0  0  0
   -5.5426   -3.2000    0.0000 H   0  0  0  0  0  0  0  0  0  0  0  0
   -4.1569   -0.7999    0.0000 C   0  0  0  0  0  0  0  0  0  0  0  0
   -5.5426    0.0000    0.0000 H   0  0  0  0  0  0  0  0  0  0  0  0
   -2.7713    0.0000    0.0000 C   0  0  0  0  0  0  0  0  0  0  0  0
   -2.7713    1.5999    0.0000 H   0  0  0  0  0  0  0  0  0  0  0  0
  1  2  1  0  0  0  0
  1  3  1  0  0  0  0
  1  4  1  0  0  0  0
  1  5  1  0  0  0  0
  5  6  1  0  0  0  0
  5  7  1  0  0  0  0
  5  8  1  0  0  0  0
  8  9  1  0  0  0  0
  9 10  1  0  0  0  0
  9 11  1  0  0  0  0
  9 12  1  0  0  0  0
  8 13  1  0  0  0  0
 13 14  1  0  0  0  0
 13 15  1  0  0  0  0
 13 16  1  0  0  0  0
  8 17  1  0  0  0  0
 17 18  1  0  0  0  0
 18 19  1  0  0  0  0
 18 20  2  0  0  0  0
 20 21  1  0  0  0  0
 20 22  1  0  0  0  0
 22 23  1  0  0  0  0
 22 24  2  0  0  0  0
 24 25  1  0  0  0  0
 24 26  1  0  0  0  0
 26 17  2  0  0  0  0
 26 27  1  0  0  0  0
M  END
> <ChemID>
201547

> <source_casrn>
2049-95-8

> <CAS>
2049-95-8

> <SMILES>
CCC(C)(C)c1ccccc1

> <NAME>


> <preferred_name>
tert-Pentylbenzene

> <iupac>
(2-methylbutan-2-yl)benzene

> <MPID>
101343

> <dsstox_substance_id>
DTXSID7051848

> <Canonical_QSARr>
CCC(C)(C)c1ccccc1

> <InChI_Code_QSARr>
InChI=1S/C11H16/c1-4-11(2,3)10-8-6-5-7-9-10/h5-9H,4H2,1-3H3

> <InChI Key_QSARr>
QHTJSSMHBLGUHV-UHFFFAOYSA-N

> <Salt_Solvent>


> <Ready_Biodeg>
0.0

$$$$
201549
  -INDIGO-08031722522D

 20 19  0  0  0  0  0  0  0  0999 V2000
   -0.0001   -2.7713    0.0000 C   0  0  0  0  0  0  0  0  0  0  0  0
    0.8000   -4.1569    0.0000 H   0  0  0  0  0  0  0  0  0  0  0  0
   -0.8000   -4.1569    0.0000 H   0  0  0  0  0  0  0  0  0  0  0  0
    1.5999   -2.7713    0.0000 H   0  0  0  0  0  0  0  0  0  0  0  0
   -0.8000   -1.3856    0.0000 C   0  0  0  0  0  0  0  0  0  0  0  0
   -2.2782   -0.7733    0.0000 H   0  0  0  0  0  0  0  0  0  0  0  0
   -2.2782   -1.9979    0.0000 H   0  0  0  0  0  0  0  0  0  0  0  0
   -0.0001    0.0000    0.0000 C   0  0  0  0  0  0  0  0  0  0  0  0
    1.3856   -0.8000    0.0000 H   0  0  0  0  0  0  0  0  0  0  0  0
    0.8000    1.3857    0.0000 C   0  0  0  0  0  0  0  0  0  0  0  0
    1.5999    2.7713    0.0000 H   0  0  0  0  0  0  0  0  0  0  0  0
    2.4000    1.3857    0.0000 H   0  0  0  0  0  0  0  0  0  0  0  0
   -0.0001    2.7713    0.0000 H   0  0  0  0  0  0  0  0  0  0  0  0
   -1.3857    0.8000    0.0000 O   0  0  0  0  0  0  0  0  0  0  0  0
   -2.8891    0.2528    0.0000 C   0  0  0  0  0  0  0  0  0  0  0  0
   -4.1149    1.2812    0.0000 C   0  0  0  0  0  0  0  0  0  0  0  0
   -5.3405    2.3097    0.0000 H   0  0  0  0  0  0  0  0  0  0  0  0
   -5.6183    0.7340    0.0000 H   0  0  0  0  0  0  0  0  0  0  0  0
   -3.8370    2.8569    0.0000 H   0  0  0  0  0  0  0  0  0  0  0  0
   -3.1670   -1.3229    0.0000 O   0  0  0  0  0  0  0  0  0  0  0  0
  1  2  1  0  0  0  0
  1  3  1  0  0  0  0
  1  4  1  0  0  0  0
  1  5  1  0  0  0  0
  5  6  1  0  0  0  0
  5  7  1  0  0  0  0
  5  8  1  0  0  0  0
  8  9  1  0  0  0  0
  8 10  1  0  0  0  0
 10 11  1  0  0  0  0
 10 12  1  0  0  0  0
 10 13  1  0  0  0  0
  8 14  1  0  0  0  0
 14 15  1  0  0  0  0
 15 16  1  0  0  0  0
 16 17  1  0  0  0  0
 16 18  1  0  0  0  0
 16 19  1  0  0  0  0
 15 20  2  0  0  0  0
M  END
> <ChemID>
201549

> <source_casrn>
105-46-4

> <CAS>
105-46-4

> <SMILES>
CCC(C)OC(C)=O

> <NAME>


> <preferred_name>
Butan-2-yl acetate

> <iupac>
butan-2-yl acetate

> <MPID>
101344

> <dsstox_substance_id>
DTXSID0047612

> <Canonical_QSARr>
CCC(C)OC(C)=O

> <InChI_Code_QSARr>
InChI=1S/C6H12O2/c1-4-5(2)8-6(3)7/h5H,4H2,1-3H3

> <InChI Key_QSARr>
DCKVNWZUADLDEH-UHFFFAOYSA-N

> <Salt_Solvent>


> <Ready_Biodeg>
1.0

$$$$
201552
  -INDIGO-08031722522D

 25 25  0  0  0  0  0  0  0  0999 V2000
    2.7292    0.4812    0.0000 C   0  0  0  0  0  0  0  0  0  0  0  0
    3.9549    1.5097    0.0000 H   0  0  0  0  0  0  0  0  0  0  0  0
    4.2327   -0.0660    0.0000 H   0  0  0  0  0  0  0  0  0  0  0  0
    2.4514    2.0570    0.0000 H   0  0  0  0  0  0  0  0  0  0  0  0
    1.5036   -0.5472    0.0000 C   0  0  0  0  0  0  0  0  0  0  0  0
    1.1572   -2.1093    0.0000 H   0  0  0  0  0  0  0  0  0  0  0  0
    2.3631   -1.8967    0.0000 H   0  0  0  0  0  0  0  0  0  0  0  0
    0.0001    0.0000    0.0000 C   0  0  0  0  0  0  0  0  0  0  0  0
    0.0001   -1.6000    0.0000 H   0  0  0  0  0  0  0  0  0  0  0  0
    0.0001    1.6000    0.0000 C   0  0  0  0  0  0  0  0  0  0  0  0
    1.3856    2.4000    0.0000 H   0  0  0  0  0  0  0  0  0  0  0  0
    0.0001    3.2000    0.0000 H   0  0  0  0  0  0  0  0  0  0  0  0
    1.3856    0.8000    0.0000 H   0  0  0  0  0  0  0  0  0  0  0  0
   -1.6000    0.0000    0.0000 C   0  0  0  0  0  0  0  0  0  0  0  0
   -2.4000    1.3857    0.0000 C   0  0  0  0  0  0  0  0  0  0  0  0
   -1.6000    2.7713    0.0000 H   0  0  0  0  0  0  0  0  0  0  0  0
   -4.0001    1.3857    0.0000 C   0  0  0  0  0  0  0  0  0  0  0  0
   -4.7999    2.7713    0.0000 H   0  0  0  0  0  0  0  0  0  0  0  0
   -4.7999    0.0000    0.0000 C   0  0  0  0  0  0  0  0  0  0  0  0
   -6.4000    0.0000    0.0000 H   0  0  0  0  0  0  0  0  0  0  0  0
   -4.0001   -1.3857    0.0000 C   0  0  0  0  0  0  0  0  0  0  0  0
   -4.7999   -2.7713    0.0000 H   0  0  0  0  0  0  0  0  0  0  0  0
   -2.4000   -1.3857    0.0000 C   0  0  0  0  0  0  0  0  0  0  0  0
   -1.6000   -2.7713    0.0000 O   0  0  0  0  0  0  0  0  0  0  0  0
   -2.4000   -4.1569    0.0000 H   0  0  0  0  0  0  0  0  0  0  0  0
  1  2  1  0  0  0  0
  1  3  1  0  0  0  0
  1  4  1  0  0  0  0
  1  5  1  0  0  0  0
  5  6  1  0  0  0  0
  5  7  1  0  0  0  0
  5  8  1  0  0  0  0
  8  9  1  0  0  0  0
  8 10  1  0  0  0  0
 10 11  1  0  0  0  0
 10 12  1  0  0  0  0
 10 13  1  0  0  0  0
  8 14  1  0  0  0  0
 14 15  1  0  0  0  0
 15 16  1  0  0  0  0
 15 17  2  0  0  0  0
 17 18  1  0  0  0  0
 17 19  1  0  0  0  0
 19 20  1  0  0  0  0
 19 21  2  0  0  0  0
 21 22  1  0  0  0  0
 21 23  1  0  0  0  0
 23 14  2  0  0  0  0
 23 24  1  0  0  0  0
 24 25  1  0  0  0  0
M  END
> <ChemID>
201552

> <source_casrn>
89-72-5

> <CAS>
89-72-5

> <SMILES>
CCC(C)c1ccccc1O

> <NAME>


> <preferred_name>
2-(Butan-2-yl)phenol

> <iupac>
2-(butan-2-yl)phenol

> <MPID>
101345

> <dsstox_substance_id>
DTXSID2022331

> <Canonical_QSARr>
CCC(C)c1ccccc1O

> <InChI_Code_QSARr>
InChI=1S/C10H14O/c1-3-8(2)9-6-4-5-7-10(9)11/h4-8,11H,3H2,1-2H3

> <InChI Key_QSARr>
NGFPWHGISWUQOI-UHFFFAOYSA-N

> <Salt_Solvent>


> <Ready_Biodeg>
0.0

$$$$
201555
  -INDIGO-08031722522D

 20 19  0  0  0  0  0  0  0  0999 V2000
   -0.9479   -2.6041    0.0000 C   0  0  0  0  0  0  0  0  0  0  0  0
   -0.6700   -4.1798    0.0000 H   0  0  0  0  0  0  0  0  0  0  0  0
   -2.1735   -3.6326    0.0000 H   0  0  0  0  0  0  0  0  0  0  0  0
    0.5556   -3.1513    0.0000 H   0  0  0  0  0  0  0  0  0  0  0  0
   -1.2257   -1.0284    0.0000 C   0  0  0  0  0  0  0  0  0  0  0  0
   -2.4053    0.0525    0.0000 H   0  0  0  0  0  0  0  0  0  0  0  0
   -2.8242   -1.0982    0.0000 H   0  0  0  0  0  0  0  0  0  0  0  0
   -0.0000   -0.0000    0.0000 C   0  0  0  0  0  0  0  0  0  0  0  0
    0.8000   -1.3857    0.0000 H   0  0  0  0  0  0  0  0  0  0  0  0
    1.3857    0.8000    0.0000 C   0  0  0  0  0  0  0  0  0  0  0  0
    1.9979    2.2782    0.0000 H   0  0  0  0  0  0  0  0  0  0  0  0
    0.7733    2.2782    0.0000 H   0  0  0  0  0  0  0  0  0  0  0  0
    2.7713   -0.0000    0.0000 C   0  0  0  0  0  0  0  0  0  0  0  0
    4.1569   -0.8000    0.0000 H   0  0  0  0  0  0  0  0  0  0  0  0
    4.1569    0.8000    0.0000 H   0  0  0  0  0  0  0  0  0  0  0  0
    2.7713   -1.6000    0.0000 H   0  0  0  0  0  0  0  0  0  0  0  0
   -0.8000    1.3856    0.0000 C   0  0  0  0  0  0  0  0  0  0  0  0
   -2.4000    1.3856    0.0000 O   0  0  0  0  0  0  0  0  0  0  0  0
   -3.2000    2.7713    0.0000 H   0  0  0  0  0  0  0  0  0  0  0  0
   -0.2527    2.8891    0.0000 O   0  0  0  0  0  0  0  0  0  0  0  0
  1  2  1  0  0  0  0
  1  3  1  0  0  0  0
  1  4  1  0  0  0  0
  1  5  1  0  0  0  0
  5  6  1  0  0  0  0
  5  7  1  0  0  0  0
  5  8  1  0  0  0  0
  8  9  1  0  0  0  0
  8 10  1  0  0  0  0
 10 11  1  0  0  0  0
 10 12  1  0  0  0  0
 10 13  1  0  0  0  0
 13 14  1  0  0  0  0
 13 15  1  0  0  0  0
 13 16  1  0  0  0  0
  8 17  1  0  0  0  0
 17 18  1  0  0  0  0
 18 19  1  0  0  0  0
 17 20  2  0  0  0  0
M  END
> <ChemID>
201555

> <source_casrn>
88-09-5

> <CAS>
88-09-5

> <SMILES>
CCC(CC)C(O)=O

> <NAME>


> <preferred_name>
2-Ethylbutyric acid

> <iupac>
2-ethylbutanoic acid

> <MPID>
101347

> <dsstox_substance_id>
DTXSID2041418

> <Canonical_QSARr>
CCC(CC)C(O)=O

> <InChI_Code_QSARr>
InChI=1S/C6H12O2/c1-3-5(4-2)6(7)8/h5H,3-4H2,1-2H3,(H,7,8)

> <InChI Key_QSARr>
OXQGTIUCKGYOAA-UHFFFAOYSA-N

> <Salt_Solvent>


> <Ready_Biodeg>
1.0

$$$$
201559
  -INDIGO-08031722522D

 43 42  0  0  0  0  0  0  0  0999 V2000
    2.8892   -0.2527    0.0000 C   0  0  0  0  0  0  0  0  0  0  0  0
    4.3927    0.2944    0.0000 H   0  0  0  0  0  0  0  0  0  0  0  0
    4.1149   -1.2812    0.0000 H   0  0  0  0  0  0  0  0  0  0  0  0
    3.1669    1.3229    0.0000 H   0  0  0  0  0  0  0  0  0  0  0  0
    1.3857   -0.8000    0.0000 C   0  0  0  0  0  0  0  0  0  0  0  0
    1.9978   -2.2782    0.0000 H   0  0  0  0  0  0  0  0  0  0  0  0
    0.7734   -2.2782    0.0000 H   0  0  0  0  0  0  0  0  0  0  0  0
   -0.0000   -0.0001    0.0000 C   0  0  0  0  0  0  0  0  0  0  0  0
    0.8000    1.3856    0.0000 C   0  0  0  0  0  0  0  0  0  0  0  0
    2.2782    1.9980    0.0000 H   0  0  0  0  0  0  0  0  0  0  0  0
    2.2782    0.7734    0.0000 H   0  0  0  0  0  0  0  0  0  0  0  0
    0.2529    2.8892    0.0000 O   0  0  0  0  0  0  0  0  0  0  0  0
    1.2812    4.1148    0.0000 H   0  0  0  0  0  0  0  0  0  0  0  0
   -0.8001   -1.3856    0.0000 C   0  0  0  0  0  0  0  0  0  0  0  0
   -2.2783   -1.9980    0.0000 H   0  0  0  0  0  0  0  0  0  0  0  0
   -2.2783   -0.7734    0.0000 H   0  0  0  0  0  0  0  0  0  0  0  0
   -0.2527   -2.8892    0.0000 O   0  0  0  0  0  0  0  0  0  0  0  0
   -1.2813   -4.1148    0.0000 H   0  0  0  0  0  0  0  0  0  0  0  0
   -1.3856    0.8000    0.0000 C   0  0  0  0  0  0  0  0  0  0  0  0
   -1.9979    2.2782    0.0000 H   0  0  0  0  0  0  0  0  0  0  0  0
   -0.7733    2.2782    0.0000 H   0  0  0  0  0  0  0  0  0  0  0  0
   -2.8891    0.2527    0.0000 O   0  0  0  0  0  0  0  0  0  0  0  0
   -4.1148    1.2812    0.0000 C   0  0  0  0  0  0  0  0  0  0  0  0
   -4.1846    2.8797    0.0000 H   0  0  0  0  0  0  0  0  0  0  0  0
   -3.0340    2.4608    0.0000 H   0  0  0  0  0  0  0  0  0  0  0  0
   -5.6905    1.0034    0.0000 C   0  0  0  0  0  0  0  0  0  0  0  0
   -7.2662    0.7255    0.0000 C   0  0  0  0  0  0  0  0  0  0  0  0
   -7.1964   -0.8729    0.0000 H   0  0  0  0  0  0  0  0  0  0  0  0
   -8.3472   -0.4541    0.0000 H   0  0  0  0  0  0  0  0  0  0  0  0
   -8.4919    1.7540    0.0000 C   0  0  0  0  0  0  0  0  0  0  0  0
   -9.7177    2.7825    0.0000 H   0  0  0  0  0  0  0  0  0  0  0  0
   -9.9954    1.2067    0.0000 H   0  0  0  0  0  0  0  0  0  0  0  0
   -8.2140    3.3298    0.0000 H   0  0  0  0  0  0  0  0  0  0  0  0
   -5.9684    2.5790    0.0000 C   0  0  0  0  0  0  0  0  0  0  0  0
   -7.5668    2.5093    0.0000 H   0  0  0  0  0  0  0  0  0  0  0  0
   -7.1481    3.6600    0.0000 H   0  0  0  0  0  0  0  0  0  0  0  0
   -4.9399    3.8048    0.0000 O   0  0  0  0  0  0  0  0  0  0  0  0
   -5.4872    5.3083    0.0000 H   0  0  0  0  0  0  0  0  0  0  0  0
   -5.4128   -0.5723    0.0000 C   0  0  0  0  0  0  0  0  0  0  0  0
   -3.8142   -0.5025    0.0000 H   0  0  0  0  0  0  0  0  0  0  0  0
   -4.2329   -1.6532    0.0000 H   0  0  0  0  0  0  0  0  0  0  0  0
   -6.4411   -1.7980    0.0000 O   0  0  0  0  0  0  0  0  0  0  0  0
   -5.8938   -3.3014    0.0000 H   0  0  0  0  0  0  0  0  0  0  0  0
  1  2  1  0  0  0  0
  1  3  1  0  0  0  0
  1  4  1  0  0  0  0
  1  5  1  0  0  0  0
  5  6  1  0  0  0  0
  5  7  1  0  0  0  0
  5  8  1  0  0  0  0
  8  9  1  0  0  0  0
  9 10  1  0  0  0  0
  9 11  1  0  0  0  0
  9 12  1  0  0  0  0
 12 13  1  0  0  0  0
  8 14  1  0  0  0  0
 14 15  1  0  0  0  0
 14 16  1  0  0  0  0
 14 17  1  0  0  0  0
 17 18  1  0  0  0  0
  8 19  1  0  0  0  0
 19 20  1  0  0  0  0
 19 21  1  0  0  0  0
 19 22  1  0  0  0  0
 22 23  1  0  0  0  0
 23 24  1  0  0  0  0
 23 25  1  0  0  0  0
 23 26  1  0  0  0  0
 26 27  1  0  0  0  0
 27 28  1  0  0  0  0
 27 29  1  0  0  0  0
 27 30  1  0  0  0  0
 30 31  1  0  0  0  0
 30 32  1  0  0  0  0
 30 33  1  0  0  0  0
 26 34  1  0  0  0  0
 34 35  1  0  0  0  0
 34 36  1  0  0  0  0
 34 37  1  0  0  0  0
 37 38  1  0  0  0  0
 26 39  1  0  0  0  0
 39 40  1  0  0  0  0
 39 41  1  0  0  0  0
 39 42  1  0  0  0  0
 42 43  1  0  0  0  0
M  END
> <ChemID>
201559

> <source_casrn>
23235-61-2

> <CAS>
23235-61-2

> <SMILES>
CCC(CO)(CO)COCC(CC)(CO)CO

> <NAME>


> <preferred_name>
2,2'-(Oxydimethanediyl)bis(2-ethylpropane-1,3-diol)

> <iupac>
2,2'-(oxydimethanediyl)bis(2-ethylpropane-1,3-diol)

> <MPID>
101349

> <dsstox_substance_id>
DTXSID9044879

> <Canonical_QSARr>
CCC(COCC(CO)(CO)CC)(CO)CO

> <InChI_Code_QSARr>
InChI=1S/C12H26O5/c1-3-11(5-13,6-14)9-17-10-12(4-2,7-15)8-16/h13-16H,3-10H2,1-2H3

> <InChI Key_QSARr>
WMYINDVYGQKYMI-UHFFFAOYSA-N

> <Salt_Solvent>


> <Ready_Biodeg>
0.0

$$$$
201561
  -INDIGO-08031722522D

 21 20  0  0  0  0  0  0  0  0999 V2000
    2.6284    1.2256    0.0000 C   0  0  0  0  0  0  0  0  0  0  0  0
    3.6570    2.4514    0.0000 H   0  0  0  0  0  0  0  0  0  0  0  0
    4.2042    0.9479    0.0000 H   0  0  0  0  0  0  0  0  0  0  0  0
    2.0812    2.7292    0.0000 H   0  0  0  0  0  0  0  0  0  0  0  0
    1.6000   -0.0000    0.0000 C   0  0  0  0  0  0  0  0  0  0  0  0
    1.8088   -1.5863    0.0000 H   0  0  0  0  0  0  0  0  0  0  0  0
    2.8694   -0.9741    0.0000 H   0  0  0  0  0  0  0  0  0  0  0  0
   -0.0000   -0.0000    0.0000 C   0  0  0  0  0  0  0  0  0  0  0  0
   -0.0000   -1.6000    0.0000 N   0  0  0  0  0  0  0  0  0  0  0  0
    1.2257   -2.6285    0.0000 H   0  0  0  0  0  0  0  0  0  0  0  0
   -1.2257   -2.6285    0.0000 H   0  0  0  0  0  0  0  0  0  0  0  0
   -1.6000   -0.0000    0.0000 C   0  0  0  0  0  0  0  0  0  0  0  0
   -2.8693   -0.9741    0.0000 H   0  0  0  0  0  0  0  0  0  0  0  0
   -1.8088   -1.5863    0.0000 H   0  0  0  0  0  0  0  0  0  0  0  0
   -2.4000    1.3856    0.0000 O   0  0  0  0  0  0  0  0  0  0  0  0
   -4.0000    1.3856    0.0000 H   0  0  0  0  0  0  0  0  0  0  0  0
   -0.0000    1.6000    0.0000 C   0  0  0  0  0  0  0  0  0  0  0  0
    0.9741    2.8694    0.0000 H   0  0  0  0  0  0  0  0  0  0  0  0
    1.5864    1.8088    0.0000 H   0  0  0  0  0  0  0  0  0  0  0  0
   -1.3856    2.4000    0.0000 O   0  0  0  0  0  0  0  0  0  0  0  0
   -1.3856    4.0000    0.0000 H   0  0  0  0  0  0  0  0  0  0  0  0
  1  2  1  0  0  0  0
  1  3  1  0  0  0  0
  1  4  1  0  0  0  0
  1  5  1  0  0  0  0
  5  6  1  0  0  0  0
  5  7  1  0  0  0  0
  5  8  1  0  0  0  0
  8  9  1  0  0  0  0
  9 10  1  0  0  0  0
  9 11  1  0  0  0  0
  8 12  1  0  0  0  0
 12 13  1  0  0  0  0
 12 14  1  0  0  0  0
 12 15  1  0  0  0  0
 15 16  1  0  0  0  0
  8 17  1  0  0  0  0
 17 18  1  0  0  0  0
 17 19  1  0  0  0  0
 17 20  1  0  0  0  0
 20 21  1  0  0  0  0
M  END
> <ChemID>
201561

> <source_casrn>
115-70-8

> <CAS>
115-70-8

> <SMILES>
CCC(N)(CO)CO

> <NAME>


> <preferred_name>
2-Amino-2-ethyl-1,3-propanediol

> <iupac>
2-amino-2-ethylpropane-1,3-diol

> <MPID>
101350

> <dsstox_substance_id>
DTXSID3029150

> <Canonical_QSARr>
CCC(N)(CO)CO

> <InChI_Code_QSARr>
InChI=1S/C5H13NO2/c1-2-5(6,3-7)4-8/h7-8H,2-4,6H2,1H3

> <InChI Key_QSARr>
IOAOAKDONABGPZ-UHFFFAOYSA-N

> <Salt_Solvent>


> <Ready_Biodeg>
0.0

$$$$
201563
  -INDIGO-08031722522D

 29 30  0  0  0  0  0  0  0  0999 V2000
    1.7814    2.1230    0.0000 C   0  0  0  0  0  0  0  0  0  0  0  0
    2.0593    3.6986    0.0000 H   0  0  0  0  0  0  0  0  0  0  0  0
    3.2849    2.6702    0.0000 H   0  0  0  0  0  0  0  0  0  0  0  0
    0.5556    3.1514    0.0000 H   0  0  0  0  0  0  0  0  0  0  0  0
    0.2779    1.5756    0.0000 C   0  0  0  0  0  0  0  0  0  0  0  0
   -1.2481    2.0568    0.0000 H   0  0  0  0  0  0  0  0  0  0  0  0
   -0.4610    2.9950    0.0000 H   0  0  0  0  0  0  0  0  0  0  0  0
    0.0000    0.0000    0.0000 C   0  0  0  0  0  0  0  0  0  0  0  0
   -0.8000   -1.3857    0.0000 C   0  0  0  0  0  0  0  0  0  0  0  0
   -1.3971   -1.7870    0.0000 O   0  0  0  0  0  0  0  0  0  0  0  0
    0.0000   -2.7712    0.0000 N   0  0  0  0  0  0  0  0  0  0  0  0
   -0.8000   -4.1569    0.0000 H   0  0  0  0  0  0  0  0  0  0  0  0
    1.6000   -2.7712    0.0000 C   0  0  0  0  0  0  0  0  0  0  0  0
    2.4000   -4.1569    0.0000 O   0  0  0  0  0  0  0  0  0  0  0  0
    2.4000   -1.3857    0.0000 N   0  0  0  0  0  0  0  0  0  0  0  0
    4.0000   -1.3857    0.0000 H   0  0  0  0  0  0  0  0  0  0  0  0
    1.6000    0.0000    0.0000 C   0  0  0  0  0  0  0  0  0  0  0  0
    2.6284    1.2256    0.0000 O   0  0  0  0  0  0  0  0  0  0  0  0
   -1.5035    0.5472    0.0000 C   0  0  0  0  0  0  0  0  0  0  0  0
   -2.0508    2.0507    0.0000 C   0  0  0  0  0  0  0  0  0  0  0  0
   -1.2507    3.4364    0.0000 H   0  0  0  0  0  0  0  0  0  0  0  0
   -3.6264    2.3286    0.0000 C   0  0  0  0  0  0  0  0  0  0  0  0
   -4.1737    3.8321    0.0000 H   0  0  0  0  0  0  0  0  0  0  0  0
   -4.6548    1.1029    0.0000 C   0  0  0  0  0  0  0  0  0  0  0  0
   -6.2306    1.3807    0.0000 H   0  0  0  0  0  0  0  0  0  0  0  0
   -4.1077   -0.4006    0.0000 C   0  0  0  0  0  0  0  0  0  0  0  0
   -5.1361   -1.6263    0.0000 H   0  0  0  0  0  0  0  0  0  0  0  0
   -2.5319   -0.6784    0.0000 C   0  0  0  0  0  0  0  0  0  0  0  0
   -2.4000   -1.3857    0.0000 H   0  0  0  0  0  0  0  0  0  0  0  0
  1  2  1  0  0  0  0
  1  3  1  0  0  0  0
  1  4  1  0  0  0  0
  1  5  1  0  0  0  0
  5  6  1  0  0  0  0
  5  7  1  0  0  0  0
  5  8  1  0  0  0  0
  8  9  1  0  0  0  0
  9 10  2  0  0  0  0
  9 11  1  0  0  0  0
 11 12  1  0  0  0  0
 11 13  1  0  0  0  0
 13 14  2  0  0  0  0
 13 15  1  0  0  0  0
 15 16  1  0  0  0  0
 15 17  1  0  0  0  0
 17  8  1  0  0  0  0
 17 18  2  0  0  0  0
  8 19  1  0  0  0  0
 19 20  1  0  0  0  0
 20 21  1  0  0  0  0
 20 22  2  0  0  0  0
 22 23  1  0  0  0  0
 22 24  1  0  0  0  0
 24 25  1  0  0  0  0
 24 26  2  0  0  0  0
 26 27  1  0  0  0  0
 26 28  1  0  0  0  0
 28 19  2  0  0  0  0
 28 29  1  0  0  0  0
M  END
> <ChemID>
201563

> <source_casrn>
50-06-6

> <CAS>
50-06-6

> <SMILES>
CCC1(C(=O)NC(=O)NC1=O)c2ccccc2

> <NAME>


> <preferred_name>
Phenobarbital

> <iupac>
5-ethyl-5-phenylpyrimidine-2,4,6(1H,3H,5H)-trione

> <MPID>
101352

> <dsstox_substance_id>
DTXSID5021122

> <Canonical_QSARr>
CCC1(c2ccccc2)C(=O)NC(=O)NC1=O

> <InChI_Code_QSARr>
InChI=1S/C12H12N2O3/c1-2-12(8-6-4-3-5-7-8)9(15)13-11(17)14-10(12)16/h3-7H,2H2,1H3,(H2,13,14,15,16,17)

> <InChI Key_QSARr>
DDBREPKUVSBGFI-UHFFFAOYSA-N

> <Salt_Solvent>


> <Ready_Biodeg>
0.0

$$$$
201564
  -INDIGO-08031722522D

 24 24  0  0  0  0  0  0  0  0999 V2000
    2.7292    0.4812    0.0000 C   0  0  0  0  0  0  0  0  0  0  0  0
    4.2327   -0.0660    0.0000 H   0  0  0  0  0  0  0  0  0  0  0  0
    3.9548    1.5097    0.0000 H   0  0  0  0  0  0  0  0  0  0  0  0
    3.0070   -1.0945    0.0000 H   0  0  0  0  0  0  0  0  0  0  0  0
    1.2257    1.0285    0.0000 C   0  0  0  0  0  0  0  0  0  0  0  0
    0.3660    2.3779    0.0000 H   0  0  0  0  0  0  0  0  0  0  0  0
    1.5720    2.5905    0.0000 H   0  0  0  0  0  0  0  0  0  0  0  0
    0.0000   -0.0000    0.0000 C   0  0  0  0  0  0  0  0  0  0  0  0
    1.2257   -1.0285    0.0000 H   0  0  0  0  0  0  0  0  0  0  0  0
   -0.8000    1.3857    0.0000 C   0  0  0  0  0  0  0  0  0  0  0  0
    0.7757    1.6635    0.0000 H   0  0  0  0  0  0  0  0  0  0  0  0
   -1.0778    2.9613    0.0000 H   0  0  0  0  0  0  0  0  0  0  0  0
   -2.4000    1.3857    0.0000 C   0  0  0  0  0  0  0  0  0  0  0  0
   -2.1222    2.9613    0.0000 H   0  0  0  0  0  0  0  0  0  0  0  0
   -3.9035    1.9329    0.0000 H   0  0  0  0  0  0  0  0  0  0  0  0
   -3.2000   -0.0000    0.0000 C   0  0  0  0  0  0  0  0  0  0  0  0
   -4.4257    1.0285    0.0000 H   0  0  0  0  0  0  0  0  0  0  0  0
   -4.4257   -1.0285    0.0000 H   0  0  0  0  0  0  0  0  0  0  0  0
   -2.4000   -1.3857    0.0000 C   0  0  0  0  0  0  0  0  0  0  0  0
   -3.9035   -1.9329    0.0000 H   0  0  0  0  0  0  0  0  0  0  0  0
   -2.1222   -2.9613    0.0000 H   0  0  0  0  0  0  0  0  0  0  0  0
   -0.8000   -1.3857    0.0000 C   0  0  0  0  0  0  0  0  0  0  0  0
   -1.0778   -2.9613    0.0000 H   0  0  0  0  0  0  0  0  0  0  0  0
    0.7035   -1.9329    0.0000 H   0  0  0  0  0  0  0  0  0  0  0  0
  1  2  1  0  0  0  0
  1  3  1  0  0  0  0
  1  4  1  0  0  0  0
  1  5  1  0  0  0  0
  5  6  1  0  0  0  0
  5  7  1  0  0  0  0
  5  8  1  0  0  0  0
  8  9  1  0  0  0  0
  8 10  1  0  0  0  0
 10 11  1  0  0  0  0
 10 12  1  0  0  0  0
 10 13  1  0  0  0  0
 13 14  1  0  0  0  0
 13 15  1  0  0  0  0
 13 16  1  0  0  0  0
 16 17  1  0  0  0  0
 16 18  1  0  0  0  0
 16 19  1  0  0  0  0
 19 20  1  0  0  0  0
 19 21  1  0  0  0  0
 19 22  1  0  0  0  0
 22  8  1  0  0  0  0
 22 23  1  0  0  0  0
 22 24  1  0  0  0  0
M  END
> <ChemID>
201564

> <source_casrn>
1678-91-7

> <CAS>
1678-91-7

> <SMILES>
CCC1CCCCC1

> <NAME>


> <preferred_name>
Ethylcyclohexane

> <iupac>
ethylcyclohexane

> <MPID>
101353

> <dsstox_substance_id>
DTXSID1051779

> <Canonical_QSARr>
CCC1CCCCC1

> <InChI_Code_QSARr>
InChI=1S/C8H16/c1-2-8-6-4-3-5-7-8/h8H,2-7H2,1H3

> <InChI Key_QSARr>
IIEWJVIFRVWJOD-UHFFFAOYSA-N

> <Salt_Solvent>


> <Ready_Biodeg>
0.0

$$$$
201568
  -INDIGO-08031722522D

 20 19  0  0  0  0  0  0  0  0999 V2000
    4.2327    0.0660    0.0000 C   0  0  0  0  0  0  0  0  0  0  0  0
    5.7362    0.6132    0.0000 H   0  0  0  0  0  0  0  0  0  0  0  0
    5.4584   -0.9624    0.0000 H   0  0  0  0  0  0  0  0  0  0  0  0
    4.5105    1.6417    0.0000 H   0  0  0  0  0  0  0  0  0  0  0  0
    2.7291   -0.4813    0.0000 C   0  0  0  0  0  0  0  0  0  0  0  0
    3.0755   -2.0433    0.0000 H   0  0  0  0  0  0  0  0  0  0  0  0
    1.8695   -1.8307    0.0000 H   0  0  0  0  0  0  0  0  0  0  0  0
    1.5036    0.5472    0.0000 C   0  0  0  0  0  0  0  0  0  0  0  0
    1.1572    2.1093    0.0000 H   0  0  0  0  0  0  0  0  0  0  0  0
    2.3632    1.8967    0.0000 H   0  0  0  0  0  0  0  0  0  0  0  0
    0.0000    0.0000    0.0000 C   0  0  0  0  0  0  0  0  0  0  0  0
    0.8000   -1.3856    0.0000 H   0  0  0  0  0  0  0  0  0  0  0  0
   -1.3856   -0.8000    0.0000 C   0  0  0  0  0  0  0  0  0  0  0  0
   -2.7713   -1.6000    0.0000 H   0  0  0  0  0  0  0  0  0  0  0  0
   -1.3856   -2.4000    0.0000 H   0  0  0  0  0  0  0  0  0  0  0  0
   -2.7713    0.0000    0.0000 H   0  0  0  0  0  0  0  0  0  0  0  0
   -0.8000    1.3856    0.0000 C   0  0  0  0  0  0  0  0  0  0  0  0
   -1.6000    2.7713    0.0000 H   0  0  0  0  0  0  0  0  0  0  0  0
    0.0000    2.7713    0.0000 H   0  0  0  0  0  0  0  0  0  0  0  0
   -2.4000    1.3856    0.0000 H   0  0  0  0  0  0  0  0  0  0  0  0
  1  2  1  0  0  0  0
  1  3  1  0  0  0  0
  1  4  1  0  0  0  0
  1  5  1  0  0  0  0
  5  6  1  0  0  0  0
  5  7  1  0  0  0  0
  5  8  1  0  0  0  0
  8  9  1  0  0  0  0
  8 10  1  0  0  0  0
  8 11  1  0  0  0  0
 11 12  1  0  0  0  0
 11 13  1  0  0  0  0
 13 14  1  0  0  0  0
 13 15  1  0  0  0  0
 13 16  1  0  0  0  0
 11 17  1  0  0  0  0
 17 18  1  0  0  0  0
 17 19  1  0  0  0  0
 17 20  1  0  0  0  0
M  END
> <ChemID>
201568

> <source_casrn>
107-83-5

> <CAS>
107-83-5

> <SMILES>
CCCC(C)C

> <NAME>


> <preferred_name>
2-Methylpentane

> <iupac>
2-methylpentane

> <MPID>
101355

> <dsstox_substance_id>
DTXSID4029143

> <Canonical_QSARr>
CCCC(C)C

> <InChI_Code_QSARr>
InChI=1S/C6H14/c1-4-5-6(2)3/h6H,4-5H2,1-3H3

> <InChI Key_QSARr>
AFABGHUZZDYHJO-UHFFFAOYSA-N

> <Salt_Solvent>


> <Ready_Biodeg>
1.0

$$$$
201569
  -INDIGO-08031722522D

 21 21  0  0  0  0  0  0  0  0999 V2000
    2.4000   -1.3857    0.0000 C   0  0  0  0  0  0  0  0  0  0  0  0
    4.0000   -1.3857    0.0000 H   0  0  0  0  0  0  0  0  0  0  0  0
    3.2000   -2.7713    0.0000 H   0  0  0  0  0  0  0  0  0  0  0  0
    3.2000   -0.0000    0.0000 H   0  0  0  0  0  0  0  0  0  0  0  0
    0.7999   -1.3857    0.0000 C   0  0  0  0  0  0  0  0  0  0  0  0
    0.5911   -2.9720    0.0000 H   0  0  0  0  0  0  0  0  0  0  0  0
   -0.4693   -2.3596    0.0000 H   0  0  0  0  0  0  0  0  0  0  0  0
   -0.0000   -0.0000    0.0000 C   0  0  0  0  0  0  0  0  0  0  0  0
    0.2088    1.5864    0.0000 H   0  0  0  0  0  0  0  0  0  0  0  0
    1.2694    0.9740    0.0000 H   0  0  0  0  0  0  0  0  0  0  0  0
   -1.6000   -0.0000    0.0000 C   0  0  0  0  0  0  0  0  0  0  0  0
   -2.4000    1.3857    0.0000 C   0  0  0  0  0  0  0  0  0  0  0  0
   -1.6000    2.7713    0.0000 H   0  0  0  0  0  0  0  0  0  0  0  0
   -4.0001    1.3857    0.0000 C   0  0  0  0  0  0  0  0  0  0  0  0
   -4.8000    2.7713    0.0000 O   0  0  0  0  0  0  0  0  0  0  0  0
   -4.8000   -0.0000    0.0000 N   0  0  0  0  0  0  0  0  0  0  0  0
   -6.4000   -0.0000    0.0000 H   0  0  0  0  0  0  0  0  0  0  0  0
   -4.0001   -1.3857    0.0000 C   0  0  0  0  0  0  0  0  0  0  0  0
   -4.8000   -2.7713    0.0000 S   0  0  0  0  0  0  0  0  0  0  0  0
   -2.4000   -1.3857    0.0000 N   0  0  0  0  0  0  0  0  0  0  0  0
   -1.6000   -2.7713    0.0000 H   0  0  0  0  0  0  0  0  0  0  0  0
  1  2  1  0  0  0  0
  1  3  1  0  0  0  0
  1  4  1  0  0  0  0
  1  5  1  0  0  0  0
  5  6  1  0  0  0  0
  5  7  1  0  0  0  0
  5  8  1  0  0  0  0
  8  9  1  0  0  0  0
  8 10  1  0  0  0  0
  8 11  1  0  0  0  0
 11 12  2  0  0  0  0
 12 13  1  0  0  0  0
 12 14  1  0  0  0  0
 14 15  2  0  0  0  0
 14 16  1  0  0  0  0
 16 17  1  0  0  0  0
 16 18  1  0  0  0  0
 18 19  2  0  0  0  0
 18 20  1  0  0  0  0
 20 11  1  0  0  0  0
 20 21  1  0  0  0  0
M  END
> <ChemID>
201569

> <source_casrn>
51-52-5

> <CAS>
51-52-5

> <SMILES>
CCCC1=CC(=O)NC(=S)N1

> <NAME>


> <preferred_name>
6-Propyl-2-thiouracil

> <iupac>
6-propyl-2-thioxo-2,3-dihydropyrimidin-4(1H)-one

> <MPID>
101356

> <dsstox_substance_id>
DTXSID5021209

> <Canonical_QSARr>
CCCC1=CC(=O)NC(=S)N1

> <InChI_Code_QSARr>
InChI=1S/C7H10N2OS/c1-2-3-5-4-6(10)9-7(11)8-5/h4H,2-3H2,1H3,(H2,8,9,10,11)

> <InChI Key_QSARr>
KNAHARQHSZJURB-UHFFFAOYSA-N

> <Salt_Solvent>


> <Ready_Biodeg>
0.0

$$$$
201572
  -INDIGO-08031722522D

 83 82  0  0  0  0  0  0  0  0999 V2000
   -0.1562   10.0832    0.0000 C   0  0  0  0  0  0  0  0  0  0  0  0
    0.8723   11.3089    0.0000 H   0  0  0  0  0  0  0  0  0  0  0  0
   -0.7035   11.5867    0.0000 H   0  0  0  0  0  0  0  0  0  0  0  0
    1.4193    9.8054    0.0000 H   0  0  0  0  0  0  0  0  0  0  0  0
    0.3908    8.5798    0.0000 C   0  0  0  0  0  0  0  0  0  0  0  0
    1.9529    8.9261    0.0000 H   0  0  0  0  0  0  0  0  0  0  0  0
    1.7402    7.7199    0.0000 H   0  0  0  0  0  0  0  0  0  0  0  0
   -0.6376    7.3541    0.0000 C   0  0  0  0  0  0  0  0  0  0  0  0
    0.4433    6.1744    0.0000 H   0  0  0  0  0  0  0  0  0  0  0  0
   -0.7074    5.7555    0.0000 H   0  0  0  0  0  0  0  0  0  0  0  0
   -2.2133    7.6320    0.0000 C   0  0  0  0  0  0  0  0  0  0  0  0
   -3.2942    8.8114    0.0000 H   0  0  0  0  0  0  0  0  0  0  0  0
   -2.1435    9.2303    0.0000 H   0  0  0  0  0  0  0  0  0  0  0  0
   -3.2417    6.4061    0.0000 C   0  0  0  0  0  0  0  0  0  0  0  0
   -2.0159    5.3778    0.0000 H   0  0  0  0  0  0  0  0  0  0  0  0
   -4.4673    7.4346    0.0000 C   0  0  0  0  0  0  0  0  0  0  0  0
   -6.0537    7.2258    0.0000 H   0  0  0  0  0  0  0  0  0  0  0  0
   -5.4414    6.1654    0.0000 H   0  0  0  0  0  0  0  0  0  0  0  0
   -4.4673    9.0348    0.0000 C   0  0  0  0  0  0  0  0  0  0  0  0
   -5.8529    9.8346    0.0000 H   0  0  0  0  0  0  0  0  0  0  0  0
   -4.4673   10.6347    0.0000 H   0  0  0  0  0  0  0  0  0  0  0  0
   -5.8529    8.2347    0.0000 H   0  0  0  0  0  0  0  0  0  0  0  0
   -4.2702    5.1804    0.0000 C   0  0  0  0  0  0  0  0  0  0  0  0
   -5.8700    5.1804    0.0000 O   0  0  0  0  0  0  0  0  0  0  0  0
   -3.7229    3.6770    0.0000 O   0  0  0  0  0  0  0  0  0  0  0  0
   -4.7513    2.4513    0.0000 C   0  0  0  0  0  0  0  0  0  0  0  0
   -6.1010    3.3109    0.0000 H   0  0  0  0  0  0  0  0  0  0  0  0
   -6.3136    2.1049    0.0000 H   0  0  0  0  0  0  0  0  0  0  0  0
   -4.2043    0.9478    0.0000 C   0  0  0  0  0  0  0  0  0  0  0  0
   -3.6570   -0.5556    0.0000 H   0  0  0  0  0  0  0  0  0  0  0  0
   -5.5896    0.1478    0.0000 C   0  0  0  0  0  0  0  0  0  0  0  0
   -6.2019   -1.3305    0.0000 H   0  0  0  0  0  0  0  0  0  0  0  0
   -4.9777   -1.3305    0.0000 H   0  0  0  0  0  0  0  0  0  0  0  0
   -6.9753    0.9478    0.0000 O   0  0  0  0  0  0  0  0  0  0  0  0
   -8.3610    0.1478    0.0000 C   0  0  0  0  0  0  0  0  0  0  0  0
   -8.0834   -1.4280    0.0000 O   0  0  0  0  0  0  0  0  0  0  0  0
   -9.7467    0.9478    0.0000 C   0  0  0  0  0  0  0  0  0  0  0  0
   -8.9467    2.3334    0.0000 H   0  0  0  0  0  0  0  0  0  0  0  0
  -10.5466   -0.4377    0.0000 C   0  0  0  0  0  0  0  0  0  0  0  0
  -10.3379   -2.0241    0.0000 H   0  0  0  0  0  0  0  0  0  0  0  0
   -9.2775   -1.4118    0.0000 H   0  0  0  0  0  0  0  0  0  0  0  0
  -12.1467   -0.4377    0.0000 C   0  0  0  0  0  0  0  0  0  0  0  0
  -12.9467   -1.8235    0.0000 H   0  0  0  0  0  0  0  0  0  0  0  0
  -13.7466   -0.4377    0.0000 H   0  0  0  0  0  0  0  0  0  0  0  0
  -11.3468   -1.8235    0.0000 H   0  0  0  0  0  0  0  0  0  0  0  0
  -10.9725    1.9764    0.0000 C   0  0  0  0  0  0  0  0  0  0  0  0
  -12.1519    0.8953    0.0000 H   0  0  0  0  0  0  0  0  0  0  0  0
  -12.5708    2.0460    0.0000 H   0  0  0  0  0  0  0  0  0  0  0  0
  -10.6945    3.5521    0.0000 C   0  0  0  0  0  0  0  0  0  0  0  0
   -9.5148    4.6330    0.0000 H   0  0  0  0  0  0  0  0  0  0  0  0
   -9.0959    3.4823    0.0000 H   0  0  0  0  0  0  0  0  0  0  0  0
  -11.9204    4.5804    0.0000 C   0  0  0  0  0  0  0  0  0  0  0  0
  -12.2666    6.1426    0.0000 H   0  0  0  0  0  0  0  0  0  0  0  0
  -11.0606    5.9298    0.0000 H   0  0  0  0  0  0  0  0  0  0  0  0
  -13.4238    4.0332    0.0000 C   0  0  0  0  0  0  0  0  0  0  0  0
  -14.6493    5.0617    0.0000 H   0  0  0  0  0  0  0  0  0  0  0  0
  -14.9272    3.4860    0.0000 H   0  0  0  0  0  0  0  0  0  0  0  0
  -13.7014    2.4574    0.0000 H   0  0  0  0  0  0  0  0  0  0  0  0
   -2.6285    1.2257    0.0000 O   0  0  0  0  0  0  0  0  0  0  0  0
   -1.6001    0.0001    0.0000 C   0  0  0  0  0  0  0  0  0  0  0  0
   -2.4000   -1.3857    0.0000 O   0  0  0  0  0  0  0  0  0  0  0  0
    0.0000    0.0001    0.0000 C   0  0  0  0  0  0  0  0  0  0  0  0
    1.5999    0.0001    0.0000 H   0  0  0  0  0  0  0  0  0  0  0  0
    0.0000    1.6000    0.0000 C   0  0  0  0  0  0  0  0  0  0  0  0
   -0.9741    2.8694    0.0000 H   0  0  0  0  0  0  0  0  0  0  0  0
   -1.5864    1.8088    0.0000 H   0  0  0  0  0  0  0  0  0  0  0  0
    1.3857    2.4001    0.0000 C   0  0  0  0  0  0  0  0  0  0  0  0
    2.7714    3.1999    0.0000 H   0  0  0  0  0  0  0  0  0  0  0  0
    1.3857    4.0000    0.0000 H   0  0  0  0  0  0  0  0  0  0  0  0
    2.7714    1.6000    0.0000 H   0  0  0  0  0  0  0  0  0  0  0  0
    0.2780   -1.5757    0.0000 C   0  0  0  0  0  0  0  0  0  0  0  0
   -1.2480   -2.0567    0.0000 H   0  0  0  0  0  0  0  0  0  0  0  0
   -0.4609   -2.9949    0.0000 H   0  0  0  0  0  0  0  0  0  0  0  0
    1.7814   -2.1229    0.0000 C   0  0  0  0  0  0  0  0  0  0  0  0
    3.3074   -1.6418    0.0000 H   0  0  0  0  0  0  0  0  0  0  0  0
    2.5200   -0.7036    0.0000 H   0  0  0  0  0  0  0  0  0  0  0  0
    2.0593   -3.6986    0.0000 C   0  0  0  0  0  0  0  0  0  0  0  0
    0.5333   -4.1797    0.0000 H   0  0  0  0  0  0  0  0  0  0  0  0
    1.3204   -5.1179    0.0000 H   0  0  0  0  0  0  0  0  0  0  0  0
    3.5628   -4.2458    0.0000 C   0  0  0  0  0  0  0  0  0  0  0  0
    5.0662   -4.7930    0.0000 H   0  0  0  0  0  0  0  0  0  0  0  0
    3.8404   -5.8215    0.0000 H   0  0  0  0  0  0  0  0  0  0  0  0
    4.7883   -3.2173    0.0000 H   0  0  0  0  0  0  0  0  0  0  0  0
  1  2  1  0  0  0  0
  1  3  1  0  0  0  0
  1  4  1  0  0  0  0
  1  5  1  0  0  0  0
  5  6  1  0  0  0  0
  5  7  1  0  0  0  0
  5  8  1  0  0  0  0
  8  9  1  0  0  0  0
  8 10  1  0  0  0  0
  8 11  1  0  0  0  0
 11 12  1  0  0  0  0
 11 13  1  0  0  0  0
 11 14  1  0  0  0  0
 14 15  1  0  0  0  0
 14 16  1  0  0  0  0
 16 17  1  0  0  0  0
 16 18  1  0  0  0  0
 16 19  1  0  0  0  0
 19 20  1  0  0  0  0
 19 21  1  0  0  0  0
 19 22  1  0  0  0  0
 14 23  1  0  0  0  0
 23 24  2  0  0  0  0
 23 25  1  0  0  0  0
 25 26  1  0  0  0  0
 26 27  1  0  0  0  0
 26 28  1  0  0  0  0
 26 29  1  0  0  0  0
 29 30  1  0  0  0  0
 29 31  1  0  0  0  0
 31 32  1  0  0  0  0
 31 33  1  0  0  0  0
 31 34  1  0  0  0  0
 34 35  1  0  0  0  0
 35 36  2  0  0  0  0
 35 37  1  0  0  0  0
 37 38  1  0  0  0  0
 37 39  1  0  0  0  0
 39 40  1  0  0  0  0
 39 41  1  0  0  0  0
 39 42  1  0  0  0  0
 42 43  1  0  0  0  0
 42 44  1  0  0  0  0
 42 45  1  0  0  0  0
 37 46  1  0  0  0  0
 46 47  1  0  0  0  0
 46 48  1  0  0  0  0
 46 49  1  0  0  0  0
 49 50  1  0  0  0  0
 49 51  1  0  0  0  0
 49 52  1  0  0  0  0
 52 53  1  0  0  0  0
 52 54  1  0  0  0  0
 52 55  1  0  0  0  0
 55 56  1  0  0  0  0
 55 57  1  0  0  0  0
 55 58  1  0  0  0  0
 29 59  1  0  0  0  0
 59 60  1  0  0  0  0
 60 61  2  0  0  0  0
 60 62  1  0  0  0  0
 62 63  1  0  0  0  0
 62 64  1  0  0  0  0
 64 65  1  0  0  0  0
 64 66  1  0  0  0  0
 64 67  1  0  0  0  0
 67 68  1  0  0  0  0
 67 69  1  0  0  0  0
 67 70  1  0  0  0  0
 62 71  1  0  0  0  0
 71 72  1  0  0  0  0
 71 73  1  0  0  0  0
 71 74  1  0  0  0  0
 74 75  1  0  0  0  0
 74 76  1  0  0  0  0
 74 77  1  0  0  0  0
 77 78  1  0  0  0  0
 77 79  1  0  0  0  0
 77 80  1  0  0  0  0
 80 81  1  0  0  0  0
 80 82  1  0  0  0  0
 80 83  1  0  0  0  0
M  END
> <ChemID>
201572

> <source_casrn>
7360-38-5

> <CAS>
NOCAS_864043

> <SMILES>
CCCCC(CC)C(=O)OCC(COC(=O)C(CC)CCCC)OC(=O)C(CC)CCCC

> <NAME>


> <preferred_name>


> <iupac>


> <MPID>
101357

> <dsstox_substance_id>
DTXSID00864043

> <Canonical_QSARr>
CCCCC(CC)C(=O)OC(COC(=O)C(CCCC)CC)COC(=O)C(CCCC)CC

> <InChI_Code_QSARr>
InChI=1S/C27H50O6/c1-7-13-16-21(10-4)25(28)31-19-24(33-27(30)23(12-6)18-15-9-3)20-32-26(29)22(11-5)17-14-8-2/h21-24H,7-20H2,1-6H3

> <InChI Key_QSARr>
DGSZGZSCHSQXFV-UHFFFAOYSA-N

> <Salt_Solvent>


> <Ready_Biodeg>
1.0

$$$$
201573
  -INDIGO-08031722522D

113112  0  0  0  0  0  0  0  0999 V2000
    7.6325    6.3303    0.0000 C   0  0  0  0  0  0  0  0  0  0  0  0
    8.4327    7.7159    0.0000 H   0  0  0  0  0  0  0  0  0  0  0  0
    9.2325    6.3303    0.0000 H   0  0  0  0  0  0  0  0  0  0  0  0
    8.4327    4.9447    0.0000 H   0  0  0  0  0  0  0  0  0  0  0  0
    6.0325    6.3303    0.0000 C   0  0  0  0  0  0  0  0  0  0  0  0
    5.8236    7.9169    0.0000 H   0  0  0  0  0  0  0  0  0  0  0  0
    4.7632    7.3044    0.0000 H   0  0  0  0  0  0  0  0  0  0  0  0
    5.2326    4.9447    0.0000 C   0  0  0  0  0  0  0  0  0  0  0  0
    3.7545    5.5572    0.0000 H   0  0  0  0  0  0  0  0  0  0  0  0
    3.7545    4.3326    0.0000 H   0  0  0  0  0  0  0  0  0  0  0  0
    6.0325    3.5592    0.0000 C   0  0  0  0  0  0  0  0  0  0  0  0
    7.5109    2.9470    0.0000 H   0  0  0  0  0  0  0  0  0  0  0  0
    7.5109    4.1713    0.0000 H   0  0  0  0  0  0  0  0  0  0  0  0
    5.2326    2.1736    0.0000 C   0  0  0  0  0  0  0  0  0  0  0  0
    3.8470    2.9734    0.0000 H   0  0  0  0  0  0  0  0  0  0  0  0
    6.6182    1.3734    0.0000 C   0  0  0  0  0  0  0  0  0  0  0  0
    6.9645   -0.1884    0.0000 H   0  0  0  0  0  0  0  0  0  0  0  0
    5.7587    0.0239    0.0000 H   0  0  0  0  0  0  0  0  0  0  0  0
    8.1219    1.9206    0.0000 C   0  0  0  0  0  0  0  0  0  0  0  0
    9.3474    0.8922    0.0000 H   0  0  0  0  0  0  0  0  0  0  0  0
    9.6253    2.4679    0.0000 H   0  0  0  0  0  0  0  0  0  0  0  0
    7.8440    0.3450    0.0000 H   0  0  0  0  0  0  0  0  0  0  0  0
    4.2042    0.9478    0.0000 C   0  0  0  0  0  0  0  0  0  0  0  0
    4.7515   -0.5556    0.0000 O   0  0  0  0  0  0  0  0  0  0  0  0
    2.6286    1.2256    0.0000 O   0  0  0  0  0  0  0  0  0  0  0  0
    1.5999    0.0001    0.0000 C   0  0  0  0  0  0  0  0  0  0  0  0
    2.8694   -0.9739    0.0000 H   0  0  0  0  0  0  0  0  0  0  0  0
    1.8087   -1.5864    0.0000 H   0  0  0  0  0  0  0  0  0  0  0  0
    0.0001    0.0001    0.0000 C   0  0  0  0  0  0  0  0  0  0  0  0
   -1.5999    0.0001    0.0000 C   0  0  0  0  0  0  0  0  0  0  0  0
   -2.8694    0.9739    0.0000 H   0  0  0  0  0  0  0  0  0  0  0  0
   -1.8087    1.5864    0.0000 H   0  0  0  0  0  0  0  0  0  0  0  0
   -2.6286   -1.2256    0.0000 O   0  0  0  0  0  0  0  0  0  0  0  0
   -4.2042   -0.9478    0.0000 C   0  0  0  0  0  0  0  0  0  0  0  0
   -4.7515    0.5556    0.0000 O   0  0  0  0  0  0  0  0  0  0  0  0
   -5.2326   -2.1736    0.0000 C   0  0  0  0  0  0  0  0  0  0  0  0
   -3.8470   -2.9734    0.0000 H   0  0  0  0  0  0  0  0  0  0  0  0
   -6.6182   -1.3734    0.0000 C   0  0  0  0  0  0  0  0  0  0  0  0
   -6.9645    0.1884    0.0000 H   0  0  0  0  0  0  0  0  0  0  0  0
   -5.7587   -0.0239    0.0000 H   0  0  0  0  0  0  0  0  0  0  0  0
   -8.1219   -1.9206    0.0000 C   0  0  0  0  0  0  0  0  0  0  0  0
   -9.3474   -0.8923    0.0000 H   0  0  0  0  0  0  0  0  0  0  0  0
   -9.6253   -2.4679    0.0000 H   0  0  0  0  0  0  0  0  0  0  0  0
   -7.8440   -0.3450    0.0000 H   0  0  0  0  0  0  0  0  0  0  0  0
   -6.0325   -3.5592    0.0000 C   0  0  0  0  0  0  0  0  0  0  0  0
   -7.5109   -2.9470    0.0000 H   0  0  0  0  0  0  0  0  0  0  0  0
   -7.5109   -4.1713    0.0000 H   0  0  0  0  0  0  0  0  0  0  0  0
   -5.2326   -4.9447    0.0000 C   0  0  0  0  0  0  0  0  0  0  0  0
   -3.7545   -5.5572    0.0000 H   0  0  0  0  0  0  0  0  0  0  0  0
   -3.7545   -4.3326    0.0000 H   0  0  0  0  0  0  0  0  0  0  0  0
   -6.0325   -6.3303    0.0000 C   0  0  0  0  0  0  0  0  0  0  0  0
   -5.8236   -7.9169    0.0000 H   0  0  0  0  0  0  0  0  0  0  0  0
   -4.7632   -7.3044    0.0000 H   0  0  0  0  0  0  0  0  0  0  0  0
   -7.6325   -6.3303    0.0000 C   0  0  0  0  0  0  0  0  0  0  0  0
   -8.4327   -7.7159    0.0000 H   0  0  0  0  0  0  0  0  0  0  0  0
   -9.2325   -6.3303    0.0000 H   0  0  0  0  0  0  0  0  0  0  0  0
   -8.4327   -4.9447    0.0000 H   0  0  0  0  0  0  0  0  0  0  0  0
    0.0001    1.5999    0.0000 C   0  0  0  0  0  0  0  0  0  0  0  0
    0.9739    2.8694    0.0000 H   0  0  0  0  0  0  0  0  0  0  0  0
    1.5864    1.8087    0.0000 H   0  0  0  0  0  0  0  0  0  0  0  0
   -1.2256    2.6286    0.0000 O   0  0  0  0  0  0  0  0  0  0  0  0
   -0.9478    4.2042    0.0000 C   0  0  0  0  0  0  0  0  0  0  0  0
    0.5556    4.7515    0.0000 O   0  0  0  0  0  0  0  0  0  0  0  0
   -2.1736    5.2326    0.0000 C   0  0  0  0  0  0  0  0  0  0  0  0
   -2.9734    3.8470    0.0000 H   0  0  0  0  0  0  0  0  0  0  0  0
   -1.3734    6.6182    0.0000 C   0  0  0  0  0  0  0  0  0  0  0  0
    0.1884    6.9645    0.0000 H   0  0  0  0  0  0  0  0  0  0  0  0
   -0.0239    5.7587    0.0000 H   0  0  0  0  0  0  0  0  0  0  0  0
   -1.9206    8.1219    0.0000 C   0  0  0  0  0  0  0  0  0  0  0  0
   -0.8923    9.3474    0.0000 H   0  0  0  0  0  0  0  0  0  0  0  0
   -2.4679    9.6253    0.0000 H   0  0  0  0  0  0  0  0  0  0  0  0
   -0.3450    7.8440    0.0000 H   0  0  0  0  0  0  0  0  0  0  0  0
   -3.5592    6.0325    0.0000 C   0  0  0  0  0  0  0  0  0  0  0  0
   -2.9470    7.5109    0.0000 H   0  0  0  0  0  0  0  0  0  0  0  0
   -4.1713    7.5109    0.0000 H   0  0  0  0  0  0  0  0  0  0  0  0
   -4.9447    5.2326    0.0000 C   0  0  0  0  0  0  0  0  0  0  0  0
   -5.5572    3.7545    0.0000 H   0  0  0  0  0  0  0  0  0  0  0  0
   -4.3326    3.7545    0.0000 H   0  0  0  0  0  0  0  0  0  0  0  0
   -6.3303    6.0325    0.0000 C   0  0  0  0  0  0  0  0  0  0  0  0
   -7.9169    5.8236    0.0000 H   0  0  0  0  0  0  0  0  0  0  0  0
   -7.3044    4.7632    0.0000 H   0  0  0  0  0  0  0  0  0  0  0  0
   -6.3303    7.6325    0.0000 C   0  0  0  0  0  0  0  0  0  0  0  0
   -7.7159    8.4327    0.0000 H   0  0  0  0  0  0  0  0  0  0  0  0
   -6.3303    9.2325    0.0000 H   0  0  0  0  0  0  0  0  0  0  0  0
   -7.7159    6.8326    0.0000 H   0  0  0  0  0  0  0  0  0  0  0  0
    0.0001   -1.5999    0.0000 C   0  0  0  0  0  0  0  0  0  0  0  0
   -0.9739   -2.8694    0.0000 H   0  0  0  0  0  0  0  0  0  0  0  0
   -1.5864   -1.8087    0.0000 H   0  0  0  0  0  0  0  0  0  0  0  0
    1.2256   -2.6286    0.0000 O   0  0  0  0  0  0  0  0  0  0  0  0
    0.9478   -4.2042    0.0000 C   0  0  0  0  0  0  0  0  0  0  0  0
   -0.5556   -4.7515    0.0000 O   0  0  0  0  0  0  0  0  0  0  0  0
    2.1736   -5.2326    0.0000 C   0  0  0  0  0  0  0  0  0  0  0  0
    2.9734   -3.8470    0.0000 H   0  0  0  0  0  0  0  0  0  0  0  0
    1.3734   -6.6182    0.0000 C   0  0  0  0  0  0  0  0  0  0  0  0
   -0.1884   -6.9645    0.0000 H   0  0  0  0  0  0  0  0  0  0  0  0
    0.0239   -5.7587    0.0000 H   0  0  0  0  0  0  0  0  0  0  0  0
    1.9206   -8.1219    0.0000 C   0  0  0  0  0  0  0  0  0  0  0  0
    0.8922   -9.3474    0.0000 H   0  0  0  0  0  0  0  0  0  0  0  0
    2.4679   -9.6253    0.0000 H   0  0  0  0  0  0  0  0  0  0  0  0
    0.3450   -7.8440    0.0000 H   0  0  0  0  0  0  0  0  0  0  0  0
    3.5592   -6.0325    0.0000 C   0  0  0  0  0  0  0  0  0  0  0  0
    2.9470   -7.5109    0.0000 H   0  0  0  0  0  0  0  0  0  0  0  0
    4.1713   -7.5109    0.0000 H   0  0  0  0  0  0  0  0  0  0  0  0
    4.9447   -5.2326    0.0000 C   0  0  0  0  0  0  0  0  0  0  0  0
    5.5572   -3.7545    0.0000 H   0  0  0  0  0  0  0  0  0  0  0  0
    4.3326   -3.7545    0.0000 H   0  0  0  0  0  0  0  0  0  0  0  0
    6.3303   -6.0325    0.0000 C   0  0  0  0  0  0  0  0  0  0  0  0
    7.9169   -5.8236    0.0000 H   0  0  0  0  0  0  0  0  0  0  0  0
    7.3044   -4.7632    0.0000 H   0  0  0  0  0  0  0  0  0  0  0  0
    6.3303   -7.6325    0.0000 C   0  0  0  0  0  0  0  0  0  0  0  0
    7.7159   -8.4327    0.0000 H   0  0  0  0  0  0  0  0  0  0  0  0
    6.3303   -9.2325    0.0000 H   0  0  0  0  0  0  0  0  0  0  0  0
    7.7159   -6.8326    0.0000 H   0  0  0  0  0  0  0  0  0  0  0  0
  1  2  1  0  0  0  0
  1  3  1  0  0  0  0
  1  4  1  0  0  0  0
  1  5  1  0  0  0  0
  5  6  1  0  0  0  0
  5  7  1  0  0  0  0
  5  8  1  0  0  0  0
  8  9  1  0  0  0  0
  8 10  1  0  0  0  0
  8 11  1  0  0  0  0
 11 12  1  0  0  0  0
 11 13  1  0  0  0  0
 11 14  1  0  0  0  0
 14 15  1  0  0  0  0
 14 16  1  0  0  0  0
 16 17  1  0  0  0  0
 16 18  1  0  0  0  0
 16 19  1  0  0  0  0
 19 20  1  0  0  0  0
 19 21  1  0  0  0  0
 19 22  1  0  0  0  0
 14 23  1  0  0  0  0
 23 24  2  0  0  0  0
 23 25  1  0  0  0  0
 25 26  1  0  0  0  0
 26 27  1  0  0  0  0
 26 28  1  0  0  0  0
 26 29  1  0  0  0  0
 29 30  1  0  0  0  0
 30 31  1  0  0  0  0
 30 32  1  0  0  0  0
 30 33  1  0  0  0  0
 33 34  1  0  0  0  0
 34 35  2  0  0  0  0
 34 36  1  0  0  0  0
 36 37  1  0  0  0  0
 36 38  1  0  0  0  0
 38 39  1  0  0  0  0
 38 40  1  0  0  0  0
 38 41  1  0  0  0  0
 41 42  1  0  0  0  0
 41 43  1  0  0  0  0
 41 44  1  0  0  0  0
 36 45  1  0  0  0  0
 45 46  1  0  0  0  0
 45 47  1  0  0  0  0
 45 48  1  0  0  0  0
 48 49  1  0  0  0  0
 48 50  1  0  0  0  0
 48 51  1  0  0  0  0
 51 52  1  0  0  0  0
 51 53  1  0  0  0  0
 51 54  1  0  0  0  0
 54 55  1  0  0  0  0
 54 56  1  0  0  0  0
 54 57  1  0  0  0  0
 29 58  1  0  0  0  0
 58 59  1  0  0  0  0
 58 60  1  0  0  0  0
 58 61  1  0  0  0  0
 61 62  1  0  0  0  0
 62 63  2  0  0  0  0
 62 64  1  0  0  0  0
 64 65  1  0  0  0  0
 64 66  1  0  0  0  0
 66 67  1  0  0  0  0
 66 68  1  0  0  0  0
 66 69  1  0  0  0  0
 69 70  1  0  0  0  0
 69 71  1  0  0  0  0
 69 72  1  0  0  0  0
 64 73  1  0  0  0  0
 73 74  1  0  0  0  0
 73 75  1  0  0  0  0
 73 76  1  0  0  0  0
 76 77  1  0  0  0  0
 76 78  1  0  0  0  0
 76 79  1  0  0  0  0
 79 80  1  0  0  0  0
 79 81  1  0  0  0  0
 79 82  1  0  0  0  0
 82 83  1  0  0  0  0
 82 84  1  0  0  0  0
 82 85  1  0  0  0  0
 29 86  1  0  0  0  0
 86 87  1  0  0  0  0
 86 88  1  0  0  0  0
 86 89  1  0  0  0  0
 89 90  1  0  0  0  0
 90 91  2  0  0  0  0
 90 92  1  0  0  0  0
 92 93  1  0  0  0  0
 92 94  1  0  0  0  0
 94 95  1  0  0  0  0
 94 96  1  0  0  0  0
 94 97  1  0  0  0  0
 97 98  1  0  0  0  0
 97 99  1  0  0  0  0
 97100  1  0  0  0  0
 92101  1  0  0  0  0
101102  1  0  0  0  0
101103  1  0  0  0  0
101104  1  0  0  0  0
104105  1  0  0  0  0
104106  1  0  0  0  0
104107  1  0  0  0  0
107108  1  0  0  0  0
107109  1  0  0  0  0
107110  1  0  0  0  0
110111  1  0  0  0  0
110112  1  0  0  0  0
110113  1  0  0  0  0
M  END
> <ChemID>
201573

> <source_casrn>
7299-99-2

> <CAS>
NOCAS_864037

> <SMILES>
CCCCC(CC)C(=O)OCC(COC(=O)C(CC)CCCC)(COC(=O)C(CC)CCCC)COC(=O)C(CC)CCCC

> <NAME>


> <preferred_name>


> <iupac>


> <MPID>
101358

> <dsstox_substance_id>
DTXSID90864037

> <Canonical_QSARr>
CCCCC(CC)C(=O)OCC(COC(=O)C(CCCC)CC)(COC(=O)C(CCCC)CC)COC(=O)C(CCCC)CC

> <InChI_Code_QSARr>
InChI=1S/C37H68O8/c1-9-17-21-29(13-5)33(38)42-25-37(26-43-34(39)30(14-6)22-18-10-2,27-44-35(40)31(15-7)23-19-11-3)28-45-36(41)32(16-8)24-20-12-4/h29-32H,9-28H2,1-8H3

> <InChI Key_QSARr>
DRRMRHKHTQRWMB-UHFFFAOYSA-N

> <Salt_Solvent>


> <Ready_Biodeg>
0.0

$$$$
201577
  -INDIGO-08031722522D

 38 37  0  0  0  0  0  0  0  0999 V2000
    5.1361    2.7208    0.0000 C   0  0  0  0  0  0  0  0  0  0  0  0
    6.1646    3.9464    0.0000 H   0  0  0  0  0  0  0  0  0  0  0  0
    6.7118    2.4430    0.0000 H   0  0  0  0  0  0  0  0  0  0  0  0
    4.5889    4.2242    0.0000 H   0  0  0  0  0  0  0  0  0  0  0  0
    4.1077    1.4951    0.0000 C   0  0  0  0  0  0  0  0  0  0  0  0
    4.0379   -0.1034    0.0000 H   0  0  0  0  0  0  0  0  0  0  0  0
    5.1887    0.3154    0.0000 H   0  0  0  0  0  0  0  0  0  0  0  0
    2.5320    1.7729    0.0000 C   0  0  0  0  0  0  0  0  0  0  0  0
    2.6018    3.3714    0.0000 H   0  0  0  0  0  0  0  0  0  0  0  0
    1.4510    2.9525    0.0000 H   0  0  0  0  0  0  0  0  0  0  0  0
    1.5036    0.5472    0.0000 C   0  0  0  0  0  0  0  0  0  0  0  0
    1.7123   -1.0390    0.0000 H   0  0  0  0  0  0  0  0  0  0  0  0
    2.7730   -0.4268    0.0000 H   0  0  0  0  0  0  0  0  0  0  0  0
    0.0001    0.0000    0.0000 C   0  0  0  0  0  0  0  0  0  0  0  0
    0.8001   -1.3856    0.0000 H   0  0  0  0  0  0  0  0  0  0  0  0
   -1.2258   -1.0284    0.0000 C   0  0  0  0  0  0  0  0  0  0  0  0
   -2.8242   -1.0982    0.0000 H   0  0  0  0  0  0  0  0  0  0  0  0
   -2.4052    0.0525    0.0000 H   0  0  0  0  0  0  0  0  0  0  0  0
   -0.9479   -2.6042    0.0000 C   0  0  0  0  0  0  0  0  0  0  0  0
   -0.6700   -4.1798    0.0000 H   0  0  0  0  0  0  0  0  0  0  0  0
   -2.1735   -3.6326    0.0000 H   0  0  0  0  0  0  0  0  0  0  0  0
    0.5556   -3.1514    0.0000 H   0  0  0  0  0  0  0  0  0  0  0  0
   -0.7999    1.3856    0.0000 C   0  0  0  0  0  0  0  0  0  0  0  0
   -0.5912    2.9720    0.0000 H   0  0  0  0  0  0  0  0  0  0  0  0
    0.4695    2.3597    0.0000 H   0  0  0  0  0  0  0  0  0  0  0  0
   -2.4000    1.3856    0.0000 O   0  0  0  0  0  0  0  0  0  0  0  0
   -3.2000    2.7712    0.0000 C   0  0  0  0  0  0  0  0  0  0  0  0
   -2.4000    4.1570    0.0000 O   0  0  0  0  0  0  0  0  0  0  0  0
   -4.8001    2.7712    0.0000 C   0  0  0  0  0  0  0  0  0  0  0  0
   -5.0089    1.1850    0.0000 H   0  0  0  0  0  0  0  0  0  0  0  0
   -6.0693    1.7973    0.0000 H   0  0  0  0  0  0  0  0  0  0  0  0
   -5.5999    4.1570    0.0000 C   0  0  0  0  0  0  0  0  0  0  0  0
   -5.3911    5.7432    0.0000 H   0  0  0  0  0  0  0  0  0  0  0  0
   -4.3307    5.1309    0.0000 H   0  0  0  0  0  0  0  0  0  0  0  0
   -7.1999    4.1570    0.0000 C   0  0  0  0  0  0  0  0  0  0  0  0
   -8.8000    4.1570    0.0000 H   0  0  0  0  0  0  0  0  0  0  0  0
   -8.0000    5.5426    0.0000 H   0  0  0  0  0  0  0  0  0  0  0  0
   -8.0000    2.7712    0.0000 H   0  0  0  0  0  0  0  0  0  0  0  0
  1  2  1  0  0  0  0
  1  3  1  0  0  0  0
  1  4  1  0  0  0  0
  1  5  1  0  0  0  0
  5  6  1  0  0  0  0
  5  7  1  0  0  0  0
  5  8  1  0  0  0  0
  8  9  1  0  0  0  0
  8 10  1  0  0  0  0
  8 11  1  0  0  0  0
 11 12  1  0  0  0  0
 11 13  1  0  0  0  0
 11 14  1  0  0  0  0
 14 15  1  0  0  0  0
 14 16  1  0  0  0  0
 16 17  1  0  0  0  0
 16 18  1  0  0  0  0
 16 19  1  0  0  0  0
 19 20  1  0  0  0  0
 19 21  1  0  0  0  0
 19 22  1  0  0  0  0
 14 23  1  0  0  0  0
 23 24  1  0  0  0  0
 23 25  1  0  0  0  0
 23 26  1  0  0  0  0
 26 27  1  0  0  0  0
 27 28  2  0  0  0  0
 27 29  1  0  0  0  0
 29 30  1  0  0  0  0
 29 31  1  0  0  0  0
 29 32  1  0  0  0  0
 32 33  1  0  0  0  0
 32 34  1  0  0  0  0
 32 35  1  0  0  0  0
 35 36  1  0  0  0  0
 35 37  1  0  0  0  0
 35 38  1  0  0  0  0
M  END
> <ChemID>
201577

> <source_casrn>


> <CAS>
25415-84-3

> <SMILES>
CCCCC(CC)COC(=O)CCC

> <NAME>


> <preferred_name>


> <iupac>


> <MPID>
101360

> <dsstox_substance_id>


> <Canonical_QSARr>
CCCCC(COC(=O)CCC)CC

> <InChI_Code_QSARr>
InChI=1S/C12H24O2/c1-4-7-9-11(6-3)10-14-12(13)8-5-2/h11H,4-10H2,1-3H3

> <InChI Key_QSARr>
LFEQNZNCKDNGRM-UHFFFAOYSA-N

> <Salt_Solvent>


> <Ready_Biodeg>
1.0

$$$$
201579
  -INDIGO-08031722522D

 77 76  0  0  0  0  0  0  0  0999 V2000
    5.1361    2.7209    0.0000 C   0  0  0  0  0  0  0  0  0  0  0  0
    6.1648    3.9463    0.0000 H   0  0  0  0  0  0  0  0  0  0  0  0
    6.7118    2.4428    0.0000 H   0  0  0  0  0  0  0  0  0  0  0  0
    4.5891    4.2243    0.0000 H   0  0  0  0  0  0  0  0  0  0  0  0
    4.1078    1.4951    0.0000 C   0  0  0  0  0  0  0  0  0  0  0  0
    4.0378   -0.1034    0.0000 H   0  0  0  0  0  0  0  0  0  0  0  0
    5.1886    0.3154    0.0000 H   0  0  0  0  0  0  0  0  0  0  0  0
    2.5320    1.7729    0.0000 C   0  0  0  0  0  0  0  0  0  0  0  0
    2.6020    3.3715    0.0000 H   0  0  0  0  0  0  0  0  0  0  0  0
    1.4512    2.9526    0.0000 H   0  0  0  0  0  0  0  0  0  0  0  0
    1.5033    0.5472    0.0000 C   0  0  0  0  0  0  0  0  0  0  0  0
    1.7122   -1.0390    0.0000 H   0  0  0  0  0  0  0  0  0  0  0  0
    2.7729   -0.4266    0.0000 H   0  0  0  0  0  0  0  0  0  0  0  0
   -0.0002   -0.0001    0.0000 C   0  0  0  0  0  0  0  0  0  0  0  0
    0.7999   -1.3856    0.0000 H   0  0  0  0  0  0  0  0  0  0  0  0
   -1.2256   -1.0285    0.0000 C   0  0  0  0  0  0  0  0  0  0  0  0
   -2.8239   -1.0982    0.0000 H   0  0  0  0  0  0  0  0  0  0  0  0
   -2.4051    0.0526    0.0000 H   0  0  0  0  0  0  0  0  0  0  0  0
   -0.9477   -2.6042    0.0000 C   0  0  0  0  0  0  0  0  0  0  0  0
   -0.6702   -4.1798    0.0000 H   0  0  0  0  0  0  0  0  0  0  0  0
   -2.1736   -3.6326    0.0000 H   0  0  0  0  0  0  0  0  0  0  0  0
    0.5558   -3.1514    0.0000 H   0  0  0  0  0  0  0  0  0  0  0  0
   -0.7998    1.3857    0.0000 C   0  0  0  0  0  0  0  0  0  0  0  0
   -0.5913    2.9719    0.0000 H   0  0  0  0  0  0  0  0  0  0  0  0
    0.4694    2.3596    0.0000 H   0  0  0  0  0  0  0  0  0  0  0  0
   -2.4000    1.3857    0.0000 O   0  0  0  0  0  0  0  0  0  0  0  0
   -3.2000    2.7713    0.0000 C   0  0  0  0  0  0  0  0  0  0  0  0
   -2.4000    4.1568    0.0000 O   0  0  0  0  0  0  0  0  0  0  0  0
   -4.8002    2.7713    0.0000 C   0  0  0  0  0  0  0  0  0  0  0  0
   -5.0087    1.1849    0.0000 H   0  0  0  0  0  0  0  0  0  0  0  0
   -6.0694    1.7972    0.0000 H   0  0  0  0  0  0  0  0  0  0  0  0
   -5.5998    4.1568    0.0000 C   0  0  0  0  0  0  0  0  0  0  0  0
   -5.3913    5.7433    0.0000 H   0  0  0  0  0  0  0  0  0  0  0  0
   -4.3307    5.1309    0.0000 H   0  0  0  0  0  0  0  0  0  0  0  0
   -7.2000    4.1568    0.0000 C   0  0  0  0  0  0  0  0  0  0  0  0
   -7.4089    2.5707    0.0000 H   0  0  0  0  0  0  0  0  0  0  0  0
   -8.4691    3.1830    0.0000 H   0  0  0  0  0  0  0  0  0  0  0  0
   -8.0001    5.5426    0.0000 C   0  0  0  0  0  0  0  0  0  0  0  0
   -7.7911    7.1288    0.0000 H   0  0  0  0  0  0  0  0  0  0  0  0
   -6.7305    6.5165    0.0000 H   0  0  0  0  0  0  0  0  0  0  0  0
   -9.5998    5.5426    0.0000 C   0  0  0  0  0  0  0  0  0  0  0  0
   -9.8087    3.9562    0.0000 H   0  0  0  0  0  0  0  0  0  0  0  0
  -10.8694    4.5685    0.0000 H   0  0  0  0  0  0  0  0  0  0  0  0
  -10.3999    6.9282    0.0000 C   0  0  0  0  0  0  0  0  0  0  0  0
  -10.1914    8.5146    0.0000 H   0  0  0  0  0  0  0  0  0  0  0  0
   -9.1307    7.9023    0.0000 H   0  0  0  0  0  0  0  0  0  0  0  0
  -12.0000    6.9282    0.0000 C   0  0  0  0  0  0  0  0  0  0  0  0
  -12.2090    5.3418    0.0000 H   0  0  0  0  0  0  0  0  0  0  0  0
  -13.2692    5.9541    0.0000 H   0  0  0  0  0  0  0  0  0  0  0  0
  -12.8001    8.3137    0.0000 C   0  0  0  0  0  0  0  0  0  0  0  0
  -12.0000    9.6995    0.0000 O   0  0  0  0  0  0  0  0  0  0  0  0
  -14.3998    8.3137    0.0000 O   0  0  0  0  0  0  0  0  0  0  0  0
  -15.1999    9.6995    0.0000 C   0  0  0  0  0  0  0  0  0  0  0  0
  -14.9910   11.2857    0.0000 H   0  0  0  0  0  0  0  0  0  0  0  0
  -13.9307   10.6734    0.0000 H   0  0  0  0  0  0  0  0  0  0  0  0
  -16.8001    9.6995    0.0000 C   0  0  0  0  0  0  0  0  0  0  0  0
  -16.5221    8.1239    0.0000 H   0  0  0  0  0  0  0  0  0  0  0  0
  -17.0780   11.2752    0.0000 C   0  0  0  0  0  0  0  0  0  0  0  0
  -18.6763   11.2055    0.0000 H   0  0  0  0  0  0  0  0  0  0  0  0
  -18.2575   12.3560    0.0000 H   0  0  0  0  0  0  0  0  0  0  0  0
  -15.8521   12.3036    0.0000 C   0  0  0  0  0  0  0  0  0  0  0  0
  -16.1300   13.8793    0.0000 H   0  0  0  0  0  0  0  0  0  0  0  0
  -14.6266   13.3320    0.0000 H   0  0  0  0  0  0  0  0  0  0  0  0
  -17.3555   12.8509    0.0000 H   0  0  0  0  0  0  0  0  0  0  0  0
  -18.3035    9.1523    0.0000 C   0  0  0  0  0  0  0  0  0  0  0  0
  -17.4438    7.8028    0.0000 H   0  0  0  0  0  0  0  0  0  0  0  0
  -18.6500    7.5901    0.0000 H   0  0  0  0  0  0  0  0  0  0  0  0
  -19.8793    9.4300    0.0000 C   0  0  0  0  0  0  0  0  0  0  0  0
  -20.9601   10.6097    0.0000 H   0  0  0  0  0  0  0  0  0  0  0  0
  -19.8093   11.0286    0.0000 H   0  0  0  0  0  0  0  0  0  0  0  0
  -20.9075    8.2043    0.0000 C   0  0  0  0  0  0  0  0  0  0  0  0
  -19.8267    7.0246    0.0000 H   0  0  0  0  0  0  0  0  0  0  0  0
  -20.9775    6.6060    0.0000 H   0  0  0  0  0  0  0  0  0  0  0  0
  -22.4833    8.4824    0.0000 C   0  0  0  0  0  0  0  0  0  0  0  0
  -24.0591    8.7601    0.0000 H   0  0  0  0  0  0  0  0  0  0  0  0
  -23.5120    7.2567    0.0000 H   0  0  0  0  0  0  0  0  0  0  0  0
  -23.0308    9.9859    0.0000 H   0  0  0  0  0  0  0  0  0  0  0  0
  1  2  1  0  0  0  0
  1  3  1  0  0  0  0
  1  4  1  0  0  0  0
  1  5  1  0  0  0  0
  5  6  1  0  0  0  0
  5  7  1  0  0  0  0
  5  8  1  0  0  0  0
  8  9  1  0  0  0  0
  8 10  1  0  0  0  0
  8 11  1  0  0  0  0
 11 12  1  0  0  0  0
 11 13  1  0  0  0  0
 11 14  1  0  0  0  0
 14 15  1  0  0  0  0
 14 16  1  0  0  0  0
 16 17  1  0  0  0  0
 16 18  1  0  0  0  0
 16 19  1  0  0  0  0
 19 20  1  0  0  0  0
 19 21  1  0  0  0  0
 19 22  1  0  0  0  0
 14 23  1  0  0  0  0
 23 24  1  0  0  0  0
 23 25  1  0  0  0  0
 23 26  1  0  0  0  0
 26 27  1  0  0  0  0
 27 28  2  0  0  0  0
 27 29  1  0  0  0  0
 29 30  1  0  0  0  0
 29 31  1  0  0  0  0
 29 32  1  0  0  0  0
 32 33  1  0  0  0  0
 32 34  1  0  0  0  0
 32 35  1  0  0  0  0
 35 36  1  0  0  0  0
 35 37  1  0  0  0  0
 35 38  1  0  0  0  0
 38 39  1  0  0  0  0
 38 40  1  0  0  0  0
 38 41  1  0  0  0  0
 41 42  1  0  0  0  0
 41 43  1  0  0  0  0
 41 44  1  0  0  0  0
 44 45  1  0  0  0  0
 44 46  1  0  0  0  0
 44 47  1  0  0  0  0
 47 48  1  0  0  0  0
 47 49  1  0  0  0  0
 47 50  1  0  0  0  0
 50 51  2  0  0  0  0
 50 52  1  0  0  0  0
 52 53  1  0  0  0  0
 53 54  1  0  0  0  0
 53 55  1  0  0  0  0
 53 56  1  0  0  0  0
 56 57  1  0  0  0  0
 56 58  1  0  0  0  0
 58 59  1  0  0  0  0
 58 60  1  0  0  0  0
 58 61  1  0  0  0  0
 61 62  1  0  0  0  0
 61 63  1  0  0  0  0
 61 64  1  0  0  0  0
 56 65  1  0  0  0  0
 65 66  1  0  0  0  0
 65 67  1  0  0  0  0
 65 68  1  0  0  0  0
 68 69  1  0  0  0  0
 68 70  1  0  0  0  0
 68 71  1  0  0  0  0
 71 72  1  0  0  0  0
 71 73  1  0  0  0  0
 71 74  1  0  0  0  0
 74 75  1  0  0  0  0
 74 76  1  0  0  0  0
 74 77  1  0  0  0  0
M  END
> <ChemID>
201579

> <source_casrn>
103-24-2

> <CAS>
103-24-2

> <SMILES>
CCCCC(CC)COC(=O)CCCCCCCC(=O)OCC(CC)CCCC

> <NAME>


> <preferred_name>
Bis(2-ethylhexyl) nonanedioate

> <iupac>
bis(2-ethylhexyl) nonanedioate

> <MPID>
101361

> <dsstox_substance_id>
DTXSID3026697

> <Canonical_QSARr>
CCCCC(COC(=O)CCCCCCCC(=O)OCC(CCCC)CC)CC

> <InChI_Code_QSARr>
InChI=1S/C25H48O4/c1-5-9-16-22(7-3)20-28-24(26)18-14-12-11-13-15-19-25(27)29-21-23(8-4)17-10-6-2/h22-23H,5-21H2,1-4H3

> <InChI Key_QSARr>
ZDWGXBPVPXVXMQ-UHFFFAOYSA-N

> <Salt_Solvent>


> <Ready_Biodeg>
1.0

$$$$
201584
  -INDIGO-08031722522D

 55 54  0  0  0  0  0  0  0  0999 V2000
   11.6083   -5.0786    0.0000 C   0  0  0  0  0  0  0  0  0  0  0  0
   13.1840   -5.3563    0.0000 H   0  0  0  0  0  0  0  0  0  0  0  0
   12.1556   -6.5821    0.0000 H   0  0  0  0  0  0  0  0  0  0  0  0
   12.6368   -3.8529    0.0000 H   0  0  0  0  0  0  0  0  0  0  0  0
   10.0326   -4.8007    0.0000 C   0  0  0  0  0  0  0  0  0  0  0  0
    8.6135   -5.5395    0.0000 H   0  0  0  0  0  0  0  0  0  0  0  0
    9.5515   -6.3266    0.0000 H   0  0  0  0  0  0  0  0  0  0  0  0
    9.4854   -3.2972    0.0000 C   0  0  0  0  0  0  0  0  0  0  0  0
   10.9046   -2.5585    0.0000 H   0  0  0  0  0  0  0  0  0  0  0  0
    9.9666   -1.7713    0.0000 H   0  0  0  0  0  0  0  0  0  0  0  0
    7.9097   -3.0194    0.0000 C   0  0  0  0  0  0  0  0  0  0  0  0
    6.6404   -3.9935    0.0000 H   0  0  0  0  0  0  0  0  0  0  0  0
    7.7010   -4.6057    0.0000 H   0  0  0  0  0  0  0  0  0  0  0  0
    6.6840   -1.9909    0.0000 C   0  0  0  0  0  0  0  0  0  0  0  0
    5.6555   -3.2166    0.0000 H   0  0  0  0  0  0  0  0  0  0  0  0
    7.7124   -0.7653    0.0000 C   0  0  0  0  0  0  0  0  0  0  0  0
    8.8922   -1.8462    0.0000 H   0  0  0  0  0  0  0  0  0  0  0  0
    9.3109   -0.6955    0.0000 H   0  0  0  0  0  0  0  0  0  0  0  0
    7.4345    0.8104    0.0000 C   0  0  0  0  0  0  0  0  0  0  0  0
    8.6603    1.8389    0.0000 H   0  0  0  0  0  0  0  0  0  0  0  0
    7.1567    2.3862    0.0000 H   0  0  0  0  0  0  0  0  0  0  0  0
    8.9381    0.2633    0.0000 H   0  0  0  0  0  0  0  0  0  0  0  0
    5.4585   -0.9624    0.0000 C   0  0  0  0  0  0  0  0  0  0  0  0
    6.3181    0.3870    0.0000 H   0  0  0  0  0  0  0  0  0  0  0  0
    5.1122    0.5995    0.0000 H   0  0  0  0  0  0  0  0  0  0  0  0
    3.9549   -1.5097    0.0000 O   0  0  0  0  0  0  0  0  0  0  0  0
    2.7291   -0.4812    0.0000 P   0  0  0  0  0  0  0  0  0  0  0  0
    4.2327    0.0660    0.0000 O   0  0  0  0  0  0  0  0  0  0  0  0
    4.5106    1.6417    0.0000 H   0  0  0  0  0  0  0  0  0  0  0  0
    2.4513   -2.0569    0.0000 O   0  0  0  0  0  0  0  0  0  0  0  0
    1.5034    0.5473    0.0000 C   0  0  0  0  0  0  0  0  0  0  0  0
    2.3633    1.8967    0.0000 H   0  0  0  0  0  0  0  0  0  0  0  0
    1.1571    2.1092    0.0000 H   0  0  0  0  0  0  0  0  0  0  0  0
    0.0001   -0.0000    0.0000 C   0  0  0  0  0  0  0  0  0  0  0  0
    0.7999   -1.3857    0.0000 H   0  0  0  0  0  0  0  0  0  0  0  0
   -0.8001    1.3856    0.0000 C   0  0  0  0  0  0  0  0  0  0  0  0
   -2.2781    1.9980    0.0000 H   0  0  0  0  0  0  0  0  0  0  0  0
   -2.2781    0.7734    0.0000 H   0  0  0  0  0  0  0  0  0  0  0  0
    0.0001    2.7713    0.0000 C   0  0  0  0  0  0  0  0  0  0  0  0
   -0.8001    4.1569    0.0000 H   0  0  0  0  0  0  0  0  0  0  0  0
    0.7999    4.1569    0.0000 H   0  0  0  0  0  0  0  0  0  0  0  0
   -1.5999    2.7713    0.0000 H   0  0  0  0  0  0  0  0  0  0  0  0
   -1.2257   -1.0285    0.0000 C   0  0  0  0  0  0  0  0  0  0  0  0
    0.0436   -2.0025    0.0000 H   0  0  0  0  0  0  0  0  0  0  0  0
   -1.0169   -2.6147    0.0000 H   0  0  0  0  0  0  0  0  0  0  0  0
   -2.8014   -1.3062    0.0000 C   0  0  0  0  0  0  0  0  0  0  0  0
   -4.2206   -0.5675    0.0000 H   0  0  0  0  0  0  0  0  0  0  0  0
   -3.2825    0.2197    0.0000 H   0  0  0  0  0  0  0  0  0  0  0  0
   -3.3486   -2.8099    0.0000 C   0  0  0  0  0  0  0  0  0  0  0  0
   -1.9294   -3.5486    0.0000 H   0  0  0  0  0  0  0  0  0  0  0  0
   -2.8674   -4.3358    0.0000 H   0  0  0  0  0  0  0  0  0  0  0  0
   -4.9243   -3.0876    0.0000 C   0  0  0  0  0  0  0  0  0  0  0  0
   -6.5000   -3.3655    0.0000 H   0  0  0  0  0  0  0  0  0  0  0  0
   -5.4716   -4.5911    0.0000 H   0  0  0  0  0  0  0  0  0  0  0  0
   -5.9527   -1.8619    0.0000 H   0  0  0  0  0  0  0  0  0  0  0  0
  1  2  1  0  0  0  0
  1  3  1  0  0  0  0
  1  4  1  0  0  0  0
  1  5  1  0  0  0  0
  5  6  1  0  0  0  0
  5  7  1  0  0  0  0
  5  8  1  0  0  0  0
  8  9  1  0  0  0  0
  8 10  1  0  0  0  0
  8 11  1  0  0  0  0
 11 12  1  0  0  0  0
 11 13  1  0  0  0  0
 11 14  1  0  0  0  0
 14 15  1  0  0  0  0
 14 16  1  0  0  0  0
 16 17  1  0  0  0  0
 16 18  1  0  0  0  0
 16 19  1  0  0  0  0
 19 20  1  0  0  0  0
 19 21  1  0  0  0  0
 19 22  1  0  0  0  0
 14 23  1  0  0  0  0
 23 24  1  0  0  0  0
 23 25  1  0  0  0  0
 23 26  1  0  0  0  0
 26 27  1  0  0  0  0
 27 28  1  0  0  0  0
 28 29  1  0  0  0  0
 27 30  2  0  0  0  0
 27 31  1  0  0  0  0
 31 32  1  0  0  0  0
 31 33  1  0  0  0  0
 31 34  1  0  0  0  0
 34 35  1  0  0  0  0
 34 36  1  0  0  0  0
 36 37  1  0  0  0  0
 36 38  1  0  0  0  0
 36 39  1  0  0  0  0
 39 40  1  0  0  0  0
 39 41  1  0  0  0  0
 39 42  1  0  0  0  0
 34 43  1  0  0  0  0
 43 44  1  0  0  0  0
 43 45  1  0  0  0  0
 43 46  1  0  0  0  0
 46 47  1  0  0  0  0
 46 48  1  0  0  0  0
 46 49  1  0  0  0  0
 49 50  1  0  0  0  0
 49 51  1  0  0  0  0
 49 52  1  0  0  0  0
 52 53  1  0  0  0  0
 52 54  1  0  0  0  0
 52 55  1  0  0  0  0
M  END
> <ChemID>
201584

> <source_casrn>
14802-03-0

> <CAS>
NOCAS_864536

> <SMILES>
CCCCC(CC)CO[P](O)(=O)CC(CC)CCCC

> <NAME>


> <preferred_name>


> <iupac>


> <MPID>
101362

> <dsstox_substance_id>
DTXSID30864536

> <Canonical_QSARr>
CCCCC(CP(O)(=O)OCC(CCCC)CC)CC

> <InChI_Code_QSARr>
InChI=1S/C16H35O3P/c1-5-9-11-15(7-3)13-19-20(17,18)14-16(8-4)12-10-6-2/h15-16H,5-14H2,1-4H3,(H,17,18)

> <InChI Key_QSARr>
ZDFBXXSHBTVQMB-UHFFFAOYSA-N

> <Salt_Solvent>


> <Ready_Biodeg>
0.0

$$$$
201588
  -INDIGO-08031722522D

 24 23  0  0  0  0  0  0  0  0999 V2000
    2.7714    0.0000    0.0000 C   0  0  0  0  0  0  0  0  0  0  0  0
    4.1569   -0.8000    0.0000 H   0  0  0  0  0  0  0  0  0  0  0  0
    4.1569    0.8000    0.0000 H   0  0  0  0  0  0  0  0  0  0  0  0
    2.7714   -1.6000    0.0000 H   0  0  0  0  0  0  0  0  0  0  0  0
    1.3856    0.8000    0.0000 C   0  0  0  0  0  0  0  0  0  0  0  0
    1.9980    2.2782    0.0000 H   0  0  0  0  0  0  0  0  0  0  0  0
    0.7733    2.2782    0.0000 H   0  0  0  0  0  0  0  0  0  0  0  0
    0.0001    0.0000    0.0000 C   0  0  0  0  0  0  0  0  0  0  0  0
   -0.6122   -1.4782    0.0000 H   0  0  0  0  0  0  0  0  0  0  0  0
    0.6122   -1.4782    0.0000 H   0  0  0  0  0  0  0  0  0  0  0  0
   -1.3856    0.8000    0.0000 C   0  0  0  0  0  0  0  0  0  0  0  0
   -0.7733    2.2782    0.0000 H   0  0  0  0  0  0  0  0  0  0  0  0
   -1.9980    2.2782    0.0000 H   0  0  0  0  0  0  0  0  0  0  0  0
   -2.7712    0.0000    0.0000 C   0  0  0  0  0  0  0  0  0  0  0  0
   -3.3835   -1.4782    0.0000 H   0  0  0  0  0  0  0  0  0  0  0  0
   -2.1591   -1.4782    0.0000 H   0  0  0  0  0  0  0  0  0  0  0  0
   -4.1569    0.8000    0.0000 C   0  0  0  0  0  0  0  0  0  0  0  0
   -4.1569    2.4000    0.0000 O   0  0  0  0  0  0  0  0  0  0  0  0
   -5.5425    0.0000    0.0000 O   0  0  0  0  0  0  0  0  0  0  0  0
   -6.9282    0.8000    0.0000 C   0  0  0  0  0  0  0  0  0  0  0  0
   -6.9282    2.4000    0.0000 H   0  0  0  0  0  0  0  0  0  0  0  0
   -8.3137    0.0000    0.0000 C   0  0  0  0  0  0  0  0  0  0  0  0
   -9.6995    0.8000    0.0000 H   0  0  0  0  0  0  0  0  0  0  0  0
   -8.3137   -1.6000    0.0000 H   0  0  0  0  0  0  0  0  0  0  0  0
  1  2  1  0  0  0  0
  1  3  1  0  0  0  0
  1  4  1  0  0  0  0
  1  5  1  0  0  0  0
  5  6  1  0  0  0  0
  5  7  1  0  0  0  0
  5  8  1  0  0  0  0
  8  9  1  0  0  0  0
  8 10  1  0  0  0  0
  8 11  1  0  0  0  0
 11 12  1  0  0  0  0
 11 13  1  0  0  0  0
 11 14  1  0  0  0  0
 14 15  1  0  0  0  0
 14 16  1  0  0  0  0
 14 17  1  0  0  0  0
 17 18  2  0  0  0  0
 17 19  1  0  0  0  0
 19 20  1  0  0  0  0
 20 21  1  0  0  0  0
 20 22  2  0  0  0  0
 22 23  1  0  0  0  0
 22 24  1  0  0  0  0
M  END
> <ChemID>
201588

> <source_casrn>
3050-69-9

> <CAS>
3050-69-9

> <SMILES>
CCCCCC(=O)OC=C

> <NAME>


> <preferred_name>
Vinyl hexanoate

> <iupac>
ethenyl hexanoate

> <MPID>
101364

> <dsstox_substance_id>
DTXSID60184572

> <Canonical_QSARr>
CCCCCC(=O)OC=C

> <InChI_Code_QSARr>
InChI=1S/C8H14O2/c1-3-5-6-7-8(9)10-4-2/h4H,2-3,5-7H2,1H3

> <InChI Key_QSARr>
LZWYWAIOTBEZFN-UHFFFAOYSA-N

> <Salt_Solvent>


> <Ready_Biodeg>
1.0

$$$$
201593
  -INDIGO-08031722522D

 50 51  0  0  0  0  0  0  0  0999 V2000
    4.1569   -7.2000    0.0000 C   0  0  0  0  0  0  0  0  0  0  0  0
    4.1569   -8.8000    0.0000 H   0  0  0  0  0  0  0  0  0  0  0  0
    5.5426   -8.0000    0.0000 H   0  0  0  0  0  0  0  0  0  0  0  0
    2.7712   -8.0000    0.0000 H   0  0  0  0  0  0  0  0  0  0  0  0
    4.1569   -5.6001    0.0000 C   0  0  0  0  0  0  0  0  0  0  0  0
    5.7432   -5.3912    0.0000 H   0  0  0  0  0  0  0  0  0  0  0  0
    5.1309   -4.3306    0.0000 H   0  0  0  0  0  0  0  0  0  0  0  0
    2.7712   -4.8001    0.0000 C   0  0  0  0  0  0  0  0  0  0  0  0
    1.1849   -5.0088    0.0000 H   0  0  0  0  0  0  0  0  0  0  0  0
    1.7973   -6.0694    0.0000 H   0  0  0  0  0  0  0  0  0  0  0  0
    2.7712   -3.2000    0.0000 C   0  0  0  0  0  0  0  0  0  0  0  0
    4.3576   -2.9911    0.0000 H   0  0  0  0  0  0  0  0  0  0  0  0
    3.7452   -1.9307    0.0000 H   0  0  0  0  0  0  0  0  0  0  0  0
    1.3856   -2.4000    0.0000 C   0  0  0  0  0  0  0  0  0  0  0  0
   -0.2008   -2.6089    0.0000 H   0  0  0  0  0  0  0  0  0  0  0  0
    0.4116   -3.6693    0.0000 H   0  0  0  0  0  0  0  0  0  0  0  0
    1.3856   -0.8000    0.0000 C   0  0  0  0  0  0  0  0  0  0  0  0
    2.9719   -0.5911    0.0000 H   0  0  0  0  0  0  0  0  0  0  0  0
    2.3595    0.4694    0.0000 H   0  0  0  0  0  0  0  0  0  0  0  0
   -0.0001    0.0001    0.0000 C   0  0  0  0  0  0  0  0  0  0  0  0
   -0.8001   -1.3856    0.0000 H   0  0  0  0  0  0  0  0  0  0  0  0
    0.8001    1.3856    0.0000 C   0  0  0  0  0  0  0  0  0  0  0  0
    1.6001    2.7713    0.0000 H   0  0  0  0  0  0  0  0  0  0  0  0
    2.3757    1.6635    0.0000 H   0  0  0  0  0  0  0  0  0  0  0  0
   -0.0001    2.7713    0.0000 H   0  0  0  0  0  0  0  0  0  0  0  0
   -1.3855    0.7999    0.0000 N   0  0  0  0  0  0  0  0  0  0  0  0
   -1.3855    2.4000    0.0000 H   0  0  0  0  0  0  0  0  0  0  0  0
   -2.7712    0.0001    0.0000 C   0  0  0  0  0  0  0  0  0  0  0  0
   -4.1569    0.7999    0.0000 C   0  0  0  0  0  0  0  0  0  0  0  0
   -4.1569    2.4000    0.0000 H   0  0  0  0  0  0  0  0  0  0  0  0
   -5.5426    0.0001    0.0000 C   0  0  0  0  0  0  0  0  0  0  0  0
   -6.9282    0.7999    0.0000 H   0  0  0  0  0  0  0  0  0  0  0  0
   -5.5426   -1.6000    0.0000 C   0  0  0  0  0  0  0  0  0  0  0  0
   -6.9282   -2.4000    0.0000 N   0  0  0  0  0  0  0  0  0  0  0  0
   -6.6503   -3.9757    0.0000 H   0  0  0  0  0  0  0  0  0  0  0  0
   -8.5039   -2.1221    0.0000 C   0  0  0  0  0  0  0  0  0  0  0  0
   -9.0511   -0.6186    0.0000 C   0  0  0  0  0  0  0  0  0  0  0  0
   -8.0227    0.6069    0.0000 H   0  0  0  0  0  0  0  0  0  0  0  0
  -10.6270   -0.3409    0.0000 C   0  0  0  0  0  0  0  0  0  0  0  0
  -11.1742    1.1628    0.0000 H   0  0  0  0  0  0  0  0  0  0  0  0
  -11.6554   -1.5664    0.0000 C   0  0  0  0  0  0  0  0  0  0  0  0
  -13.2310   -1.2887    0.0000 H   0  0  0  0  0  0  0  0  0  0  0  0
  -11.1082   -3.0701    0.0000 C   0  0  0  0  0  0  0  0  0  0  0  0
  -12.1366   -4.2956    0.0000 H   0  0  0  0  0  0  0  0  0  0  0  0
   -9.5323   -3.3478    0.0000 C   0  0  0  0  0  0  0  0  0  0  0  0
   -8.9850   -4.8513    0.0000 H   0  0  0  0  0  0  0  0  0  0  0  0
   -4.1569   -2.4000    0.0000 C   0  0  0  0  0  0  0  0  0  0  0  0
   -4.1569   -4.0000    0.0000 H   0  0  0  0  0  0  0  0  0  0  0  0
   -2.7712   -1.6000    0.0000 C   0  0  0  0  0  0  0  0  0  0  0  0
   -1.3855   -2.4000    0.0000 H   0  0  0  0  0  0  0  0  0  0  0  0
  1  2  1  0  0  0  0
  1  3  1  0  0  0  0
  1  4  1  0  0  0  0
  1  5  1  0  0  0  0
  5  6  1  0  0  0  0
  5  7  1  0  0  0  0
  5  8  1  0  0  0  0
  8  9  1  0  0  0  0
  8 10  1  0  0  0  0
  8 11  1  0  0  0  0
 11 12  1  0  0  0  0
 11 13  1  0  0  0  0
 11 14  1  0  0  0  0
 14 15  1  0  0  0  0
 14 16  1  0  0  0  0
 14 17  1  0  0  0  0
 17 18  1  0  0  0  0
 17 19  1  0  0  0  0
 17 20  1  0  0  0  0
 20 21  1  0  0  0  0
 20 22  1  0  0  0  0
 22 23  1  0  0  0  0
 22 24  1  0  0  0  0
 22 25  1  0  0  0  0
 20 26  1  0  0  0  0
 26 27  1  0  0  0  0
 26 28  1  0  0  0  0
 28 29  1  0  0  0  0
 29 30  1  0  0  0  0
 29 31  2  0  0  0  0
 31 32  1  0  0  0  0
 31 33  1  0  0  0  0
 33 34  1  0  0  0  0
 34 35  1  0  0  0  0
 34 36  1  0  0  0  0
 36 37  1  0  0  0  0
 37 38  1  0  0  0  0
 37 39  2  0  0  0  0
 39 40  1  0  0  0  0
 39 41  1  0  0  0  0
 41 42  1  0  0  0  0
 41 43  2  0  0  0  0
 43 44  1  0  0  0  0
 43 45  1  0  0  0  0
 45 36  2  0  0  0  0
 45 46  1  0  0  0  0
 33 47  2  0  0  0  0
 47 48  1  0  0  0  0
 47 49  1  0  0  0  0
 49 28  2  0  0  0  0
 49 50  1  0  0  0  0
M  END
> <ChemID>
201593

> <source_casrn>
15233-47-3

> <CAS>
15233-47-3

> <SMILES>
CCCCCCC(C)Nc1ccc(Nc2ccccc2)cc1

> <NAME>


> <preferred_name>
N-(1-Methylheptyl)-N'-phenyl-1,4-benzenediamine

> <iupac>
C20H28N2

> <MPID>
101366

> <dsstox_substance_id>
DTXSID0027771

> <Canonical_QSARr>
CCCCCCC(C)Nc1ccc(cc1)Nc1ccccc1

> <InChI_Code_QSARr>
InChI=1S/C20H28N2/c1-3-4-5-7-10-17(2)21-19-13-15-20(16-14-19)22-18-11-8-6-9-12-18/h6,8-9,11-17,21-22H,3-5,7,10H2,1-2H3

> <InChI Key_QSARr>
JQTYAZKTBXWQOM-UHFFFAOYSA-N

> <Salt_Solvent>


> <Ready_Biodeg>
0.0

$$$$
201596
  -INDIGO-08031722522D

 29 28  0  0  0  0  0  0  0  0999 V2000
    4.1569    0.8000    0.0000 C   0  0  0  0  0  0  0  0  0  0  0  0
    5.5426    1.6000    0.0000 H   0  0  0  0  0  0  0  0  0  0  0  0
    5.5426    0.0000    0.0000 H   0  0  0  0  0  0  0  0  0  0  0  0
    4.1569    2.4000    0.0000 H   0  0  0  0  0  0  0  0  0  0  0  0
    2.7714    0.0000    0.0000 C   0  0  0  0  0  0  0  0  0  0  0  0
    2.1590   -1.4782    0.0000 H   0  0  0  0  0  0  0  0  0  0  0  0
    3.3835   -1.4782    0.0000 H   0  0  0  0  0  0  0  0  0  0  0  0
    1.3857    0.8000    0.0000 C   0  0  0  0  0  0  0  0  0  0  0  0
    1.9978    2.2782    0.0000 H   0  0  0  0  0  0  0  0  0  0  0  0
    0.7733    2.2782    0.0000 H   0  0  0  0  0  0  0  0  0  0  0  0
   -0.0000    0.0000    0.0000 C   0  0  0  0  0  0  0  0  0  0  0  0
   -0.6124   -1.4782    0.0000 H   0  0  0  0  0  0  0  0  0  0  0  0
    0.6124   -1.4782    0.0000 H   0  0  0  0  0  0  0  0  0  0  0  0
   -1.3857    0.8000    0.0000 C   0  0  0  0  0  0  0  0  0  0  0  0
   -0.7733    2.2782    0.0000 H   0  0  0  0  0  0  0  0  0  0  0  0
   -1.9979    2.2782    0.0000 H   0  0  0  0  0  0  0  0  0  0  0  0
   -2.7712    0.0000    0.0000 C   0  0  0  0  0  0  0  0  0  0  0  0
   -3.3836   -1.4782    0.0000 H   0  0  0  0  0  0  0  0  0  0  0  0
   -2.1591   -1.4782    0.0000 H   0  0  0  0  0  0  0  0  0  0  0  0
   -4.1569    0.8000    0.0000 C   0  0  0  0  0  0  0  0  0  0  0  0
   -3.5445    2.2782    0.0000 H   0  0  0  0  0  0  0  0  0  0  0  0
   -4.7693    2.2782    0.0000 H   0  0  0  0  0  0  0  0  0  0  0  0
   -5.5426    0.0000    0.0000 C   0  0  0  0  0  0  0  0  0  0  0  0
   -5.5426   -1.6000    0.0000 O   0  0  0  0  0  0  0  0  0  0  0  0
   -6.9283    0.8000    0.0000 O   0  0  0  0  0  0  0  0  0  0  0  0
   -8.3138    0.0000    0.0000 C   0  0  0  0  0  0  0  0  0  0  0  0
   -9.6995   -0.8000    0.0000 H   0  0  0  0  0  0  0  0  0  0  0  0
   -9.6995    0.8000    0.0000 H   0  0  0  0  0  0  0  0  0  0  0  0
   -8.3138   -1.6000    0.0000 H   0  0  0  0  0  0  0  0  0  0  0  0
  1  2  1  0  0  0  0
  1  3  1  0  0  0  0
  1  4  1  0  0  0  0
  1  5  1  0  0  0  0
  5  6  1  0  0  0  0
  5  7  1  0  0  0  0
  5  8  1  0  0  0  0
  8  9  1  0  0  0  0
  8 10  1  0  0  0  0
  8 11  1  0  0  0  0
 11 12  1  0  0  0  0
 11 13  1  0  0  0  0
 11 14  1  0  0  0  0
 14 15  1  0  0  0  0
 14 16  1  0  0  0  0
 14 17  1  0  0  0  0
 17 18  1  0  0  0  0
 17 19  1  0  0  0  0
 17 20  1  0  0  0  0
 20 21  1  0  0  0  0
 20 22  1  0  0  0  0
 20 23  1  0  0  0  0
 23 24  2  0  0  0  0
 23 25  1  0  0  0  0
 25 26  1  0  0  0  0
 26 27  1  0  0  0  0
 26 28  1  0  0  0  0
 26 29  1  0  0  0  0
M  END
> <ChemID>
201596

> <source_casrn>
544-01-4

> <CAS>
544-01-4

> <SMILES>
CCCCCCCC(=O)OC

> <NAME>


> <preferred_name>
Isoamyl ether

> <iupac>
bis(3-methylbutyl) ether

> <MPID>
100816

> <dsstox_substance_id>
DTXSID8052198

> <Canonical_QSARr>
CCCCCCCC(=O)OC

> <InChI_Code_QSARr>
InChI=1S/C9H18O2/c1-3-4-5-6-7-8-9(10)11-2/h3-8H2,1-2H3

> <InChI Key_QSARr>
JGHZJRVDZXSNKQ-UHFFFAOYSA-N

> <Salt_Solvent>


> <Ready_Biodeg>
0.0

$$$$
201601
  -INDIGO-08031722522D

 65 64  0  0  0  0  0  0  0  0999 V2000
    5.5424   -0.0000    0.0000 C   0  0  0  0  0  0  0  0  0  0  0  0
    6.9282   -0.8000    0.0000 H   0  0  0  0  0  0  0  0  0  0  0  0
    6.9282    0.8000    0.0000 H   0  0  0  0  0  0  0  0  0  0  0  0
    5.5424   -1.6000    0.0000 H   0  0  0  0  0  0  0  0  0  0  0  0
    4.1570    0.8000    0.0000 C   0  0  0  0  0  0  0  0  0  0  0  0
    3.5446    2.2782    0.0000 H   0  0  0  0  0  0  0  0  0  0  0  0
    4.7690    2.2782    0.0000 H   0  0  0  0  0  0  0  0  0  0  0  0
    2.7712   -0.0000    0.0000 C   0  0  0  0  0  0  0  0  0  0  0  0
    3.3837   -1.4782    0.0000 H   0  0  0  0  0  0  0  0  0  0  0  0
    2.1592   -1.4782    0.0000 H   0  0  0  0  0  0  0  0  0  0  0  0
    1.3859    0.8000    0.0000 C   0  0  0  0  0  0  0  0  0  0  0  0
    0.7734    2.2782    0.0000 H   0  0  0  0  0  0  0  0  0  0  0  0
    1.9979    2.2782    0.0000 H   0  0  0  0  0  0  0  0  0  0  0  0
    0.0001   -0.0000    0.0000 C   0  0  0  0  0  0  0  0  0  0  0  0
    0.6125   -1.4782    0.0000 H   0  0  0  0  0  0  0  0  0  0  0  0
   -0.6124   -1.4782    0.0000 H   0  0  0  0  0  0  0  0  0  0  0  0
   -1.3858    0.8000    0.0000 C   0  0  0  0  0  0  0  0  0  0  0  0
   -1.9977    2.2782    0.0000 H   0  0  0  0  0  0  0  0  0  0  0  0
   -0.7733    2.2782    0.0000 H   0  0  0  0  0  0  0  0  0  0  0  0
   -2.7711   -0.0000    0.0000 C   0  0  0  0  0  0  0  0  0  0  0  0
   -2.1591   -1.4782    0.0000 H   0  0  0  0  0  0  0  0  0  0  0  0
   -3.3836   -1.4782    0.0000 H   0  0  0  0  0  0  0  0  0  0  0  0
   -4.1569    0.8000    0.0000 C   0  0  0  0  0  0  0  0  0  0  0  0
   -4.7694    2.2782    0.0000 H   0  0  0  0  0  0  0  0  0  0  0  0
   -3.5444    2.2782    0.0000 H   0  0  0  0  0  0  0  0  0  0  0  0
   -5.5428   -0.0000    0.0000 C   0  0  0  0  0  0  0  0  0  0  0  0
   -5.5428   -1.6000    0.0000 H   0  0  0  0  0  0  0  0  0  0  0  0
   -6.9281    0.8000    0.0000 C   0  0  0  0  0  0  0  0  0  0  0  0
   -6.9281    2.4000    0.0000 H   0  0  0  0  0  0  0  0  0  0  0  0
   -8.3139   -0.0000    0.0000 C   0  0  0  0  0  0  0  0  0  0  0  0
   -7.7014   -1.4782    0.0000 H   0  0  0  0  0  0  0  0  0  0  0  0
   -8.9259   -1.4782    0.0000 H   0  0  0  0  0  0  0  0  0  0  0  0
   -9.6992    0.8000    0.0000 C   0  0  0  0  0  0  0  0  0  0  0  0
  -10.3117    2.2782    0.0000 H   0  0  0  0  0  0  0  0  0  0  0  0
   -9.0873    2.2782    0.0000 H   0  0  0  0  0  0  0  0  0  0  0  0
  -11.0851   -0.0000    0.0000 C   0  0  0  0  0  0  0  0  0  0  0  0
  -10.4726   -1.4782    0.0000 H   0  0  0  0  0  0  0  0  0  0  0  0
  -11.6975   -1.4782    0.0000 H   0  0  0  0  0  0  0  0  0  0  0  0
  -12.4709    0.8000    0.0000 C   0  0  0  0  0  0  0  0  0  0  0  0
  -13.0829    2.2782    0.0000 H   0  0  0  0  0  0  0  0  0  0  0  0
  -11.8584    2.2782    0.0000 H   0  0  0  0  0  0  0  0  0  0  0  0
  -13.8562   -0.0000    0.0000 C   0  0  0  0  0  0  0  0  0  0  0  0
  -13.2442   -1.4782    0.0000 H   0  0  0  0  0  0  0  0  0  0  0  0
  -14.4687   -1.4782    0.0000 H   0  0  0  0  0  0  0  0  0  0  0  0
  -15.2420    0.8000    0.0000 C   0  0  0  0  0  0  0  0  0  0  0  0
  -15.8545    2.2782    0.0000 H   0  0  0  0  0  0  0  0  0  0  0  0
  -14.6296    2.2782    0.0000 H   0  0  0  0  0  0  0  0  0  0  0  0
  -16.6279   -0.0000    0.0000 C   0  0  0  0  0  0  0  0  0  0  0  0
  -16.0154   -1.4782    0.0000 H   0  0  0  0  0  0  0  0  0  0  0  0
  -17.2399   -1.4782    0.0000 H   0  0  0  0  0  0  0  0  0  0  0  0
  -18.0132    0.8000    0.0000 C   0  0  0  0  0  0  0  0  0  0  0  0
  -18.0132    2.4000    0.0000 O   0  0  0  0  0  0  0  0  0  0  0  0
  -19.3990   -0.0000    0.0000 O   0  0  0  0  0  0  0  0  0  0  0  0
  -20.7844    0.8000    0.0000 C   0  0  0  0  0  0  0  0  0  0  0  0
  -21.3968    2.2782    0.0000 H   0  0  0  0  0  0  0  0  0  0  0  0
  -20.1724    2.2782    0.0000 H   0  0  0  0  0  0  0  0  0  0  0  0
  -22.1702   -0.0000    0.0000 C   0  0  0  0  0  0  0  0  0  0  0  0
  -21.3705   -1.3856    0.0000 H   0  0  0  0  0  0  0  0  0  0  0  0
  -22.9704    1.3856    0.0000 O   0  0  0  0  0  0  0  0  0  0  0  0
  -24.5704    1.3856    0.0000 H   0  0  0  0  0  0  0  0  0  0  0  0
  -23.5560   -0.8000    0.0000 C   0  0  0  0  0  0  0  0  0  0  0  0
  -22.9435   -2.2782    0.0000 H   0  0  0  0  0  0  0  0  0  0  0  0
  -24.1680   -2.2782    0.0000 H   0  0  0  0  0  0  0  0  0  0  0  0
  -24.9413   -0.0000    0.0000 O   0  0  0  0  0  0  0  0  0  0  0  0
  -26.3272   -0.8000    0.0000 H   0  0  0  0  0  0  0  0  0  0  0  0
  1  2  1  0  0  0  0
  1  3  1  0  0  0  0
  1  4  1  0  0  0  0
  1  5  1  0  0  0  0
  5  6  1  0  0  0  0
  5  7  1  0  0  0  0
  5  8  1  0  0  0  0
  8  9  1  0  0  0  0
  8 10  1  0  0  0  0
  8 11  1  0  0  0  0
 11 12  1  0  0  0  0
 11 13  1  0  0  0  0
 11 14  1  0  0  0  0
 14 15  1  0  0  0  0
 14 16  1  0  0  0  0
 14 17  1  0  0  0  0
 17 18  1  0  0  0  0
 17 19  1  0  0  0  0
 17 20  1  0  0  0  0
 20 21  1  0  0  0  0
 20 22  1  0  0  0  0
 20 23  1  0  0  0  0
 23 24  1  0  0  0  0
 23 25  1  0  0  0  0
 23 26  1  0  0  0  0
 26 27  1  0  0  0  0
 26 28  2  0  0  0  0
 28 29  1  0  0  0  0
 28 30  1  0  0  0  0
 30 31  1  0  0  0  0
 30 32  1  0  0  0  0
 30 33  1  0  0  0  0
 33 34  1  0  0  0  0
 33 35  1  0  0  0  0
 33 36  1  0  0  0  0
 36 37  1  0  0  0  0
 36 38  1  0  0  0  0
 36 39  1  0  0  0  0
 39 40  1  0  0  0  0
 39 41  1  0  0  0  0
 39 42  1  0  0  0  0
 42 43  1  0  0  0  0
 42 44  1  0  0  0  0
 42 45  1  0  0  0  0
 45 46  1  0  0  0  0
 45 47  1  0  0  0  0
 45 48  1  0  0  0  0
 48 49  1  0  0  0  0
 48 50  1  0  0  0  0
 48 51  1  0  0  0  0
 51 52  2  0  0  0  0
 51 53  1  0  0  0  0
 53 54  1  0  0  0  0
 54 55  1  0  0  0  0
 54 56  1  0  0  0  0
 54 57  1  0  0  0  0
 57 58  1  0  0  0  0
 57 59  1  0  0  0  0
 59 60  1  0  0  0  0
 57 61  1  0  0  0  0
 61 62  1  0  0  0  0
 61 63  1  0  0  0  0
 61 64  1  0  0  0  0
 64 65  1  0  0  0  0
M  END
> <ChemID>
201601

> <source_casrn>
111-03-5

> <CAS>
111-03-5

> <SMILES>
CCCCCCCC\C=C/CCCCCCCC(=O)OCC(O)CO

> <NAME>


> <preferred_name>
Glyceryl cis-9-octadecenoate

> <iupac>
2,3-dihydroxypropyl (9Z)-octadec-9-enoate

> <MPID>
101368

> <dsstox_substance_id>
DTXSID3042003

> <Canonical_QSARr>
CCCCCCCCC=CCCCCCCCC(=O)OCC(O)CO

> <InChI_Code_QSARr>
InChI=1S/C21H40O4/c1-2-3-4-5-6-7-8-9-10-11-12-13-14-15-16-17-21(24)25-19-20(23)18-22/h9-10,20,22-23H,2-8,11-19H2,1H3/b10-9+

> <InChI Key_QSARr>
RZRNAYUHWVFMIP-MDZDMXLPSA-N

> <Salt_Solvent>


> <Ready_Biodeg>
1.0

$$$$
201605
  -INDIGO-08031722522D

124123  0  0  0  0  0  0  0  0999 V2000
   18.0136    0.8000    0.0000 C   0  0  0  0  0  0  0  0  0  0  0  0
   19.3990    1.6000    0.0000 H   0  0  0  0  0  0  0  0  0  0  0  0
   19.3990    0.0000    0.0000 H   0  0  0  0  0  0  0  0  0  0  0  0
   18.0136    2.4000    0.0000 H   0  0  0  0  0  0  0  0  0  0  0  0
   16.6274    0.0000    0.0000 C   0  0  0  0  0  0  0  0  0  0  0  0
   16.0156   -1.4782    0.0000 H   0  0  0  0  0  0  0  0  0  0  0  0
   17.2401   -1.4782    0.0000 H   0  0  0  0  0  0  0  0  0  0  0  0
   15.2420    0.8000    0.0000 C   0  0  0  0  0  0  0  0  0  0  0  0
   15.8548    2.2782    0.0000 H   0  0  0  0  0  0  0  0  0  0  0  0
   14.6293    2.2782    0.0000 H   0  0  0  0  0  0  0  0  0  0  0  0
   13.8567    0.0000    0.0000 C   0  0  0  0  0  0  0  0  0  0  0  0
   13.2440   -1.4782    0.0000 H   0  0  0  0  0  0  0  0  0  0  0  0
   14.4685   -1.4782    0.0000 H   0  0  0  0  0  0  0  0  0  0  0  0
   12.4704    0.8000    0.0000 C   0  0  0  0  0  0  0  0  0  0  0  0
   13.0832    2.2782    0.0000 H   0  0  0  0  0  0  0  0  0  0  0  0
   11.8587    2.2782    0.0000 H   0  0  0  0  0  0  0  0  0  0  0  0
   11.0851    0.0000    0.0000 C   0  0  0  0  0  0  0  0  0  0  0  0
   10.4724   -1.4782    0.0000 H   0  0  0  0  0  0  0  0  0  0  0  0
   11.6979   -1.4782    0.0000 H   0  0  0  0  0  0  0  0  0  0  0  0
    9.6998    0.8000    0.0000 C   0  0  0  0  0  0  0  0  0  0  0  0
   10.3116    2.2782    0.0000 H   0  0  0  0  0  0  0  0  0  0  0  0
    9.0871    2.2782    0.0000 H   0  0  0  0  0  0  0  0  0  0  0  0
    8.3135    0.0000    0.0000 C   0  0  0  0  0  0  0  0  0  0  0  0
    7.7017   -1.4782    0.0000 H   0  0  0  0  0  0  0  0  0  0  0  0
    8.9263   -1.4782    0.0000 H   0  0  0  0  0  0  0  0  0  0  0  0
    6.9282    0.8000    0.0000 C   0  0  0  0  0  0  0  0  0  0  0  0
    6.9282    2.4000    0.0000 H   0  0  0  0  0  0  0  0  0  0  0  0
    5.5429    0.0000    0.0000 C   0  0  0  0  0  0  0  0  0  0  0  0
    5.5429   -1.6000    0.0000 H   0  0  0  0  0  0  0  0  0  0  0  0
    4.1566    0.8000    0.0000 C   0  0  0  0  0  0  0  0  0  0  0  0
    4.7693    2.2782    0.0000 H   0  0  0  0  0  0  0  0  0  0  0  0
    3.5448    2.2782    0.0000 H   0  0  0  0  0  0  0  0  0  0  0  0
    2.7713    0.0000    0.0000 C   0  0  0  0  0  0  0  0  0  0  0  0
    2.1585   -1.4782    0.0000 H   0  0  0  0  0  0  0  0  0  0  0  0
    3.3840   -1.4782    0.0000 H   0  0  0  0  0  0  0  0  0  0  0  0
    1.3860    0.8000    0.0000 C   0  0  0  0  0  0  0  0  0  0  0  0
    1.9977    2.2782    0.0000 H   0  0  0  0  0  0  0  0  0  0  0  0
    0.7732    2.2782    0.0000 H   0  0  0  0  0  0  0  0  0  0  0  0
   -0.0003    0.0000    0.0000 C   0  0  0  0  0  0  0  0  0  0  0  0
   -0.6121   -1.4782    0.0000 H   0  0  0  0  0  0  0  0  0  0  0  0
    0.6124   -1.4782    0.0000 H   0  0  0  0  0  0  0  0  0  0  0  0
   -1.3856    0.8000    0.0000 C   0  0  0  0  0  0  0  0  0  0  0  0
   -0.7729    2.2782    0.0000 H   0  0  0  0  0  0  0  0  0  0  0  0
   -1.9984    2.2782    0.0000 H   0  0  0  0  0  0  0  0  0  0  0  0
   -2.7710    0.0000    0.0000 C   0  0  0  0  0  0  0  0  0  0  0  0
   -3.3837   -1.4782    0.0000 H   0  0  0  0  0  0  0  0  0  0  0  0
   -2.1592   -1.4782    0.0000 H   0  0  0  0  0  0  0  0  0  0  0  0
   -4.1572    0.8000    0.0000 C   0  0  0  0  0  0  0  0  0  0  0  0
   -3.5445    2.2782    0.0000 H   0  0  0  0  0  0  0  0  0  0  0  0
   -4.7690    2.2782    0.0000 H   0  0  0  0  0  0  0  0  0  0  0  0
   -5.5426    0.0000    0.0000 C   0  0  0  0  0  0  0  0  0  0  0  0
   -6.1553   -1.4782    0.0000 H   0  0  0  0  0  0  0  0  0  0  0  0
   -4.9298   -1.4782    0.0000 H   0  0  0  0  0  0  0  0  0  0  0  0
   -6.9279    0.8000    0.0000 O   0  0  0  0  0  0  0  0  0  0  0  0
   -8.3142    0.0000    0.0000 C   0  0  0  0  0  0  0  0  0  0  0  0
   -8.3142   -1.6000    0.0000 O   0  0  0  0  0  0  0  0  0  0  0  0
   -9.6995    0.8000    0.0000 C   0  0  0  0  0  0  0  0  0  0  0  0
   -9.0867    2.2782    0.0000 H   0  0  0  0  0  0  0  0  0  0  0  0
  -10.3122    2.2782    0.0000 H   0  0  0  0  0  0  0  0  0  0  0  0
  -11.0848    0.0000    0.0000 C   0  0  0  0  0  0  0  0  0  0  0  0
  -11.6975   -1.4782    0.0000 H   0  0  0  0  0  0  0  0  0  0  0  0
  -10.4730   -1.4782    0.0000 H   0  0  0  0  0  0  0  0  0  0  0  0
  -12.4711    0.8000    0.0000 C   0  0  0  0  0  0  0  0  0  0  0  0
  -11.8583    2.2782    0.0000 H   0  0  0  0  0  0  0  0  0  0  0  0
  -13.0829    2.2782    0.0000 H   0  0  0  0  0  0  0  0  0  0  0  0
  -13.8564    0.0000    0.0000 C   0  0  0  0  0  0  0  0  0  0  0  0
  -14.4691   -1.4782    0.0000 H   0  0  0  0  0  0  0  0  0  0  0  0
  -13.2437   -1.4782    0.0000 H   0  0  0  0  0  0  0  0  0  0  0  0
  -15.2417    0.8000    0.0000 C   0  0  0  0  0  0  0  0  0  0  0  0
  -15.2417    2.4000    0.0000 O   0  0  0  0  0  0  0  0  0  0  0  0
  -16.6280    0.0000    0.0000 O   0  0  0  0  0  0  0  0  0  0  0  0
  -18.0133    0.8000    0.0000 C   0  0  0  0  0  0  0  0  0  0  0  0
  -17.4006    2.2782    0.0000 H   0  0  0  0  0  0  0  0  0  0  0  0
  -18.6261    2.2782    0.0000 H   0  0  0  0  0  0  0  0  0  0  0  0
  -19.3987    0.0000    0.0000 C   0  0  0  0  0  0  0  0  0  0  0  0
  -20.0114   -1.4782    0.0000 H   0  0  0  0  0  0  0  0  0  0  0  0
  -18.7869   -1.4782    0.0000 H   0  0  0  0  0  0  0  0  0  0  0  0
  -20.7849    0.8000    0.0000 C   0  0  0  0  0  0  0  0  0  0  0  0
  -20.1722    2.2782    0.0000 H   0  0  0  0  0  0  0  0  0  0  0  0
  -21.3967    2.2782    0.0000 H   0  0  0  0  0  0  0  0  0  0  0  0
  -22.1702    0.0000    0.0000 C   0  0  0  0  0  0  0  0  0  0  0  0
  -22.7830   -1.4782    0.0000 H   0  0  0  0  0  0  0  0  0  0  0  0
  -21.5575   -1.4782    0.0000 H   0  0  0  0  0  0  0  0  0  0  0  0
  -23.5556    0.8000    0.0000 C   0  0  0  0  0  0  0  0  0  0  0  0
  -22.9438    2.2782    0.0000 H   0  0  0  0  0  0  0  0  0  0  0  0
  -24.1683    2.2782    0.0000 H   0  0  0  0  0  0  0  0  0  0  0  0
  -24.9418    0.0000    0.0000 C   0  0  0  0  0  0  0  0  0  0  0  0
  -25.5536   -1.4782    0.0000 H   0  0  0  0  0  0  0  0  0  0  0  0
  -24.3291   -1.4782    0.0000 H   0  0  0  0  0  0  0  0  0  0  0  0
  -26.3272    0.8000    0.0000 C   0  0  0  0  0  0  0  0  0  0  0  0
  -25.7144    2.2782    0.0000 H   0  0  0  0  0  0  0  0  0  0  0  0
  -26.9399    2.2782    0.0000 H   0  0  0  0  0  0  0  0  0  0  0  0
  -27.7125    0.0000    0.0000 C   0  0  0  0  0  0  0  0  0  0  0  0
  -28.3252   -1.4782    0.0000 H   0  0  0  0  0  0  0  0  0  0  0  0
  -27.1007   -1.4782    0.0000 H   0  0  0  0  0  0  0  0  0  0  0  0
  -29.0988    0.8000    0.0000 C   0  0  0  0  0  0  0  0  0  0  0  0
  -29.0988    2.4000    0.0000 H   0  0  0  0  0  0  0  0  0  0  0  0
  -30.4841    0.0000    0.0000 C   0  0  0  0  0  0  0  0  0  0  0  0
  -30.4841   -1.6000    0.0000 H   0  0  0  0  0  0  0  0  0  0  0  0
  -31.8694    0.8000    0.0000 C   0  0  0  0  0  0  0  0  0  0  0  0
  -31.2576    2.2782    0.0000 H   0  0  0  0  0  0  0  0  0  0  0  0
  -32.4822    2.2782    0.0000 H   0  0  0  0  0  0  0  0  0  0  0  0
  -33.2557    0.0000    0.0000 C   0  0  0  0  0  0  0  0  0  0  0  0
  -33.8675   -1.4782    0.0000 H   0  0  0  0  0  0  0  0  0  0  0  0
  -32.6430   -1.4782    0.0000 H   0  0  0  0  0  0  0  0  0  0  0  0
  -34.6410    0.8000    0.0000 C   0  0  0  0  0  0  0  0  0  0  0  0
  -34.0283    2.2782    0.0000 H   0  0  0  0  0  0  0  0  0  0  0  0
  -35.2538    2.2782    0.0000 H   0  0  0  0  0  0  0  0  0  0  0  0
  -36.0263    0.0000    0.0000 C   0  0  0  0  0  0  0  0  0  0  0  0
  -36.6391   -1.4782    0.0000 H   0  0  0  0  0  0  0  0  0  0  0  0
  -35.4146   -1.4782    0.0000 H   0  0  0  0  0  0  0  0  0  0  0  0
  -37.4126    0.8000    0.0000 C   0  0  0  0  0  0  0  0  0  0  0  0
  -36.7999    2.2782    0.0000 H   0  0  0  0  0  0  0  0  0  0  0  0
  -38.0244    2.2782    0.0000 H   0  0  0  0  0  0  0  0  0  0  0  0
  -38.7979    0.0000    0.0000 C   0  0  0  0  0  0  0  0  0  0  0  0
  -39.4107   -1.4782    0.0000 H   0  0  0  0  0  0  0  0  0  0  0  0
  -38.1852   -1.4782    0.0000 H   0  0  0  0  0  0  0  0  0  0  0  0
  -40.1833    0.8000    0.0000 C   0  0  0  0  0  0  0  0  0  0  0  0
  -39.5715    2.2782    0.0000 H   0  0  0  0  0  0  0  0  0  0  0  0
  -40.7960    2.2782    0.0000 H   0  0  0  0  0  0  0  0  0  0  0  0
  -41.5695    0.0000    0.0000 C   0  0  0  0  0  0  0  0  0  0  0  0
  -42.9549   -0.8000    0.0000 H   0  0  0  0  0  0  0  0  0  0  0  0
  -42.9549    0.8000    0.0000 H   0  0  0  0  0  0  0  0  0  0  0  0
  -41.5695   -1.6000    0.0000 H   0  0  0  0  0  0  0  0  0  0  0  0
  1  2  1  0  0  0  0
  1  3  1  0  0  0  0
  1  4  1  0  0  0  0
  1  5  1  0  0  0  0
  5  6  1  0  0  0  0
  5  7  1  0  0  0  0
  5  8  1  0  0  0  0
  8  9  1  0  0  0  0
  8 10  1  0  0  0  0
  8 11  1  0  0  0  0
 11 12  1  0  0  0  0
 11 13  1  0  0  0  0
 11 14  1  0  0  0  0
 14 15  1  0  0  0  0
 14 16  1  0  0  0  0
 14 17  1  0  0  0  0
 17 18  1  0  0  0  0
 17 19  1  0  0  0  0
 17 20  1  0  0  0  0
 20 21  1  0  0  0  0
 20 22  1  0  0  0  0
 20 23  1  0  0  0  0
 23 24  1  0  0  0  0
 23 25  1  0  0  0  0
 23 26  1  0  0  0  0
 26 27  1  0  0  0  0
 26 28  2  0  0  0  0
 28 29  1  0  0  0  0
 28 30  1  0  0  0  0
 30 31  1  0  0  0  0
 30 32  1  0  0  0  0
 30 33  1  0  0  0  0
 33 34  1  0  0  0  0
 33 35  1  0  0  0  0
 33 36  1  0  0  0  0
 36 37  1  0  0  0  0
 36 38  1  0  0  0  0
 36 39  1  0  0  0  0
 39 40  1  0  0  0  0
 39 41  1  0  0  0  0
 39 42  1  0  0  0  0
 42 43  1  0  0  0  0
 42 44  1  0  0  0  0
 42 45  1  0  0  0  0
 45 46  1  0  0  0  0
 45 47  1  0  0  0  0
 45 48  1  0  0  0  0
 48 49  1  0  0  0  0
 48 50  1  0  0  0  0
 48 51  1  0  0  0  0
 51 52  1  0  0  0  0
 51 53  1  0  0  0  0
 51 54  1  0  0  0  0
 54 55  1  0  0  0  0
 55 56  2  0  0  0  0
 55 57  1  0  0  0  0
 57 58  1  0  0  0  0
 57 59  1  0  0  0  0
 57 60  1  0  0  0  0
 60 61  1  0  0  0  0
 60 62  1  0  0  0  0
 60 63  1  0  0  0  0
 63 64  1  0  0  0  0
 63 65  1  0  0  0  0
 63 66  1  0  0  0  0
 66 67  1  0  0  0  0
 66 68  1  0  0  0  0
 66 69  1  0  0  0  0
 69 70  2  0  0  0  0
 69 71  1  0  0  0  0
 71 72  1  0  0  0  0
 72 73  1  0  0  0  0
 72 74  1  0  0  0  0
 72 75  1  0  0  0  0
 75 76  1  0  0  0  0
 75 77  1  0  0  0  0
 75 78  1  0  0  0  0
 78 79  1  0  0  0  0
 78 80  1  0  0  0  0
 78 81  1  0  0  0  0
 81 82  1  0  0  0  0
 81 83  1  0  0  0  0
 81 84  1  0  0  0  0
 84 85  1  0  0  0  0
 84 86  1  0  0  0  0
 84 87  1  0  0  0  0
 87 88  1  0  0  0  0
 87 89  1  0  0  0  0
 87 90  1  0  0  0  0
 90 91  1  0  0  0  0
 90 92  1  0  0  0  0
 90 93  1  0  0  0  0
 93 94  1  0  0  0  0
 93 95  1  0  0  0  0
 93 96  1  0  0  0  0
 96 97  1  0  0  0  0
 96 98  2  0  0  0  0
 98 99  1  0  0  0  0
 98100  1  0  0  0  0
100101  1  0  0  0  0
100102  1  0  0  0  0
100103  1  0  0  0  0
103104  1  0  0  0  0
103105  1  0  0  0  0
103106  1  0  0  0  0
106107  1  0  0  0  0
106108  1  0  0  0  0
106109  1  0  0  0  0
109110  1  0  0  0  0
109111  1  0  0  0  0
109112  1  0  0  0  0
112113  1  0  0  0  0
112114  1  0  0  0  0
112115  1  0  0  0  0
115116  1  0  0  0  0
115117  1  0  0  0  0
115118  1  0  0  0  0
118119  1  0  0  0  0
118120  1  0  0  0  0
118121  1  0  0  0  0
121122  1  0  0  0  0
121123  1  0  0  0  0
121124  1  0  0  0  0
M  END
> <ChemID>
201605

> <source_casrn>


> <CAS>
40677-77-8

> <SMILES>
CCCCCCCC\C=C/CCCCCCCCOC(=O)CCCCC(=O)OCCCCCCCC\C=C/CCCCCCCC

> <NAME>


> <preferred_name>


> <iupac>


> <MPID>
101369

> <dsstox_substance_id>


> <Canonical_QSARr>
CCCCCCCCC=CCCCCCCCCOC(=O)CCCCC(=O)OCCCCCCCCC=CCCCCCCCC

> <InChI_Code_QSARr>
InChI=1S/C42H78O4/c1-3-5-7-9-11-13-15-17-19-21-23-25-27-29-31-35-39-45-41(43)37-33-34-38-42(44)46-40-36-32-30-28-26-24-22-20-18-16-14-12-10-8-6-4-2/h17-20H,3-16,21-40H2,1-2H3/b19-17+,20-18+

> <InChI Key_QSARr>
QZULIRBSQUIUTA-XPWSMXQVSA-N

> <Salt_Solvent>


> <Ready_Biodeg>
1.0

$$$$
201607
  -INDIGO-08031722522D

 63 62  0  0  0  0  0  0  0  0999 V2000
    3.9897    1.7478    0.0000 O   0  0  0  0  0  0  0  0  0  0  0  0
    5.5655    1.4700    0.0000 H   0  0  0  0  0  0  0  0  0  0  0  0
    2.9612    0.5222    0.0000 C   0  0  0  0  0  0  0  0  0  0  0  0
    1.3855    0.8000    0.0000 C   0  0  0  0  0  0  0  0  0  0  0  0
    1.9981    2.2783    0.0000 H   0  0  0  0  0  0  0  0  0  0  0  0
    0.7733    2.2783    0.0000 H   0  0  0  0  0  0  0  0  0  0  0  0
    0.0002    0.0000    0.0000 N   0  0  0  0  0  0  0  0  0  0  0  0
   -0.7998    1.3856    0.0000 C   0  0  0  0  0  0  0  0  0  0  0  0
   -1.5998    2.7713    0.0000 H   0  0  0  0  0  0  0  0  0  0  0  0
   -1.6483    1.6609    0.0000 H   0  0  0  0  0  0  0  0  0  0  0  0
    0.0002    2.7713    0.0000 H   0  0  0  0  0  0  0  0  0  0  0  0
    0.7998   -1.3857    0.0000 C   0  0  0  0  0  0  0  0  0  0  0  0
    1.5998   -2.7713    0.0000 H   0  0  0  0  0  0  0  0  0  0  0  0
    0.0002   -2.7713    0.0000 H   0  0  0  0  0  0  0  0  0  0  0  0
    2.3998   -1.3857    0.0000 H   0  0  0  0  0  0  0  0  0  0  0  0
   -1.5037   -0.5472    0.0000 C   0  0  0  0  0  0  0  0  0  0  0  0
   -2.3632   -1.8966    0.0000 H   0  0  0  0  0  0  0  0  0  0  0  0
   -1.1570   -2.1093    0.0000 H   0  0  0  0  0  0  0  0  0  0  0  0
   -2.7293    0.4812    0.0000 C   0  0  0  0  0  0  0  0  0  0  0  0
   -2.4241    1.3192    0.0000 H   0  0  0  0  0  0  0  0  0  0  0  0
   -3.0755    2.0434    0.0000 H   0  0  0  0  0  0  0  0  0  0  0  0
   -4.2327   -0.0660    0.0000 C   0  0  0  0  0  0  0  0  0  0  0  0
   -5.0923   -1.4155    0.0000 H   0  0  0  0  0  0  0  0  0  0  0  0
   -3.8865   -1.6281    0.0000 H   0  0  0  0  0  0  0  0  0  0  0  0
   -5.4583    0.9625    0.0000 N   0  0  0  0  0  0  0  0  0  0  0  0
   -5.1805    2.5382    0.0000 H   0  0  0  0  0  0  0  0  0  0  0  0
   -6.9618    0.4153    0.0000 C   0  0  0  0  0  0  0  0  0  0  0  0
   -7.2396   -1.1604    0.0000 O   0  0  0  0  0  0  0  0  0  0  0  0
   -8.1874    1.4436    0.0000 C   0  0  0  0  0  0  0  0  0  0  0  0
   -7.3278    2.7931    0.0000 H   0  0  0  0  0  0  0  0  0  0  0  0
   -8.5340    3.0058    0.0000 H   0  0  0  0  0  0  0  0  0  0  0  0
   -9.6913    0.8964    0.0000 C   0  0  0  0  0  0  0  0  0  0  0  0
  -10.5508   -0.4530    0.0000 H   0  0  0  0  0  0  0  0  0  0  0  0
   -9.3446   -0.6656    0.0000 H   0  0  0  0  0  0  0  0  0  0  0  0
  -10.9169    1.9249    0.0000 C   0  0  0  0  0  0  0  0  0  0  0  0
  -10.0569    3.2743    0.0000 H   0  0  0  0  0  0  0  0  0  0  0  0
  -11.2631    3.4870    0.0000 H   0  0  0  0  0  0  0  0  0  0  0  0
  -12.4203    1.3777    0.0000 C   0  0  0  0  0  0  0  0  0  0  0  0
  -13.2799    0.0283    0.0000 H   0  0  0  0  0  0  0  0  0  0  0  0
  -12.0741   -0.1844    0.0000 H   0  0  0  0  0  0  0  0  0  0  0  0
  -13.6459    2.4062    0.0000 C   0  0  0  0  0  0  0  0  0  0  0  0
  -12.7864    3.7555    0.0000 H   0  0  0  0  0  0  0  0  0  0  0  0
  -13.9921    3.9683    0.0000 H   0  0  0  0  0  0  0  0  0  0  0  0
  -15.1494    1.8589    0.0000 C   0  0  0  0  0  0  0  0  0  0  0  0
  -16.0089    0.5094    0.0000 H   0  0  0  0  0  0  0  0  0  0  0  0
  -14.8032    0.2968    0.0000 H   0  0  0  0  0  0  0  0  0  0  0  0
  -16.3750    2.8874    0.0000 C   0  0  0  0  0  0  0  0  0  0  0  0
  -15.5154    4.2368    0.0000 H   0  0  0  0  0  0  0  0  0  0  0  0
  -16.7212    4.4494    0.0000 H   0  0  0  0  0  0  0  0  0  0  0  0
  -17.8784    2.3402    0.0000 C   0  0  0  0  0  0  0  0  0  0  0  0
  -18.7384    0.9907    0.0000 H   0  0  0  0  0  0  0  0  0  0  0  0
  -17.5322    0.7781    0.0000 H   0  0  0  0  0  0  0  0  0  0  0  0
  -19.1044    3.3687    0.0000 C   0  0  0  0  0  0  0  0  0  0  0  0
  -18.2445    4.7180    0.0000 H   0  0  0  0  0  0  0  0  0  0  0  0
  -19.4506    4.9307    0.0000 H   0  0  0  0  0  0  0  0  0  0  0  0
  -20.6079    2.8213    0.0000 C   0  0  0  0  0  0  0  0  0  0  0  0
  -21.4674    1.4719    0.0000 H   0  0  0  0  0  0  0  0  0  0  0  0
  -20.2612    1.2593    0.0000 H   0  0  0  0  0  0  0  0  0  0  0  0
  -21.8335    3.8498    0.0000 C   0  0  0  0  0  0  0  0  0  0  0  0
  -23.0591    4.8783    0.0000 H   0  0  0  0  0  0  0  0  0  0  0  0
  -23.3369    3.3026    0.0000 H   0  0  0  0  0  0  0  0  0  0  0  0
  -21.5557    5.4255    0.0000 H   0  0  0  0  0  0  0  0  0  0  0  0
    3.5086   -0.9813    0.0000 O   0  0  0  0  0  0  0  0  0  0  0  0
  1  2  1  0  0  0  0
  1  3  1  0  0  0  0
  3  4  1  0  0  0  0
  4  5  1  0  0  0  0
  4  6  1  0  0  0  0
  4  7  1  0  0  0  0
  7  8  1  0  0  0  0
  8  9  1  0  0  0  0
  8 10  1  0  0  0  0
  8 11  1  0  0  0  0
  7 12  1  0  0  0  0
 12 13  1  0  0  0  0
 12 14  1  0  0  0  0
 12 15  1  0  0  0  0
  7 16  1  0  0  0  0
 16 17  1  0  0  0  0
 16 18  1  0  0  0  0
 16 19  1  0  0  0  0
 19 20  1  0  0  0  0
 19 21  1  0  0  0  0
 19 22  1  0  0  0  0
 22 23  1  0  0  0  0
 22 24  1  0  0  0  0
 22 25  1  0  0  0  0
 25 26  1  0  0  0  0
 25 27  1  0  0  0  0
 27 28  2  0  0  0  0
 27 29  1  0  0  0  0
 29 30  1  0  0  0  0
 29 31  1  0  0  0  0
 29 32  1  0  0  0  0
 32 33  1  0  0  0  0
 32 34  1  0  0  0  0
 32 35  1  0  0  0  0
 35 36  1  0  0  0  0
 35 37  1  0  0  0  0
 35 38  1  0  0  0  0
 38 39  1  0  0  0  0
 38 40  1  0  0  0  0
 38 41  1  0  0  0  0
 41 42  1  0  0  0  0
 41 43  1  0  0  0  0
 41 44  1  0  0  0  0
 44 45  1  0  0  0  0
 44 46  1  0  0  0  0
 44 47  1  0  0  0  0
 47 48  1  0  0  0  0
 47 49  1  0  0  0  0
 47 50  1  0  0  0  0
 50 51  1  0  0  0  0
 50 52  1  0  0  0  0
 50 53  1  0  0  0  0
 53 54  1  0  0  0  0
 53 55  1  0  0  0  0
 53 56  1  0  0  0  0
 56 57  1  0  0  0  0
 56 58  1  0  0  0  0
 56 59  1  0  0  0  0
 59 60  1  0  0  0  0
 59 61  1  0  0  0  0
 59 62  1  0  0  0  0
  3 63  2  0  0  0  0
M  CHG  1   7   1
M  END
> <ChemID>
201607

> <source_casrn>
4292-10-8

> <CAS>
4292-10-8

> <SMILES>
CCCCCCCCCCCC(=O)NCCC[N+](C)(C)CC([O-])=O

> <NAME>


> <preferred_name>
1-Propanaminium, N-(carboxymethyl)-N,N-dimethyl-3-[(1-oxododecyl)amino]-, inner salt

> <iupac>
{[3-(dodecanoylamino)propyl](dimethyl)ammonio}acetate

> <MPID>
101370

> <dsstox_substance_id>
DTXSID4041282

> <Canonical_QSARr>
CCCCCCCCCCCC(=O)NCCC[N+](C)(C)CC(O)=O

> <InChI_Code_QSARr>
InChI=1S/C19H38N2O3/c1-4-5-6-7-8-9-10-11-12-14-18(22)20-15-13-16-21(2,3)17-19(23)24/h4-17H2,1-3H3,(H-,20,22,23,24)/p+1

> <InChI Key_QSARr>
MRUAUOIMASANKQ-UHFFFAOYSA-O

> <Salt_Solvent>


> <Ready_Biodeg>
1.0

$$$$
201608
  -INDIGO-08031722522D

 41 40  0  0  0  0  0  0  0  0999 V2000
    6.9282    0.8000    0.0000 C   0  0  0  0  0  0  0  0  0  0  0  0
    8.3138    1.6000    0.0000 H   0  0  0  0  0  0  0  0  0  0  0  0
    8.3138    0.0000    0.0000 H   0  0  0  0  0  0  0  0  0  0  0  0
    6.9282    2.4000    0.0000 H   0  0  0  0  0  0  0  0  0  0  0  0
    5.5426    0.0000    0.0000 C   0  0  0  0  0  0  0  0  0  0  0  0
    4.9301   -1.4782    0.0000 H   0  0  0  0  0  0  0  0  0  0  0  0
    6.1550   -1.4782    0.0000 H   0  0  0  0  0  0  0  0  0  0  0  0
    4.1569    0.8000    0.0000 C   0  0  0  0  0  0  0  0  0  0  0  0
    4.7693    2.2782    0.0000 H   0  0  0  0  0  0  0  0  0  0  0  0
    3.5445    2.2782    0.0000 H   0  0  0  0  0  0  0  0  0  0  0  0
    2.7713    0.0000    0.0000 C   0  0  0  0  0  0  0  0  0  0  0  0
    2.1589   -1.4782    0.0000 H   0  0  0  0  0  0  0  0  0  0  0  0
    3.3837   -1.4782    0.0000 H   0  0  0  0  0  0  0  0  0  0  0  0
    1.3856    0.8000    0.0000 C   0  0  0  0  0  0  0  0  0  0  0  0
    1.9981    2.2782    0.0000 H   0  0  0  0  0  0  0  0  0  0  0  0
    0.7732    2.2782    0.0000 H   0  0  0  0  0  0  0  0  0  0  0  0
    0.0000    0.0000    0.0000 C   0  0  0  0  0  0  0  0  0  0  0  0
   -0.6124   -1.4782    0.0000 H   0  0  0  0  0  0  0  0  0  0  0  0
    0.6124   -1.4782    0.0000 H   0  0  0  0  0  0  0  0  0  0  0  0
   -1.3856    0.8000    0.0000 C   0  0  0  0  0  0  0  0  0  0  0  0
   -0.7732    2.2782    0.0000 H   0  0  0  0  0  0  0  0  0  0  0  0
   -1.9981    2.2782    0.0000 H   0  0  0  0  0  0  0  0  0  0  0  0
   -2.7713    0.0000    0.0000 C   0  0  0  0  0  0  0  0  0  0  0  0
   -3.3837   -1.4782    0.0000 H   0  0  0  0  0  0  0  0  0  0  0  0
   -2.1589   -1.4782    0.0000 H   0  0  0  0  0  0  0  0  0  0  0  0
   -4.1569    0.8000    0.0000 C   0  0  0  0  0  0  0  0  0  0  0  0
   -3.5445    2.2782    0.0000 H   0  0  0  0  0  0  0  0  0  0  0  0
   -4.7693    2.2782    0.0000 H   0  0  0  0  0  0  0  0  0  0  0  0
   -5.5426    0.0000    0.0000 C   0  0  0  0  0  0  0  0  0  0  0  0
   -6.1550   -1.4782    0.0000 H   0  0  0  0  0  0  0  0  0  0  0  0
   -4.9301   -1.4782    0.0000 H   0  0  0  0  0  0  0  0  0  0  0  0
   -6.9282    0.8000    0.0000 C   0  0  0  0  0  0  0  0  0  0  0  0
   -6.3158    2.2782    0.0000 H   0  0  0  0  0  0  0  0  0  0  0  0
   -7.5406    2.2782    0.0000 H   0  0  0  0  0  0  0  0  0  0  0  0
   -8.3138    0.0000    0.0000 C   0  0  0  0  0  0  0  0  0  0  0  0
   -8.3138   -1.6000    0.0000 O   0  0  0  0  0  0  0  0  0  0  0  0
   -9.6995    0.8000    0.0000 O   0  0  0  0  0  0  0  0  0  0  0  0
  -11.0851    0.0000    0.0000 C   0  0  0  0  0  0  0  0  0  0  0  0
  -12.4708   -0.8000    0.0000 H   0  0  0  0  0  0  0  0  0  0  0  0
  -12.4708    0.8000    0.0000 H   0  0  0  0  0  0  0  0  0  0  0  0
  -11.0851   -1.6000    0.0000 H   0  0  0  0  0  0  0  0  0  0  0  0
  1  2  1  0  0  0  0
  1  3  1  0  0  0  0
  1  4  1  0  0  0  0
  1  5  1  0  0  0  0
  5  6  1  0  0  0  0
  5  7  1  0  0  0  0
  5  8  1  0  0  0  0
  8  9  1  0  0  0  0
  8 10  1  0  0  0  0
  8 11  1  0  0  0  0
 11 12  1  0  0  0  0
 11 13  1  0  0  0  0
 11 14  1  0  0  0  0
 14 15  1  0  0  0  0
 14 16  1  0  0  0  0
 14 17  1  0  0  0  0
 17 18  1  0  0  0  0
 17 19  1  0  0  0  0
 17 20  1  0  0  0  0
 20 21  1  0  0  0  0
 20 22  1  0  0  0  0
 20 23  1  0  0  0  0
 23 24  1  0  0  0  0
 23 25  1  0  0  0  0
 23 26  1  0  0  0  0
 26 27  1  0  0  0  0
 26 28  1  0  0  0  0
 26 29  1  0  0  0  0
 29 30  1  0  0  0  0
 29 31  1  0  0  0  0
 29 32  1  0  0  0  0
 32 33  1  0  0  0  0
 32 34  1  0  0  0  0
 32 35  1  0  0  0  0
 35 36  2  0  0  0  0
 35 37  1  0  0  0  0
 37 38  1  0  0  0  0
 38 39  1  0  0  0  0
 38 40  1  0  0  0  0
 38 41  1  0  0  0  0
M  END
> <ChemID>
201608

> <source_casrn>
111-82-0

> <CAS>
111-82-0

> <SMILES>
CCCCCCCCCCCC(=O)OC

> <NAME>


> <preferred_name>
Methyl dodecanoate

> <iupac>
methyl dodecanoate

> <MPID>
101371

> <dsstox_substance_id>
DTXSID5026889

> <Canonical_QSARr>
CCCCCCCCCCCC(=O)OC

> <InChI_Code_QSARr>
InChI=1S/C13H26O2/c1-3-4-5-6-7-8-9-10-11-12-13(14)15-2/h3-12H2,1-2H3

> <InChI Key_QSARr>
UQDUPQYQJKYHQI-UHFFFAOYSA-N

> <Salt_Solvent>


> <Ready_Biodeg>
1.0

$$$$
201609
  -INDIGO-08031722522D

 58 58  0  0  0  0  0  0  0  0999 V2000
   20.4969    3.5389    0.0000 C   0  0  0  0  0  0  0  0  0  0  0  0
   21.6857    4.6094    0.0000 H   0  0  0  0  0  0  0  0  0  0  0  0
   22.0184    3.0444    0.0000 H   0  0  0  0  0  0  0  0  0  0  0  0
   20.1641    5.1038    0.0000 H   0  0  0  0  0  0  0  0  0  0  0  0
   19.3077    2.4682    0.0000 C   0  0  0  0  0  0  0  0  0  0  0  0
   19.0162    0.8950    0.0000 H   0  0  0  0  0  0  0  0  0  0  0  0
   20.2138    1.1496    0.0000 H   0  0  0  0  0  0  0  0  0  0  0  0
   17.7861    2.9626    0.0000 C   0  0  0  0  0  0  0  0  0  0  0  0
   18.0776    4.5358    0.0000 H   0  0  0  0  0  0  0  0  0  0  0  0
   16.8796    4.2812    0.0000 H   0  0  0  0  0  0  0  0  0  0  0  0
   16.5969    1.8921    0.0000 C   0  0  0  0  0  0  0  0  0  0  0  0
   16.3055    0.3188    0.0000 H   0  0  0  0  0  0  0  0  0  0  0  0
   17.5034    0.5734    0.0000 H   0  0  0  0  0  0  0  0  0  0  0  0
   15.0754    2.3864    0.0000 C   0  0  0  0  0  0  0  0  0  0  0  0
   15.3668    3.9597    0.0000 H   0  0  0  0  0  0  0  0  0  0  0  0
   14.1693    3.7051    0.0000 H   0  0  0  0  0  0  0  0  0  0  0  0
   13.8862    1.3159    0.0000 C   0  0  0  0  0  0  0  0  0  0  0  0
   13.5947   -0.2573    0.0000 H   0  0  0  0  0  0  0  0  0  0  0  0
   14.7927   -0.0027    0.0000 H   0  0  0  0  0  0  0  0  0  0  0  0
   12.3646    1.8103    0.0000 C   0  0  0  0  0  0  0  0  0  0  0  0
   12.6560    3.3835    0.0000 H   0  0  0  0  0  0  0  0  0  0  0  0
   11.4585    3.1289    0.0000 H   0  0  0  0  0  0  0  0  0  0  0  0
   11.1754    0.7396    0.0000 C   0  0  0  0  0  0  0  0  0  0  0  0
   10.8840   -0.8336    0.0000 H   0  0  0  0  0  0  0  0  0  0  0  0
   12.0819   -0.5790    0.0000 H   0  0  0  0  0  0  0  0  0  0  0  0
    9.6538    1.2341    0.0000 C   0  0  0  0  0  0  0  0  0  0  0  0
    9.9453    2.8073    0.0000 H   0  0  0  0  0  0  0  0  0  0  0  0
    8.7477    2.5527    0.0000 H   0  0  0  0  0  0  0  0  0  0  0  0
    8.4646    0.1635    0.0000 C   0  0  0  0  0  0  0  0  0  0  0  0
    8.1732   -1.4097    0.0000 H   0  0  0  0  0  0  0  0  0  0  0  0
    9.3712   -1.1551    0.0000 H   0  0  0  0  0  0  0  0  0  0  0  0
    6.9431    0.6580    0.0000 C   0  0  0  0  0  0  0  0  0  0  0  0
    7.2345    2.2312    0.0000 H   0  0  0  0  0  0  0  0  0  0  0  0
    6.0370    1.9766    0.0000 H   0  0  0  0  0  0  0  0  0  0  0  0
    5.7543   -0.4127    0.0000 C   0  0  0  0  0  0  0  0  0  0  0  0
    6.0867   -1.9777    0.0000 O   0  0  0  0  0  0  0  0  0  0  0  0
    4.2323    0.0817    0.0000 O   0  0  0  0  0  0  0  0  0  0  0  0
    3.0435   -0.9888    0.0000 C   0  0  0  0  0  0  0  0  0  0  0  0
    2.7517   -2.5621    0.0000 H   0  0  0  0  0  0  0  0  0  0  0  0
    3.9496   -2.3074    0.0000 H   0  0  0  0  0  0  0  0  0  0  0  0
    1.5216   -0.4944    0.0000 C   0  0  0  0  0  0  0  0  0  0  0  0
    1.0272   -2.0162    0.0000 H   0  0  0  0  0  0  0  0  0  0  0  0
    2.0159    1.0273    0.0000 O   0  0  0  0  0  0  0  0  0  0  0  0
    3.5813    1.3599    0.0000 H   0  0  0  0  0  0  0  0  0  0  0  0
   -0.0000   -0.0001    0.0000 C   0  0  0  0  0  0  0  0  0  0  0  0
    0.6510    1.4617    0.0000 H   0  0  0  0  0  0  0  0  0  0  0  0
   -0.3328   -1.5650    0.0000 O   0  0  0  0  0  0  0  0  0  0  0  0
   -1.9241   -1.7323    0.0000 C   0  0  0  0  0  0  0  0  0  0  0  0
   -1.5913   -3.2973    0.0000 H   0  0  0  0  0  0  0  0  0  0  0  0
   -3.4457   -2.2266    0.0000 H   0  0  0  0  0  0  0  0  0  0  0  0
   -2.5746   -0.2707    0.0000 C   0  0  0  0  0  0  0  0  0  0  0  0
   -3.5150    1.0238    0.0000 H   0  0  0  0  0  0  0  0  0  0  0  0
   -3.9605   -1.0706    0.0000 O   0  0  0  0  0  0  0  0  0  0  0  0
   -5.3460   -0.2707    0.0000 H   0  0  0  0  0  0  0  0  0  0  0  0
   -1.3855    0.8000    0.0000 C   0  0  0  0  0  0  0  0  0  0  0  0
   -0.4451    2.0944    0.0000 H   0  0  0  0  0  0  0  0  0  0  0  0
   -2.5746    1.8707    0.0000 O   0  0  0  0  0  0  0  0  0  0  0  0
   -2.2419    3.4357    0.0000 H   0  0  0  0  0  0  0  0  0  0  0  0
  1  2  1  0  0  0  0
  1  3  1  0  0  0  0
  1  4  1  0  0  0  0
  1  5  1  0  0  0  0
  5  6  1  0  0  0  0
  5  7  1  0  0  0  0
  5  8  1  0  0  0  0
  8  9  1  0  0  0  0
  8 10  1  0  0  0  0
  8 11  1  0  0  0  0
 11 12  1  0  0  0  0
 11 13  1  0  0  0  0
 11 14  1  0  0  0  0
 14 15  1  0  0  0  0
 14 16  1  0  0  0  0
 14 17  1  0  0  0  0
 17 18  1  0  0  0  0
 17 19  1  0  0  0  0
 17 20  1  0  0  0  0
 20 21  1  0  0  0  0
 20 22  1  0  0  0  0
 20 23  1  0  0  0  0
 23 24  1  0  0  0  0
 23 25  1  0  0  0  0
 23 26  1  0  0  0  0
 26 27  1  0  0  0  0
 26 28  1  0  0  0  0
 26 29  1  0  0  0  0
 29 30  1  0  0  0  0
 29 31  1  0  0  0  0
 29 32  1  0  0  0  0
 32 33  1  0  0  0  0
 32 34  1  0  0  0  0
 32 35  1  0  0  0  0
 35 36  2  0  0  0  0
 35 37  1  0  0  0  0
 37 38  1  0  0  0  0
 38 39  1  0  0  0  0
 38 40  1  0  0  0  0
 38 41  1  0  0  0  0
 41 42  1  0  0  0  0
 41 43  1  0  0  0  0
 43 44  1  0  0  0  0
 41 45  1  0  0  0  0
 45 46  1  0  0  0  0
 45 47  1  0  0  0  0
 47 48  1  0  0  0  0
 48 49  1  0  0  0  0
 48 50  1  0  0  0  0
 48 51  1  0  0  0  0
 51 52  1  0  0  0  0
 51 53  1  0  0  0  0
 53 54  1  0  0  0  0
 51 55  1  0  0  0  0
 55 45  1  0  0  0  0
 55 56  1  0  0  0  0
 55 57  1  0  0  0  0
 57 58  1  0  0  0  0
M  END
> <ChemID>
201609

> <source_casrn>
1338-39-2

> <CAS>
16287-68-6

> <SMILES>
CCCCCCCCCCCC(=O)OCC(O)C1OCC(O)C1O

> <NAME>


> <preferred_name>


> <iupac>


> <MPID>
101372

> <dsstox_substance_id>
DTXSID70324260

> <Canonical_QSARr>
CCCCCCCCCCCC(=O)OCC(O)C1OCC(O)C1O

> <InChI_Code_QSARr>
InChI=1S/C18H34O6/c1-2-3-4-5-6-7-8-9-10-11-16(21)23-13-15(20)18-17(22)14(19)12-24-18/h14-15,17-20,22H,2-13H2,1H3

> <InChI Key_QSARr>
LWZFANDGMFTDAV-UHFFFAOYSA-N

> <Salt_Solvent>


> <Ready_Biodeg>
1.0

$$$$
201612
  -INDIGO-08031722522D

 48 48  0  0  0  0  0  0  0  0999 V2000
    6.9282    0.8000    0.0000 C   0  0  0  0  0  0  0  0  0  0  0  0
    8.3138    1.6000    0.0000 H   0  0  0  0  0  0  0  0  0  0  0  0
    8.3138   -0.0000    0.0000 H   0  0  0  0  0  0  0  0  0  0  0  0
    6.9282    2.4000    0.0000 H   0  0  0  0  0  0  0  0  0  0  0  0
    5.5426   -0.0000    0.0000 C   0  0  0  0  0  0  0  0  0  0  0  0
    4.9304   -1.4782    0.0000 H   0  0  0  0  0  0  0  0  0  0  0  0
    6.1547   -1.4782    0.0000 H   0  0  0  0  0  0  0  0  0  0  0  0
    4.1569    0.8000    0.0000 C   0  0  0  0  0  0  0  0  0  0  0  0
    4.7690    2.2782    0.0000 H   0  0  0  0  0  0  0  0  0  0  0  0
    3.5448    2.2782    0.0000 H   0  0  0  0  0  0  0  0  0  0  0  0
    2.7713   -0.0000    0.0000 C   0  0  0  0  0  0  0  0  0  0  0  0
    2.1592   -1.4782    0.0000 H   0  0  0  0  0  0  0  0  0  0  0  0
    3.3834   -1.4782    0.0000 H   0  0  0  0  0  0  0  0  0  0  0  0
    1.3856    0.8000    0.0000 C   0  0  0  0  0  0  0  0  0  0  0  0
    1.9978    2.2782    0.0000 H   0  0  0  0  0  0  0  0  0  0  0  0
    0.7735    2.2782    0.0000 H   0  0  0  0  0  0  0  0  0  0  0  0
    0.0000   -0.0000    0.0000 C   0  0  0  0  0  0  0  0  0  0  0  0
   -0.6121   -1.4782    0.0000 H   0  0  0  0  0  0  0  0  0  0  0  0
    0.6121   -1.4782    0.0000 H   0  0  0  0  0  0  0  0  0  0  0  0
   -1.3856    0.8000    0.0000 C   0  0  0  0  0  0  0  0  0  0  0  0
   -0.7735    2.2782    0.0000 H   0  0  0  0  0  0  0  0  0  0  0  0
   -1.9978    2.2782    0.0000 H   0  0  0  0  0  0  0  0  0  0  0  0
   -2.7713   -0.0000    0.0000 C   0  0  0  0  0  0  0  0  0  0  0  0
   -3.3834   -1.4782    0.0000 H   0  0  0  0  0  0  0  0  0  0  0  0
   -2.1592   -1.4782    0.0000 H   0  0  0  0  0  0  0  0  0  0  0  0
   -4.1569    0.8000    0.0000 C   0  0  0  0  0  0  0  0  0  0  0  0
   -3.5448    2.2782    0.0000 H   0  0  0  0  0  0  0  0  0  0  0  0
   -4.7690    2.2782    0.0000 H   0  0  0  0  0  0  0  0  0  0  0  0
   -5.5426   -0.0000    0.0000 C   0  0  0  0  0  0  0  0  0  0  0  0
   -6.1547   -1.4782    0.0000 H   0  0  0  0  0  0  0  0  0  0  0  0
   -4.9304   -1.4782    0.0000 H   0  0  0  0  0  0  0  0  0  0  0  0
   -6.9282    0.8000    0.0000 C   0  0  0  0  0  0  0  0  0  0  0  0
   -6.3161    2.2782    0.0000 H   0  0  0  0  0  0  0  0  0  0  0  0
   -7.5403    2.2782    0.0000 H   0  0  0  0  0  0  0  0  0  0  0  0
   -8.3138   -0.0000    0.0000 C   0  0  0  0  0  0  0  0  0  0  0  0
   -8.3138   -1.6000    0.0000 O   0  0  0  0  0  0  0  0  0  0  0  0
   -9.6995    0.8000    0.0000 O   0  0  0  0  0  0  0  0  0  0  0  0
  -11.0851   -0.0000    0.0000 C   0  0  0  0  0  0  0  0  0  0  0  0
  -11.0851   -1.6000    0.0000 C   0  0  0  0  0  0  0  0  0  0  0  0
   -9.6995   -2.4000    0.0000 Cl  0  0  0  0  0  0  0  0  0  0  0  0
  -12.4708   -2.4000    0.0000 C   0  0  0  0  0  0  0  0  0  0  0  0
  -12.4708   -4.0000    0.0000 Cl  0  0  0  0  0  0  0  0  0  0  0  0
  -13.8564   -1.6000    0.0000 C   0  0  0  0  0  0  0  0  0  0  0  0
  -15.2420   -2.4000    0.0000 Cl  0  0  0  0  0  0  0  0  0  0  0  0
  -13.8564   -0.0000    0.0000 C   0  0  0  0  0  0  0  0  0  0  0  0
  -15.2420    0.8000    0.0000 Cl  0  0  0  0  0  0  0  0  0  0  0  0
  -12.4708    0.8000    0.0000 C   0  0  0  0  0  0  0  0  0  0  0  0
  -12.4708    2.4000    0.0000 Cl  0  0  0  0  0  0  0  0  0  0  0  0
  1  2  1  0  0  0  0
  1  3  1  0  0  0  0
  1  4  1  0  0  0  0
  1  5  1  0  0  0  0
  5  6  1  0  0  0  0
  5  7  1  0  0  0  0
  5  8  1  0  0  0  0
  8  9  1  0  0  0  0
  8 10  1  0  0  0  0
  8 11  1  0  0  0  0
 11 12  1  0  0  0  0
 11 13  1  0  0  0  0
 11 14  1  0  0  0  0
 14 15  1  0  0  0  0
 14 16  1  0  0  0  0
 14 17  1  0  0  0  0
 17 18  1  0  0  0  0
 17 19  1  0  0  0  0
 17 20  1  0  0  0  0
 20 21  1  0  0  0  0
 20 22  1  0  0  0  0
 20 23  1  0  0  0  0
 23 24  1  0  0  0  0
 23 25  1  0  0  0  0
 23 26  1  0  0  0  0
 26 27  1  0  0  0  0
 26 28  1  0  0  0  0
 26 29  1  0  0  0  0
 29 30  1  0  0  0  0
 29 31  1  0  0  0  0
 29 32  1  0  0  0  0
 32 33  1  0  0  0  0
 32 34  1  0  0  0  0
 32 35  1  0  0  0  0
 35 36  2  0  0  0  0
 35 37  1  0  0  0  0
 37 38  1  0  0  0  0
 38 39  1  0  0  0  0
 39 40  1  0  0  0  0
 39 41  2  0  0  0  0
 41 42  1  0  0  0  0
 41 43  1  0  0  0  0
 43 44  1  0  0  0  0
 43 45  2  0  0  0  0
 45 46  1  0  0  0  0
 45 47  1  0  0  0  0
 47 38  2  0  0  0  0
 47 48  1  0  0  0  0
M  END
> <ChemID>
201612

> <source_casrn>
3772-94-9

> <CAS>
3772-94-9

> <SMILES>
CCCCCCCCCCCC(=O)Oc1c(Cl)c(Cl)c(Cl)c(Cl)c1Cl

> <NAME>


> <preferred_name>
Pentachlorophenyl laurate

> <iupac>
pentachlorophenyl laurate

> <MPID>
101374

> <dsstox_substance_id>
DTXSID9058078

> <Canonical_QSARr>
CCCCCCCCCCCC(=O)Oc1c(Cl)c(Cl)c(Cl)c(Cl)c1Cl

> <InChI_Code_QSARr>
InChI=1S/C18H23Cl5O2/c1-2-3-4-5-6-7-8-9-10-11-12(24)25-18-16(22)14(20)13(19)15(21)17(18)23/h2-11H2,1H3

> <InChI Key_QSARr>
MKNJWAXSYGAMGJ-UHFFFAOYSA-N

> <Salt_Solvent>


> <Ready_Biodeg>
0.0

$$$$
201613
  -INDIGO-08031722522D

 86 85  0  0  0  0  0  0  0  0999 V2000
    9.6998    0.8000    0.0000 C   0  0  0  0  0  0  0  0  0  0  0  0
   11.0851    1.6000    0.0000 H   0  0  0  0  0  0  0  0  0  0  0  0
   11.0851    0.0000    0.0000 H   0  0  0  0  0  0  0  0  0  0  0  0
    9.6998    2.4000    0.0000 H   0  0  0  0  0  0  0  0  0  0  0  0
    8.3138    0.0000    0.0000 C   0  0  0  0  0  0  0  0  0  0  0  0
    8.9260   -1.4782    0.0000 H   0  0  0  0  0  0  0  0  0  0  0  0
    7.7017   -1.4782    0.0000 H   0  0  0  0  0  0  0  0  0  0  0  0
    6.9279    0.8000    0.0000 C   0  0  0  0  0  0  0  0  0  0  0  0
    6.3158    2.2782    0.0000 H   0  0  0  0  0  0  0  0  0  0  0  0
    7.5406    2.2782    0.0000 H   0  0  0  0  0  0  0  0  0  0  0  0
    5.5426    0.0000    0.0000 C   0  0  0  0  0  0  0  0  0  0  0  0
    6.1547   -1.4782    0.0000 H   0  0  0  0  0  0  0  0  0  0  0  0
    4.9305   -1.4782    0.0000 H   0  0  0  0  0  0  0  0  0  0  0  0
    4.1566    0.8000    0.0000 C   0  0  0  0  0  0  0  0  0  0  0  0
    3.5445    2.2782    0.0000 H   0  0  0  0  0  0  0  0  0  0  0  0
    4.7693    2.2782    0.0000 H   0  0  0  0  0  0  0  0  0  0  0  0
    2.7713    0.0000    0.0000 C   0  0  0  0  0  0  0  0  0  0  0  0
    3.3834   -1.4782    0.0000 H   0  0  0  0  0  0  0  0  0  0  0  0
    2.1592   -1.4782    0.0000 H   0  0  0  0  0  0  0  0  0  0  0  0
    1.3860    0.8000    0.0000 C   0  0  0  0  0  0  0  0  0  0  0  0
    0.7732    2.2782    0.0000 H   0  0  0  0  0  0  0  0  0  0  0  0
    1.9981    2.2782    0.0000 H   0  0  0  0  0  0  0  0  0  0  0  0
    0.0000    0.0000    0.0000 C   0  0  0  0  0  0  0  0  0  0  0  0
    0.6121   -1.4782    0.0000 H   0  0  0  0  0  0  0  0  0  0  0  0
   -0.6121   -1.4782    0.0000 H   0  0  0  0  0  0  0  0  0  0  0  0
   -1.3853    0.8000    0.0000 C   0  0  0  0  0  0  0  0  0  0  0  0
   -1.9981    2.2782    0.0000 H   0  0  0  0  0  0  0  0  0  0  0  0
   -0.7732    2.2782    0.0000 H   0  0  0  0  0  0  0  0  0  0  0  0
   -2.7713    0.0000    0.0000 C   0  0  0  0  0  0  0  0  0  0  0  0
   -2.1592   -1.4782    0.0000 H   0  0  0  0  0  0  0  0  0  0  0  0
   -3.3834   -1.4782    0.0000 H   0  0  0  0  0  0  0  0  0  0  0  0
   -4.1566    0.8000    0.0000 C   0  0  0  0  0  0  0  0  0  0  0  0
   -4.7693    2.2782    0.0000 H   0  0  0  0  0  0  0  0  0  0  0  0
   -3.5445    2.2782    0.0000 H   0  0  0  0  0  0  0  0  0  0  0  0
   -5.5426    0.0000    0.0000 C   0  0  0  0  0  0  0  0  0  0  0  0
   -4.9305   -1.4782    0.0000 H   0  0  0  0  0  0  0  0  0  0  0  0
   -6.1547   -1.4782    0.0000 H   0  0  0  0  0  0  0  0  0  0  0  0
   -6.9279    0.8000    0.0000 C   0  0  0  0  0  0  0  0  0  0  0  0
   -7.5406    2.2782    0.0000 H   0  0  0  0  0  0  0  0  0  0  0  0
   -6.3158    2.2782    0.0000 H   0  0  0  0  0  0  0  0  0  0  0  0
   -8.3138    0.0000    0.0000 C   0  0  0  0  0  0  0  0  0  0  0  0
   -7.7017   -1.4782    0.0000 H   0  0  0  0  0  0  0  0  0  0  0  0
   -8.9259   -1.4782    0.0000 H   0  0  0  0  0  0  0  0  0  0  0  0
   -9.6992    0.8000    0.0000 O   0  0  0  0  0  0  0  0  0  0  0  0
  -11.0851    0.0000    0.0000 C   0  0  0  0  0  0  0  0  0  0  0  0
  -11.0851   -1.6000    0.0000 O   0  0  0  0  0  0  0  0  0  0  0  0
  -12.4711    0.8000    0.0000 C   0  0  0  0  0  0  0  0  0  0  0  0
  -13.0832    2.2782    0.0000 H   0  0  0  0  0  0  0  0  0  0  0  0
  -11.8583    2.2782    0.0000 H   0  0  0  0  0  0  0  0  0  0  0  0
  -13.8564    0.0000    0.0000 C   0  0  0  0  0  0  0  0  0  0  0  0
  -13.2443   -1.4782    0.0000 H   0  0  0  0  0  0  0  0  0  0  0  0
  -14.4685   -1.4782    0.0000 H   0  0  0  0  0  0  0  0  0  0  0  0
  -15.2424    0.8000    0.0000 C   0  0  0  0  0  0  0  0  0  0  0  0
  -15.8545    2.2782    0.0000 H   0  0  0  0  0  0  0  0  0  0  0  0
  -14.6296    2.2782    0.0000 H   0  0  0  0  0  0  0  0  0  0  0  0
  -16.6277    0.0000    0.0000 C   0  0  0  0  0  0  0  0  0  0  0  0
  -16.0156   -1.4782    0.0000 H   0  0  0  0  0  0  0  0  0  0  0  0
  -17.2398   -1.4782    0.0000 H   0  0  0  0  0  0  0  0  0  0  0  0
  -18.0136    0.8000    0.0000 C   0  0  0  0  0  0  0  0  0  0  0  0
  -18.6258    2.2782    0.0000 H   0  0  0  0  0  0  0  0  0  0  0  0
  -17.4009    2.2782    0.0000 H   0  0  0  0  0  0  0  0  0  0  0  0
  -19.3990    0.0000    0.0000 C   0  0  0  0  0  0  0  0  0  0  0  0
  -18.7869   -1.4782    0.0000 H   0  0  0  0  0  0  0  0  0  0  0  0
  -20.0111   -1.4782    0.0000 H   0  0  0  0  0  0  0  0  0  0  0  0
  -20.7849    0.8000    0.0000 C   0  0  0  0  0  0  0  0  0  0  0  0
  -21.3970    2.2782    0.0000 H   0  0  0  0  0  0  0  0  0  0  0  0
  -20.1722    2.2782    0.0000 H   0  0  0  0  0  0  0  0  0  0  0  0
  -22.1702    0.0000    0.0000 C   0  0  0  0  0  0  0  0  0  0  0  0
  -21.5581   -1.4782    0.0000 H   0  0  0  0  0  0  0  0  0  0  0  0
  -22.7824   -1.4782    0.0000 H   0  0  0  0  0  0  0  0  0  0  0  0
  -23.5556    0.8000    0.0000 C   0  0  0  0  0  0  0  0  0  0  0  0
  -24.1683    2.2782    0.0000 H   0  0  0  0  0  0  0  0  0  0  0  0
  -22.9435    2.2782    0.0000 H   0  0  0  0  0  0  0  0  0  0  0  0
  -24.9415    0.0000    0.0000 C   0  0  0  0  0  0  0  0  0  0  0  0
  -24.3294   -1.4782    0.0000 H   0  0  0  0  0  0  0  0  0  0  0  0
  -25.5536   -1.4782    0.0000 H   0  0  0  0  0  0  0  0  0  0  0  0
  -26.3275    0.8000    0.0000 C   0  0  0  0  0  0  0  0  0  0  0  0
  -26.9396    2.2782    0.0000 H   0  0  0  0  0  0  0  0  0  0  0  0
  -25.7148    2.2782    0.0000 H   0  0  0  0  0  0  0  0  0  0  0  0
  -27.7128    0.0000    0.0000 C   0  0  0  0  0  0  0  0  0  0  0  0
  -27.1007   -1.4782    0.0000 H   0  0  0  0  0  0  0  0  0  0  0  0
  -28.3249   -1.4782    0.0000 H   0  0  0  0  0  0  0  0  0  0  0  0
  -29.0981    0.8000    0.0000 C   0  0  0  0  0  0  0  0  0  0  0  0
  -30.4841    1.6000    0.0000 H   0  0  0  0  0  0  0  0  0  0  0  0
  -30.4841    0.0000    0.0000 H   0  0  0  0  0  0  0  0  0  0  0  0
  -29.0981    2.4000    0.0000 H   0  0  0  0  0  0  0  0  0  0  0  0
  1  2  1  0  0  0  0
  1  3  1  0  0  0  0
  1  4  1  0  0  0  0
  1  5  1  0  0  0  0
  5  6  1  0  0  0  0
  5  7  1  0  0  0  0
  5  8  1  0  0  0  0
  8  9  1  0  0  0  0
  8 10  1  0  0  0  0
  8 11  1  0  0  0  0
 11 12  1  0  0  0  0
 11 13  1  0  0  0  0
 11 14  1  0  0  0  0
 14 15  1  0  0  0  0
 14 16  1  0  0  0  0
 14 17  1  0  0  0  0
 17 18  1  0  0  0  0
 17 19  1  0  0  0  0
 17 20  1  0  0  0  0
 20 21  1  0  0  0  0
 20 22  1  0  0  0  0
 20 23  1  0  0  0  0
 23 24  1  0  0  0  0
 23 25  1  0  0  0  0
 23 26  1  0  0  0  0
 26 27  1  0  0  0  0
 26 28  1  0  0  0  0
 26 29  1  0  0  0  0
 29 30  1  0  0  0  0
 29 31  1  0  0  0  0
 29 32  1  0  0  0  0
 32 33  1  0  0  0  0
 32 34  1  0  0  0  0
 32 35  1  0  0  0  0
 35 36  1  0  0  0  0
 35 37  1  0  0  0  0
 35 38  1  0  0  0  0
 38 39  1  0  0  0  0
 38 40  1  0  0  0  0
 38 41  1  0  0  0  0
 41 42  1  0  0  0  0
 41 43  1  0  0  0  0
 41 44  1  0  0  0  0
 44 45  1  0  0  0  0
 45 46  2  0  0  0  0
 45 47  1  0  0  0  0
 47 48  1  0  0  0  0
 47 49  1  0  0  0  0
 47 50  1  0  0  0  0
 50 51  1  0  0  0  0
 50 52  1  0  0  0  0
 50 53  1  0  0  0  0
 53 54  1  0  0  0  0
 53 55  1  0  0  0  0
 53 56  1  0  0  0  0
 56 57  1  0  0  0  0
 56 58  1  0  0  0  0
 56 59  1  0  0  0  0
 59 60  1  0  0  0  0
 59 61  1  0  0  0  0
 59 62  1  0  0  0  0
 62 63  1  0  0  0  0
 62 64  1  0  0  0  0
 62 65  1  0  0  0  0
 65 66  1  0  0  0  0
 65 67  1  0  0  0  0
 65 68  1  0  0  0  0
 68 69  1  0  0  0  0
 68 70  1  0  0  0  0
 68 71  1  0  0  0  0
 71 72  1  0  0  0  0
 71 73  1  0  0  0  0
 71 74  1  0  0  0  0
 74 75  1  0  0  0  0
 74 76  1  0  0  0  0
 74 77  1  0  0  0  0
 77 78  1  0  0  0  0
 77 79  1  0  0  0  0
 77 80  1  0  0  0  0
 80 81  1  0  0  0  0
 80 82  1  0  0  0  0
 80 83  1  0  0  0  0
 83 84  1  0  0  0  0
 83 85  1  0  0  0  0
 83 86  1  0  0  0  0
M  END
> <ChemID>
201613

> <source_casrn>
3234-85-3

> <CAS>
3234-85-3

> <SMILES>
CCCCCCCCCCCCCCOC(=O)CCCCCCCCCCCCC

> <NAME>


> <preferred_name>
Myristyl myristate

> <iupac>
tetradecyl tetradecanoate

> <MPID>
101375

> <dsstox_substance_id>
DTXSID5047403

> <Canonical_QSARr>
CCCCCCCCCCCCCC(=O)OCCCCCCCCCCCCCC

> <InChI_Code_QSARr>
InChI=1S/C28H56O2/c1-3-5-7-9-11-13-15-17-19-21-23-25-27-30-28(29)26-24-22-20-18-16-14-12-10-8-6-4-2/h3-27H2,1-2H3

> <InChI Key_QSARr>
DZKXJUASMGQEMA-UHFFFAOYSA-N

> <Salt_Solvent>


> <Ready_Biodeg>
1.0

$$$$
201616
  -INDIGO-08031722522D

 51 50  0  0  0  0  0  0  0  0999 V2000
    9.6994    0.8000    0.0000 C   0  0  0  0  0  0  0  0  0  0  0  0
   11.0851    1.6000    0.0000 H   0  0  0  0  0  0  0  0  0  0  0  0
   11.0851    0.0000    0.0000 H   0  0  0  0  0  0  0  0  0  0  0  0
    9.6994    2.4000    0.0000 H   0  0  0  0  0  0  0  0  0  0  0  0
    8.3137    0.0000    0.0000 C   0  0  0  0  0  0  0  0  0  0  0  0
    7.7017   -1.4782    0.0000 H   0  0  0  0  0  0  0  0  0  0  0  0
    8.9261   -1.4782    0.0000 H   0  0  0  0  0  0  0  0  0  0  0  0
    6.9284    0.8000    0.0000 C   0  0  0  0  0  0  0  0  0  0  0  0
    7.5404    2.2782    0.0000 H   0  0  0  0  0  0  0  0  0  0  0  0
    6.3160    2.2782    0.0000 H   0  0  0  0  0  0  0  0  0  0  0  0
    5.5427    0.0000    0.0000 C   0  0  0  0  0  0  0  0  0  0  0  0
    4.9303   -1.4782    0.0000 H   0  0  0  0  0  0  0  0  0  0  0  0
    6.1547   -1.4782    0.0000 H   0  0  0  0  0  0  0  0  0  0  0  0
    4.1570    0.8000    0.0000 C   0  0  0  0  0  0  0  0  0  0  0  0
    4.7693    2.2782    0.0000 H   0  0  0  0  0  0  0  0  0  0  0  0
    3.5446    2.2782    0.0000 H   0  0  0  0  0  0  0  0  0  0  0  0
    2.7713    0.0000    0.0000 C   0  0  0  0  0  0  0  0  0  0  0  0
    2.1589   -1.4782    0.0000 H   0  0  0  0  0  0  0  0  0  0  0  0
    3.3836   -1.4782    0.0000 H   0  0  0  0  0  0  0  0  0  0  0  0
    1.3856    0.8000    0.0000 C   0  0  0  0  0  0  0  0  0  0  0  0
    1.9979    2.2782    0.0000 H   0  0  0  0  0  0  0  0  0  0  0  0
    0.7732    2.2782    0.0000 H   0  0  0  0  0  0  0  0  0  0  0  0
   -0.0001    0.0000    0.0000 C   0  0  0  0  0  0  0  0  0  0  0  0
   -0.6121   -1.4782    0.0000 H   0  0  0  0  0  0  0  0  0  0  0  0
    0.6122   -1.4782    0.0000 H   0  0  0  0  0  0  0  0  0  0  0  0
   -1.3855    0.8000    0.0000 C   0  0  0  0  0  0  0  0  0  0  0  0
   -0.7735    2.2782    0.0000 H   0  0  0  0  0  0  0  0  0  0  0  0
   -1.9978    2.2782    0.0000 H   0  0  0  0  0  0  0  0  0  0  0  0
   -2.7712    0.0000    0.0000 C   0  0  0  0  0  0  0  0  0  0  0  0
   -3.3835   -1.4782    0.0000 H   0  0  0  0  0  0  0  0  0  0  0  0
   -2.1592   -1.4782    0.0000 H   0  0  0  0  0  0  0  0  0  0  0  0
   -4.1569    0.8000    0.0000 C   0  0  0  0  0  0  0  0  0  0  0  0
   -3.5445    2.2782    0.0000 H   0  0  0  0  0  0  0  0  0  0  0  0
   -4.7692    2.2782    0.0000 H   0  0  0  0  0  0  0  0  0  0  0  0
   -5.5426    0.0000    0.0000 C   0  0  0  0  0  0  0  0  0  0  0  0
   -6.1549   -1.4782    0.0000 H   0  0  0  0  0  0  0  0  0  0  0  0
   -4.9302   -1.4782    0.0000 H   0  0  0  0  0  0  0  0  0  0  0  0
   -6.9283    0.8000    0.0000 C   0  0  0  0  0  0  0  0  0  0  0  0
   -6.3159    2.2782    0.0000 H   0  0  0  0  0  0  0  0  0  0  0  0
   -7.5406    2.2782    0.0000 H   0  0  0  0  0  0  0  0  0  0  0  0
   -8.3140    0.0000    0.0000 C   0  0  0  0  0  0  0  0  0  0  0  0
   -8.9259   -1.4782    0.0000 H   0  0  0  0  0  0  0  0  0  0  0  0
   -7.7016   -1.4782    0.0000 H   0  0  0  0  0  0  0  0  0  0  0  0
   -9.6997    0.8000    0.0000 C   0  0  0  0  0  0  0  0  0  0  0  0
   -9.0873    2.2782    0.0000 H   0  0  0  0  0  0  0  0  0  0  0  0
  -10.3117    2.2782    0.0000 H   0  0  0  0  0  0  0  0  0  0  0  0
  -11.0850    0.0000    0.0000 C   0  0  0  0  0  0  0  0  0  0  0  0
  -12.4707    0.8000    0.0000 N   0  0  0  0  0  0  0  0  0  0  0  0
  -13.8564    0.0000    0.0000 H   0  0  0  0  0  0  0  0  0  0  0  0
  -12.4707    2.4000    0.0000 H   0  0  0  0  0  0  0  0  0  0  0  0
  -11.0850   -1.6000    0.0000 O   0  0  0  0  0  0  0  0  0  0  0  0
  1  2  1  0  0  0  0
  1  3  1  0  0  0  0
  1  4  1  0  0  0  0
  1  5  1  0  0  0  0
  5  6  1  0  0  0  0
  5  7  1  0  0  0  0
  5  8  1  0  0  0  0
  8  9  1  0  0  0  0
  8 10  1  0  0  0  0
  8 11  1  0  0  0  0
 11 12  1  0  0  0  0
 11 13  1  0  0  0  0
 11 14  1  0  0  0  0
 14 15  1  0  0  0  0
 14 16  1  0  0  0  0
 14 17  1  0  0  0  0
 17 18  1  0  0  0  0
 17 19  1  0  0  0  0
 17 20  1  0  0  0  0
 20 21  1  0  0  0  0
 20 22  1  0  0  0  0
 20 23  1  0  0  0  0
 23 24  1  0  0  0  0
 23 25  1  0  0  0  0
 23 26  1  0  0  0  0
 26 27  1  0  0  0  0
 26 28  1  0  0  0  0
 26 29  1  0  0  0  0
 29 30  1  0  0  0  0
 29 31  1  0  0  0  0
 29 32  1  0  0  0  0
 32 33  1  0  0  0  0
 32 34  1  0  0  0  0
 32 35  1  0  0  0  0
 35 36  1  0  0  0  0
 35 37  1  0  0  0  0
 35 38  1  0  0  0  0
 38 39  1  0  0  0  0
 38 40  1  0  0  0  0
 38 41  1  0  0  0  0
 41 42  1  0  0  0  0
 41 43  1  0  0  0  0
 41 44  1  0  0  0  0
 44 45  1  0  0  0  0
 44 46  1  0  0  0  0
 44 47  1  0  0  0  0
 47 48  1  0  0  0  0
 48 49  1  0  0  0  0
 48 50  1  0  0  0  0
 47 51  2  0  0  0  0
M  END
> <ChemID>
201616

> <source_casrn>
629-54-9

> <CAS>
629-54-9

> <SMILES>
CCCCCCCCCCCCCCCC(N)=O

> <NAME>


> <preferred_name>
Palmitamide

> <iupac>
hexadecanamide

> <MPID>
101377

> <dsstox_substance_id>
DTXSID8044707

> <Canonical_QSARr>
CCCCCCCCCCCCCCCC(N)=O

> <InChI_Code_QSARr>
InChI=1S/C16H33NO/c1-2-3-4-5-6-7-8-9-10-11-12-13-14-15-16(17)18/h2-15H2,1H3,(H2,17,18)

> <InChI Key_QSARr>
HSEMFIZWXHQJAE-UHFFFAOYSA-N

> <Salt_Solvent>


> <Ready_Biodeg>
0.0

$$$$
201617
  -INDIGO-08031722522D

 50 49  0  0  0  0  0  0  0  0999 V2000
    9.6995   -0.8000    0.0000 C   0  0  0  0  0  0  0  0  0  0  0  0
   11.0851   -1.6000    0.0000 H   0  0  0  0  0  0  0  0  0  0  0  0
   11.0851    0.0000    0.0000 H   0  0  0  0  0  0  0  0  0  0  0  0
    9.6995   -2.4000    0.0000 H   0  0  0  0  0  0  0  0  0  0  0  0
    8.3138    0.0000    0.0000 C   0  0  0  0  0  0  0  0  0  0  0  0
    8.9260    1.4782    0.0000 H   0  0  0  0  0  0  0  0  0  0  0  0
    7.7017    1.4782    0.0000 H   0  0  0  0  0  0  0  0  0  0  0  0
    6.9282   -0.8000    0.0000 C   0  0  0  0  0  0  0  0  0  0  0  0
    6.3161   -2.2782    0.0000 H   0  0  0  0  0  0  0  0  0  0  0  0
    7.5403   -2.2782    0.0000 H   0  0  0  0  0  0  0  0  0  0  0  0
    5.5426    0.0000    0.0000 C   0  0  0  0  0  0  0  0  0  0  0  0
    6.1547    1.4782    0.0000 H   0  0  0  0  0  0  0  0  0  0  0  0
    4.9304    1.4782    0.0000 H   0  0  0  0  0  0  0  0  0  0  0  0
    4.1569   -0.8000    0.0000 C   0  0  0  0  0  0  0  0  0  0  0  0
    3.5448   -2.2782    0.0000 H   0  0  0  0  0  0  0  0  0  0  0  0
    4.7690   -2.2782    0.0000 H   0  0  0  0  0  0  0  0  0  0  0  0
    2.7713    0.0000    0.0000 C   0  0  0  0  0  0  0  0  0  0  0  0
    3.3834    1.4782    0.0000 H   0  0  0  0  0  0  0  0  0  0  0  0
    2.1592    1.4782    0.0000 H   0  0  0  0  0  0  0  0  0  0  0  0
    1.3856   -0.8000    0.0000 C   0  0  0  0  0  0  0  0  0  0  0  0
    0.7735   -2.2782    0.0000 H   0  0  0  0  0  0  0  0  0  0  0  0
    1.9978   -2.2782    0.0000 H   0  0  0  0  0  0  0  0  0  0  0  0
    0.0000    0.0000    0.0000 C   0  0  0  0  0  0  0  0  0  0  0  0
    0.6121    1.4782    0.0000 H   0  0  0  0  0  0  0  0  0  0  0  0
   -0.6121    1.4782    0.0000 H   0  0  0  0  0  0  0  0  0  0  0  0
   -1.3856   -0.8000    0.0000 C   0  0  0  0  0  0  0  0  0  0  0  0
   -1.9978   -2.2782    0.0000 H   0  0  0  0  0  0  0  0  0  0  0  0
   -0.7735   -2.2782    0.0000 H   0  0  0  0  0  0  0  0  0  0  0  0
   -2.7713    0.0000    0.0000 C   0  0  0  0  0  0  0  0  0  0  0  0
   -2.1592    1.4782    0.0000 H   0  0  0  0  0  0  0  0  0  0  0  0
   -3.3834    1.4782    0.0000 H   0  0  0  0  0  0  0  0  0  0  0  0
   -4.1569   -0.8000    0.0000 C   0  0  0  0  0  0  0  0  0  0  0  0
   -4.7690   -2.2782    0.0000 H   0  0  0  0  0  0  0  0  0  0  0  0
   -3.5448   -2.2782    0.0000 H   0  0  0  0  0  0  0  0  0  0  0  0
   -5.5426    0.0000    0.0000 C   0  0  0  0  0  0  0  0  0  0  0  0
   -4.9304    1.4782    0.0000 H   0  0  0  0  0  0  0  0  0  0  0  0
   -6.1547    1.4782    0.0000 H   0  0  0  0  0  0  0  0  0  0  0  0
   -6.9282   -0.8000    0.0000 C   0  0  0  0  0  0  0  0  0  0  0  0
   -7.5403   -2.2782    0.0000 H   0  0  0  0  0  0  0  0  0  0  0  0
   -6.3161   -2.2782    0.0000 H   0  0  0  0  0  0  0  0  0  0  0  0
   -8.3138    0.0000    0.0000 C   0  0  0  0  0  0  0  0  0  0  0  0
   -7.7017    1.4782    0.0000 H   0  0  0  0  0  0  0  0  0  0  0  0
   -8.9260    1.4782    0.0000 H   0  0  0  0  0  0  0  0  0  0  0  0
   -9.6995   -0.8000    0.0000 C   0  0  0  0  0  0  0  0  0  0  0  0
  -10.3116   -2.2782    0.0000 H   0  0  0  0  0  0  0  0  0  0  0  0
   -9.0874   -2.2782    0.0000 H   0  0  0  0  0  0  0  0  0  0  0  0
  -11.0851    0.0000    0.0000 C   0  0  0  0  0  0  0  0  0  0  0  0
  -12.4708    0.8000    0.0000 H   0  0  0  0  0  0  0  0  0  0  0  0
  -12.4708   -0.8000    0.0000 H   0  0  0  0  0  0  0  0  0  0  0  0
  -11.0851    1.6000    0.0000 Br  0  0  0  0  0  0  0  0  0  0  0  0
  1  2  1  0  0  0  0
  1  3  1  0  0  0  0
  1  4  1  0  0  0  0
  1  5  1  0  0  0  0
  5  6  1  0  0  0  0
  5  7  1  0  0  0  0
  5  8  1  0  0  0  0
  8  9  1  0  0  0  0
  8 10  1  0  0  0  0
  8 11  1  0  0  0  0
 11 12  1  0  0  0  0
 11 13  1  0  0  0  0
 11 14  1  0  0  0  0
 14 15  1  0  0  0  0
 14 16  1  0  0  0  0
 14 17  1  0  0  0  0
 17 18  1  0  0  0  0
 17 19  1  0  0  0  0
 17 20  1  0  0  0  0
 20 21  1  0  0  0  0
 20 22  1  0  0  0  0
 20 23  1  0  0  0  0
 23 24  1  0  0  0  0
 23 25  1  0  0  0  0
 23 26  1  0  0  0  0
 26 27  1  0  0  0  0
 26 28  1  0  0  0  0
 26 29  1  0  0  0  0
 29 30  1  0  0  0  0
 29 31  1  0  0  0  0
 29 32  1  0  0  0  0
 32 33  1  0  0  0  0
 32 34  1  0  0  0  0
 32 35  1  0  0  0  0
 35 36  1  0  0  0  0
 35 37  1  0  0  0  0
 35 38  1  0  0  0  0
 38 39  1  0  0  0  0
 38 40  1  0  0  0  0
 38 41  1  0  0  0  0
 41 42  1  0  0  0  0
 41 43  1  0  0  0  0
 41 44  1  0  0  0  0
 44 45  1  0  0  0  0
 44 46  1  0  0  0  0
 44 47  1  0  0  0  0
 47 48  1  0  0  0  0
 47 49  1  0  0  0  0
 47 50  1  0  0  0  0
M  END
> <ChemID>
201617

> <source_casrn>
112-82-3

> <CAS>
112-82-3

> <SMILES>
CCCCCCCCCCCCCCCCBr

> <NAME>


> <preferred_name>
Hexadecane,1-bromo-

> <iupac>
1-bromohexadecane

> <MPID>
101378

> <dsstox_substance_id>
DTXSID2049397

> <Canonical_QSARr>
CCCCCCCCCCCCCCCCBr

> <InChI_Code_QSARr>
InChI=1S/C16H33Br/c1-2-3-4-5-6-7-8-9-10-11-12-13-14-15-16-17/h2-16H2,1H3

> <InChI Key_QSARr>
HNTGIJLWHDPAFN-UHFFFAOYSA-N

> <Salt_Solvent>


> <Ready_Biodeg>
1.0

$$$$
201618
  -INDIGO-08031722522D

 63 63  0  0  0  0  0  0  0  0999 V2000
    9.7297   -0.2183    0.0000 C   0  0  0  0  0  0  0  0  0  0  0  0
   11.1916    0.4326    0.0000 H   0  0  0  0  0  0  0  0  0  0  0  0
   11.0245   -1.1587    0.0000 H   0  0  0  0  0  0  0  0  0  0  0  0
    9.8974    1.3730    0.0000 H   0  0  0  0  0  0  0  0  0  0  0  0
    8.2683   -0.8690    0.0000 C   0  0  0  0  0  0  0  0  0  0  0  0
    8.7229   -2.4031    0.0000 H   0  0  0  0  0  0  0  0  0  0  0  0
    7.5047   -2.2751    0.0000 H   0  0  0  0  0  0  0  0  0  0  0  0
    6.9741    0.0714    0.0000 C   0  0  0  0  0  0  0  0  0  0  0  0
    6.5195    1.6056    0.0000 H   0  0  0  0  0  0  0  0  0  0  0  0
    7.7373    1.4775    0.0000 H   0  0  0  0  0  0  0  0  0  0  0  0
    5.5122   -0.5793    0.0000 C   0  0  0  0  0  0  0  0  0  0  0  0
    5.9668   -2.1135    0.0000 H   0  0  0  0  0  0  0  0  0  0  0  0
    4.7490   -1.9854    0.0000 H   0  0  0  0  0  0  0  0  0  0  0  0
    4.2179    0.3611    0.0000 C   0  0  0  0  0  0  0  0  0  0  0  0
    3.7633    1.8952    0.0000 H   0  0  0  0  0  0  0  0  0  0  0  0
    4.9811    1.7672    0.0000 H   0  0  0  0  0  0  0  0  0  0  0  0
    2.7560   -0.2896    0.0000 C   0  0  0  0  0  0  0  0  0  0  0  0
    3.2106   -1.8238    0.0000 H   0  0  0  0  0  0  0  0  0  0  0  0
    1.9928   -1.6958    0.0000 H   0  0  0  0  0  0  0  0  0  0  0  0
    1.4618    0.6508    0.0000 C   0  0  0  0  0  0  0  0  0  0  0  0
    1.0072    2.1849    0.0000 H   0  0  0  0  0  0  0  0  0  0  0  0
    2.2250    2.0569    0.0000 H   0  0  0  0  0  0  0  0  0  0  0  0
   -0.0001    0.0000    0.0000 C   0  0  0  0  0  0  0  0  0  0  0  0
    0.4545   -1.5341    0.0000 H   0  0  0  0  0  0  0  0  0  0  0  0
   -0.7633   -1.4061    0.0000 H   0  0  0  0  0  0  0  0  0  0  0  0
   -1.2944    0.9404    0.0000 C   0  0  0  0  0  0  0  0  0  0  0  0
   -1.7490    2.4746    0.0000 H   0  0  0  0  0  0  0  0  0  0  0  0
   -0.5312    2.3465    0.0000 H   0  0  0  0  0  0  0  0  0  0  0  0
   -2.7563    0.2897    0.0000 C   0  0  0  0  0  0  0  0  0  0  0  0
   -2.3017   -1.2444    0.0000 H   0  0  0  0  0  0  0  0  0  0  0  0
   -3.5195   -1.1164    0.0000 H   0  0  0  0  0  0  0  0  0  0  0  0
   -4.0505    1.2301    0.0000 C   0  0  0  0  0  0  0  0  0  0  0  0
   -4.5051    2.7643    0.0000 H   0  0  0  0  0  0  0  0  0  0  0  0
   -3.2869    2.6362    0.0000 H   0  0  0  0  0  0  0  0  0  0  0  0
   -5.5124    0.5794    0.0000 C   0  0  0  0  0  0  0  0  0  0  0  0
   -5.0578   -0.9548    0.0000 H   0  0  0  0  0  0  0  0  0  0  0  0
   -6.2756   -0.8267    0.0000 H   0  0  0  0  0  0  0  0  0  0  0  0
   -6.8067    1.5198    0.0000 C   0  0  0  0  0  0  0  0  0  0  0  0
   -7.2613    3.0539    0.0000 H   0  0  0  0  0  0  0  0  0  0  0  0
   -6.0430    2.9259    0.0000 H   0  0  0  0  0  0  0  0  0  0  0  0
   -8.2681    0.8691    0.0000 C   0  0  0  0  0  0  0  0  0  0  0  0
   -7.8140   -0.6651    0.0000 H   0  0  0  0  0  0  0  0  0  0  0  0
   -9.0318   -0.5371    0.0000 H   0  0  0  0  0  0  0  0  0  0  0  0
   -9.5628    1.8095    0.0000 C   0  0  0  0  0  0  0  0  0  0  0  0
  -10.0170    3.3436    0.0000 H   0  0  0  0  0  0  0  0  0  0  0  0
   -8.7992    3.2156    0.0000 H   0  0  0  0  0  0  0  0  0  0  0  0
  -11.0243    1.1587    0.0000 C   0  0  0  0  0  0  0  0  0  0  0  0
  -10.5701   -0.3754    0.0000 H   0  0  0  0  0  0  0  0  0  0  0  0
  -11.7879   -0.2474    0.0000 H   0  0  0  0  0  0  0  0  0  0  0  0
  -12.3190    2.0991    0.0000 C   0  0  0  0  0  0  0  0  0  0  0  0
  -12.1518    3.6904    0.0000 H   0  0  0  0  0  0  0  0  0  0  0  0
  -13.7804    1.4484    0.0000 C   0  0  0  0  0  0  0  0  0  0  0  0
  -13.9476   -0.1428    0.0000 H   0  0  0  0  0  0  0  0  0  0  0  0
  -15.0751    2.3888    0.0000 C   0  0  0  0  0  0  0  0  0  0  0  0
  -14.0042    3.5779    0.0000 H   0  0  0  0  0  0  0  0  0  0  0  0
  -16.1455    3.5779    0.0000 C   0  0  0  0  0  0  0  0  0  0  0  0
  -14.8513    4.5184    0.0000 H   0  0  0  0  0  0  0  0  0  0  0  0
  -16.9455    4.9635    0.0000 H   0  0  0  0  0  0  0  0  0  0  0  0
  -17.6074    2.9271    0.0000 C   0  0  0  0  0  0  0  0  0  0  0  0
  -18.9928    3.7271    0.0000 O   0  0  0  0  0  0  0  0  0  0  0  0
  -17.4398    1.3359    0.0000 O   0  0  0  0  0  0  0  0  0  0  0  0
  -15.8751    1.0032    0.0000 C   0  0  0  0  0  0  0  0  0  0  0  0
  -15.2243   -0.4585    0.0000 O   0  0  0  0  0  0  0  0  0  0  0  0
  1  2  1  0  0  0  0
  1  3  1  0  0  0  0
  1  4  1  0  0  0  0
  1  5  1  0  0  0  0
  5  6  1  0  0  0  0
  5  7  1  0  0  0  0
  5  8  1  0  0  0  0
  8  9  1  0  0  0  0
  8 10  1  0  0  0  0
  8 11  1  0  0  0  0
 11 12  1  0  0  0  0
 11 13  1  0  0  0  0
 11 14  1  0  0  0  0
 14 15  1  0  0  0  0
 14 16  1  0  0  0  0
 14 17  1  0  0  0  0
 17 18  1  0  0  0  0
 17 19  1  0  0  0  0
 17 20  1  0  0  0  0
 20 21  1  0  0  0  0
 20 22  1  0  0  0  0
 20 23  1  0  0  0  0
 23 24  1  0  0  0  0
 23 25  1  0  0  0  0
 23 26  1  0  0  0  0
 26 27  1  0  0  0  0
 26 28  1  0  0  0  0
 26 29  1  0  0  0  0
 29 30  1  0  0  0  0
 29 31  1  0  0  0  0
 29 32  1  0  0  0  0
 32 33  1  0  0  0  0
 32 34  1  0  0  0  0
 32 35  1  0  0  0  0
 35 36  1  0  0  0  0
 35 37  1  0  0  0  0
 35 38  1  0  0  0  0
 38 39  1  0  0  0  0
 38 40  1  0  0  0  0
 38 41  1  0  0  0  0
 41 42  1  0  0  0  0
 41 43  1  0  0  0  0
 41 44  1  0  0  0  0
 44 45  1  0  0  0  0
 44 46  1  0  0  0  0
 44 47  1  0  0  0  0
 47 48  1  0  0  0  0
 47 49  1  0  0  0  0
 47 50  1  0  0  0  0
 50 51  1  0  0  0  0
 50 52  2  0  0  0  0
 52 53  1  0  0  0  0
 52 54  1  0  0  0  0
 54 55  1  0  0  0  0
 54 56  1  0  0  0  0
 56 57  1  0  0  0  0
 56 58  1  0  0  0  0
 56 59  1  0  0  0  0
 59 60  2  0  0  0  0
 59 61  1  0  0  0  0
 61 62  1  0  0  0  0
 62 54  1  0  0  0  0
 62 63  2  0  0  0  0
M  END
> <ChemID>
201618

> <source_casrn>
28777-98-2

> <CAS>
28777-98-2

> <SMILES>
CCCCCCCCCCCCCCCC/C=C/C1CC(=O)OC1=O

> <NAME>


> <preferred_name>


> <iupac>


> <MPID>
101379

> <dsstox_substance_id>
DTXSID9027948

> <Canonical_QSARr>
CCCCCCCCCCCCCCCCC=CC1CC(=O)OC1=O

> <InChI_Code_QSARr>
InChI=1S/C22H38O3/c1-2-3-4-5-6-7-8-9-10-11-12-13-14-15-16-17-18-20-19-21(23)25-22(20)24/h17-18,20H,2-16,19H2,1H3/b18-17+

> <InChI Key_QSARr>
KAYAKFYASWYOEB-ISLYRVAYSA-N

> <Salt_Solvent>


> <Ready_Biodeg>
0.0

$$$$
201620
  -INDIGO-08031722522D

 76 76  0  0  0  0  0  0  0  0999 V2000
   28.6291    5.2673    0.0000 C   0  0  0  0  0  0  0  0  0  0  0  0
   29.8180    6.3379    0.0000 H   0  0  0  0  0  0  0  0  0  0  0  0
   30.1506    4.7729    0.0000 H   0  0  0  0  0  0  0  0  0  0  0  0
   28.2960    6.8324    0.0000 H   0  0  0  0  0  0  0  0  0  0  0  0
   27.4397    4.1966    0.0000 C   0  0  0  0  0  0  0  0  0  0  0  0
   27.1483    2.6234    0.0000 H   0  0  0  0  0  0  0  0  0  0  0  0
   28.3464    2.8782    0.0000 H   0  0  0  0  0  0  0  0  0  0  0  0
   25.9182    4.6911    0.0000 C   0  0  0  0  0  0  0  0  0  0  0  0
   26.2096    6.2643    0.0000 H   0  0  0  0  0  0  0  0  0  0  0  0
   25.0121    6.0097    0.0000 H   0  0  0  0  0  0  0  0  0  0  0  0
   24.7293    3.6206    0.0000 C   0  0  0  0  0  0  0  0  0  0  0  0
   24.4374    2.0474    0.0000 H   0  0  0  0  0  0  0  0  0  0  0  0
   25.6355    2.3019    0.0000 H   0  0  0  0  0  0  0  0  0  0  0  0
   23.2073    4.1150    0.0000 C   0  0  0  0  0  0  0  0  0  0  0  0
   23.4992    5.6882    0.0000 H   0  0  0  0  0  0  0  0  0  0  0  0
   22.3011    5.4335    0.0000 H   0  0  0  0  0  0  0  0  0  0  0  0
   22.0184    3.0443    0.0000 C   0  0  0  0  0  0  0  0  0  0  0  0
   21.7270    1.4711    0.0000 H   0  0  0  0  0  0  0  0  0  0  0  0
   22.9246    1.7257    0.0000 H   0  0  0  0  0  0  0  0  0  0  0  0
   20.4969    3.5388    0.0000 C   0  0  0  0  0  0  0  0  0  0  0  0
   20.7883    5.1120    0.0000 H   0  0  0  0  0  0  0  0  0  0  0  0
   19.5907    4.8574    0.0000 H   0  0  0  0  0  0  0  0  0  0  0  0
   19.3075    2.4683    0.0000 C   0  0  0  0  0  0  0  0  0  0  0  0
   19.0161    0.8951    0.0000 H   0  0  0  0  0  0  0  0  0  0  0  0
   20.2142    1.1496    0.0000 H   0  0  0  0  0  0  0  0  0  0  0  0
   17.7860    2.9626    0.0000 C   0  0  0  0  0  0  0  0  0  0  0  0
   18.0774    4.5358    0.0000 H   0  0  0  0  0  0  0  0  0  0  0  0
   16.8798    4.2812    0.0000 H   0  0  0  0  0  0  0  0  0  0  0  0
   16.5971    1.8920    0.0000 C   0  0  0  0  0  0  0  0  0  0  0  0
   16.3057    0.3188    0.0000 H   0  0  0  0  0  0  0  0  0  0  0  0
   17.5033    0.5734    0.0000 H   0  0  0  0  0  0  0  0  0  0  0  0
   15.0751    2.3865    0.0000 C   0  0  0  0  0  0  0  0  0  0  0  0
   15.3670    3.9597    0.0000 H   0  0  0  0  0  0  0  0  0  0  0  0
   14.1689    3.7051    0.0000 H   0  0  0  0  0  0  0  0  0  0  0  0
   13.8862    1.3158    0.0000 C   0  0  0  0  0  0  0  0  0  0  0  0
   13.5948   -0.2574    0.0000 H   0  0  0  0  0  0  0  0  0  0  0  0
   14.7923   -0.0027    0.0000 H   0  0  0  0  0  0  0  0  0  0  0  0
   12.3647    1.8103    0.0000 C   0  0  0  0  0  0  0  0  0  0  0  0
   12.6561    3.3835    0.0000 H   0  0  0  0  0  0  0  0  0  0  0  0
   11.4585    3.1289    0.0000 H   0  0  0  0  0  0  0  0  0  0  0  0
   11.1758    0.7397    0.0000 C   0  0  0  0  0  0  0  0  0  0  0  0
   10.8838   -0.8335    0.0000 H   0  0  0  0  0  0  0  0  0  0  0  0
   12.0819   -0.5789    0.0000 H   0  0  0  0  0  0  0  0  0  0  0  0
    9.6538    1.2342    0.0000 C   0  0  0  0  0  0  0  0  0  0  0  0
    9.9457    2.8074    0.0000 H   0  0  0  0  0  0  0  0  0  0  0  0
    8.7476    2.5527    0.0000 H   0  0  0  0  0  0  0  0  0  0  0  0
    8.4649    0.1635    0.0000 C   0  0  0  0  0  0  0  0  0  0  0  0
    8.1735   -1.4097    0.0000 H   0  0  0  0  0  0  0  0  0  0  0  0
    9.3710   -1.1551    0.0000 H   0  0  0  0  0  0  0  0  0  0  0  0
    6.9434    0.6579    0.0000 C   0  0  0  0  0  0  0  0  0  0  0  0
    7.2348    2.2311    0.0000 H   0  0  0  0  0  0  0  0  0  0  0  0
    6.0367    1.9766    0.0000 H   0  0  0  0  0  0  0  0  0  0  0  0
    5.7539   -0.4128    0.0000 C   0  0  0  0  0  0  0  0  0  0  0  0
    6.0865   -1.9778    0.0000 O   0  0  0  0  0  0  0  0  0  0  0  0
    4.2325    0.0817    0.0000 O   0  0  0  0  0  0  0  0  0  0  0  0
    3.0436   -0.9888    0.0000 C   0  0  0  0  0  0  0  0  0  0  0  0
    2.7516   -2.5620    0.0000 H   0  0  0  0  0  0  0  0  0  0  0  0
    3.9497   -2.3075    0.0000 H   0  0  0  0  0  0  0  0  0  0  0  0
    1.5215   -0.4944    0.0000 C   0  0  0  0  0  0  0  0  0  0  0  0
    1.0270   -2.0161    0.0000 H   0  0  0  0  0  0  0  0  0  0  0  0
    2.0161    1.0272    0.0000 O   0  0  0  0  0  0  0  0  0  0  0  0
    3.5814    1.3598    0.0000 H   0  0  0  0  0  0  0  0  0  0  0  0
    0.0001   -0.0001    0.0000 C   0  0  0  0  0  0  0  0  0  0  0  0
    0.6506    1.4617    0.0000 H   0  0  0  0  0  0  0  0  0  0  0  0
   -0.3325   -1.5651    0.0000 O   0  0  0  0  0  0  0  0  0  0  0  0
   -1.9239   -1.7323    0.0000 C   0  0  0  0  0  0  0  0  0  0  0  0
   -1.5913   -3.2973    0.0000 H   0  0  0  0  0  0  0  0  0  0  0  0
   -3.4453   -2.2268    0.0000 H   0  0  0  0  0  0  0  0  0  0  0  0
   -2.5749   -0.2705    0.0000 C   0  0  0  0  0  0  0  0  0  0  0  0
   -3.5152    1.0238    0.0000 H   0  0  0  0  0  0  0  0  0  0  0  0
   -3.9604   -1.0706    0.0000 O   0  0  0  0  0  0  0  0  0  0  0  0
   -5.3460   -0.2705    0.0000 H   0  0  0  0  0  0  0  0  0  0  0  0
   -1.3855    0.8000    0.0000 C   0  0  0  0  0  0  0  0  0  0  0  0
   -0.4452    2.0944    0.0000 H   0  0  0  0  0  0  0  0  0  0  0  0
   -2.5749    1.8705    0.0000 O   0  0  0  0  0  0  0  0  0  0  0  0
   -2.2418    3.4357    0.0000 H   0  0  0  0  0  0  0  0  0  0  0  0
  1  2  1  0  0  0  0
  1  3  1  0  0  0  0
  1  4  1  0  0  0  0
  1  5  1  0  0  0  0
  5  6  1  0  0  0  0
  5  7  1  0  0  0  0
  5  8  1  0  0  0  0
  8  9  1  0  0  0  0
  8 10  1  0  0  0  0
  8 11  1  0  0  0  0
 11 12  1  0  0  0  0
 11 13  1  0  0  0  0
 11 14  1  0  0  0  0
 14 15  1  0  0  0  0
 14 16  1  0  0  0  0
 14 17  1  0  0  0  0
 17 18  1  0  0  0  0
 17 19  1  0  0  0  0
 17 20  1  0  0  0  0
 20 21  1  0  0  0  0
 20 22  1  0  0  0  0
 20 23  1  0  0  0  0
 23 24  1  0  0  0  0
 23 25  1  0  0  0  0
 23 26  1  0  0  0  0
 26 27  1  0  0  0  0
 26 28  1  0  0  0  0
 26 29  1  0  0  0  0
 29 30  1  0  0  0  0
 29 31  1  0  0  0  0
 29 32  1  0  0  0  0
 32 33  1  0  0  0  0
 32 34  1  0  0  0  0
 32 35  1  0  0  0  0
 35 36  1  0  0  0  0
 35 37  1  0  0  0  0
 35 38  1  0  0  0  0
 38 39  1  0  0  0  0
 38 40  1  0  0  0  0
 38 41  1  0  0  0  0
 41 42  1  0  0  0  0
 41 43  1  0  0  0  0
 41 44  1  0  0  0  0
 44 45  1  0  0  0  0
 44 46  1  0  0  0  0
 44 47  1  0  0  0  0
 47 48  1  0  0  0  0
 47 49  1  0  0  0  0
 47 50  1  0  0  0  0
 50 51  1  0  0  0  0
 50 52  1  0  0  0  0
 50 53  1  0  0  0  0
 53 54  2  0  0  0  0
 53 55  1  0  0  0  0
 55 56  1  0  0  0  0
 56 57  1  0  0  0  0
 56 58  1  0  0  0  0
 56 59  1  0  0  0  0
 59 60  1  0  0  0  0
 59 61  1  0  0  0  0
 61 62  1  0  0  0  0
 59 63  1  0  0  0  0
 63 64  1  0  0  0  0
 63 65  1  0  0  0  0
 65 66  1  0  0  0  0
 66 67  1  0  0  0  0
 66 68  1  0  0  0  0
 66 69  1  0  0  0  0
 69 70  1  0  0  0  0
 69 71  1  0  0  0  0
 71 72  1  0  0  0  0
 69 73  1  0  0  0  0
 73 63  1  0  0  0  0
 73 74  1  0  0  0  0
 73 75  1  0  0  0  0
 75 76  1  0  0  0  0
M  END
> <ChemID>
201620

> <source_casrn>
1338-41-6

> <CAS>
1338-41-6

> <SMILES>
CCCCCCCCCCCCCCCCCC(=O)OCC(O)[C@H]1OC[C@@H](O)[C@@H]1O

> <NAME>


> <preferred_name>
Sorbitan, monooctadecanoate

> <iupac>
1,4-anhydro-6-O-octadecanoyl-D-glucitol

> <MPID>
101380

> <dsstox_substance_id>
DTXSID1027396

> <Canonical_QSARr>
CCCCCCCCCCCCCCCCCC(=O)OCC(O)C1OCC(O)C1O

> <InChI_Code_QSARr>
InChI=1S/C24H46O6/c1-2-3-4-5-6-7-8-9-10-11-12-13-14-15-16-17-22(27)29-19-21(26)24-23(28)20(25)18-30-24/h20-21,23-26,28H,2-19H2,1H3

> <InChI Key_QSARr>
HVUMOYIDDBPOLL-UHFFFAOYSA-N

> <Salt_Solvent>


> <Ready_Biodeg>
1.0

$$$$
201621
  -INDIGO-08031722522D

116115  0  0  0  0  0  0  0  0999 V2000
    9.6998   -0.8000    0.0000 C   0  0  0  0  0  0  0  0  0  0  0  0
   11.0851   -1.6000    0.0000 H   0  0  0  0  0  0  0  0  0  0  0  0
   11.0851    0.0000    0.0000 H   0  0  0  0  0  0  0  0  0  0  0  0
    9.6998   -2.4000    0.0000 H   0  0  0  0  0  0  0  0  0  0  0  0
    8.3137    0.0000    0.0000 C   0  0  0  0  0  0  0  0  0  0  0  0
    8.9257    1.4782    0.0000 H   0  0  0  0  0  0  0  0  0  0  0  0
    7.7017    1.4782    0.0000 H   0  0  0  0  0  0  0  0  0  0  0  0
    6.9284   -0.8000    0.0000 C   0  0  0  0  0  0  0  0  0  0  0  0
    6.3155   -2.2782    0.0000 H   0  0  0  0  0  0  0  0  0  0  0  0
    7.5404   -2.2782    0.0000 H   0  0  0  0  0  0  0  0  0  0  0  0
    5.5423    0.0000    0.0000 C   0  0  0  0  0  0  0  0  0  0  0  0
    6.1552    1.4782    0.0000 H   0  0  0  0  0  0  0  0  0  0  0  0
    4.9302    1.4782    0.0000 H   0  0  0  0  0  0  0  0  0  0  0  0
    4.1570   -0.8000    0.0000 C   0  0  0  0  0  0  0  0  0  0  0  0
    3.5450   -2.2782    0.0000 H   0  0  0  0  0  0  0  0  0  0  0  0
    4.7690   -2.2782    0.0000 H   0  0  0  0  0  0  0  0  0  0  0  0
    2.7717    0.0000    0.0000 C   0  0  0  0  0  0  0  0  0  0  0  0
    3.3837    1.4782    0.0000 H   0  0  0  0  0  0  0  0  0  0  0  0
    2.1588    1.4782    0.0000 H   0  0  0  0  0  0  0  0  0  0  0  0
    1.3856   -0.8000    0.0000 C   0  0  0  0  0  0  0  0  0  0  0  0
    0.7735   -2.2782    0.0000 H   0  0  0  0  0  0  0  0  0  0  0  0
    1.9976   -2.2782    0.0000 H   0  0  0  0  0  0  0  0  0  0  0  0
    0.0003    0.0000    0.0000 C   0  0  0  0  0  0  0  0  0  0  0  0
    0.6123    1.4782    0.0000 H   0  0  0  0  0  0  0  0  0  0  0  0
   -0.6126    1.4782    0.0000 H   0  0  0  0  0  0  0  0  0  0  0  0
   -1.3859   -0.8000    0.0000 C   0  0  0  0  0  0  0  0  0  0  0  0
   -1.9979   -2.2782    0.0000 H   0  0  0  0  0  0  0  0  0  0  0  0
   -0.7730   -2.2782    0.0000 H   0  0  0  0  0  0  0  0  0  0  0  0
   -2.7712    0.0000    0.0000 C   0  0  0  0  0  0  0  0  0  0  0  0
   -2.1591    1.4782    0.0000 H   0  0  0  0  0  0  0  0  0  0  0  0
   -3.3832    1.4782    0.0000 H   0  0  0  0  0  0  0  0  0  0  0  0
   -4.1573   -0.8000    0.0000 C   0  0  0  0  0  0  0  0  0  0  0  0
   -4.7693   -2.2782    0.0000 H   0  0  0  0  0  0  0  0  0  0  0  0
   -3.5444   -2.2782    0.0000 H   0  0  0  0  0  0  0  0  0  0  0  0
   -5.5426    0.0000    0.0000 C   0  0  0  0  0  0  0  0  0  0  0  0
   -4.9306    1.4782    0.0000 H   0  0  0  0  0  0  0  0  0  0  0  0
   -6.1546    1.4782    0.0000 H   0  0  0  0  0  0  0  0  0  0  0  0
   -6.9279   -0.8000    0.0000 C   0  0  0  0  0  0  0  0  0  0  0  0
   -7.5408   -2.2782    0.0000 H   0  0  0  0  0  0  0  0  0  0  0  0
   -6.3158   -2.2782    0.0000 H   0  0  0  0  0  0  0  0  0  0  0  0
   -8.3140    0.0000    0.0000 C   0  0  0  0  0  0  0  0  0  0  0  0
   -7.7011    1.4782    0.0000 H   0  0  0  0  0  0  0  0  0  0  0  0
   -8.9260    1.4782    0.0000 H   0  0  0  0  0  0  0  0  0  0  0  0
   -9.6993   -0.8000    0.0000 C   0  0  0  0  0  0  0  0  0  0  0  0
  -10.3122   -2.2782    0.0000 H   0  0  0  0  0  0  0  0  0  0  0  0
   -9.0873   -2.2782    0.0000 H   0  0  0  0  0  0  0  0  0  0  0  0
  -11.0854    0.0000    0.0000 C   0  0  0  0  0  0  0  0  0  0  0  0
  -10.4726    1.4782    0.0000 H   0  0  0  0  0  0  0  0  0  0  0  0
  -11.6975    1.4782    0.0000 H   0  0  0  0  0  0  0  0  0  0  0  0
  -12.4707   -0.8000    0.0000 C   0  0  0  0  0  0  0  0  0  0  0  0
  -13.0827   -2.2782    0.0000 H   0  0  0  0  0  0  0  0  0  0  0  0
  -11.8587   -2.2782    0.0000 H   0  0  0  0  0  0  0  0  0  0  0  0
  -13.8560    0.0000    0.0000 C   0  0  0  0  0  0  0  0  0  0  0  0
  -13.8560    1.6000    0.0000 O   0  0  0  0  0  0  0  0  0  0  0  0
  -15.2422   -0.8000    0.0000 O   0  0  0  0  0  0  0  0  0  0  0  0
  -16.6274    0.0000    0.0000 C   0  0  0  0  0  0  0  0  0  0  0  0
  -16.0154    1.4782    0.0000 H   0  0  0  0  0  0  0  0  0  0  0  0
  -17.2403    1.4782    0.0000 H   0  0  0  0  0  0  0  0  0  0  0  0
  -18.0136   -0.8000    0.0000 C   0  0  0  0  0  0  0  0  0  0  0  0
  -18.6256   -2.2782    0.0000 H   0  0  0  0  0  0  0  0  0  0  0  0
  -17.4007   -2.2782    0.0000 H   0  0  0  0  0  0  0  0  0  0  0  0
  -19.3989    0.0000    0.0000 O   0  0  0  0  0  0  0  0  0  0  0  0
  -20.7850   -0.8000    0.0000 C   0  0  0  0  0  0  0  0  0  0  0  0
  -20.7850   -2.4000    0.0000 O   0  0  0  0  0  0  0  0  0  0  0  0
  -22.1703    0.0000    0.0000 C   0  0  0  0  0  0  0  0  0  0  0  0
  -21.5583    1.4782    0.0000 H   0  0  0  0  0  0  0  0  0  0  0  0
  -22.7823    1.4782    0.0000 H   0  0  0  0  0  0  0  0  0  0  0  0
  -23.5556   -0.8000    0.0000 C   0  0  0  0  0  0  0  0  0  0  0  0
  -24.1685   -2.2782    0.0000 H   0  0  0  0  0  0  0  0  0  0  0  0
  -22.9436   -2.2782    0.0000 H   0  0  0  0  0  0  0  0  0  0  0  0
  -24.9417    0.0000    0.0000 C   0  0  0  0  0  0  0  0  0  0  0  0
  -24.3288    1.4782    0.0000 H   0  0  0  0  0  0  0  0  0  0  0  0
  -25.5537    1.4782    0.0000 H   0  0  0  0  0  0  0  0  0  0  0  0
  -26.3270   -0.8000    0.0000 C   0  0  0  0  0  0  0  0  0  0  0  0
  -26.9399   -2.2782    0.0000 H   0  0  0  0  0  0  0  0  0  0  0  0
  -25.7150   -2.2782    0.0000 H   0  0  0  0  0  0  0  0  0  0  0  0
  -27.7132    0.0000    0.0000 C   0  0  0  0  0  0  0  0  0  0  0  0
  -27.1003    1.4782    0.0000 H   0  0  0  0  0  0  0  0  0  0  0  0
  -28.3252    1.4782    0.0000 H   0  0  0  0  0  0  0  0  0  0  0  0
  -29.0984   -0.8000    0.0000 C   0  0  0  0  0  0  0  0  0  0  0  0
  -29.7105   -2.2782    0.0000 H   0  0  0  0  0  0  0  0  0  0  0  0
  -28.4864   -2.2782    0.0000 H   0  0  0  0  0  0  0  0  0  0  0  0
  -30.4837    0.0000    0.0000 C   0  0  0  0  0  0  0  0  0  0  0  0
  -29.8717    1.4782    0.0000 H   0  0  0  0  0  0  0  0  0  0  0  0
  -31.0966    1.4782    0.0000 H   0  0  0  0  0  0  0  0  0  0  0  0
  -31.8699   -0.8000    0.0000 C   0  0  0  0  0  0  0  0  0  0  0  0
  -32.4819   -2.2782    0.0000 H   0  0  0  0  0  0  0  0  0  0  0  0
  -31.2578   -2.2782    0.0000 H   0  0  0  0  0  0  0  0  0  0  0  0
  -33.2551    0.0000    0.0000 C   0  0  0  0  0  0  0  0  0  0  0  0
  -32.6431    1.4782    0.0000 H   0  0  0  0  0  0  0  0  0  0  0  0
  -33.8680    1.4782    0.0000 H   0  0  0  0  0  0  0  0  0  0  0  0
  -34.6413   -0.8000    0.0000 C   0  0  0  0  0  0  0  0  0  0  0  0
  -35.2533   -2.2782    0.0000 H   0  0  0  0  0  0  0  0  0  0  0  0
  -34.0284   -2.2782    0.0000 H   0  0  0  0  0  0  0  0  0  0  0  0
  -36.0266    0.0000    0.0000 C   0  0  0  0  0  0  0  0  0  0  0  0
  -35.4146    1.4782    0.0000 H   0  0  0  0  0  0  0  0  0  0  0  0
  -36.6386    1.4782    0.0000 H   0  0  0  0  0  0  0  0  0  0  0  0
  -37.4127   -0.8000    0.0000 C   0  0  0  0  0  0  0  0  0  0  0  0
  -38.0247   -2.2782    0.0000 H   0  0  0  0  0  0  0  0  0  0  0  0
  -36.7998   -2.2782    0.0000 H   0  0  0  0  0  0  0  0  0  0  0  0
  -38.7980    0.0000    0.0000 C   0  0  0  0  0  0  0  0  0  0  0  0
  -38.1860    1.4782    0.0000 H   0  0  0  0  0  0  0  0  0  0  0  0
  -39.4100    1.4782    0.0000 H   0  0  0  0  0  0  0  0  0  0  0  0
  -40.1833   -0.8000    0.0000 C   0  0  0  0  0  0  0  0  0  0  0  0
  -40.7962   -2.2782    0.0000 H   0  0  0  0  0  0  0  0  0  0  0  0
  -39.5713   -2.2782    0.0000 H   0  0  0  0  0  0  0  0  0  0  0  0
  -41.5694    0.0000    0.0000 C   0  0  0  0  0  0  0  0  0  0  0  0
  -40.9566    1.4782    0.0000 H   0  0  0  0  0  0  0  0  0  0  0  0
  -42.1815    1.4782    0.0000 H   0  0  0  0  0  0  0  0  0  0  0  0
  -42.9547   -0.8000    0.0000 C   0  0  0  0  0  0  0  0  0  0  0  0
  -43.5667   -2.2782    0.0000 H   0  0  0  0  0  0  0  0  0  0  0  0
  -42.3427   -2.2782    0.0000 H   0  0  0  0  0  0  0  0  0  0  0  0
  -44.3409    0.0000    0.0000 C   0  0  0  0  0  0  0  0  0  0  0  0
  -45.7261    0.8000    0.0000 H   0  0  0  0  0  0  0  0  0  0  0  0
  -45.7261   -0.8000    0.0000 H   0  0  0  0  0  0  0  0  0  0  0  0
  -44.3409    1.6000    0.0000 H   0  0  0  0  0  0  0  0  0  0  0  0
  1  2  1  0  0  0  0
  1  3  1  0  0  0  0
  1  4  1  0  0  0  0
  1  5  1  0  0  0  0
  5  6  1  0  0  0  0
  5  7  1  0  0  0  0
  5  8  1  0  0  0  0
  8  9  1  0  0  0  0
  8 10  1  0  0  0  0
  8 11  1  0  0  0  0
 11 12  1  0  0  0  0
 11 13  1  0  0  0  0
 11 14  1  0  0  0  0
 14 15  1  0  0  0  0
 14 16  1  0  0  0  0
 14 17  1  0  0  0  0
 17 18  1  0  0  0  0
 17 19  1  0  0  0  0
 17 20  1  0  0  0  0
 20 21  1  0  0  0  0
 20 22  1  0  0  0  0
 20 23  1  0  0  0  0
 23 24  1  0  0  0  0
 23 25  1  0  0  0  0
 23 26  1  0  0  0  0
 26 27  1  0  0  0  0
 26 28  1  0  0  0  0
 26 29  1  0  0  0  0
 29 30  1  0  0  0  0
 29 31  1  0  0  0  0
 29 32  1  0  0  0  0
 32 33  1  0  0  0  0
 32 34  1  0  0  0  0
 32 35  1  0  0  0  0
 35 36  1  0  0  0  0
 35 37  1  0  0  0  0
 35 38  1  0  0  0  0
 38 39  1  0  0  0  0
 38 40  1  0  0  0  0
 38 41  1  0  0  0  0
 41 42  1  0  0  0  0
 41 43  1  0  0  0  0
 41 44  1  0  0  0  0
 44 45  1  0  0  0  0
 44 46  1  0  0  0  0
 44 47  1  0  0  0  0
 47 48  1  0  0  0  0
 47 49  1  0  0  0  0
 47 50  1  0  0  0  0
 50 51  1  0  0  0  0
 50 52  1  0  0  0  0
 50 53  1  0  0  0  0
 53 54  2  0  0  0  0
 53 55  1  0  0  0  0
 55 56  1  0  0  0  0
 56 57  1  0  0  0  0
 56 58  1  0  0  0  0
 56 59  1  0  0  0  0
 59 60  1  0  0  0  0
 59 61  1  0  0  0  0
 59 62  1  0  0  0  0
 62 63  1  0  0  0  0
 63 64  2  0  0  0  0
 63 65  1  0  0  0  0
 65 66  1  0  0  0  0
 65 67  1  0  0  0  0
 65 68  1  0  0  0  0
 68 69  1  0  0  0  0
 68 70  1  0  0  0  0
 68 71  1  0  0  0  0
 71 72  1  0  0  0  0
 71 73  1  0  0  0  0
 71 74  1  0  0  0  0
 74 75  1  0  0  0  0
 74 76  1  0  0  0  0
 74 77  1  0  0  0  0
 77 78  1  0  0  0  0
 77 79  1  0  0  0  0
 77 80  1  0  0  0  0
 80 81  1  0  0  0  0
 80 82  1  0  0  0  0
 80 83  1  0  0  0  0
 83 84  1  0  0  0  0
 83 85  1  0  0  0  0
 83 86  1  0  0  0  0
 86 87  1  0  0  0  0
 86 88  1  0  0  0  0
 86 89  1  0  0  0  0
 89 90  1  0  0  0  0
 89 91  1  0  0  0  0
 89 92  1  0  0  0  0
 92 93  1  0  0  0  0
 92 94  1  0  0  0  0
 92 95  1  0  0  0  0
 95 96  1  0  0  0  0
 95 97  1  0  0  0  0
 95 98  1  0  0  0  0
 98 99  1  0  0  0  0
 98100  1  0  0  0  0
 98101  1  0  0  0  0
101102  1  0  0  0  0
101103  1  0  0  0  0
101104  1  0  0  0  0
104105  1  0  0  0  0
104106  1  0  0  0  0
104107  1  0  0  0  0
107108  1  0  0  0  0
107109  1  0  0  0  0
107110  1  0  0  0  0
110111  1  0  0  0  0
110112  1  0  0  0  0
110113  1  0  0  0  0
113114  1  0  0  0  0
113115  1  0  0  0  0
113116  1  0  0  0  0
M  END
> <ChemID>
201621

> <source_casrn>
627-83-8

> <CAS>
627-83-8

> <SMILES>
CCCCCCCCCCCCCCCCCC(=O)OCCOC(=O)CCCCCCCCCCCCCCCCC

> <NAME>


> <preferred_name>
Octadecanoic acid, 1,2-ethanediyl ester

> <iupac>
ethane-1,2-diyl dioctadecanoate

> <MPID>
101381

> <dsstox_substance_id>
DTXSID6027260

> <Canonical_QSARr>
CCCCCCCCCCCCCCCCCC(=O)OCCOC(=O)CCCCCCCCCCCCCCCCC

> <InChI_Code_QSARr>
InChI=1S/C38H74O4/c1-3-5-7-9-11-13-15-17-19-21-23-25-27-29-31-33-37(39)41-35-36-42-38(40)34-32-30-28-26-24-22-20-18-16-14-12-10-8-6-4-2/h3-36H2,1-2H3

> <InChI Key_QSARr>
FPVVYTCTZKCSOJ-UHFFFAOYSA-N

> <Salt_Solvent>


> <Ready_Biodeg>
1.0

$$$$
201625
  -INDIGO-08031722522D

 69 68  0  0  0  0  0  0  0  0999 V2000
    9.6993   -0.8000    0.0000 C   0  0  0  0  0  0  0  0  0  0  0  0
   11.0851   -1.6000    0.0000 H   0  0  0  0  0  0  0  0  0  0  0  0
   11.0851    0.0000    0.0000 H   0  0  0  0  0  0  0  0  0  0  0  0
    9.6993   -2.4000    0.0000 H   0  0  0  0  0  0  0  0  0  0  0  0
    8.3140    0.0000    0.0000 C   0  0  0  0  0  0  0  0  0  0  0  0
    8.9259    1.4782    0.0000 H   0  0  0  0  0  0  0  0  0  0  0  0
    7.7015    1.4782    0.0000 H   0  0  0  0  0  0  0  0  0  0  0  0
    6.9281   -0.8000    0.0000 C   0  0  0  0  0  0  0  0  0  0  0  0
    6.3162   -2.2782    0.0000 H   0  0  0  0  0  0  0  0  0  0  0  0
    7.5406   -2.2782    0.0000 H   0  0  0  0  0  0  0  0  0  0  0  0
    5.5428    0.0000    0.0000 C   0  0  0  0  0  0  0  0  0  0  0  0
    6.1548    1.4782    0.0000 H   0  0  0  0  0  0  0  0  0  0  0  0
    4.9303    1.4782    0.0000 H   0  0  0  0  0  0  0  0  0  0  0  0
    4.1570   -0.8000    0.0000 C   0  0  0  0  0  0  0  0  0  0  0  0
    3.5445   -2.2782    0.0000 H   0  0  0  0  0  0  0  0  0  0  0  0
    4.7690   -2.2782    0.0000 H   0  0  0  0  0  0  0  0  0  0  0  0
    2.7712    0.0000    0.0000 C   0  0  0  0  0  0  0  0  0  0  0  0
    3.3836    1.4782    0.0000 H   0  0  0  0  0  0  0  0  0  0  0  0
    2.1592    1.4782    0.0000 H   0  0  0  0  0  0  0  0  0  0  0  0
    1.3858   -0.8000    0.0000 C   0  0  0  0  0  0  0  0  0  0  0  0
    0.7733   -2.2782    0.0000 H   0  0  0  0  0  0  0  0  0  0  0  0
    1.9978   -2.2782    0.0000 H   0  0  0  0  0  0  0  0  0  0  0  0
    0.0000    0.0000    0.0000 C   0  0  0  0  0  0  0  0  0  0  0  0
    0.6125    1.4782    0.0000 H   0  0  0  0  0  0  0  0  0  0  0  0
   -0.6125    1.4782    0.0000 H   0  0  0  0  0  0  0  0  0  0  0  0
   -1.3858   -0.8000    0.0000 C   0  0  0  0  0  0  0  0  0  0  0  0
   -1.9978   -2.2782    0.0000 H   0  0  0  0  0  0  0  0  0  0  0  0
   -0.7733   -2.2782    0.0000 H   0  0  0  0  0  0  0  0  0  0  0  0
   -2.7712    0.0000    0.0000 C   0  0  0  0  0  0  0  0  0  0  0  0
   -2.1592    1.4782    0.0000 H   0  0  0  0  0  0  0  0  0  0  0  0
   -3.3836    1.4782    0.0000 H   0  0  0  0  0  0  0  0  0  0  0  0
   -4.1570   -0.8000    0.0000 C   0  0  0  0  0  0  0  0  0  0  0  0
   -4.7690   -2.2782    0.0000 H   0  0  0  0  0  0  0  0  0  0  0  0
   -3.5445   -2.2782    0.0000 H   0  0  0  0  0  0  0  0  0  0  0  0
   -5.5423    0.0000    0.0000 C   0  0  0  0  0  0  0  0  0  0  0  0
   -4.9303    1.4782    0.0000 H   0  0  0  0  0  0  0  0  0  0  0  0
   -6.1548    1.4782    0.0000 H   0  0  0  0  0  0  0  0  0  0  0  0
   -6.9281   -0.8000    0.0000 C   0  0  0  0  0  0  0  0  0  0  0  0
   -7.5406   -2.2782    0.0000 H   0  0  0  0  0  0  0  0  0  0  0  0
   -6.3162   -2.2782    0.0000 H   0  0  0  0  0  0  0  0  0  0  0  0
   -8.3140    0.0000    0.0000 C   0  0  0  0  0  0  0  0  0  0  0  0
   -7.7015    1.4782    0.0000 H   0  0  0  0  0  0  0  0  0  0  0  0
   -8.9259    1.4782    0.0000 H   0  0  0  0  0  0  0  0  0  0  0  0
   -9.6993   -0.8000    0.0000 C   0  0  0  0  0  0  0  0  0  0  0  0
  -10.3118   -2.2782    0.0000 H   0  0  0  0  0  0  0  0  0  0  0  0
   -9.0873   -2.2782    0.0000 H   0  0  0  0  0  0  0  0  0  0  0  0
  -11.0851    0.0000    0.0000 C   0  0  0  0  0  0  0  0  0  0  0  0
  -10.4726    1.4782    0.0000 H   0  0  0  0  0  0  0  0  0  0  0  0
  -11.6976    1.4782    0.0000 H   0  0  0  0  0  0  0  0  0  0  0  0
  -12.4710   -0.8000    0.0000 C   0  0  0  0  0  0  0  0  0  0  0  0
  -13.0829   -2.2782    0.0000 H   0  0  0  0  0  0  0  0  0  0  0  0
  -11.8585   -2.2782    0.0000 H   0  0  0  0  0  0  0  0  0  0  0  0
  -13.8563    0.0000    0.0000 C   0  0  0  0  0  0  0  0  0  0  0  0
  -13.2443    1.4782    0.0000 H   0  0  0  0  0  0  0  0  0  0  0  0
  -14.4688    1.4782    0.0000 H   0  0  0  0  0  0  0  0  0  0  0  0
  -15.2421   -0.8000    0.0000 C   0  0  0  0  0  0  0  0  0  0  0  0
  -15.8541   -2.2782    0.0000 H   0  0  0  0  0  0  0  0  0  0  0  0
  -14.6296   -2.2782    0.0000 H   0  0  0  0  0  0  0  0  0  0  0  0
  -16.6279    0.0000    0.0000 C   0  0  0  0  0  0  0  0  0  0  0  0
  -16.0155    1.4782    0.0000 H   0  0  0  0  0  0  0  0  0  0  0  0
  -17.2399    1.4782    0.0000 H   0  0  0  0  0  0  0  0  0  0  0  0
  -18.0133   -0.8000    0.0000 C   0  0  0  0  0  0  0  0  0  0  0  0
  -18.6257   -2.2782    0.0000 H   0  0  0  0  0  0  0  0  0  0  0  0
  -17.4013   -2.2782    0.0000 H   0  0  0  0  0  0  0  0  0  0  0  0
  -19.3991    0.0000    0.0000 C   0  0  0  0  0  0  0  0  0  0  0  0
  -20.7844   -0.8000    0.0000 N   0  0  0  0  0  0  0  0  0  0  0  0
  -22.1702    0.0000    0.0000 H   0  0  0  0  0  0  0  0  0  0  0  0
  -20.7844   -2.4000    0.0000 H   0  0  0  0  0  0  0  0  0  0  0  0
  -19.3991    1.6000    0.0000 O   0  0  0  0  0  0  0  0  0  0  0  0
  1  2  1  0  0  0  0
  1  3  1  0  0  0  0
  1  4  1  0  0  0  0
  1  5  1  0  0  0  0
  5  6  1  0  0  0  0
  5  7  1  0  0  0  0
  5  8  1  0  0  0  0
  8  9  1  0  0  0  0
  8 10  1  0  0  0  0
  8 11  1  0  0  0  0
 11 12  1  0  0  0  0
 11 13  1  0  0  0  0
 11 14  1  0  0  0  0
 14 15  1  0  0  0  0
 14 16  1  0  0  0  0
 14 17  1  0  0  0  0
 17 18  1  0  0  0  0
 17 19  1  0  0  0  0
 17 20  1  0  0  0  0
 20 21  1  0  0  0  0
 20 22  1  0  0  0  0
 20 23  1  0  0  0  0
 23 24  1  0  0  0  0
 23 25  1  0  0  0  0
 23 26  1  0  0  0  0
 26 27  1  0  0  0  0
 26 28  1  0  0  0  0
 26 29  1  0  0  0  0
 29 30  1  0  0  0  0
 29 31  1  0  0  0  0
 29 32  1  0  0  0  0
 32 33  1  0  0  0  0
 32 34  1  0  0  0  0
 32 35  1  0  0  0  0
 35 36  1  0  0  0  0
 35 37  1  0  0  0  0
 35 38  1  0  0  0  0
 38 39  1  0  0  0  0
 38 40  1  0  0  0  0
 38 41  1  0  0  0  0
 41 42  1  0  0  0  0
 41 43  1  0  0  0  0
 41 44  1  0  0  0  0
 44 45  1  0  0  0  0
 44 46  1  0  0  0  0
 44 47  1  0  0  0  0
 47 48  1  0  0  0  0
 47 49  1  0  0  0  0
 47 50  1  0  0  0  0
 50 51  1  0  0  0  0
 50 52  1  0  0  0  0
 50 53  1  0  0  0  0
 53 54  1  0  0  0  0
 53 55  1  0  0  0  0
 53 56  1  0  0  0  0
 56 57  1  0  0  0  0
 56 58  1  0  0  0  0
 56 59  1  0  0  0  0
 59 60  1  0  0  0  0
 59 61  1  0  0  0  0
 59 62  1  0  0  0  0
 62 63  1  0  0  0  0
 62 64  1  0  0  0  0
 62 65  1  0  0  0  0
 65 66  1  0  0  0  0
 66 67  1  0  0  0  0
 66 68  1  0  0  0  0
 65 69  2  0  0  0  0
M  END
> <ChemID>
201625

> <source_casrn>
3061-75-4

> <CAS>
3061-75-4

> <SMILES>
CCCCCCCCCCCCCCCCCCCCCC(N)=O

> <NAME>


> <preferred_name>
Docosanamide

> <iupac>
Docosanamide

> <MPID>
101383

> <dsstox_substance_id>
DTXSID7062821

> <Canonical_QSARr>
CCCCCCCCCCCCCCCCCCCCCC(N)=O

> <InChI_Code_QSARr>
InChI=1S/C22H45NO/c1-2-3-4-5-6-7-8-9-10-11-12-13-14-15-16-17-18-19-20-21-22(23)24/h2-21H2,1H3,(H2,23,24)

> <InChI Key_QSARr>
ORAWFNKFUWGRJG-UHFFFAOYSA-N

> <Salt_Solvent>


> <Ready_Biodeg>
0.0

$$$$
201628
  -INDIGO-08031722522D

 80 79  0  0  0  0  0  0  0  0999 V2000
   29.9031    6.6407    0.0000 C   0  0  0  0  0  0  0  0  0  0  0  0
   31.4066    6.0934    0.0000 H   0  0  0  0  0  0  0  0  0  0  0  0
   31.1288    7.6691    0.0000 H   0  0  0  0  0  0  0  0  0  0  0  0
   30.1809    5.0650    0.0000 H   0  0  0  0  0  0  0  0  0  0  0  0
   28.3997    7.1880    0.0000 C   0  0  0  0  0  0  0  0  0  0  0  0
   28.7456    8.7500    0.0000 H   0  0  0  0  0  0  0  0  0  0  0  0
   27.5401    8.5374    0.0000 H   0  0  0  0  0  0  0  0  0  0  0  0
   27.1740    6.1596    0.0000 C   0  0  0  0  0  0  0  0  0  0  0  0
   26.8274    4.5975    0.0000 H   0  0  0  0  0  0  0  0  0  0  0  0
   28.0335    4.8101    0.0000 H   0  0  0  0  0  0  0  0  0  0  0  0
   25.6705    6.7067    0.0000 C   0  0  0  0  0  0  0  0  0  0  0  0
   26.0165    8.2689    0.0000 H   0  0  0  0  0  0  0  0  0  0  0  0
   24.8110    8.0563    0.0000 H   0  0  0  0  0  0  0  0  0  0  0  0
   24.4448    5.6782    0.0000 C   0  0  0  0  0  0  0  0  0  0  0  0
   24.0982    4.1162    0.0000 H   0  0  0  0  0  0  0  0  0  0  0  0
   25.3043    4.3288    0.0000 H   0  0  0  0  0  0  0  0  0  0  0  0
   22.9413    6.2255    0.0000 C   0  0  0  0  0  0  0  0  0  0  0  0
   23.2873    7.7876    0.0000 H   0  0  0  0  0  0  0  0  0  0  0  0
   22.0818    7.5749    0.0000 H   0  0  0  0  0  0  0  0  0  0  0  0
   21.7156    5.1971    0.0000 C   0  0  0  0  0  0  0  0  0  0  0  0
   21.3691    3.6350    0.0000 H   0  0  0  0  0  0  0  0  0  0  0  0
   22.5751    3.8477    0.0000 H   0  0  0  0  0  0  0  0  0  0  0  0
   20.2121    5.7442    0.0000 C   0  0  0  0  0  0  0  0  0  0  0  0
   20.5581    7.3063    0.0000 H   0  0  0  0  0  0  0  0  0  0  0  0
   19.3526    7.0936    0.0000 H   0  0  0  0  0  0  0  0  0  0  0  0
   18.9864    4.7158    0.0000 C   0  0  0  0  0  0  0  0  0  0  0  0
   18.6399    3.1537    0.0000 H   0  0  0  0  0  0  0  0  0  0  0  0
   19.8459    3.3664    0.0000 H   0  0  0  0  0  0  0  0  0  0  0  0
   17.4829    5.2631    0.0000 C   0  0  0  0  0  0  0  0  0  0  0  0
   17.8289    6.8251    0.0000 H   0  0  0  0  0  0  0  0  0  0  0  0
   16.6234    6.6125    0.0000 H   0  0  0  0  0  0  0  0  0  0  0  0
   16.2572    4.2347    0.0000 C   0  0  0  0  0  0  0  0  0  0  0  0
   15.9107    2.6726    0.0000 H   0  0  0  0  0  0  0  0  0  0  0  0
   17.1168    2.8852    0.0000 H   0  0  0  0  0  0  0  0  0  0  0  0
   14.7538    4.7817    0.0000 C   0  0  0  0  0  0  0  0  0  0  0  0
   15.0997    6.3438    0.0000 H   0  0  0  0  0  0  0  0  0  0  0  0
   13.8942    6.1312    0.0000 H   0  0  0  0  0  0  0  0  0  0  0  0
   13.5281    3.7533    0.0000 C   0  0  0  0  0  0  0  0  0  0  0  0
   13.1815    2.1913    0.0000 H   0  0  0  0  0  0  0  0  0  0  0  0
   14.3876    2.4039    0.0000 H   0  0  0  0  0  0  0  0  0  0  0  0
   12.0246    4.3006    0.0000 C   0  0  0  0  0  0  0  0  0  0  0  0
   12.3706    5.8627    0.0000 H   0  0  0  0  0  0  0  0  0  0  0  0
   11.1651    5.6500    0.0000 H   0  0  0  0  0  0  0  0  0  0  0  0
   10.7989    3.2722    0.0000 C   0  0  0  0  0  0  0  0  0  0  0  0
   10.4523    1.7101    0.0000 H   0  0  0  0  0  0  0  0  0  0  0  0
   11.6584    1.9228    0.0000 H   0  0  0  0  0  0  0  0  0  0  0  0
    9.2954    3.8193    0.0000 C   0  0  0  0  0  0  0  0  0  0  0  0
    9.6414    5.3814    0.0000 H   0  0  0  0  0  0  0  0  0  0  0  0
    8.4359    5.1687    0.0000 H   0  0  0  0  0  0  0  0  0  0  0  0
    8.0697    2.7909    0.0000 C   0  0  0  0  0  0  0  0  0  0  0  0
    7.7232    1.2288    0.0000 H   0  0  0  0  0  0  0  0  0  0  0  0
    8.9292    1.4415    0.0000 H   0  0  0  0  0  0  0  0  0  0  0  0
    6.5662    3.3382    0.0000 C   0  0  0  0  0  0  0  0  0  0  0  0
    6.9122    4.9002    0.0000 H   0  0  0  0  0  0  0  0  0  0  0  0
    5.7067    4.6876    0.0000 H   0  0  0  0  0  0  0  0  0  0  0  0
    5.3405    2.3097    0.0000 N   0  0  0  0  0  0  0  0  0  0  0  0
    5.6183    0.7341    0.0000 H   0  0  0  0  0  0  0  0  0  0  0  0
    3.8370    2.8568    0.0000 C   0  0  0  0  0  0  0  0  0  0  0  0
    3.5593    4.4325    0.0000 O   0  0  0  0  0  0  0  0  0  0  0  0
    2.6113    1.8284    0.0000 C   0  0  0  0  0  0  0  0  0  0  0  0
    3.6400    0.6027    0.0000 H   0  0  0  0  0  0  0  0  0  0  0  0
    1.5826    3.0541    0.0000 O   0  0  0  0  0  0  0  0  0  0  0  0
    2.1300    4.5576    0.0000 H   0  0  0  0  0  0  0  0  0  0  0  0
    1.3856    0.8000    0.0000 C   0  0  0  0  0  0  0  0  0  0  0  0
    0.3569    2.0257    0.0000 H   0  0  0  0  0  0  0  0  0  0  0  0
    2.4143   -0.4257    0.0000 O   0  0  0  0  0  0  0  0  0  0  0  0
    1.8670   -1.9292    0.0000 H   0  0  0  0  0  0  0  0  0  0  0  0
    0.0000    0.0000    0.0000 C   0  0  0  0  0  0  0  0  0  0  0  0
    0.8001   -1.3856    0.0000 H   0  0  0  0  0  0  0  0  0  0  0  0
   -0.8000    1.3856    0.0000 O   0  0  0  0  0  0  0  0  0  0  0  0
   -2.3755    1.6634    0.0000 H   0  0  0  0  0  0  0  0  0  0  0  0
   -1.3856   -0.8000    0.0000 C   0  0  0  0  0  0  0  0  0  0  0  0
   -2.1856    0.5856    0.0000 H   0  0  0  0  0  0  0  0  0  0  0  0
   -0.5855   -2.1856    0.0000 O   0  0  0  0  0  0  0  0  0  0  0  0
   -1.3856   -3.5712    0.0000 H   0  0  0  0  0  0  0  0  0  0  0  0
   -2.7712   -1.6000    0.0000 C   0  0  0  0  0  0  0  0  0  0  0  0
   -4.3576   -1.3912    0.0000 H   0  0  0  0  0  0  0  0  0  0  0  0
   -3.7453   -0.3307    0.0000 H   0  0  0  0  0  0  0  0  0  0  0  0
   -2.7712   -3.2000    0.0000 O   0  0  0  0  0  0  0  0  0  0  0  0
   -4.1568   -4.0000    0.0000 H   0  0  0  0  0  0  0  0  0  0  0  0
  1  2  1  0  0  0  0
  1  3  1  0  0  0  0
  1  4  1  0  0  0  0
  1  5  1  0  0  0  0
  5  6  1  0  0  0  0
  5  7  1  0  0  0  0
  5  8  1  0  0  0  0
  8  9  1  0  0  0  0
  8 10  1  0  0  0  0
  8 11  1  0  0  0  0
 11 12  1  0  0  0  0
 11 13  1  0  0  0  0
 11 14  1  0  0  0  0
 14 15  1  0  0  0  0
 14 16  1  0  0  0  0
 14 17  1  0  0  0  0
 17 18  1  0  0  0  0
 17 19  1  0  0  0  0
 17 20  1  0  0  0  0
 20 21  1  0  0  0  0
 20 22  1  0  0  0  0
 20 23  1  0  0  0  0
 23 24  1  0  0  0  0
 23 25  1  0  0  0  0
 23 26  1  0  0  0  0
 26 27  1  0  0  0  0
 26 28  1  0  0  0  0
 26 29  1  0  0  0  0
 29 30  1  0  0  0  0
 29 31  1  0  0  0  0
 29 32  1  0  0  0  0
 32 33  1  0  0  0  0
 32 34  1  0  0  0  0
 32 35  1  0  0  0  0
 35 36  1  0  0  0  0
 35 37  1  0  0  0  0
 35 38  1  0  0  0  0
 38 39  1  0  0  0  0
 38 40  1  0  0  0  0
 38 41  1  0  0  0  0
 41 42  1  0  0  0  0
 41 43  1  0  0  0  0
 41 44  1  0  0  0  0
 44 45  1  0  0  0  0
 44 46  1  0  0  0  0
 44 47  1  0  0  0  0
 47 48  1  0  0  0  0
 47 49  1  0  0  0  0
 47 50  1  0  0  0  0
 50 51  1  0  0  0  0
 50 52  1  0  0  0  0
 50 53  1  0  0  0  0
 53 54  1  0  0  0  0
 53 55  1  0  0  0  0
 53 56  1  0  0  0  0
 56 57  1  0  0  0  0
 56 58  1  0  0  0  0
 58 59  2  0  0  0  0
 58 60  1  0  0  0  0
 60 61  1  0  0  0  0
 60 62  1  0  0  0  0
 62 63  1  0  0  0  0
 60 64  1  0  0  0  0
 64 65  1  0  0  0  0
 64 66  1  0  0  0  0
 66 67  1  0  0  0  0
 64 68  1  0  0  0  0
 68 69  1  0  0  0  0
 68 70  1  0  0  0  0
 70 71  1  0  0  0  0
 68 72  1  0  0  0  0
 72 73  1  0  0  0  0
 72 74  1  0  0  0  0
 74 75  1  0  0  0  0
 72 76  1  0  0  0  0
 76 77  1  0  0  0  0
 76 78  1  0  0  0  0
 76 79  1  0  0  0  0
 79 80  1  0  0  0  0
M  END
> <ChemID>
201628

> <source_casrn>


> <CAS>
18375-66-1

> <SMILES>
CCCCCCCCCCCCCCCCCCNC(=O)[C@H](O)[C@@H](O)[C@H](O)[C@H](O)CO

> <NAME>


> <preferred_name>


> <iupac>


> <MPID>
101384

> <dsstox_substance_id>


> <Canonical_QSARr>
CCCCCCCCCCCCCCCCCCNC(=O)C(O)C(O)C(O)C(O)CO

> <InChI_Code_QSARr>
InChI=1S/C24H49NO6/c1-2-3-4-5-6-7-8-9-10-11-12-13-14-15-16-17-18-25-24(31)23(30)22(29)21(28)20(27)19-26/h20-23,26-30H,2-19H2,1H3,(H,25,31)

> <InChI Key_QSARr>
NXLFPCFLIXFFRH-UHFFFAOYSA-N

> <Salt_Solvent>


> <Ready_Biodeg>
0.0

$$$$
201629
  -INDIGO-08031722522D

 66 66  0  0  0  0  0  0  0  0999 V2000
    9.6995   -0.8000    0.0000 C   0  0  0  0  0  0  0  0  0  0  0  0
   11.0851   -1.6000    0.0000 H   0  0  0  0  0  0  0  0  0  0  0  0
   11.0851    0.0000    0.0000 H   0  0  0  0  0  0  0  0  0  0  0  0
    9.6995   -2.4000    0.0000 H   0  0  0  0  0  0  0  0  0  0  0  0
    8.3138    0.0000    0.0000 C   0  0  0  0  0  0  0  0  0  0  0  0
    7.7015    1.4782    0.0000 H   0  0  0  0  0  0  0  0  0  0  0  0
    8.9260    1.4782    0.0000 H   0  0  0  0  0  0  0  0  0  0  0  0
    6.9281   -0.8000    0.0000 C   0  0  0  0  0  0  0  0  0  0  0  0
    7.5404   -2.2782    0.0000 H   0  0  0  0  0  0  0  0  0  0  0  0
    6.3159   -2.2782    0.0000 H   0  0  0  0  0  0  0  0  0  0  0  0
    5.5425    0.0000    0.0000 C   0  0  0  0  0  0  0  0  0  0  0  0
    4.9302    1.4782    0.0000 H   0  0  0  0  0  0  0  0  0  0  0  0
    6.1547    1.4782    0.0000 H   0  0  0  0  0  0  0  0  0  0  0  0
    4.1568   -0.8000    0.0000 C   0  0  0  0  0  0  0  0  0  0  0  0
    4.7690   -2.2782    0.0000 H   0  0  0  0  0  0  0  0  0  0  0  0
    3.5446   -2.2782    0.0000 H   0  0  0  0  0  0  0  0  0  0  0  0
    2.7711    0.0000    0.0000 C   0  0  0  0  0  0  0  0  0  0  0  0
    2.1589    1.4782    0.0000 H   0  0  0  0  0  0  0  0  0  0  0  0
    3.3834    1.4782    0.0000 H   0  0  0  0  0  0  0  0  0  0  0  0
    1.3855   -0.8000    0.0000 C   0  0  0  0  0  0  0  0  0  0  0  0
    1.9977   -2.2782    0.0000 H   0  0  0  0  0  0  0  0  0  0  0  0
    0.7732   -2.2782    0.0000 H   0  0  0  0  0  0  0  0  0  0  0  0
   -0.0002    0.0000    0.0000 C   0  0  0  0  0  0  0  0  0  0  0  0
   -0.6124    1.4782    0.0000 H   0  0  0  0  0  0  0  0  0  0  0  0
    0.6121    1.4782    0.0000 H   0  0  0  0  0  0  0  0  0  0  0  0
   -1.3859   -0.8000    0.0000 C   0  0  0  0  0  0  0  0  0  0  0  0
   -0.7731   -2.2782    0.0000 H   0  0  0  0  0  0  0  0  0  0  0  0
   -1.9981   -2.2782    0.0000 H   0  0  0  0  0  0  0  0  0  0  0  0
   -2.7715    0.0000    0.0000 C   0  0  0  0  0  0  0  0  0  0  0  0
   -3.3838    1.4782    0.0000 H   0  0  0  0  0  0  0  0  0  0  0  0
   -2.1588    1.4782    0.0000 H   0  0  0  0  0  0  0  0  0  0  0  0
   -4.1567   -0.8000    0.0000 C   0  0  0  0  0  0  0  0  0  0  0  0
   -3.5444   -2.2782    0.0000 H   0  0  0  0  0  0  0  0  0  0  0  0
   -4.7694   -2.2782    0.0000 H   0  0  0  0  0  0  0  0  0  0  0  0
   -5.5424    0.0000    0.0000 C   0  0  0  0  0  0  0  0  0  0  0  0
   -6.1551    1.4782    0.0000 H   0  0  0  0  0  0  0  0  0  0  0  0
   -4.9301    1.4782    0.0000 H   0  0  0  0  0  0  0  0  0  0  0  0
   -6.9280   -0.8000    0.0000 C   0  0  0  0  0  0  0  0  0  0  0  0
   -6.3158   -2.2782    0.0000 H   0  0  0  0  0  0  0  0  0  0  0  0
   -7.5403   -2.2782    0.0000 H   0  0  0  0  0  0  0  0  0  0  0  0
   -8.3137    0.0000    0.0000 C   0  0  0  0  0  0  0  0  0  0  0  0
   -8.9259    1.4782    0.0000 H   0  0  0  0  0  0  0  0  0  0  0  0
   -7.7014    1.4782    0.0000 H   0  0  0  0  0  0  0  0  0  0  0  0
   -9.6994   -0.8000    0.0000 C   0  0  0  0  0  0  0  0  0  0  0  0
   -9.0871   -2.2782    0.0000 H   0  0  0  0  0  0  0  0  0  0  0  0
  -10.3116   -2.2782    0.0000 H   0  0  0  0  0  0  0  0  0  0  0  0
  -11.0850    0.0000    0.0000 C   0  0  0  0  0  0  0  0  0  0  0  0
  -11.6973    1.4782    0.0000 H   0  0  0  0  0  0  0  0  0  0  0  0
  -10.4728    1.4782    0.0000 H   0  0  0  0  0  0  0  0  0  0  0  0
  -12.4707   -0.8000    0.0000 C   0  0  0  0  0  0  0  0  0  0  0  0
  -11.8584   -2.2782    0.0000 H   0  0  0  0  0  0  0  0  0  0  0  0
  -13.0829   -2.2782    0.0000 H   0  0  0  0  0  0  0  0  0  0  0  0
  -13.8563    0.0000    0.0000 C   0  0  0  0  0  0  0  0  0  0  0  0
  -14.4686    1.4782    0.0000 H   0  0  0  0  0  0  0  0  0  0  0  0
  -13.2441    1.4782    0.0000 H   0  0  0  0  0  0  0  0  0  0  0  0
  -15.2420   -0.8000    0.0000 N   0  0  0  0  0  0  0  0  0  0  0  0
  -15.2420   -2.4000    0.0000 H   0  0  0  0  0  0  0  0  0  0  0  0
  -16.6277    0.0000    0.0000 C   0  0  0  0  0  0  0  0  0  0  0  0
  -16.6277    1.6000    0.0000 O   0  0  0  0  0  0  0  0  0  0  0  0
  -18.0133   -0.8000    0.0000 N   0  0  0  0  0  0  0  0  0  0  0  0
  -19.6132   -0.8000    0.0000 C   0  0  0  0  0  0  0  0  0  0  0  0
  -19.8914    0.7757    0.0000 H   0  0  0  0  0  0  0  0  0  0  0  0
  -21.1168   -1.3472    0.0000 H   0  0  0  0  0  0  0  0  0  0  0  0
  -18.8133   -2.1856    0.0000 C   0  0  0  0  0  0  0  0  0  0  0  0
  -20.0388   -3.2141    0.0000 H   0  0  0  0  0  0  0  0  0  0  0  0
  -17.5878   -3.2141    0.0000 H   0  0  0  0  0  0  0  0  0  0  0  0
  1  2  1  0  0  0  0
  1  3  1  0  0  0  0
  1  4  1  0  0  0  0
  1  5  1  0  0  0  0
  5  6  1  0  0  0  0
  5  7  1  0  0  0  0
  5  8  1  0  0  0  0
  8  9  1  0  0  0  0
  8 10  1  0  0  0  0
  8 11  1  0  0  0  0
 11 12  1  0  0  0  0
 11 13  1  0  0  0  0
 11 14  1  0  0  0  0
 14 15  1  0  0  0  0
 14 16  1  0  0  0  0
 14 17  1  0  0  0  0
 17 18  1  0  0  0  0
 17 19  1  0  0  0  0
 17 20  1  0  0  0  0
 20 21  1  0  0  0  0
 20 22  1  0  0  0  0
 20 23  1  0  0  0  0
 23 24  1  0  0  0  0
 23 25  1  0  0  0  0
 23 26  1  0  0  0  0
 26 27  1  0  0  0  0
 26 28  1  0  0  0  0
 26 29  1  0  0  0  0
 29 30  1  0  0  0  0
 29 31  1  0  0  0  0
 29 32  1  0  0  0  0
 32 33  1  0  0  0  0
 32 34  1  0  0  0  0
 32 35  1  0  0  0  0
 35 36  1  0  0  0  0
 35 37  1  0  0  0  0
 35 38  1  0  0  0  0
 38 39  1  0  0  0  0
 38 40  1  0  0  0  0
 38 41  1  0  0  0  0
 41 42  1  0  0  0  0
 41 43  1  0  0  0  0
 41 44  1  0  0  0  0
 44 45  1  0  0  0  0
 44 46  1  0  0  0  0
 44 47  1  0  0  0  0
 47 48  1  0  0  0  0
 47 49  1  0  0  0  0
 47 50  1  0  0  0  0
 50 51  1  0  0  0  0
 50 52  1  0  0  0  0
 50 53  1  0  0  0  0
 53 54  1  0  0  0  0
 53 55  1  0  0  0  0
 53 56  1  0  0  0  0
 56 57  1  0  0  0  0
 56 58  1  0  0  0  0
 58 59  2  0  0  0  0
 58 60  1  0  0  0  0
 60 61  1  0  0  0  0
 61 62  1  0  0  0  0
 61 63  1  0  0  0  0
 61 64  1  0  0  0  0
 64 60  1  0  0  0  0
 64 65  1  0  0  0  0
 64 66  1  0  0  0  0
M  END
> <ChemID>
201629

> <source_casrn>
3891-29-0

> <CAS>
3891-29-0

> <SMILES>
CCCCCCCCCCCCCCCCCCNC(=O)N1CC1

> <NAME>


> <preferred_name>
1-Aziridinecarboxamide, N-octadecyl-

> <iupac>
N-Octadecylaziridine-1-carboxamide

> <MPID>
101385

> <dsstox_substance_id>
DTXSID6063226

> <Canonical_QSARr>
CCCCCCCCCCCCCCCCCCNC(=O)N1CC1

> <InChI_Code_QSARr>
InChI=1S/C21H42N2O/c1-2-3-4-5-6-7-8-9-10-11-12-13-14-15-16-17-18-22-21(24)23-19-20-23/h2-20H2,1H3,(H,22,24)

> <InChI Key_QSARr>
MEMUMYCLWQPAEX-UHFFFAOYSA-N

> <Salt_Solvent>


> <Ready_Biodeg>
0.0

$$$$
201632
  -INDIGO-08031722522D

169168  0  0  0  0  0  0  0  0999 V2000
    8.7998    4.1570    0.0000 C   0  0  0  0  0  0  0  0  0  0  0  0
   10.4000    4.1570    0.0000 H   0  0  0  0  0  0  0  0  0  0  0  0
    9.6003    5.5426    0.0000 H   0  0  0  0  0  0  0  0  0  0  0  0
    9.6003    2.7713    0.0000 H   0  0  0  0  0  0  0  0  0  0  0  0
    7.2003    4.1570    0.0000 C   0  0  0  0  0  0  0  0  0  0  0  0
    6.9910    5.7432    0.0000 H   0  0  0  0  0  0  0  0  0  0  0  0
    5.9307    5.1310    0.0000 H   0  0  0  0  0  0  0  0  0  0  0  0
    6.3998    2.7713    0.0000 C   0  0  0  0  0  0  0  0  0  0  0  0
    6.6090    1.1852    0.0000 H   0  0  0  0  0  0  0  0  0  0  0  0
    7.6694    1.7973    0.0000 H   0  0  0  0  0  0  0  0  0  0  0  0
    4.8003    2.7713    0.0000 C   0  0  0  0  0  0  0  0  0  0  0  0
    4.5911    4.3575    0.0000 H   0  0  0  0  0  0  0  0  0  0  0  0
    3.5307    3.7453    0.0000 H   0  0  0  0  0  0  0  0  0  0  0  0
    3.9998    1.3857    0.0000 C   0  0  0  0  0  0  0  0  0  0  0  0
    4.2091   -0.2005    0.0000 H   0  0  0  0  0  0  0  0  0  0  0  0
    5.2694    0.4117    0.0000 H   0  0  0  0  0  0  0  0  0  0  0  0
    2.4003    1.3857    0.0000 C   0  0  0  0  0  0  0  0  0  0  0  0
    2.1911    2.9719    0.0000 H   0  0  0  0  0  0  0  0  0  0  0  0
    1.1307    2.3597    0.0000 H   0  0  0  0  0  0  0  0  0  0  0  0
    1.5998    0.0001    0.0000 C   0  0  0  0  0  0  0  0  0  0  0  0
    1.8091   -1.5861    0.0000 H   0  0  0  0  0  0  0  0  0  0  0  0
    2.8694   -0.9739    0.0000 H   0  0  0  0  0  0  0  0  0  0  0  0
    0.0004    0.0001    0.0000 C   0  0  0  0  0  0  0  0  0  0  0  0
   -0.2089    1.5863    0.0000 H   0  0  0  0  0  0  0  0  0  0  0  0
   -1.2693    0.9741    0.0000 H   0  0  0  0  0  0  0  0  0  0  0  0
   -0.8001   -1.3855    0.0000 C   0  0  0  0  0  0  0  0  0  0  0  0
   -0.5909   -2.9717    0.0000 H   0  0  0  0  0  0  0  0  0  0  0  0
    0.4695   -2.3595    0.0000 H   0  0  0  0  0  0  0  0  0  0  0  0
   -2.4004   -1.3855    0.0000 C   0  0  0  0  0  0  0  0  0  0  0  0
   -2.6089    0.2007    0.0000 H   0  0  0  0  0  0  0  0  0  0  0  0
   -3.6692   -0.4115    0.0000 H   0  0  0  0  0  0  0  0  0  0  0  0
   -3.2001   -2.7711    0.0000 C   0  0  0  0  0  0  0  0  0  0  0  0
   -2.9909   -4.3573    0.0000 H   0  0  0  0  0  0  0  0  0  0  0  0
   -1.9305   -3.7451    0.0000 H   0  0  0  0  0  0  0  0  0  0  0  0
   -4.8003   -2.7711    0.0000 C   0  0  0  0  0  0  0  0  0  0  0  0
   -5.0088   -1.1849    0.0000 H   0  0  0  0  0  0  0  0  0  0  0  0
   -6.0692   -1.7971    0.0000 H   0  0  0  0  0  0  0  0  0  0  0  0
   -5.6001   -4.1567    0.0000 C   0  0  0  0  0  0  0  0  0  0  0  0
   -5.3908   -5.7429    0.0000 H   0  0  0  0  0  0  0  0  0  0  0  0
   -4.3305   -5.1307    0.0000 H   0  0  0  0  0  0  0  0  0  0  0  0
   -7.2003   -4.1567    0.0000 C   0  0  0  0  0  0  0  0  0  0  0  0
   -7.4088   -2.5706    0.0000 H   0  0  0  0  0  0  0  0  0  0  0  0
   -8.4692   -3.1828    0.0000 H   0  0  0  0  0  0  0  0  0  0  0  0
   -8.0001   -5.5424    0.0000 C   0  0  0  0  0  0  0  0  0  0  0  0
   -7.7908   -7.1286    0.0000 H   0  0  0  0  0  0  0  0  0  0  0  0
   -6.7305   -6.5164    0.0000 H   0  0  0  0  0  0  0  0  0  0  0  0
   -9.6003   -5.5424    0.0000 C   0  0  0  0  0  0  0  0  0  0  0  0
   -9.8088   -3.9562    0.0000 H   0  0  0  0  0  0  0  0  0  0  0  0
  -10.8692   -4.5684    0.0000 H   0  0  0  0  0  0  0  0  0  0  0  0
  -10.4000   -6.9280    0.0000 C   0  0  0  0  0  0  0  0  0  0  0  0
  -10.1908   -8.5148    0.0000 H   0  0  0  0  0  0  0  0  0  0  0  0
   -9.1304   -7.9020    0.0000 H   0  0  0  0  0  0  0  0  0  0  0  0
  -12.0003   -6.9280    0.0000 C   0  0  0  0  0  0  0  0  0  0  0  0
  -12.2088   -5.3418    0.0000 H   0  0  0  0  0  0  0  0  0  0  0  0
  -13.2691   -5.9540    0.0000 H   0  0  0  0  0  0  0  0  0  0  0  0
  -12.8000   -8.3136    0.0000 O   0  0  0  0  0  0  0  0  0  0  0  0
  -14.4002   -8.3136    0.0000 P   0  0  0  0  0  0  0  0  0  0  0  0
  -15.2000   -9.6992    0.0000 O   0  0  0  0  0  0  0  0  0  0  0  0
  -14.4002  -11.0848    0.0000 C   0  0  0  0  0  0  0  0  0  0  0  0
  -12.9221  -10.4727    0.0000 H   0  0  0  0  0  0  0  0  0  0  0  0
  -12.9221  -11.6977    0.0000 H   0  0  0  0  0  0  0  0  0  0  0  0
  -15.2000  -12.4705    0.0000 C   0  0  0  0  0  0  0  0  0  0  0  0
  -16.6781  -13.0833    0.0000 H   0  0  0  0  0  0  0  0  0  0  0  0
  -16.6781  -11.8583    0.0000 H   0  0  0  0  0  0  0  0  0  0  0  0
  -14.4002  -13.8561    0.0000 C   0  0  0  0  0  0  0  0  0  0  0  0
  -12.9221  -13.2439    0.0000 H   0  0  0  0  0  0  0  0  0  0  0  0
  -12.9221  -14.4689    0.0000 H   0  0  0  0  0  0  0  0  0  0  0  0
  -15.2000  -15.2424    0.0000 C   0  0  0  0  0  0  0  0  0  0  0  0
  -16.6781  -15.8546    0.0000 H   0  0  0  0  0  0  0  0  0  0  0  0
  -16.6781  -14.6295    0.0000 H   0  0  0  0  0  0  0  0  0  0  0  0
  -14.4002  -16.6280    0.0000 C   0  0  0  0  0  0  0  0  0  0  0  0
  -12.9221  -16.0151    0.0000 H   0  0  0  0  0  0  0  0  0  0  0  0
  -12.9221  -17.2402    0.0000 H   0  0  0  0  0  0  0  0  0  0  0  0
  -15.2000  -18.0136    0.0000 C   0  0  0  0  0  0  0  0  0  0  0  0
  -16.6781  -18.6258    0.0000 H   0  0  0  0  0  0  0  0  0  0  0  0
  -16.6781  -17.4008    0.0000 H   0  0  0  0  0  0  0  0  0  0  0  0
  -14.4002  -19.3992    0.0000 C   0  0  0  0  0  0  0  0  0  0  0  0
  -12.9221  -18.7864    0.0000 H   0  0  0  0  0  0  0  0  0  0  0  0
  -12.9221  -20.0114    0.0000 H   0  0  0  0  0  0  0  0  0  0  0  0
  -15.2000  -20.7848    0.0000 C   0  0  0  0  0  0  0  0  0  0  0  0
  -16.6781  -21.3970    0.0000 H   0  0  0  0  0  0  0  0  0  0  0  0
  -16.6781  -20.1720    0.0000 H   0  0  0  0  0  0  0  0  0  0  0  0
  -14.4002  -22.1705    0.0000 C   0  0  0  0  0  0  0  0  0  0  0  0
  -12.9221  -21.5583    0.0000 H   0  0  0  0  0  0  0  0  0  0  0  0
  -12.9221  -22.7827    0.0000 H   0  0  0  0  0  0  0  0  0  0  0  0
  -15.2000  -23.5561    0.0000 C   0  0  0  0  0  0  0  0  0  0  0  0
  -16.6781  -24.1683    0.0000 H   0  0  0  0  0  0  0  0  0  0  0  0
  -16.6781  -22.9439    0.0000 H   0  0  0  0  0  0  0  0  0  0  0  0
  -14.4002  -24.9417    0.0000 C   0  0  0  0  0  0  0  0  0  0  0  0
  -12.9221  -24.3295    0.0000 H   0  0  0  0  0  0  0  0  0  0  0  0
  -12.9221  -25.5539    0.0000 H   0  0  0  0  0  0  0  0  0  0  0  0
  -15.2000  -26.3273    0.0000 C   0  0  0  0  0  0  0  0  0  0  0  0
  -16.6781  -26.9395    0.0000 H   0  0  0  0  0  0  0  0  0  0  0  0
  -16.6781  -25.7151    0.0000 H   0  0  0  0  0  0  0  0  0  0  0  0
  -14.4002  -27.7129    0.0000 C   0  0  0  0  0  0  0  0  0  0  0  0
  -12.9221  -27.1008    0.0000 H   0  0  0  0  0  0  0  0  0  0  0  0
  -12.9221  -28.3251    0.0000 H   0  0  0  0  0  0  0  0  0  0  0  0
  -15.2000  -29.0986    0.0000 C   0  0  0  0  0  0  0  0  0  0  0  0
  -16.6781  -29.7108    0.0000 H   0  0  0  0  0  0  0  0  0  0  0  0
  -16.6781  -28.4864    0.0000 H   0  0  0  0  0  0  0  0  0  0  0  0
  -14.4002  -30.4842    0.0000 C   0  0  0  0  0  0  0  0  0  0  0  0
  -12.9221  -29.8720    0.0000 H   0  0  0  0  0  0  0  0  0  0  0  0
  -12.9221  -31.0964    0.0000 H   0  0  0  0  0  0  0  0  0  0  0  0
  -15.2000  -31.8698    0.0000 C   0  0  0  0  0  0  0  0  0  0  0  0
  -16.6781  -32.4820    0.0000 H   0  0  0  0  0  0  0  0  0  0  0  0
  -16.6781  -31.2576    0.0000 H   0  0  0  0  0  0  0  0  0  0  0  0
  -14.4002  -33.2554    0.0000 C   0  0  0  0  0  0  0  0  0  0  0  0
  -12.9221  -32.6432    0.0000 H   0  0  0  0  0  0  0  0  0  0  0  0
  -12.9221  -33.8676    0.0000 H   0  0  0  0  0  0  0  0  0  0  0  0
  -15.2000  -34.6410    0.0000 C   0  0  0  0  0  0  0  0  0  0  0  0
  -15.9997  -36.0267    0.0000 H   0  0  0  0  0  0  0  0  0  0  0  0
  -14.4002  -36.0267    0.0000 H   0  0  0  0  0  0  0  0  0  0  0  0
  -16.8002  -34.6410    0.0000 H   0  0  0  0  0  0  0  0  0  0  0  0
  -15.2000   -6.9280    0.0000 O   0  0  0  0  0  0  0  0  0  0  0  0
  -16.8002   -6.9280    0.0000 C   0  0  0  0  0  0  0  0  0  0  0  0
  -18.0691   -7.9020    0.0000 H   0  0  0  0  0  0  0  0  0  0  0  0
  -17.0087   -8.5148    0.0000 H   0  0  0  0  0  0  0  0  0  0  0  0
  -17.6000   -5.5424    0.0000 C   0  0  0  0  0  0  0  0  0  0  0  0
  -16.3304   -4.5684    0.0000 H   0  0  0  0  0  0  0  0  0  0  0  0
  -17.3915   -3.9562    0.0000 H   0  0  0  0  0  0  0  0  0  0  0  0
  -19.2002   -5.5424    0.0000 C   0  0  0  0  0  0  0  0  0  0  0  0
  -20.4691   -6.5164    0.0000 H   0  0  0  0  0  0  0  0  0  0  0  0
  -19.4087   -7.1286    0.0000 H   0  0  0  0  0  0  0  0  0  0  0  0
  -19.9999   -4.1567    0.0000 C   0  0  0  0  0  0  0  0  0  0  0  0
  -18.7303   -3.1828    0.0000 H   0  0  0  0  0  0  0  0  0  0  0  0
  -19.7914   -2.5706    0.0000 H   0  0  0  0  0  0  0  0  0  0  0  0
  -21.6002   -4.1567    0.0000 C   0  0  0  0  0  0  0  0  0  0  0  0
  -22.8690   -5.1307    0.0000 H   0  0  0  0  0  0  0  0  0  0  0  0
  -21.8087   -5.7429    0.0000 H   0  0  0  0  0  0  0  0  0  0  0  0
  -22.3999   -2.7711    0.0000 C   0  0  0  0  0  0  0  0  0  0  0  0
  -21.1303   -1.7971    0.0000 H   0  0  0  0  0  0  0  0  0  0  0  0
  -22.1914   -1.1849    0.0000 H   0  0  0  0  0  0  0  0  0  0  0  0
  -24.0002   -2.7711    0.0000 C   0  0  0  0  0  0  0  0  0  0  0  0
  -25.2690   -3.7451    0.0000 H   0  0  0  0  0  0  0  0  0  0  0  0
  -24.2087   -4.3573    0.0000 H   0  0  0  0  0  0  0  0  0  0  0  0
  -24.7999   -1.3855    0.0000 C   0  0  0  0  0  0  0  0  0  0  0  0
  -23.5303   -0.4115    0.0000 H   0  0  0  0  0  0  0  0  0  0  0  0
  -24.5914    0.2007    0.0000 H   0  0  0  0  0  0  0  0  0  0  0  0
  -26.4001   -1.3855    0.0000 C   0  0  0  0  0  0  0  0  0  0  0  0
  -27.6697   -2.3595    0.0000 H   0  0  0  0  0  0  0  0  0  0  0  0
  -26.6086   -2.9717    0.0000 H   0  0  0  0  0  0  0  0  0  0  0  0
  -27.1999    0.0001    0.0000 C   0  0  0  0  0  0  0  0  0  0  0  0
  -25.9310    0.9741    0.0000 H   0  0  0  0  0  0  0  0  0  0  0  0
  -26.9914    1.5863    0.0000 H   0  0  0  0  0  0  0  0  0  0  0  0
  -28.8001    0.0001    0.0000 C   0  0  0  0  0  0  0  0  0  0  0  0
  -30.0697   -0.9739    0.0000 H   0  0  0  0  0  0  0  0  0  0  0  0
  -29.0086   -1.5861    0.0000 H   0  0  0  0  0  0  0  0  0  0  0  0
  -29.5998    1.3857    0.0000 C   0  0  0  0  0  0  0  0  0  0  0  0
  -28.3310    2.3597    0.0000 H   0  0  0  0  0  0  0  0  0  0  0  0
  -29.3913    2.9719    0.0000 H   0  0  0  0  0  0  0  0  0  0  0  0
  -31.2001    1.3857    0.0000 C   0  0  0  0  0  0  0  0  0  0  0  0
  -32.4697    0.4117    0.0000 H   0  0  0  0  0  0  0  0  0  0  0  0
  -31.4086   -0.2005    0.0000 H   0  0  0  0  0  0  0  0  0  0  0  0
  -31.9998    2.7713    0.0000 C   0  0  0  0  0  0  0  0  0  0  0  0
  -30.7310    3.7453    0.0000 H   0  0  0  0  0  0  0  0  0  0  0  0
  -31.7913    4.3575    0.0000 H   0  0  0  0  0  0  0  0  0  0  0  0
  -33.6001    2.7713    0.0000 C   0  0  0  0  0  0  0  0  0  0  0  0
  -34.8697    1.7973    0.0000 H   0  0  0  0  0  0  0  0  0  0  0  0
  -33.8086    1.1852    0.0000 H   0  0  0  0  0  0  0  0  0  0  0  0
  -34.3998    4.1570    0.0000 C   0  0  0  0  0  0  0  0  0  0  0  0
  -33.1309    5.1310    0.0000 H   0  0  0  0  0  0  0  0  0  0  0  0
  -34.1913    5.7432    0.0000 H   0  0  0  0  0  0  0  0  0  0  0  0
  -36.0000    4.1570    0.0000 C   0  0  0  0  0  0  0  0  0  0  0  0
  -37.2696    3.1830    0.0000 H   0  0  0  0  0  0  0  0  0  0  0  0
  -36.2085    2.5708    0.0000 H   0  0  0  0  0  0  0  0  0  0  0  0
  -36.7998    5.5426    0.0000 C   0  0  0  0  0  0  0  0  0  0  0  0
  -37.6003    6.9282    0.0000 H   0  0  0  0  0  0  0  0  0  0  0  0
  -38.4000    5.5426    0.0000 H   0  0  0  0  0  0  0  0  0  0  0  0
  -36.0000    6.9282    0.0000 H   0  0  0  0  0  0  0  0  0  0  0  0
  1  2  1  0  0  0  0
  1  3  1  0  0  0  0
  1  4  1  0  0  0  0
  1  5  1  0  0  0  0
  5  6  1  0  0  0  0
  5  7  1  0  0  0  0
  5  8  1  0  0  0  0
  8  9  1  0  0  0  0
  8 10  1  0  0  0  0
  8 11  1  0  0  0  0
 11 12  1  0  0  0  0
 11 13  1  0  0  0  0
 11 14  1  0  0  0  0
 14 15  1  0  0  0  0
 14 16  1  0  0  0  0
 14 17  1  0  0  0  0
 17 18  1  0  0  0  0
 17 19  1  0  0  0  0
 17 20  1  0  0  0  0
 20 21  1  0  0  0  0
 20 22  1  0  0  0  0
 20 23  1  0  0  0  0
 23 24  1  0  0  0  0
 23 25  1  0  0  0  0
 23 26  1  0  0  0  0
 26 27  1  0  0  0  0
 26 28  1  0  0  0  0
 26 29  1  0  0  0  0
 29 30  1  0  0  0  0
 29 31  1  0  0  0  0
 29 32  1  0  0  0  0
 32 33  1  0  0  0  0
 32 34  1  0  0  0  0
 32 35  1  0  0  0  0
 35 36  1  0  0  0  0
 35 37  1  0  0  0  0
 35 38  1  0  0  0  0
 38 39  1  0  0  0  0
 38 40  1  0  0  0  0
 38 41  1  0  0  0  0
 41 42  1  0  0  0  0
 41 43  1  0  0  0  0
 41 44  1  0  0  0  0
 44 45  1  0  0  0  0
 44 46  1  0  0  0  0
 44 47  1  0  0  0  0
 47 48  1  0  0  0  0
 47 49  1  0  0  0  0
 47 50  1  0  0  0  0
 50 51  1  0  0  0  0
 50 52  1  0  0  0  0
 50 53  1  0  0  0  0
 53 54  1  0  0  0  0
 53 55  1  0  0  0  0
 53 56  1  0  0  0  0
 56 57  1  0  0  0  0
 57 58  1  0  0  0  0
 58 59  1  0  0  0  0
 59 60  1  0  0  0  0
 59 61  1  0  0  0  0
 59 62  1  0  0  0  0
 62 63  1  0  0  0  0
 62 64  1  0  0  0  0
 62 65  1  0  0  0  0
 65 66  1  0  0  0  0
 65 67  1  0  0  0  0
 65 68  1  0  0  0  0
 68 69  1  0  0  0  0
 68 70  1  0  0  0  0
 68 71  1  0  0  0  0
 71 72  1  0  0  0  0
 71 73  1  0  0  0  0
 71 74  1  0  0  0  0
 74 75  1  0  0  0  0
 74 76  1  0  0  0  0
 74 77  1  0  0  0  0
 77 78  1  0  0  0  0
 77 79  1  0  0  0  0
 77 80  1  0  0  0  0
 80 81  1  0  0  0  0
 80 82  1  0  0  0  0
 80 83  1  0  0  0  0
 83 84  1  0  0  0  0
 83 85  1  0  0  0  0
 83 86  1  0  0  0  0
 86 87  1  0  0  0  0
 86 88  1  0  0  0  0
 86 89  1  0  0  0  0
 89 90  1  0  0  0  0
 89 91  1  0  0  0  0
 89 92  1  0  0  0  0
 92 93  1  0  0  0  0
 92 94  1  0  0  0  0
 92 95  1  0  0  0  0
 95 96  1  0  0  0  0
 95 97  1  0  0  0  0
 95 98  1  0  0  0  0
 98 99  1  0  0  0  0
 98100  1  0  0  0  0
 98101  1  0  0  0  0
101102  1  0  0  0  0
101103  1  0  0  0  0
101104  1  0  0  0  0
104105  1  0  0  0  0
104106  1  0  0  0  0
104107  1  0  0  0  0
107108  1  0  0  0  0
107109  1  0  0  0  0
107110  1  0  0  0  0
110111  1  0  0  0  0
110112  1  0  0  0  0
110113  1  0  0  0  0
 57114  1  0  0  0  0
114115  1  0  0  0  0
115116  1  0  0  0  0
115117  1  0  0  0  0
115118  1  0  0  0  0
118119  1  0  0  0  0
118120  1  0  0  0  0
118121  1  0  0  0  0
121122  1  0  0  0  0
121123  1  0  0  0  0
121124  1  0  0  0  0
124125  1  0  0  0  0
124126  1  0  0  0  0
124127  1  0  0  0  0
127128  1  0  0  0  0
127129  1  0  0  0  0
127130  1  0  0  0  0
130131  1  0  0  0  0
130132  1  0  0  0  0
130133  1  0  0  0  0
133134  1  0  0  0  0
133135  1  0  0  0  0
133136  1  0  0  0  0
136137  1  0  0  0  0
136138  1  0  0  0  0
136139  1  0  0  0  0
139140  1  0  0  0  0
139141  1  0  0  0  0
139142  1  0  0  0  0
142143  1  0  0  0  0
142144  1  0  0  0  0
142145  1  0  0  0  0
145146  1  0  0  0  0
145147  1  0  0  0  0
145148  1  0  0  0  0
148149  1  0  0  0  0
148150  1  0  0  0  0
148151  1  0  0  0  0
151152  1  0  0  0  0
151153  1  0  0  0  0
151154  1  0  0  0  0
154155  1  0  0  0  0
154156  1  0  0  0  0
154157  1  0  0  0  0
157158  1  0  0  0  0
157159  1  0  0  0  0
157160  1  0  0  0  0
160161  1  0  0  0  0
160162  1  0  0  0  0
160163  1  0  0  0  0
163164  1  0  0  0  0
163165  1  0  0  0  0
163166  1  0  0  0  0
166167  1  0  0  0  0
166168  1  0  0  0  0
166169  1  0  0  0  0
M  END
> <ChemID>
201632

> <source_casrn>


> <CAS>
2082-80-6

> <SMILES>
CCCCCCCCCCCCCCCCCCOP(OCCCCCCCCCCCCCCCCCC)OCCCCCCCCCCCCCCCCCC

> <NAME>


> <preferred_name>


> <iupac>


> <MPID>
101387

> <dsstox_substance_id>


> <Canonical_QSARr>
CCCCCCCCCCCCCCCCCCOP(OCCCCCCCCCCCCCCCCCC)OCCCCCCCCCCCCCCCCCC

> <InChI_Code_QSARr>
InChI=1S/C54H111O3P/c1-4-7-10-13-16-19-22-25-28-31-34-37-40-43-46-49-52-55-58(56-53-50-47-44-41-38-35-32-29-26-23-20-17-14-11-8-5-2)57-54-51-48-45-42-39-36-33-30-27-24-21-18-15-12-9-6-3/h4-54H2,1-3H3

> <InChI Key_QSARr>
CNUJLMSKURPSHE-UHFFFAOYSA-N

> <Salt_Solvent>


> <Ready_Biodeg>
1.0

$$$$
201637
  -INDIGO-08031722522D

 96 96  0  0  0  0  0  0  0  0999 V2000
    7.2002    4.1570    0.0000 C   0  0  0  0  0  0  0  0  0  0  0  0
    7.9998    5.5426    0.0000 H   0  0  0  0  0  0  0  0  0  0  0  0
    8.8000    4.1570    0.0000 H   0  0  0  0  0  0  0  0  0  0  0  0
    6.4001    5.5426    0.0000 H   0  0  0  0  0  0  0  0  0  0  0  0
    6.4001    2.7714    0.0000 C   0  0  0  0  0  0  0  0  0  0  0  0
    6.6088    1.1849    0.0000 H   0  0  0  0  0  0  0  0  0  0  0  0
    7.6696    1.7974    0.0000 H   0  0  0  0  0  0  0  0  0  0  0  0
    4.8003    2.7714    0.0000 C   0  0  0  0  0  0  0  0  0  0  0  0
    4.5910    4.3577    0.0000 H   0  0  0  0  0  0  0  0  0  0  0  0
    3.5308    3.7452    0.0000 H   0  0  0  0  0  0  0  0  0  0  0  0
    4.0001    1.3856    0.0000 C   0  0  0  0  0  0  0  0  0  0  0  0
    4.2089   -0.2007    0.0000 H   0  0  0  0  0  0  0  0  0  0  0  0
    5.2691    0.4115    0.0000 H   0  0  0  0  0  0  0  0  0  0  0  0
    2.3998    1.3856    0.0000 C   0  0  0  0  0  0  0  0  0  0  0  0
    2.1910    2.9718    0.0000 H   0  0  0  0  0  0  0  0  0  0  0  0
    1.1308    2.3596    0.0000 H   0  0  0  0  0  0  0  0  0  0  0  0
    1.6002    0.0000    0.0000 C   0  0  0  0  0  0  0  0  0  0  0  0
    1.8089   -1.5863    0.0000 H   0  0  0  0  0  0  0  0  0  0  0  0
    2.8691   -0.9740    0.0000 H   0  0  0  0  0  0  0  0  0  0  0  0
   -0.0002    0.0000    0.0000 C   0  0  0  0  0  0  0  0  0  0  0  0
   -0.2089    1.5863    0.0000 H   0  0  0  0  0  0  0  0  0  0  0  0
   -1.2691    0.9740    0.0000 H   0  0  0  0  0  0  0  0  0  0  0  0
   -0.7998   -1.3856    0.0000 C   0  0  0  0  0  0  0  0  0  0  0  0
   -0.5910   -2.9718    0.0000 H   0  0  0  0  0  0  0  0  0  0  0  0
    0.4692   -2.3596    0.0000 H   0  0  0  0  0  0  0  0  0  0  0  0
   -2.4001   -1.3856    0.0000 C   0  0  0  0  0  0  0  0  0  0  0  0
   -2.6089    0.2007    0.0000 H   0  0  0  0  0  0  0  0  0  0  0  0
   -3.6691   -0.4115    0.0000 H   0  0  0  0  0  0  0  0  0  0  0  0
   -3.1997   -2.7714    0.0000 C   0  0  0  0  0  0  0  0  0  0  0  0
   -2.9910   -4.3577    0.0000 H   0  0  0  0  0  0  0  0  0  0  0  0
   -1.9308   -3.7452    0.0000 H   0  0  0  0  0  0  0  0  0  0  0  0
   -4.8001   -2.7712    0.0000 C   0  0  0  0  0  0  0  0  0  0  0  0
   -5.0088   -1.1849    0.0000 H   0  0  0  0  0  0  0  0  0  0  0  0
   -6.0696   -1.7974    0.0000 H   0  0  0  0  0  0  0  0  0  0  0  0
   -5.6002   -4.1570    0.0000 C   0  0  0  0  0  0  0  0  0  0  0  0
   -5.3909   -5.7433    0.0000 H   0  0  0  0  0  0  0  0  0  0  0  0
   -4.3307   -5.1310    0.0000 H   0  0  0  0  0  0  0  0  0  0  0  0
   -7.2000   -4.1570    0.0000 C   0  0  0  0  0  0  0  0  0  0  0  0
   -7.4087   -2.5707    0.0000 H   0  0  0  0  0  0  0  0  0  0  0  0
   -8.4696   -3.1829    0.0000 H   0  0  0  0  0  0  0  0  0  0  0  0
   -8.0002   -5.5426    0.0000 O   0  0  0  0  0  0  0  0  0  0  0  0
   -9.5999   -5.5426    0.0000 C   0  0  0  0  0  0  0  0  0  0  0  0
  -10.4001   -4.1570    0.0000 O   0  0  0  0  0  0  0  0  0  0  0  0
  -10.4001   -6.9281    0.0000 C   0  0  0  0  0  0  0  0  0  0  0  0
   -9.5999   -8.3140    0.0000 C   0  0  0  0  0  0  0  0  0  0  0  0
   -8.0002   -8.3140    0.0000 H   0  0  0  0  0  0  0  0  0  0  0  0
  -10.4001   -9.6995    0.0000 C   0  0  0  0  0  0  0  0  0  0  0  0
   -9.5999  -11.0851    0.0000 H   0  0  0  0  0  0  0  0  0  0  0  0
  -11.9999   -9.6995    0.0000 C   0  0  0  0  0  0  0  0  0  0  0  0
  -12.8001  -11.0851    0.0000 H   0  0  0  0  0  0  0  0  0  0  0  0
  -12.8001   -8.3140    0.0000 C   0  0  0  0  0  0  0  0  0  0  0  0
  -14.3998   -8.3140    0.0000 H   0  0  0  0  0  0  0  0  0  0  0  0
  -11.9999   -6.9281    0.0000 C   0  0  0  0  0  0  0  0  0  0  0  0
  -12.8001   -5.5426    0.0000 C   0  0  0  0  0  0  0  0  0  0  0  0
  -11.9999   -4.1570    0.0000 O   0  0  0  0  0  0  0  0  0  0  0  0
  -14.3998   -5.5426    0.0000 O   0  0  0  0  0  0  0  0  0  0  0  0
  -15.2000   -4.1570    0.0000 C   0  0  0  0  0  0  0  0  0  0  0  0
  -13.9305   -3.1829    0.0000 H   0  0  0  0  0  0  0  0  0  0  0  0
  -14.9913   -2.5707    0.0000 H   0  0  0  0  0  0  0  0  0  0  0  0
  -16.7998   -4.1570    0.0000 C   0  0  0  0  0  0  0  0  0  0  0  0
  -18.0693   -5.1310    0.0000 H   0  0  0  0  0  0  0  0  0  0  0  0
  -17.0091   -5.7433    0.0000 H   0  0  0  0  0  0  0  0  0  0  0  0
  -17.5999   -2.7712    0.0000 C   0  0  0  0  0  0  0  0  0  0  0  0
  -16.3304   -1.7974    0.0000 H   0  0  0  0  0  0  0  0  0  0  0  0
  -17.3912   -1.1849    0.0000 H   0  0  0  0  0  0  0  0  0  0  0  0
  -19.1997   -2.7712    0.0000 C   0  0  0  0  0  0  0  0  0  0  0  0
  -20.4692   -3.7452    0.0000 H   0  0  0  0  0  0  0  0  0  0  0  0
  -19.4090   -4.3577    0.0000 H   0  0  0  0  0  0  0  0  0  0  0  0
  -19.9999   -1.3856    0.0000 C   0  0  0  0  0  0  0  0  0  0  0  0
  -18.7309   -0.4115    0.0000 H   0  0  0  0  0  0  0  0  0  0  0  0
  -19.7911    0.2007    0.0000 H   0  0  0  0  0  0  0  0  0  0  0  0
  -21.6002   -1.3856    0.0000 C   0  0  0  0  0  0  0  0  0  0  0  0
  -22.8692   -2.3596    0.0000 H   0  0  0  0  0  0  0  0  0  0  0  0
  -21.8090   -2.9718    0.0000 H   0  0  0  0  0  0  0  0  0  0  0  0
  -22.3998    0.0000    0.0000 C   0  0  0  0  0  0  0  0  0  0  0  0
  -21.1309    0.9740    0.0000 H   0  0  0  0  0  0  0  0  0  0  0  0
  -22.1911    1.5863    0.0000 H   0  0  0  0  0  0  0  0  0  0  0  0
  -24.0002    0.0000    0.0000 C   0  0  0  0  0  0  0  0  0  0  0  0
  -25.2691   -0.9740    0.0000 H   0  0  0  0  0  0  0  0  0  0  0  0
  -24.2089   -1.5863    0.0000 H   0  0  0  0  0  0  0  0  0  0  0  0
  -24.7998    1.3856    0.0000 C   0  0  0  0  0  0  0  0  0  0  0  0
  -23.5308    2.3596    0.0000 H   0  0  0  0  0  0  0  0  0  0  0  0
  -24.5910    2.9718    0.0000 H   0  0  0  0  0  0  0  0  0  0  0  0
  -26.4001    1.3856    0.0000 C   0  0  0  0  0  0  0  0  0  0  0  0
  -27.6691    0.4115    0.0000 H   0  0  0  0  0  0  0  0  0  0  0  0
  -26.6089   -0.2007    0.0000 H   0  0  0  0  0  0  0  0  0  0  0  0
  -27.1997    2.7714    0.0000 C   0  0  0  0  0  0  0  0  0  0  0  0
  -25.9308    3.7452    0.0000 H   0  0  0  0  0  0  0  0  0  0  0  0
  -26.9910    4.3577    0.0000 H   0  0  0  0  0  0  0  0  0  0  0  0
  -28.8001    2.7714    0.0000 C   0  0  0  0  0  0  0  0  0  0  0  0
  -30.0696    1.7974    0.0000 H   0  0  0  0  0  0  0  0  0  0  0  0
  -29.0088    1.1849    0.0000 H   0  0  0  0  0  0  0  0  0  0  0  0
  -29.6002    4.1570    0.0000 C   0  0  0  0  0  0  0  0  0  0  0  0
  -30.3998    5.5426    0.0000 H   0  0  0  0  0  0  0  0  0  0  0  0
  -31.2000    4.1570    0.0000 H   0  0  0  0  0  0  0  0  0  0  0  0
  -28.8001    5.5426    0.0000 H   0  0  0  0  0  0  0  0  0  0  0  0
  1  2  1  0  0  0  0
  1  3  1  0  0  0  0
  1  4  1  0  0  0  0
  1  5  1  0  0  0  0
  5  6  1  0  0  0  0
  5  7  1  0  0  0  0
  5  8  1  0  0  0  0
  8  9  1  0  0  0  0
  8 10  1  0  0  0  0
  8 11  1  0  0  0  0
 11 12  1  0  0  0  0
 11 13  1  0  0  0  0
 11 14  1  0  0  0  0
 14 15  1  0  0  0  0
 14 16  1  0  0  0  0
 14 17  1  0  0  0  0
 17 18  1  0  0  0  0
 17 19  1  0  0  0  0
 17 20  1  0  0  0  0
 20 21  1  0  0  0  0
 20 22  1  0  0  0  0
 20 23  1  0  0  0  0
 23 24  1  0  0  0  0
 23 25  1  0  0  0  0
 23 26  1  0  0  0  0
 26 27  1  0  0  0  0
 26 28  1  0  0  0  0
 26 29  1  0  0  0  0
 29 30  1  0  0  0  0
 29 31  1  0  0  0  0
 29 32  1  0  0  0  0
 32 33  1  0  0  0  0
 32 34  1  0  0  0  0
 32 35  1  0  0  0  0
 35 36  1  0  0  0  0
 35 37  1  0  0  0  0
 35 38  1  0  0  0  0
 38 39  1  0  0  0  0
 38 40  1  0  0  0  0
 38 41  1  0  0  0  0
 41 42  1  0  0  0  0
 42 43  2  0  0  0  0
 42 44  1  0  0  0  0
 44 45  1  0  0  0  0
 45 46  1  0  0  0  0
 45 47  2  0  0  0  0
 47 48  1  0  0  0  0
 47 49  1  0  0  0  0
 49 50  1  0  0  0  0
 49 51  2  0  0  0  0
 51 52  1  0  0  0  0
 51 53  1  0  0  0  0
 53 44  2  0  0  0  0
 53 54  1  0  0  0  0
 54 55  2  0  0  0  0
 54 56  1  0  0  0  0
 56 57  1  0  0  0  0
 57 58  1  0  0  0  0
 57 59  1  0  0  0  0
 57 60  1  0  0  0  0
 60 61  1  0  0  0  0
 60 62  1  0  0  0  0
 60 63  1  0  0  0  0
 63 64  1  0  0  0  0
 63 65  1  0  0  0  0
 63 66  1  0  0  0  0
 66 67  1  0  0  0  0
 66 68  1  0  0  0  0
 66 69  1  0  0  0  0
 69 70  1  0  0  0  0
 69 71  1  0  0  0  0
 69 72  1  0  0  0  0
 72 73  1  0  0  0  0
 72 74  1  0  0  0  0
 72 75  1  0  0  0  0
 75 76  1  0  0  0  0
 75 77  1  0  0  0  0
 75 78  1  0  0  0  0
 78 79  1  0  0  0  0
 78 80  1  0  0  0  0
 78 81  1  0  0  0  0
 81 82  1  0  0  0  0
 81 83  1  0  0  0  0
 81 84  1  0  0  0  0
 84 85  1  0  0  0  0
 84 86  1  0  0  0  0
 84 87  1  0  0  0  0
 87 88  1  0  0  0  0
 87 89  1  0  0  0  0
 87 90  1  0  0  0  0
 90 91  1  0  0  0  0
 90 92  1  0  0  0  0
 90 93  1  0  0  0  0
 93 94  1  0  0  0  0
 93 95  1  0  0  0  0
 93 96  1  0  0  0  0
M  END
> <ChemID>
201637

> <source_casrn>
119-06-2

> <CAS>
119-06-2

> <SMILES>
CCCCCCCCCCCCCOC(=O)c1ccccc1C(=O)OCCCCCCCCCCCCC

> <NAME>


> <preferred_name>
Ditridecyl phthalate

> <iupac>
ditridecyl benzene-1,2-dicarboxylate

> <MPID>
101389

> <dsstox_substance_id>
DTXSID2025214

> <Canonical_QSARr>
CCCCCCCCCCCCCOC(=O)c1ccccc1C(=O)OCCCCCCCCCCCCC

> <InChI_Code_QSARr>
InChI=1S/C34H58O4/c1-3-5-7-9-11-13-15-17-19-21-25-29-37-33(35)31-27-23-24-28-32(31)34(36)38-30-26-22-20-18-16-14-12-10-8-6-4-2/h23-24,27-28H,3-22,25-26,29-30H2,1-2H3

> <InChI Key_QSARr>
YCZJVRCZIPDYHH-UHFFFAOYSA-N

> <Salt_Solvent>


> <Ready_Biodeg>
0.0

$$$$
201642
  -INDIGO-08031722522D

201200  0  0  0  0  0  0  0  0999 V2000
   19.3593  -15.9144    0.0000 C   0  0  0  0  0  0  0  0  0  0  0  0
   20.9348  -16.1923    0.0000 H   0  0  0  0  0  0  0  0  0  0  0  0
   19.9062  -17.4177    0.0000 H   0  0  0  0  0  0  0  0  0  0  0  0
   20.3873  -14.6884    0.0000 H   0  0  0  0  0  0  0  0  0  0  0  0
   17.7831  -15.6365    0.0000 C   0  0  0  0  0  0  0  0  0  0  0  0
   17.3021  -17.1622    0.0000 H   0  0  0  0  0  0  0  0  0  0  0  0
   16.3642  -16.3750    0.0000 H   0  0  0  0  0  0  0  0  0  0  0  0
   17.2363  -14.1332    0.0000 C   0  0  0  0  0  0  0  0  0  0  0  0
   17.7173  -12.6069    0.0000 H   0  0  0  0  0  0  0  0  0  0  0  0
   18.6552  -13.3940    0.0000 H   0  0  0  0  0  0  0  0  0  0  0  0
   15.6608  -13.8553    0.0000 C   0  0  0  0  0  0  0  0  0  0  0  0
   15.1790  -15.3809    0.0000 H   0  0  0  0  0  0  0  0  0  0  0  0
   14.2411  -14.5938    0.0000 H   0  0  0  0  0  0  0  0  0  0  0  0
   15.1132  -12.3513    0.0000 C   0  0  0  0  0  0  0  0  0  0  0  0
   15.5943  -10.8257    0.0000 H   0  0  0  0  0  0  0  0  0  0  0  0
   16.5322  -11.6128    0.0000 H   0  0  0  0  0  0  0  0  0  0  0  0
   13.5377  -12.0734    0.0000 C   0  0  0  0  0  0  0  0  0  0  0  0
   13.0566  -13.5997    0.0000 H   0  0  0  0  0  0  0  0  0  0  0  0
   12.1181  -12.8126    0.0000 H   0  0  0  0  0  0  0  0  0  0  0  0
   12.9902  -10.5701    0.0000 C   0  0  0  0  0  0  0  0  0  0  0  0
   13.4713   -9.0444    0.0000 H   0  0  0  0  0  0  0  0  0  0  0  0
   14.4098   -9.8315    0.0000 H   0  0  0  0  0  0  0  0  0  0  0  0
   11.4147  -10.2922    0.0000 C   0  0  0  0  0  0  0  0  0  0  0  0
   10.9336  -11.8185    0.0000 H   0  0  0  0  0  0  0  0  0  0  0  0
    9.9951  -11.0314    0.0000 H   0  0  0  0  0  0  0  0  0  0  0  0
   10.8672   -8.7889    0.0000 C   0  0  0  0  0  0  0  0  0  0  0  0
   11.3483   -7.2632    0.0000 H   0  0  0  0  0  0  0  0  0  0  0  0
   12.2868   -8.0503    0.0000 H   0  0  0  0  0  0  0  0  0  0  0  0
    9.2917   -8.5110    0.0000 C   0  0  0  0  0  0  0  0  0  0  0  0
    8.8106  -10.0373    0.0000 H   0  0  0  0  0  0  0  0  0  0  0  0
    7.8727   -9.2495    0.0000 H   0  0  0  0  0  0  0  0  0  0  0  0
    8.7448   -7.0077    0.0000 C   0  0  0  0  0  0  0  0  0  0  0  0
    9.2259   -5.4813    0.0000 H   0  0  0  0  0  0  0  0  0  0  0  0
   10.1638   -6.2685    0.0000 H   0  0  0  0  0  0  0  0  0  0  0  0
    7.1686   -6.7297    0.0000 C   0  0  0  0  0  0  0  0  0  0  0  0
    6.6876   -8.2554    0.0000 H   0  0  0  0  0  0  0  0  0  0  0  0
    5.7497   -7.4683    0.0000 H   0  0  0  0  0  0  0  0  0  0  0  0
    6.6218   -5.2264    0.0000 S   0  0  0  0  0  0  0  0  0  0  0  0
    5.0456   -4.9485    0.0000 C   0  0  0  0  0  0  0  0  0  0  0  0
    4.5645   -6.4742    0.0000 H   0  0  0  0  0  0  0  0  0  0  0  0
    3.6267   -5.6871    0.0000 H   0  0  0  0  0  0  0  0  0  0  0  0
    4.4987   -3.4446    0.0000 C   0  0  0  0  0  0  0  0  0  0  0  0
    4.9798   -1.9189    0.0000 H   0  0  0  0  0  0  0  0  0  0  0  0
    5.9177   -2.7060    0.0000 H   0  0  0  0  0  0  0  0  0  0  0  0
    2.9232   -3.1673    0.0000 C   0  0  0  0  0  0  0  0  0  0  0  0
    1.8946   -4.3927    0.0000 O   0  0  0  0  0  0  0  0  0  0  0  0
    2.3757   -1.6633    0.0000 O   0  0  0  0  0  0  0  0  0  0  0  0
    0.8002   -1.3854    0.0000 C   0  0  0  0  0  0  0  0  0  0  0  0
    0.5913   -2.9718    0.0000 H   0  0  0  0  0  0  0  0  0  0  0  0
   -0.4693   -2.3597    0.0000 H   0  0  0  0  0  0  0  0  0  0  0  0
    0.0003   -0.0003    0.0000 C   0  0  0  0  0  0  0  0  0  0  0  0
   -0.8002    1.3854    0.0000 C   0  0  0  0  0  0  0  0  0  0  0  0
   -0.5913    2.9718    0.0000 H   0  0  0  0  0  0  0  0  0  0  0  0
    0.4693    2.3597    0.0000 H   0  0  0  0  0  0  0  0  0  0  0  0
   -2.3757    1.6633    0.0000 O   0  0  0  0  0  0  0  0  0  0  0  0
   -2.9232    3.1673    0.0000 C   0  0  0  0  0  0  0  0  0  0  0  0
   -1.8946    4.3927    0.0000 O   0  0  0  0  0  0  0  0  0  0  0  0
   -4.4987    3.4446    0.0000 C   0  0  0  0  0  0  0  0  0  0  0  0
   -4.9798    1.9189    0.0000 H   0  0  0  0  0  0  0  0  0  0  0  0
   -5.9177    2.7060    0.0000 H   0  0  0  0  0  0  0  0  0  0  0  0
   -5.0456    4.9485    0.0000 C   0  0  0  0  0  0  0  0  0  0  0  0
   -4.5645    6.4742    0.0000 H   0  0  0  0  0  0  0  0  0  0  0  0
   -3.6267    5.6871    0.0000 H   0  0  0  0  0  0  0  0  0  0  0  0
   -6.6218    5.2264    0.0000 S   0  0  0  0  0  0  0  0  0  0  0  0
   -7.1687    6.7297    0.0000 C   0  0  0  0  0  0  0  0  0  0  0  0
   -6.6876    8.2554    0.0000 H   0  0  0  0  0  0  0  0  0  0  0  0
   -5.7497    7.4683    0.0000 H   0  0  0  0  0  0  0  0  0  0  0  0
   -8.7441    7.0077    0.0000 C   0  0  0  0  0  0  0  0  0  0  0  0
   -9.2259    5.4814    0.0000 H   0  0  0  0  0  0  0  0  0  0  0  0
  -10.1638    6.2685    0.0000 H   0  0  0  0  0  0  0  0  0  0  0  0
   -9.2917    8.5110    0.0000 C   0  0  0  0  0  0  0  0  0  0  0  0
   -8.8106   10.0373    0.0000 H   0  0  0  0  0  0  0  0  0  0  0  0
   -7.8727    9.2495    0.0000 H   0  0  0  0  0  0  0  0  0  0  0  0
  -10.8672    8.7889    0.0000 C   0  0  0  0  0  0  0  0  0  0  0  0
  -11.3483    7.2632    0.0000 H   0  0  0  0  0  0  0  0  0  0  0  0
  -12.2868    8.0503    0.0000 H   0  0  0  0  0  0  0  0  0  0  0  0
  -11.4147   10.2922    0.0000 C   0  0  0  0  0  0  0  0  0  0  0  0
  -10.9336   11.8185    0.0000 H   0  0  0  0  0  0  0  0  0  0  0  0
   -9.9951   11.0314    0.0000 H   0  0  0  0  0  0  0  0  0  0  0  0
  -12.9902   10.5701    0.0000 C   0  0  0  0  0  0  0  0  0  0  0  0
  -13.4713    9.0444    0.0000 H   0  0  0  0  0  0  0  0  0  0  0  0
  -14.4098    9.8315    0.0000 H   0  0  0  0  0  0  0  0  0  0  0  0
  -13.5377   12.0734    0.0000 C   0  0  0  0  0  0  0  0  0  0  0  0
  -13.0566   13.5997    0.0000 H   0  0  0  0  0  0  0  0  0  0  0  0
  -12.1181   12.8126    0.0000 H   0  0  0  0  0  0  0  0  0  0  0  0
  -15.1132   12.3513    0.0000 C   0  0  0  0  0  0  0  0  0  0  0  0
  -15.5943   10.8257    0.0000 H   0  0  0  0  0  0  0  0  0  0  0  0
  -16.5322   11.6128    0.0000 H   0  0  0  0  0  0  0  0  0  0  0  0
  -15.6608   13.8553    0.0000 C   0  0  0  0  0  0  0  0  0  0  0  0
  -15.1790   15.3809    0.0000 H   0  0  0  0  0  0  0  0  0  0  0  0
  -14.2411   14.5938    0.0000 H   0  0  0  0  0  0  0  0  0  0  0  0
  -17.2363   14.1332    0.0000 C   0  0  0  0  0  0  0  0  0  0  0  0
  -17.7173   12.6069    0.0000 H   0  0  0  0  0  0  0  0  0  0  0  0
  -18.6552   13.3940    0.0000 H   0  0  0  0  0  0  0  0  0  0  0  0
  -17.7831   15.6365    0.0000 C   0  0  0  0  0  0  0  0  0  0  0  0
  -17.3021   17.1622    0.0000 H   0  0  0  0  0  0  0  0  0  0  0  0
  -16.3642   16.3750    0.0000 H   0  0  0  0  0  0  0  0  0  0  0  0
  -19.3593   15.9144    0.0000 C   0  0  0  0  0  0  0  0  0  0  0  0
  -20.9348   16.1923    0.0000 H   0  0  0  0  0  0  0  0  0  0  0  0
  -19.9062   17.4177    0.0000 H   0  0  0  0  0  0  0  0  0  0  0  0
  -20.3873   14.6884    0.0000 H   0  0  0  0  0  0  0  0  0  0  0  0
    1.3854    0.8002    0.0000 C   0  0  0  0  0  0  0  0  0  0  0  0
    2.9718    0.5913    0.0000 H   0  0  0  0  0  0  0  0  0  0  0  0
    2.3597   -0.4693    0.0000 H   0  0  0  0  0  0  0  0  0  0  0  0
    1.6633    2.3757    0.0000 O   0  0  0  0  0  0  0  0  0  0  0  0
    3.1673    2.9232    0.0000 C   0  0  0  0  0  0  0  0  0  0  0  0
    4.3927    1.8946    0.0000 O   0  0  0  0  0  0  0  0  0  0  0  0
    3.4446    4.4987    0.0000 C   0  0  0  0  0  0  0  0  0  0  0  0
    1.9189    4.9798    0.0000 H   0  0  0  0  0  0  0  0  0  0  0  0
    2.7060    5.9177    0.0000 H   0  0  0  0  0  0  0  0  0  0  0  0
    4.9485    5.0456    0.0000 C   0  0  0  0  0  0  0  0  0  0  0  0
    6.4742    4.5645    0.0000 H   0  0  0  0  0  0  0  0  0  0  0  0
    5.6871    3.6267    0.0000 H   0  0  0  0  0  0  0  0  0  0  0  0
    5.2264    6.6218    0.0000 S   0  0  0  0  0  0  0  0  0  0  0  0
    6.7297    7.1687    0.0000 C   0  0  0  0  0  0  0  0  0  0  0  0
    8.2554    6.6876    0.0000 H   0  0  0  0  0  0  0  0  0  0  0  0
    7.4683    5.7497    0.0000 H   0  0  0  0  0  0  0  0  0  0  0  0
    7.0077    8.7442    0.0000 C   0  0  0  0  0  0  0  0  0  0  0  0
    5.4813    9.2259    0.0000 H   0  0  0  0  0  0  0  0  0  0  0  0
    6.2685   10.1638    0.0000 H   0  0  0  0  0  0  0  0  0  0  0  0
    8.5110    9.2917    0.0000 C   0  0  0  0  0  0  0  0  0  0  0  0
   10.0373    8.8106    0.0000 H   0  0  0  0  0  0  0  0  0  0  0  0
    9.2495    7.8727    0.0000 H   0  0  0  0  0  0  0  0  0  0  0  0
    8.7889   10.8672    0.0000 C   0  0  0  0  0  0  0  0  0  0  0  0
    7.2632   11.3483    0.0000 H   0  0  0  0  0  0  0  0  0  0  0  0
    8.0503   12.2868    0.0000 H   0  0  0  0  0  0  0  0  0  0  0  0
   10.2922   11.4147    0.0000 C   0  0  0  0  0  0  0  0  0  0  0  0
   11.8185   10.9336    0.0000 H   0  0  0  0  0  0  0  0  0  0  0  0
   11.0314    9.9951    0.0000 H   0  0  0  0  0  0  0  0  0  0  0  0
   10.5701   12.9902    0.0000 C   0  0  0  0  0  0  0  0  0  0  0  0
    9.0444   13.4713    0.0000 H   0  0  0  0  0  0  0  0  0  0  0  0
    9.8315   14.4098    0.0000 H   0  0  0  0  0  0  0  0  0  0  0  0
   12.0734   13.5377    0.0000 C   0  0  0  0  0  0  0  0  0  0  0  0
   13.5997   13.0567    0.0000 H   0  0  0  0  0  0  0  0  0  0  0  0
   12.8126   12.1181    0.0000 H   0  0  0  0  0  0  0  0  0  0  0  0
   12.3513   15.1132    0.0000 C   0  0  0  0  0  0  0  0  0  0  0  0
   10.8256   15.5943    0.0000 H   0  0  0  0  0  0  0  0  0  0  0  0
   11.6128   16.5322    0.0000 H   0  0  0  0  0  0  0  0  0  0  0  0
   13.8553   15.6608    0.0000 C   0  0  0  0  0  0  0  0  0  0  0  0
   15.3809   15.1790    0.0000 H   0  0  0  0  0  0  0  0  0  0  0  0
   14.5938   14.2412    0.0000 H   0  0  0  0  0  0  0  0  0  0  0  0
   14.1332   17.2363    0.0000 C   0  0  0  0  0  0  0  0  0  0  0  0
   12.6069   17.7174    0.0000 H   0  0  0  0  0  0  0  0  0  0  0  0
   13.3940   18.6552    0.0000 H   0  0  0  0  0  0  0  0  0  0  0  0
   15.6365   17.7832    0.0000 C   0  0  0  0  0  0  0  0  0  0  0  0
   17.1621   17.3021    0.0000 H   0  0  0  0  0  0  0  0  0  0  0  0
   16.3750   16.3642    0.0000 H   0  0  0  0  0  0  0  0  0  0  0  0
   15.9144   19.3593    0.0000 C   0  0  0  0  0  0  0  0  0  0  0  0
   16.1923   20.9348    0.0000 H   0  0  0  0  0  0  0  0  0  0  0  0
   17.4177   19.9062    0.0000 H   0  0  0  0  0  0  0  0  0  0  0  0
   14.6884   20.3873    0.0000 H   0  0  0  0  0  0  0  0  0  0  0  0
   -1.3854   -0.8002    0.0000 C   0  0  0  0  0  0  0  0  0  0  0  0
   -2.9718   -0.5913    0.0000 H   0  0  0  0  0  0  0  0  0  0  0  0
   -2.3597    0.4693    0.0000 H   0  0  0  0  0  0  0  0  0  0  0  0
   -1.6633   -2.3757    0.0000 O   0  0  0  0  0  0  0  0  0  0  0  0
   -3.1673   -2.9232    0.0000 C   0  0  0  0  0  0  0  0  0  0  0  0
   -4.3927   -1.8946    0.0000 O   0  0  0  0  0  0  0  0  0  0  0  0
   -3.4446   -4.4987    0.0000 C   0  0  0  0  0  0  0  0  0  0  0  0
   -1.9189   -4.9798    0.0000 H   0  0  0  0  0  0  0  0  0  0  0  0
   -2.7060   -5.9177    0.0000 H   0  0  0  0  0  0  0  0  0  0  0  0
   -4.9485   -5.0456    0.0000 C   0  0  0  0  0  0  0  0  0  0  0  0
   -6.4742   -4.5645    0.0000 H   0  0  0  0  0  0  0  0  0  0  0  0
   -5.6871   -3.6267    0.0000 H   0  0  0  0  0  0  0  0  0  0  0  0
   -5.2264   -6.6218    0.0000 S   0  0  0  0  0  0  0  0  0  0  0  0
   -6.7297   -7.1687    0.0000 C   0  0  0  0  0  0  0  0  0  0  0  0
   -8.2554   -6.6876    0.0000 H   0  0  0  0  0  0  0  0  0  0  0  0
   -7.4683   -5.7497    0.0000 H   0  0  0  0  0  0  0  0  0  0  0  0
   -7.0077   -8.7442    0.0000 C   0  0  0  0  0  0  0  0  0  0  0  0
   -5.4813   -9.2259    0.0000 H   0  0  0  0  0  0  0  0  0  0  0  0
   -6.2685  -10.1638    0.0000 H   0  0  0  0  0  0  0  0  0  0  0  0
   -8.5110   -9.2917    0.0000 C   0  0  0  0  0  0  0  0  0  0  0  0
  -10.0373   -8.8106    0.0000 H   0  0  0  0  0  0  0  0  0  0  0  0
   -9.2495   -7.8727    0.0000 H   0  0  0  0  0  0  0  0  0  0  0  0
   -8.7889  -10.8672    0.0000 C   0  0  0  0  0  0  0  0  0  0  0  0
   -7.2632  -11.3483    0.0000 H   0  0  0  0  0  0  0  0  0  0  0  0
   -8.0503  -12.2868    0.0000 H   0  0  0  0  0  0  0  0  0  0  0  0
  -10.2922  -11.4147    0.0000 C   0  0  0  0  0  0  0  0  0  0  0  0
  -11.8185  -10.9336    0.0000 H   0  0  0  0  0  0  0  0  0  0  0  0
  -11.0314   -9.9951    0.0000 H   0  0  0  0  0  0  0  0  0  0  0  0
  -10.5701  -12.9902    0.0000 C   0  0  0  0  0  0  0  0  0  0  0  0
   -9.0444  -13.4713    0.0000 H   0  0  0  0  0  0  0  0  0  0  0  0
   -9.8315  -14.4098    0.0000 H   0  0  0  0  0  0  0  0  0  0  0  0
  -12.0734  -13.5377    0.0000 C   0  0  0  0  0  0  0  0  0  0  0  0
  -13.5997  -13.0567    0.0000 H   0  0  0  0  0  0  0  0  0  0  0  0
  -12.8126  -12.1181    0.0000 H   0  0  0  0  0  0  0  0  0  0  0  0
  -12.3513  -15.1132    0.0000 C   0  0  0  0  0  0  0  0  0  0  0  0
  -10.8256  -15.5943    0.0000 H   0  0  0  0  0  0  0  0  0  0  0  0
  -11.6128  -16.5322    0.0000 H   0  0  0  0  0  0  0  0  0  0  0  0
  -13.8553  -15.6608    0.0000 C   0  0  0  0  0  0  0  0  0  0  0  0
  -15.3809  -15.1790    0.0000 H   0  0  0  0  0  0  0  0  0  0  0  0
  -14.5938  -14.2412    0.0000 H   0  0  0  0  0  0  0  0  0  0  0  0
  -14.1332  -17.2363    0.0000 C   0  0  0  0  0  0  0  0  0  0  0  0
  -12.6069  -17.7173    0.0000 H   0  0  0  0  0  0  0  0  0  0  0  0
  -13.3940  -18.6552    0.0000 H   0  0  0  0  0  0  0  0  0  0  0  0
  -15.6365  -17.7832    0.0000 C   0  0  0  0  0  0  0  0  0  0  0  0
  -17.1621  -17.3021    0.0000 H   0  0  0  0  0  0  0  0  0  0  0  0
  -16.3750  -16.3642    0.0000 H   0  0  0  0  0  0  0  0  0  0  0  0
  -15.9144  -19.3593    0.0000 C   0  0  0  0  0  0  0  0  0  0  0  0
  -16.1923  -20.9348    0.0000 H   0  0  0  0  0  0  0  0  0  0  0  0
  -17.4177  -19.9062    0.0000 H   0  0  0  0  0  0  0  0  0  0  0  0
  -14.6884  -20.3873    0.0000 H   0  0  0  0  0  0  0  0  0  0  0  0
  1  2  1  0  0  0  0
  1  3  1  0  0  0  0
  1  4  1  0  0  0  0
  1  5  1  0  0  0  0
  5  6  1  0  0  0  0
  5  7  1  0  0  0  0
  5  8  1  0  0  0  0
  8  9  1  0  0  0  0
  8 10  1  0  0  0  0
  8 11  1  0  0  0  0
 11 12  1  0  0  0  0
 11 13  1  0  0  0  0
 11 14  1  0  0  0  0
 14 15  1  0  0  0  0
 14 16  1  0  0  0  0
 14 17  1  0  0  0  0
 17 18  1  0  0  0  0
 17 19  1  0  0  0  0
 17 20  1  0  0  0  0
 20 21  1  0  0  0  0
 20 22  1  0  0  0  0
 20 23  1  0  0  0  0
 23 24  1  0  0  0  0
 23 25  1  0  0  0  0
 23 26  1  0  0  0  0
 26 27  1  0  0  0  0
 26 28  1  0  0  0  0
 26 29  1  0  0  0  0
 29 30  1  0  0  0  0
 29 31  1  0  0  0  0
 29 32  1  0  0  0  0
 32 33  1  0  0  0  0
 32 34  1  0  0  0  0
 32 35  1  0  0  0  0
 35 36  1  0  0  0  0
 35 37  1  0  0  0  0
 35 38  1  0  0  0  0
 38 39  1  0  0  0  0
 39 40  1  0  0  0  0
 39 41  1  0  0  0  0
 39 42  1  0  0  0  0
 42 43  1  0  0  0  0
 42 44  1  0  0  0  0
 42 45  1  0  0  0  0
 45 46  2  0  0  0  0
 45 47  1  0  0  0  0
 47 48  1  0  0  0  0
 48 49  1  0  0  0  0
 48 50  1  0  0  0  0
 48 51  1  0  0  0  0
 51 52  1  0  0  0  0
 52 53  1  0  0  0  0
 52 54  1  0  0  0  0
 52 55  1  0  0  0  0
 55 56  1  0  0  0  0
 56 57  2  0  0  0  0
 56 58  1  0  0  0  0
 58 59  1  0  0  0  0
 58 60  1  0  0  0  0
 58 61  1  0  0  0  0
 61 62  1  0  0  0  0
 61 63  1  0  0  0  0
 61 64  1  0  0  0  0
 64 65  1  0  0  0  0
 65 66  1  0  0  0  0
 65 67  1  0  0  0  0
 65 68  1  0  0  0  0
 68 69  1  0  0  0  0
 68 70  1  0  0  0  0
 68 71  1  0  0  0  0
 71 72  1  0  0  0  0
 71 73  1  0  0  0  0
 71 74  1  0  0  0  0
 74 75  1  0  0  0  0
 74 76  1  0  0  0  0
 74 77  1  0  0  0  0
 77 78  1  0  0  0  0
 77 79  1  0  0  0  0
 77 80  1  0  0  0  0
 80 81  1  0  0  0  0
 80 82  1  0  0  0  0
 80 83  1  0  0  0  0
 83 84  1  0  0  0  0
 83 85  1  0  0  0  0
 83 86  1  0  0  0  0
 86 87  1  0  0  0  0
 86 88  1  0  0  0  0
 86 89  1  0  0  0  0
 89 90  1  0  0  0  0
 89 91  1  0  0  0  0
 89 92  1  0  0  0  0
 92 93  1  0  0  0  0
 92 94  1  0  0  0  0
 92 95  1  0  0  0  0
 95 96  1  0  0  0  0
 95 97  1  0  0  0  0
 95 98  1  0  0  0  0
 98 99  1  0  0  0  0
 98100  1  0  0  0  0
 98101  1  0  0  0  0
 51102  1  0  0  0  0
102103  1  0  0  0  0
102104  1  0  0  0  0
102105  1  0  0  0  0
105106  1  0  0  0  0
106107  2  0  0  0  0
106108  1  0  0  0  0
108109  1  0  0  0  0
108110  1  0  0  0  0
108111  1  0  0  0  0
111112  1  0  0  0  0
111113  1  0  0  0  0
111114  1  0  0  0  0
114115  1  0  0  0  0
115116  1  0  0  0  0
115117  1  0  0  0  0
115118  1  0  0  0  0
118119  1  0  0  0  0
118120  1  0  0  0  0
118121  1  0  0  0  0
121122  1  0  0  0  0
121123  1  0  0  0  0
121124  1  0  0  0  0
124125  1  0  0  0  0
124126  1  0  0  0  0
124127  1  0  0  0  0
127128  1  0  0  0  0
127129  1  0  0  0  0
127130  1  0  0  0  0
130131  1  0  0  0  0
130132  1  0  0  0  0
130133  1  0  0  0  0
133134  1  0  0  0  0
133135  1  0  0  0  0
133136  1  0  0  0  0
136137  1  0  0  0  0
136138  1  0  0  0  0
136139  1  0  0  0  0
139140  1  0  0  0  0
139141  1  0  0  0  0
139142  1  0  0  0  0
142143  1  0  0  0  0
142144  1  0  0  0  0
142145  1  0  0  0  0
145146  1  0  0  0  0
145147  1  0  0  0  0
145148  1  0  0  0  0
148149  1  0  0  0  0
148150  1  0  0  0  0
148151  1  0  0  0  0
 51152  1  0  0  0  0
152153  1  0  0  0  0
152154  1  0  0  0  0
152155  1  0  0  0  0
155156  1  0  0  0  0
156157  2  0  0  0  0
156158  1  0  0  0  0
158159  1  0  0  0  0
158160  1  0  0  0  0
158161  1  0  0  0  0
161162  1  0  0  0  0
161163  1  0  0  0  0
161164  1  0  0  0  0
164165  1  0  0  0  0
165166  1  0  0  0  0
165167  1  0  0  0  0
165168  1  0  0  0  0
168169  1  0  0  0  0
168170  1  0  0  0  0
168171  1  0  0  0  0
171172  1  0  0  0  0
171173  1  0  0  0  0
171174  1  0  0  0  0
174175  1  0  0  0  0
174176  1  0  0  0  0
174177  1  0  0  0  0
177178  1  0  0  0  0
177179  1  0  0  0  0
177180  1  0  0  0  0
180181  1  0  0  0  0
180182  1  0  0  0  0
180183  1  0  0  0  0
183184  1  0  0  0  0
183185  1  0  0  0  0
183186  1  0  0  0  0
186187  1  0  0  0  0
186188  1  0  0  0  0
186189  1  0  0  0  0
189190  1  0  0  0  0
189191  1  0  0  0  0
189192  1  0  0  0  0
192193  1  0  0  0  0
192194  1  0  0  0  0
192195  1  0  0  0  0
195196  1  0  0  0  0
195197  1  0  0  0  0
195198  1  0  0  0  0
198199  1  0  0  0  0
198200  1  0  0  0  0
198201  1  0  0  0  0
M  END
> <ChemID>
201642

> <source_casrn>
29598-76-3

> <CAS>
29598-76-3

> <SMILES>
CCCCCCCCCCCCSCCC(=O)OCC(COC(=O)CCSCCCCCCCCCCCC)(COC(=O)CCSCCCCCCCCCCCC)COC(=O)CCSCCCCCCCCCCCC

> <NAME>


> <preferred_name>
Propanoic acid, 3-(dodecylthio)-, 2,2-bis[[3-(dodecylthio)-1-oxopropoxy]methyl]-1,3-propanediyl ester

> <iupac>
3-{[3-(dodecylsulfanyl)propanoyl]oxy}-2,2-bis({[3-(dodecylsulfanyl)propanoyl]oxy}methyl)propyl 3-(dodecylsulfanyl)propanoate

> <MPID>
101391

> <dsstox_substance_id>
DTXSID3027956

> <Canonical_QSARr>
CCCCCCCCCCCCSCCC(=O)OCC(COC(=O)CCSCCCCCCCCCCCC)(COC(=O)CCSCCCCCCCCCCCC)COC(=O)CCSCCCCCCCCCCCC

> <InChI_Code_QSARr>
InChI=1S/C65H124O8S4/c1-5-9-13-17-21-25-29-33-37-41-49-74-53-45-61(66)70-57-65(58-71-62(67)46-54-75-50-42-38-34-30-26-22-18-14-10-6-2,59-72-63(68)47-55-76-51-43-39-35-31-27-23-19-15-11-7-3)60-73-64(69)48-56-77-52-44-40-36-32-28-24-20-16-12-8-4/h5-60H2,1-4H3

> <InChI Key_QSARr>
VSVVZZQIUJXYQA-UHFFFAOYSA-N

> <Salt_Solvent>


> <Ready_Biodeg>
0.0

$$$$
201644
  -INDIGO-08031722522D

 53 52  0  0  0  0  0  0  0  0999 V2000
    3.9897    1.7478    0.0000 O   0  0  0  0  0  0  0  0  0  0  0  0
    5.5655    1.4700    0.0000 H   0  0  0  0  0  0  0  0  0  0  0  0
    2.9612    0.5222    0.0000 C   0  0  0  0  0  0  0  0  0  0  0  0
    1.3857    0.8000    0.0000 C   0  0  0  0  0  0  0  0  0  0  0  0
    1.9978    2.2782    0.0000 H   0  0  0  0  0  0  0  0  0  0  0  0
    0.7733    2.2782    0.0000 H   0  0  0  0  0  0  0  0  0  0  0  0
   -0.0001    0.0000    0.0000 N   0  0  0  0  0  0  0  0  0  0  0  0
   -0.8000    1.3856    0.0000 C   0  0  0  0  0  0  0  0  0  0  0  0
   -1.5999    2.7712    0.0000 H   0  0  0  0  0  0  0  0  0  0  0  0
   -1.6482    1.6608    0.0000 H   0  0  0  0  0  0  0  0  0  0  0  0
   -0.0001    2.7712    0.0000 H   0  0  0  0  0  0  0  0  0  0  0  0
    0.8001   -1.3857    0.0000 C   0  0  0  0  0  0  0  0  0  0  0  0
    1.6000   -2.7713    0.0000 H   0  0  0  0  0  0  0  0  0  0  0  0
   -0.0001   -2.7713    0.0000 H   0  0  0  0  0  0  0  0  0  0  0  0
    2.3999   -1.3857    0.0000 H   0  0  0  0  0  0  0  0  0  0  0  0
   -1.5033   -0.5473    0.0000 C   0  0  0  0  0  0  0  0  0  0  0  0
   -2.3633   -1.8967    0.0000 H   0  0  0  0  0  0  0  0  0  0  0  0
   -1.1570   -2.1093    0.0000 H   0  0  0  0  0  0  0  0  0  0  0  0
   -2.7293    0.4812    0.0000 C   0  0  0  0  0  0  0  0  0  0  0  0
   -2.4241    1.3192    0.0000 H   0  0  0  0  0  0  0  0  0  0  0  0
   -3.0756    2.0433    0.0000 H   0  0  0  0  0  0  0  0  0  0  0  0
   -4.2328   -0.0660    0.0000 C   0  0  0  0  0  0  0  0  0  0  0  0
   -5.0925   -1.4155    0.0000 H   0  0  0  0  0  0  0  0  0  0  0  0
   -3.8866   -1.6281    0.0000 H   0  0  0  0  0  0  0  0  0  0  0  0
   -5.4584    0.9624    0.0000 C   0  0  0  0  0  0  0  0  0  0  0  0
   -4.5988    2.3119    0.0000 H   0  0  0  0  0  0  0  0  0  0  0  0
   -5.8047    2.5245    0.0000 H   0  0  0  0  0  0  0  0  0  0  0  0
   -6.9620    0.4152    0.0000 C   0  0  0  0  0  0  0  0  0  0  0  0
   -7.8216   -0.9342    0.0000 H   0  0  0  0  0  0  0  0  0  0  0  0
   -6.6157   -1.1468    0.0000 H   0  0  0  0  0  0  0  0  0  0  0  0
   -8.1876    1.4437    0.0000 C   0  0  0  0  0  0  0  0  0  0  0  0
   -7.3279    2.7931    0.0000 H   0  0  0  0  0  0  0  0  0  0  0  0
   -8.5339    3.0057    0.0000 H   0  0  0  0  0  0  0  0  0  0  0  0
   -9.6911    0.8965    0.0000 C   0  0  0  0  0  0  0  0  0  0  0  0
  -10.5508   -0.4530    0.0000 H   0  0  0  0  0  0  0  0  0  0  0  0
   -9.3449   -0.6656    0.0000 H   0  0  0  0  0  0  0  0  0  0  0  0
  -10.9167    1.9249    0.0000 C   0  0  0  0  0  0  0  0  0  0  0  0
  -10.0571    3.2744    0.0000 H   0  0  0  0  0  0  0  0  0  0  0  0
  -11.2630    3.4870    0.0000 H   0  0  0  0  0  0  0  0  0  0  0  0
  -12.4203    1.3777    0.0000 C   0  0  0  0  0  0  0  0  0  0  0  0
  -13.2799    0.0283    0.0000 H   0  0  0  0  0  0  0  0  0  0  0  0
  -12.0740   -0.1844    0.0000 H   0  0  0  0  0  0  0  0  0  0  0  0
  -13.6459    2.4062    0.0000 C   0  0  0  0  0  0  0  0  0  0  0  0
  -12.7862    3.7556    0.0000 H   0  0  0  0  0  0  0  0  0  0  0  0
  -13.9922    3.9682    0.0000 H   0  0  0  0  0  0  0  0  0  0  0  0
  -15.1494    1.8589    0.0000 C   0  0  0  0  0  0  0  0  0  0  0  0
  -16.0091    0.5095    0.0000 H   0  0  0  0  0  0  0  0  0  0  0  0
  -14.8032    0.2969    0.0000 H   0  0  0  0  0  0  0  0  0  0  0  0
  -16.3750    2.8874    0.0000 C   0  0  0  0  0  0  0  0  0  0  0  0
  -17.6006    3.9159    0.0000 H   0  0  0  0  0  0  0  0  0  0  0  0
  -17.8786    2.3402    0.0000 H   0  0  0  0  0  0  0  0  0  0  0  0
  -16.0971    4.4631    0.0000 H   0  0  0  0  0  0  0  0  0  0  0  0
    3.5085   -0.9813    0.0000 O   0  0  0  0  0  0  0  0  0  0  0  0
  1  2  1  0  0  0  0
  1  3  1  0  0  0  0
  3  4  1  0  0  0  0
  4  5  1  0  0  0  0
  4  6  1  0  0  0  0
  4  7  1  0  0  0  0
  7  8  1  0  0  0  0
  8  9  1  0  0  0  0
  8 10  1  0  0  0  0
  8 11  1  0  0  0  0
  7 12  1  0  0  0  0
 12 13  1  0  0  0  0
 12 14  1  0  0  0  0
 12 15  1  0  0  0  0
  7 16  1  0  0  0  0
 16 17  1  0  0  0  0
 16 18  1  0  0  0  0
 16 19  1  0  0  0  0
 19 20  1  0  0  0  0
 19 21  1  0  0  0  0
 19 22  1  0  0  0  0
 22 23  1  0  0  0  0
 22 24  1  0  0  0  0
 22 25  1  0  0  0  0
 25 26  1  0  0  0  0
 25 27  1  0  0  0  0
 25 28  1  0  0  0  0
 28 29  1  0  0  0  0
 28 30  1  0  0  0  0
 28 31  1  0  0  0  0
 31 32  1  0  0  0  0
 31 33  1  0  0  0  0
 31 34  1  0  0  0  0
 34 35  1  0  0  0  0
 34 36  1  0  0  0  0
 34 37  1  0  0  0  0
 37 38  1  0  0  0  0
 37 39  1  0  0  0  0
 37 40  1  0  0  0  0
 40 41  1  0  0  0  0
 40 42  1  0  0  0  0
 40 43  1  0  0  0  0
 43 44  1  0  0  0  0
 43 45  1  0  0  0  0
 43 46  1  0  0  0  0
 46 47  1  0  0  0  0
 46 48  1  0  0  0  0
 46 49  1  0  0  0  0
 49 50  1  0  0  0  0
 49 51  1  0  0  0  0
 49 52  1  0  0  0  0
  3 53  2  0  0  0  0
M  CHG  1   7   1
M  END
> <ChemID>
201644

> <source_casrn>
683-10-3

> <CAS>
683-10-3

> <SMILES>
CCCCCCCCCCCC[N+](C)(C)CC([O-])=O

> <NAME>


> <preferred_name>
1-Dodecanaminium, N-(carboxymethyl)-N,N-dimethyl-, inner salt

> <iupac>
[dodecyl(dimethyl)ammonio]acetate

> <MPID>
101392

> <dsstox_substance_id>
DTXSID6041266

> <Canonical_QSARr>
CCCCCCCCCCCC[N+](C)(C)CC(O)=O

> <InChI_Code_QSARr>
InChI=1S/C16H33NO2/c1-4-5-6-7-8-9-10-11-12-13-14-17(2,3)15-16(18)19/h4-15H2,1-3H3/p+1

> <InChI Key_QSARr>
DVEKCXOJTLDBFE-UHFFFAOYSA-O

> <Salt_Solvent>


> <Ready_Biodeg>
1.0

$$$$
201645
  -INDIGO-08031722522D

 49 49  0  0  0  0  0  0  0  0999 V2000
    8.3138   -0.0000    0.0000 C   0  0  0  0  0  0  0  0  0  0  0  0
    9.6995   -0.8000    0.0000 H   0  0  0  0  0  0  0  0  0  0  0  0
    9.6995    0.8000    0.0000 H   0  0  0  0  0  0  0  0  0  0  0  0
    8.3138   -1.6000    0.0000 H   0  0  0  0  0  0  0  0  0  0  0  0
    6.9282    0.8000    0.0000 C   0  0  0  0  0  0  0  0  0  0  0  0
    7.5405    2.2782    0.0000 H   0  0  0  0  0  0  0  0  0  0  0  0
    6.3158    2.2782    0.0000 H   0  0  0  0  0  0  0  0  0  0  0  0
    5.5425   -0.0000    0.0000 C   0  0  0  0  0  0  0  0  0  0  0  0
    4.9302   -1.4782    0.0000 H   0  0  0  0  0  0  0  0  0  0  0  0
    6.1548   -1.4782    0.0000 H   0  0  0  0  0  0  0  0  0  0  0  0
    4.1568    0.8000    0.0000 C   0  0  0  0  0  0  0  0  0  0  0  0
    4.7692    2.2782    0.0000 H   0  0  0  0  0  0  0  0  0  0  0  0
    3.5445    2.2782    0.0000 H   0  0  0  0  0  0  0  0  0  0  0  0
    2.7712   -0.0000    0.0000 C   0  0  0  0  0  0  0  0  0  0  0  0
    2.1589   -1.4782    0.0000 H   0  0  0  0  0  0  0  0  0  0  0  0
    3.3835   -1.4782    0.0000 H   0  0  0  0  0  0  0  0  0  0  0  0
    1.3855    0.8000    0.0000 C   0  0  0  0  0  0  0  0  0  0  0  0
    1.9978    2.2782    0.0000 H   0  0  0  0  0  0  0  0  0  0  0  0
    0.7732    2.2782    0.0000 H   0  0  0  0  0  0  0  0  0  0  0  0
   -0.0001   -0.0000    0.0000 C   0  0  0  0  0  0  0  0  0  0  0  0
   -0.6121   -1.4782    0.0000 H   0  0  0  0  0  0  0  0  0  0  0  0
    0.6122   -1.4782    0.0000 H   0  0  0  0  0  0  0  0  0  0  0  0
   -1.3855    0.8000    0.0000 C   0  0  0  0  0  0  0  0  0  0  0  0
   -0.7735    2.2782    0.0000 H   0  0  0  0  0  0  0  0  0  0  0  0
   -1.9978    2.2782    0.0000 H   0  0  0  0  0  0  0  0  0  0  0  0
   -2.7711   -0.0000    0.0000 C   0  0  0  0  0  0  0  0  0  0  0  0
   -3.3834   -1.4782    0.0000 H   0  0  0  0  0  0  0  0  0  0  0  0
   -2.1592   -1.4782    0.0000 H   0  0  0  0  0  0  0  0  0  0  0  0
   -4.1568    0.8000    0.0000 C   0  0  0  0  0  0  0  0  0  0  0  0
   -3.5445    2.2782    0.0000 H   0  0  0  0  0  0  0  0  0  0  0  0
   -4.7691    2.2782    0.0000 H   0  0  0  0  0  0  0  0  0  0  0  0
   -5.5425   -0.0000    0.0000 C   0  0  0  0  0  0  0  0  0  0  0  0
   -6.1548   -1.4782    0.0000 H   0  0  0  0  0  0  0  0  0  0  0  0
   -4.9301   -1.4782    0.0000 H   0  0  0  0  0  0  0  0  0  0  0  0
   -6.9281    0.8000    0.0000 C   0  0  0  0  0  0  0  0  0  0  0  0
   -6.3158    2.2782    0.0000 H   0  0  0  0  0  0  0  0  0  0  0  0
   -7.5404    2.2782    0.0000 H   0  0  0  0  0  0  0  0  0  0  0  0
   -8.3138   -0.0000    0.0000 C   0  0  0  0  0  0  0  0  0  0  0  0
   -8.3138   -1.6000    0.0000 C   0  0  0  0  0  0  0  0  0  0  0  0
   -6.9281   -2.4000    0.0000 H   0  0  0  0  0  0  0  0  0  0  0  0
   -9.6994   -2.4000    0.0000 C   0  0  0  0  0  0  0  0  0  0  0  0
   -9.6994   -4.0000    0.0000 H   0  0  0  0  0  0  0  0  0  0  0  0
  -11.0851   -1.6000    0.0000 C   0  0  0  0  0  0  0  0  0  0  0  0
  -12.4708   -2.4000    0.0000 H   0  0  0  0  0  0  0  0  0  0  0  0
  -11.0851   -0.0000    0.0000 C   0  0  0  0  0  0  0  0  0  0  0  0
  -12.4708    0.8000    0.0000 H   0  0  0  0  0  0  0  0  0  0  0  0
   -9.6994    0.8000    0.0000 C   0  0  0  0  0  0  0  0  0  0  0  0
   -9.6994    2.4000    0.0000 O   0  0  0  0  0  0  0  0  0  0  0  0
  -11.0851    3.2000    0.0000 H   0  0  0  0  0  0  0  0  0  0  0  0
  1  2  1  0  0  0  0
  1  3  1  0  0  0  0
  1  4  1  0  0  0  0
  1  5  1  0  0  0  0
  5  6  1  0  0  0  0
  5  7  1  0  0  0  0
  5  8  1  0  0  0  0
  8  9  1  0  0  0  0
  8 10  1  0  0  0  0
  8 11  1  0  0  0  0
 11 12  1  0  0  0  0
 11 13  1  0  0  0  0
 11 14  1  0  0  0  0
 14 15  1  0  0  0  0
 14 16  1  0  0  0  0
 14 17  1  0  0  0  0
 17 18  1  0  0  0  0
 17 19  1  0  0  0  0
 17 20  1  0  0  0  0
 20 21  1  0  0  0  0
 20 22  1  0  0  0  0
 20 23  1  0  0  0  0
 23 24  1  0  0  0  0
 23 25  1  0  0  0  0
 23 26  1  0  0  0  0
 26 27  1  0  0  0  0
 26 28  1  0  0  0  0
 26 29  1  0  0  0  0
 29 30  1  0  0  0  0
 29 31  1  0  0  0  0
 29 32  1  0  0  0  0
 32 33  1  0  0  0  0
 32 34  1  0  0  0  0
 32 35  1  0  0  0  0
 35 36  1  0  0  0  0
 35 37  1  0  0  0  0
 35 38  1  0  0  0  0
 38 39  1  0  0  0  0
 39 40  1  0  0  0  0
 39 41  2  0  0  0  0
 41 42  1  0  0  0  0
 41 43  1  0  0  0  0
 43 44  1  0  0  0  0
 43 45  2  0  0  0  0
 45 46  1  0  0  0  0
 45 47  1  0  0  0  0
 47 38  2  0  0  0  0
 47 48  1  0  0  0  0
 48 49  1  0  0  0  0
M  END
> <ChemID>
201645

> <source_casrn>
27193-86-8

> <CAS>
5284-29-7

> <SMILES>
CCCCCCCCCCCCc1ccccc1O

> <NAME>


> <preferred_name>


> <iupac>


> <MPID>
101393

> <dsstox_substance_id>
DTXSID00274042

> <Canonical_QSARr>
CCCCCCCCCCCCc1ccccc1O

> <InChI_Code_QSARr>
InChI=1S/C18H30O/c1-2-3-4-5-6-7-8-9-10-11-14-17-15-12-13-16-18(17)19/h12-13,15-16,19H,2-11,14H2,1H3

> <InChI Key_QSARr>
CYEJMVLDXAUOPN-UHFFFAOYSA-N

> <Salt_Solvent>


> <Ready_Biodeg>
0.0

$$$$
201646
  -INDIGO-08031722522D

 64 63  0  0  0  0  0  0  0  0999 V2000
    6.9284    0.8000    0.0000 C   0  0  0  0  0  0  0  0  0  0  0  0
    8.3138    1.6000    0.0000 H   0  0  0  0  0  0  0  0  0  0  0  0
    8.3138    0.0000    0.0000 H   0  0  0  0  0  0  0  0  0  0  0  0
    6.9284    2.4000    0.0000 H   0  0  0  0  0  0  0  0  0  0  0  0
    5.5424    0.0000    0.0000 C   0  0  0  0  0  0  0  0  0  0  0  0
    6.1547   -1.4782    0.0000 H   0  0  0  0  0  0  0  0  0  0  0  0
    4.9302   -1.4782    0.0000 H   0  0  0  0  0  0  0  0  0  0  0  0
    4.1569    0.8000    0.0000 C   0  0  0  0  0  0  0  0  0  0  0  0
    3.5447    2.2782    0.0000 H   0  0  0  0  0  0  0  0  0  0  0  0
    4.7692    2.2782    0.0000 H   0  0  0  0  0  0  0  0  0  0  0  0
    2.7715    0.0000    0.0000 C   0  0  0  0  0  0  0  0  0  0  0  0
    3.3837   -1.4782    0.0000 H   0  0  0  0  0  0  0  0  0  0  0  0
    2.1592   -1.4782    0.0000 H   0  0  0  0  0  0  0  0  0  0  0  0
    1.3855    0.8000    0.0000 C   0  0  0  0  0  0  0  0  0  0  0  0
    0.7733    2.2782    0.0000 H   0  0  0  0  0  0  0  0  0  0  0  0
    1.9978    2.2782    0.0000 H   0  0  0  0  0  0  0  0  0  0  0  0
    0.0000    0.0000    0.0000 C   0  0  0  0  0  0  0  0  0  0  0  0
    0.6123   -1.4782    0.0000 H   0  0  0  0  0  0  0  0  0  0  0  0
   -0.6122   -1.4782    0.0000 H   0  0  0  0  0  0  0  0  0  0  0  0
   -1.3854    0.8000    0.0000 C   0  0  0  0  0  0  0  0  0  0  0  0
   -1.9982    2.2782    0.0000 H   0  0  0  0  0  0  0  0  0  0  0  0
   -0.7732    2.2782    0.0000 H   0  0  0  0  0  0  0  0  0  0  0  0
   -2.7714    0.0000    0.0000 C   0  0  0  0  0  0  0  0  0  0  0  0
   -2.1591   -1.4782    0.0000 H   0  0  0  0  0  0  0  0  0  0  0  0
   -3.3836   -1.4782    0.0000 H   0  0  0  0  0  0  0  0  0  0  0  0
   -4.1569    0.8000    0.0000 C   0  0  0  0  0  0  0  0  0  0  0  0
   -4.7691    2.2782    0.0000 H   0  0  0  0  0  0  0  0  0  0  0  0
   -3.5446    2.2782    0.0000 H   0  0  0  0  0  0  0  0  0  0  0  0
   -5.5423    0.0000    0.0000 C   0  0  0  0  0  0  0  0  0  0  0  0
   -4.9301   -1.4782    0.0000 H   0  0  0  0  0  0  0  0  0  0  0  0
   -6.1551   -1.4782    0.0000 H   0  0  0  0  0  0  0  0  0  0  0  0
   -6.9283    0.8000    0.0000 S   0  0  0  0  0  0  0  0  0  0  0  0
   -8.3138    0.0000    0.0000 S   0  0  0  0  0  0  0  0  0  0  0  0
   -9.6997    0.8000    0.0000 C   0  0  0  0  0  0  0  0  0  0  0  0
  -10.3120    2.2782    0.0000 H   0  0  0  0  0  0  0  0  0  0  0  0
   -9.0870    2.2782    0.0000 H   0  0  0  0  0  0  0  0  0  0  0  0
  -11.0852    0.0000    0.0000 C   0  0  0  0  0  0  0  0  0  0  0  0
  -10.4729   -1.4782    0.0000 H   0  0  0  0  0  0  0  0  0  0  0  0
  -11.6974   -1.4782    0.0000 H   0  0  0  0  0  0  0  0  0  0  0  0
  -12.4707    0.8000    0.0000 C   0  0  0  0  0  0  0  0  0  0  0  0
  -13.0829    2.2782    0.0000 H   0  0  0  0  0  0  0  0  0  0  0  0
  -11.8584    2.2782    0.0000 H   0  0  0  0  0  0  0  0  0  0  0  0
  -13.8566    0.0000    0.0000 C   0  0  0  0  0  0  0  0  0  0  0  0
  -13.2439   -1.4782    0.0000 H   0  0  0  0  0  0  0  0  0  0  0  0
  -14.4689   -1.4782    0.0000 H   0  0  0  0  0  0  0  0  0  0  0  0
  -15.2421    0.8000    0.0000 C   0  0  0  0  0  0  0  0  0  0  0  0
  -15.8543    2.2782    0.0000 H   0  0  0  0  0  0  0  0  0  0  0  0
  -14.6298    2.2782    0.0000 H   0  0  0  0  0  0  0  0  0  0  0  0
  -16.6276    0.0000    0.0000 C   0  0  0  0  0  0  0  0  0  0  0  0
  -16.0153   -1.4782    0.0000 H   0  0  0  0  0  0  0  0  0  0  0  0
  -17.2398   -1.4782    0.0000 H   0  0  0  0  0  0  0  0  0  0  0  0
  -18.0135    0.8000    0.0000 C   0  0  0  0  0  0  0  0  0  0  0  0
  -18.6258    2.2782    0.0000 H   0  0  0  0  0  0  0  0  0  0  0  0
  -17.4013    2.2782    0.0000 H   0  0  0  0  0  0  0  0  0  0  0  0
  -19.3990    0.0000    0.0000 C   0  0  0  0  0  0  0  0  0  0  0  0
  -18.7867   -1.4782    0.0000 H   0  0  0  0  0  0  0  0  0  0  0  0
  -20.0112   -1.4782    0.0000 H   0  0  0  0  0  0  0  0  0  0  0  0
  -20.7845    0.8000    0.0000 C   0  0  0  0  0  0  0  0  0  0  0  0
  -21.3967    2.2782    0.0000 H   0  0  0  0  0  0  0  0  0  0  0  0
  -20.1722    2.2782    0.0000 H   0  0  0  0  0  0  0  0  0  0  0  0
  -22.1704    0.0000    0.0000 C   0  0  0  0  0  0  0  0  0  0  0  0
  -23.5559   -0.8000    0.0000 H   0  0  0  0  0  0  0  0  0  0  0  0
  -23.5559    0.8000    0.0000 H   0  0  0  0  0  0  0  0  0  0  0  0
  -22.1704   -1.6000    0.0000 H   0  0  0  0  0  0  0  0  0  0  0  0
  1  2  1  0  0  0  0
  1  3  1  0  0  0  0
  1  4  1  0  0  0  0
  1  5  1  0  0  0  0
  5  6  1  0  0  0  0
  5  7  1  0  0  0  0
  5  8  1  0  0  0  0
  8  9  1  0  0  0  0
  8 10  1  0  0  0  0
  8 11  1  0  0  0  0
 11 12  1  0  0  0  0
 11 13  1  0  0  0  0
 11 14  1  0  0  0  0
 14 15  1  0  0  0  0
 14 16  1  0  0  0  0
 14 17  1  0  0  0  0
 17 18  1  0  0  0  0
 17 19  1  0  0  0  0
 17 20  1  0  0  0  0
 20 21  1  0  0  0  0
 20 22  1  0  0  0  0
 20 23  1  0  0  0  0
 23 24  1  0  0  0  0
 23 25  1  0  0  0  0
 23 26  1  0  0  0  0
 26 27  1  0  0  0  0
 26 28  1  0  0  0  0
 26 29  1  0  0  0  0
 29 30  1  0  0  0  0
 29 31  1  0  0  0  0
 29 32  1  0  0  0  0
 32 33  1  0  0  0  0
 33 34  1  0  0  0  0
 34 35  1  0  0  0  0
 34 36  1  0  0  0  0
 34 37  1  0  0  0  0
 37 38  1  0  0  0  0
 37 39  1  0  0  0  0
 37 40  1  0  0  0  0
 40 41  1  0  0  0  0
 40 42  1  0  0  0  0
 40 43  1  0  0  0  0
 43 44  1  0  0  0  0
 43 45  1  0  0  0  0
 43 46  1  0  0  0  0
 46 47  1  0  0  0  0
 46 48  1  0  0  0  0
 46 49  1  0  0  0  0
 49 50  1  0  0  0  0
 49 51  1  0  0  0  0
 49 52  1  0  0  0  0
 52 53  1  0  0  0  0
 52 54  1  0  0  0  0
 52 55  1  0  0  0  0
 55 56  1  0  0  0  0
 55 57  1  0  0  0  0
 55 58  1  0  0  0  0
 58 59  1  0  0  0  0
 58 60  1  0  0  0  0
 58 61  1  0  0  0  0
 61 62  1  0  0  0  0
 61 63  1  0  0  0  0
 61 64  1  0  0  0  0
M  END
> <ChemID>
201646

> <source_casrn>
10496-18-1

> <CAS>
10496-18-1

> <SMILES>
CCCCCCCCCCSSCCCCCCCCCC

> <NAME>


> <preferred_name>
Decyl disulfide

> <iupac>
1-decyldisulfanyldecane

> <MPID>
101394

> <dsstox_substance_id>
DTXSID80146874

> <Canonical_QSARr>
CCCCCCCCCCSSCCCCCCCCCC

> <InChI_Code_QSARr>
InChI=1S/C20H42S2/c1-3-5-7-9-11-13-15-17-19-21-22-20-18-16-14-12-10-8-6-4-2/h3-20H2,1-2H3

> <InChI Key_QSARr>
IDJPKRIELSFBPE-UHFFFAOYSA-N

> <Salt_Solvent>


> <Ready_Biodeg>
0.0

$$$$
201649
  -INDIGO-08031722522D

 52 51  0  0  0  0  0  0  0  0999 V2000
    5.5425   -0.0000    0.0000 C   0  0  0  0  0  0  0  0  0  0  0  0
    6.9282   -0.8000    0.0000 H   0  0  0  0  0  0  0  0  0  0  0  0
    6.9282    0.8000    0.0000 H   0  0  0  0  0  0  0  0  0  0  0  0
    5.5425   -1.6000    0.0000 H   0  0  0  0  0  0  0  0  0  0  0  0
    4.1568    0.8000    0.0000 C   0  0  0  0  0  0  0  0  0  0  0  0
    3.5448    2.2782    0.0000 H   0  0  0  0  0  0  0  0  0  0  0  0
    4.7692    2.2782    0.0000 H   0  0  0  0  0  0  0  0  0  0  0  0
    2.7711   -0.0000    0.0000 C   0  0  0  0  0  0  0  0  0  0  0  0
    3.3834   -1.4782    0.0000 H   0  0  0  0  0  0  0  0  0  0  0  0
    2.1591   -1.4782    0.0000 H   0  0  0  0  0  0  0  0  0  0  0  0
    1.3858    0.8000    0.0000 C   0  0  0  0  0  0  0  0  0  0  0  0
    0.7734    2.2782    0.0000 H   0  0  0  0  0  0  0  0  0  0  0  0
    1.9977    2.2782    0.0000 H   0  0  0  0  0  0  0  0  0  0  0  0
    0.0001   -0.0000    0.0000 C   0  0  0  0  0  0  0  0  0  0  0  0
    0.6124   -1.4782    0.0000 H   0  0  0  0  0  0  0  0  0  0  0  0
   -0.6123   -1.4782    0.0000 H   0  0  0  0  0  0  0  0  0  0  0  0
   -1.3856    0.8000    0.0000 C   0  0  0  0  0  0  0  0  0  0  0  0
   -1.9980    2.2782    0.0000 H   0  0  0  0  0  0  0  0  0  0  0  0
   -0.7733    2.2782    0.0000 H   0  0  0  0  0  0  0  0  0  0  0  0
   -2.7713   -0.0000    0.0000 C   0  0  0  0  0  0  0  0  0  0  0  0
   -2.1590   -1.4782    0.0000 H   0  0  0  0  0  0  0  0  0  0  0  0
   -3.3837   -1.4782    0.0000 H   0  0  0  0  0  0  0  0  0  0  0  0
   -4.1570    0.8000    0.0000 C   0  0  0  0  0  0  0  0  0  0  0  0
   -4.7690    2.2782    0.0000 H   0  0  0  0  0  0  0  0  0  0  0  0
   -3.5447    2.2782    0.0000 H   0  0  0  0  0  0  0  0  0  0  0  0
   -5.5424   -0.0000    0.0000 N   0  0  0  0  0  0  0  0  0  0  0  0
   -5.5424   -1.6000    0.0000 H   0  0  0  0  0  0  0  0  0  0  0  0
   -6.9281    0.8000    0.0000 C   0  0  0  0  0  0  0  0  0  0  0  0
   -7.5404    2.2782    0.0000 H   0  0  0  0  0  0  0  0  0  0  0  0
   -6.3161    2.2782    0.0000 H   0  0  0  0  0  0  0  0  0  0  0  0
   -8.3138   -0.0000    0.0000 C   0  0  0  0  0  0  0  0  0  0  0  0
   -7.7014   -1.4782    0.0000 H   0  0  0  0  0  0  0  0  0  0  0  0
   -8.9261   -1.4782    0.0000 H   0  0  0  0  0  0  0  0  0  0  0  0
   -9.6995    0.8000    0.0000 C   0  0  0  0  0  0  0  0  0  0  0  0
  -10.3118    2.2782    0.0000 H   0  0  0  0  0  0  0  0  0  0  0  0
   -9.0871    2.2782    0.0000 H   0  0  0  0  0  0  0  0  0  0  0  0
  -11.0852   -0.0000    0.0000 C   0  0  0  0  0  0  0  0  0  0  0  0
  -10.4728   -1.4782    0.0000 H   0  0  0  0  0  0  0  0  0  0  0  0
  -11.6975   -1.4782    0.0000 H   0  0  0  0  0  0  0  0  0  0  0  0
  -12.4709    0.8000    0.0000 C   0  0  0  0  0  0  0  0  0  0  0  0
  -13.0829    2.2782    0.0000 H   0  0  0  0  0  0  0  0  0  0  0  0
  -11.8585    2.2782    0.0000 H   0  0  0  0  0  0  0  0  0  0  0  0
  -13.8562   -0.0000    0.0000 C   0  0  0  0  0  0  0  0  0  0  0  0
  -13.2442   -1.4782    0.0000 H   0  0  0  0  0  0  0  0  0  0  0  0
  -14.4686   -1.4782    0.0000 H   0  0  0  0  0  0  0  0  0  0  0  0
  -15.2419    0.8000    0.0000 C   0  0  0  0  0  0  0  0  0  0  0  0
  -15.8543    2.2782    0.0000 H   0  0  0  0  0  0  0  0  0  0  0  0
  -14.6299    2.2782    0.0000 H   0  0  0  0  0  0  0  0  0  0  0  0
  -16.6276   -0.0000    0.0000 C   0  0  0  0  0  0  0  0  0  0  0  0
  -18.0133   -0.8000    0.0000 H   0  0  0  0  0  0  0  0  0  0  0  0
  -18.0133    0.8000    0.0000 H   0  0  0  0  0  0  0  0  0  0  0  0
  -16.6276   -1.6000    0.0000 H   0  0  0  0  0  0  0  0  0  0  0  0
  1  2  1  0  0  0  0
  1  3  1  0  0  0  0
  1  4  1  0  0  0  0
  1  5  1  0  0  0  0
  5  6  1  0  0  0  0
  5  7  1  0  0  0  0
  5  8  1  0  0  0  0
  8  9  1  0  0  0  0
  8 10  1  0  0  0  0
  8 11  1  0  0  0  0
 11 12  1  0  0  0  0
 11 13  1  0  0  0  0
 11 14  1  0  0  0  0
 14 15  1  0  0  0  0
 14 16  1  0  0  0  0
 14 17  1  0  0  0  0
 17 18  1  0  0  0  0
 17 19  1  0  0  0  0
 17 20  1  0  0  0  0
 20 21  1  0  0  0  0
 20 22  1  0  0  0  0
 20 23  1  0  0  0  0
 23 24  1  0  0  0  0
 23 25  1  0  0  0  0
 23 26  1  0  0  0  0
 26 27  1  0  0  0  0
 26 28  1  0  0  0  0
 28 29  1  0  0  0  0
 28 30  1  0  0  0  0
 28 31  1  0  0  0  0
 31 32  1  0  0  0  0
 31 33  1  0  0  0  0
 31 34  1  0  0  0  0
 34 35  1  0  0  0  0
 34 36  1  0  0  0  0
 34 37  1  0  0  0  0
 37 38  1  0  0  0  0
 37 39  1  0  0  0  0
 37 40  1  0  0  0  0
 40 41  1  0  0  0  0
 40 42  1  0  0  0  0
 40 43  1  0  0  0  0
 43 44  1  0  0  0  0
 43 45  1  0  0  0  0
 43 46  1  0  0  0  0
 46 47  1  0  0  0  0
 46 48  1  0  0  0  0
 46 49  1  0  0  0  0
 49 50  1  0  0  0  0
 49 51  1  0  0  0  0
 49 52  1  0  0  0  0
M  END
> <ChemID>
201649

> <source_casrn>
1120-48-5

> <CAS>
1120-48-5

> <SMILES>
CCCCCCCCNCCCCCCCC

> <NAME>


> <preferred_name>
1-Octanamine, N-octyl-

> <iupac>
N-octyloctan-1-amine

> <MPID>
101396

> <dsstox_substance_id>
DTXSID2061517

> <Canonical_QSARr>
CCCCCCCCNCCCCCCCC

> <InChI_Code_QSARr>
InChI=1S/C16H35N/c1-3-5-7-9-11-13-15-17-16-14-12-10-8-6-4-2/h17H,3-16H2,1-2H3

> <InChI Key_QSARr>
LAWOZCWGWDVVSG-UHFFFAOYSA-N

> <Salt_Solvent>


> <Ready_Biodeg>
1.0

$$$$
201657
  -INDIGO-08031722522D

 72 73  0  0  0  0  0  0  0  0999 V2000
    4.2458    3.5627    0.0000 C   0  0  0  0  0  0  0  0  0  0  0  0
    5.8215    3.8406    0.0000 H   0  0  0  0  0  0  0  0  0  0  0  0
    4.7931    5.0663    0.0000 H   0  0  0  0  0  0  0  0  0  0  0  0
    5.2742    2.3369    0.0000 H   0  0  0  0  0  0  0  0  0  0  0  0
    2.6703    3.2847    0.0000 C   0  0  0  0  0  0  0  0  0  0  0  0
    2.1889    4.8108    0.0000 H   0  0  0  0  0  0  0  0  0  0  0  0
    1.2510    4.0235    0.0000 H   0  0  0  0  0  0  0  0  0  0  0  0
    2.1230    1.7814    0.0000 C   0  0  0  0  0  0  0  0  0  0  0  0
    2.6041    0.2555    0.0000 H   0  0  0  0  0  0  0  0  0  0  0  0
    3.5423    1.0426    0.0000 H   0  0  0  0  0  0  0  0  0  0  0  0
    0.5472    1.5034    0.0000 C   0  0  0  0  0  0  0  0  0  0  0  0
    0.0661    3.0295    0.0000 H   0  0  0  0  0  0  0  0  0  0  0  0
   -0.8721    2.2422    0.0000 H   0  0  0  0  0  0  0  0  0  0  0  0
   -0.0001    0.0001    0.0000 C   0  0  0  0  0  0  0  0  0  0  0  0
    0.4810   -1.5260    0.0000 H   0  0  0  0  0  0  0  0  0  0  0  0
    1.4192   -0.7387    0.0000 H   0  0  0  0  0  0  0  0  0  0  0  0
   -1.5756   -0.2779    0.0000 C   0  0  0  0  0  0  0  0  0  0  0  0
   -2.0567    1.2482    0.0000 H   0  0  0  0  0  0  0  0  0  0  0  0
   -2.9949    0.4609    0.0000 H   0  0  0  0  0  0  0  0  0  0  0  0
   -2.1229   -1.7812    0.0000 C   0  0  0  0  0  0  0  0  0  0  0  0
   -1.6418   -3.3073    0.0000 H   0  0  0  0  0  0  0  0  0  0  0  0
   -0.7036   -2.5200    0.0000 H   0  0  0  0  0  0  0  0  0  0  0  0
   -3.6987   -2.0592    0.0000 C   0  0  0  0  0  0  0  0  0  0  0  0
   -4.1798   -0.5333    0.0000 H   0  0  0  0  0  0  0  0  0  0  0  0
   -5.1177   -1.3204    0.0000 H   0  0  0  0  0  0  0  0  0  0  0  0
   -4.2457   -3.5628    0.0000 C   0  0  0  0  0  0  0  0  0  0  0  0
   -3.2173   -4.7883    0.0000 C   0  0  0  0  0  0  0  0  0  0  0  0
   -1.6418   -4.5106    0.0000 H   0  0  0  0  0  0  0  0  0  0  0  0
   -3.7646   -6.2919    0.0000 C   0  0  0  0  0  0  0  0  0  0  0  0
   -2.7361   -7.5176    0.0000 H   0  0  0  0  0  0  0  0  0  0  0  0
   -5.3404   -6.5698    0.0000 C   0  0  0  0  0  0  0  0  0  0  0  0
   -5.8877   -8.0732    0.0000 H   0  0  0  0  0  0  0  0  0  0  0  0
   -6.3688   -5.3441    0.0000 C   0  0  0  0  0  0  0  0  0  0  0  0
   -7.1588   -5.8757    0.0000 H   0  0  0  0  0  0  0  0  0  0  0  0
   -5.8215   -3.8405    0.0000 C   0  0  0  0  0  0  0  0  0  0  0  0
   -6.8499   -2.6147    0.0000 N   0  0  0  0  0  0  0  0  0  0  0  0
   -6.5723   -1.0391    0.0000 H   0  0  0  0  0  0  0  0  0  0  0  0
   -8.3537   -3.1621    0.0000 C   0  0  0  0  0  0  0  0  0  0  0  0
   -8.3537   -4.7622    0.0000 C   0  0  0  0  0  0  0  0  0  0  0  0
   -7.9446   -5.6218    0.0000 H   0  0  0  0  0  0  0  0  0  0  0  0
   -9.7390   -5.5622    0.0000 C   0  0  0  0  0  0  0  0  0  0  0  0
   -9.7390   -7.1620    0.0000 H   0  0  0  0  0  0  0  0  0  0  0  0
  -11.1247   -4.7622    0.0000 C   0  0  0  0  0  0  0  0  0  0  0  0
  -12.5103   -5.5622    0.0000 H   0  0  0  0  0  0  0  0  0  0  0  0
  -11.1247   -3.1621    0.0000 C   0  0  0  0  0  0  0  0  0  0  0  0
  -12.5103   -2.3621    0.0000 H   0  0  0  0  0  0  0  0  0  0  0  0
   -9.7390   -2.3621    0.0000 C   0  0  0  0  0  0  0  0  0  0  0  0
   -9.7390   -0.7620    0.0000 C   0  0  0  0  0  0  0  0  0  0  0  0
   -8.1529   -0.5532    0.0000 H   0  0  0  0  0  0  0  0  0  0  0  0
   -8.7651    0.5074    0.0000 H   0  0  0  0  0  0  0  0  0  0  0  0
  -11.1247    0.0380    0.0000 C   0  0  0  0  0  0  0  0  0  0  0  0
  -12.7111   -0.1710    0.0000 H   0  0  0  0  0  0  0  0  0  0  0  0
  -12.0989   -1.2314    0.0000 H   0  0  0  0  0  0  0  0  0  0  0  0
  -11.1247    1.6379    0.0000 C   0  0  0  0  0  0  0  0  0  0  0  0
   -9.5386    1.8466    0.0000 H   0  0  0  0  0  0  0  0  0  0  0  0
  -10.1508    2.9072    0.0000 H   0  0  0  0  0  0  0  0  0  0  0  0
  -12.5103    2.4378    0.0000 C   0  0  0  0  0  0  0  0  0  0  0  0
  -14.0968    2.2291    0.0000 H   0  0  0  0  0  0  0  0  0  0  0  0
  -13.4846    1.1685    0.0000 H   0  0  0  0  0  0  0  0  0  0  0  0
  -12.5103    4.0380    0.0000 C   0  0  0  0  0  0  0  0  0  0  0  0
  -10.9243    4.2467    0.0000 H   0  0  0  0  0  0  0  0  0  0  0  0
  -11.5364    5.3073    0.0000 H   0  0  0  0  0  0  0  0  0  0  0  0
  -13.8960    4.8379    0.0000 C   0  0  0  0  0  0  0  0  0  0  0  0
  -15.4824    4.6292    0.0000 H   0  0  0  0  0  0  0  0  0  0  0  0
  -14.8702    3.5686    0.0000 H   0  0  0  0  0  0  0  0  0  0  0  0
  -13.8960    6.4378    0.0000 C   0  0  0  0  0  0  0  0  0  0  0  0
  -12.3099    6.6468    0.0000 H   0  0  0  0  0  0  0  0  0  0  0  0
  -12.9221    7.7074    0.0000 H   0  0  0  0  0  0  0  0  0  0  0  0
  -15.2817    7.2380    0.0000 C   0  0  0  0  0  0  0  0  0  0  0  0
  -16.6674    8.0380    0.0000 H   0  0  0  0  0  0  0  0  0  0  0  0
  -15.2817    8.8379    0.0000 H   0  0  0  0  0  0  0  0  0  0  0  0
  -16.6674    6.4378    0.0000 H   0  0  0  0  0  0  0  0  0  0  0  0
  1  2  1  0  0  0  0
  1  3  1  0  0  0  0
  1  4  1  0  0  0  0
  1  5  1  0  0  0  0
  5  6  1  0  0  0  0
  5  7  1  0  0  0  0
  5  8  1  0  0  0  0
  8  9  1  0  0  0  0
  8 10  1  0  0  0  0
  8 11  1  0  0  0  0
 11 12  1  0  0  0  0
 11 13  1  0  0  0  0
 11 14  1  0  0  0  0
 14 15  1  0  0  0  0
 14 16  1  0  0  0  0
 14 17  1  0  0  0  0
 17 18  1  0  0  0  0
 17 19  1  0  0  0  0
 17 20  1  0  0  0  0
 20 21  1  0  0  0  0
 20 22  1  0  0  0  0
 20 23  1  0  0  0  0
 23 24  1  0  0  0  0
 23 25  1  0  0  0  0
 23 26  1  0  0  0  0
 26 27  1  0  0  0  0
 27 28  1  0  0  0  0
 27 29  2  0  0  0  0
 29 30  1  0  0  0  0
 29 31  1  0  0  0  0
 31 32  1  0  0  0  0
 31 33  2  0  0  0  0
 33 34  1  0  0  0  0
 33 35  1  0  0  0  0
 35 26  2  0  0  0  0
 35 36  1  0  0  0  0
 36 37  1  0  0  0  0
 36 38  1  0  0  0  0
 38 39  1  0  0  0  0
 39 40  1  0  0  0  0
 39 41  2  0  0  0  0
 41 42  1  0  0  0  0
 41 43  1  0  0  0  0
 43 44  1  0  0  0  0
 43 45  2  0  0  0  0
 45 46  1  0  0  0  0
 45 47  1  0  0  0  0
 47 38  2  0  0  0  0
 47 48  1  0  0  0  0
 48 49  1  0  0  0  0
 48 50  1  0  0  0  0
 48 51  1  0  0  0  0
 51 52  1  0  0  0  0
 51 53  1  0  0  0  0
 51 54  1  0  0  0  0
 54 55  1  0  0  0  0
 54 56  1  0  0  0  0
 54 57  1  0  0  0  0
 57 58  1  0  0  0  0
 57 59  1  0  0  0  0
 57 60  1  0  0  0  0
 60 61  1  0  0  0  0
 60 62  1  0  0  0  0
 60 63  1  0  0  0  0
 63 64  1  0  0  0  0
 63 65  1  0  0  0  0
 63 66  1  0  0  0  0
 66 67  1  0  0  0  0
 66 68  1  0  0  0  0
 66 69  1  0  0  0  0
 69 70  1  0  0  0  0
 69 71  1  0  0  0  0
 69 72  1  0  0  0  0
M  END
> <ChemID>
201657

> <source_casrn>
26603-23-6

> <CAS>
26603-23-6

> <SMILES>
CCCCCCCCc1ccccc1Nc2ccccc2CCCCCCCC

> <NAME>


> <preferred_name>


> <iupac>


> <MPID>
101398

> <dsstox_substance_id>
DTXSID70873102

> <Canonical_QSARr>
CCCCCCCCc1ccccc1Nc1ccccc1CCCCCCCC

> <InChI_Code_QSARr>
InChI=1S/C28H43N/c1-3-5-7-9-11-13-19-25-21-15-17-23-27(25)29-28-24-18-16-22-26(28)20-14-12-10-8-6-4-2/h15-18,21-24,29H,3-14,19-20H2,1-2H3

> <InChI Key_QSARr>
FOUNRKRNEDRUPL-UHFFFAOYSA-N

> <Salt_Solvent>


> <Ready_Biodeg>
0.0

$$$$
201662
  -INDIGO-08031722522D

 53 52  0  0  0  0  0  0  0  0999 V2000
    2.3999   -1.3856    0.0000 C   0  0  0  0  0  0  0  0  0  0  0  0
    3.2000   -2.7713    0.0000 H   0  0  0  0  0  0  0  0  0  0  0  0
    4.0000   -1.3856    0.0000 H   0  0  0  0  0  0  0  0  0  0  0  0
    1.5999   -2.7713    0.0000 H   0  0  0  0  0  0  0  0  0  0  0  0
    1.5999   -0.0001    0.0000 C   0  0  0  0  0  0  0  0  0  0  0  0
    2.8694    0.9739    0.0000 H   0  0  0  0  0  0  0  0  0  0  0  0
    1.8088    1.5863    0.0000 H   0  0  0  0  0  0  0  0  0  0  0  0
    0.0001   -0.0001    0.0000 C   0  0  0  0  0  0  0  0  0  0  0  0
   -1.2694   -0.9739    0.0000 H   0  0  0  0  0  0  0  0  0  0  0  0
   -0.2089   -1.5863    0.0000 H   0  0  0  0  0  0  0  0  0  0  0  0
   -0.8000    1.3856    0.0000 C   0  0  0  0  0  0  0  0  0  0  0  0
    0.4693    2.3596    0.0000 H   0  0  0  0  0  0  0  0  0  0  0  0
   -0.5913    2.9720    0.0000 H   0  0  0  0  0  0  0  0  0  0  0  0
   -2.4000    1.3856    0.0000 C   0  0  0  0  0  0  0  0  0  0  0  0
   -3.6692    0.4116    0.0000 H   0  0  0  0  0  0  0  0  0  0  0  0
   -2.6090   -0.2006    0.0000 H   0  0  0  0  0  0  0  0  0  0  0  0
   -3.2001    2.7713    0.0000 O   0  0  0  0  0  0  0  0  0  0  0  0
   -4.7999    2.7713    0.0000 P   0  0  0  0  0  0  0  0  0  0  0  0
   -5.5999    1.3856    0.0000 O   0  0  0  0  0  0  0  0  0  0  0  0
   -6.3999    2.7713    0.0000 O   0  0  0  0  0  0  0  0  0  0  0  0
   -7.2000    1.3856    0.0000 C   0  0  0  0  0  0  0  0  0  0  0  0
   -6.9910   -0.2006    0.0000 H   0  0  0  0  0  0  0  0  0  0  0  0
   -5.9308    0.4116    0.0000 H   0  0  0  0  0  0  0  0  0  0  0  0
   -8.8000    1.3856    0.0000 C   0  0  0  0  0  0  0  0  0  0  0  0
   -9.0087    2.9720    0.0000 H   0  0  0  0  0  0  0  0  0  0  0  0
  -10.0693    2.3596    0.0000 H   0  0  0  0  0  0  0  0  0  0  0  0
   -9.6001   -0.0001    0.0000 C   0  0  0  0  0  0  0  0  0  0  0  0
   -9.3911   -1.5863    0.0000 H   0  0  0  0  0  0  0  0  0  0  0  0
   -8.3306   -0.9739    0.0000 H   0  0  0  0  0  0  0  0  0  0  0  0
  -11.1999   -0.0001    0.0000 C   0  0  0  0  0  0  0  0  0  0  0  0
  -11.4088    1.5863    0.0000 H   0  0  0  0  0  0  0  0  0  0  0  0
  -12.4694    0.9739    0.0000 H   0  0  0  0  0  0  0  0  0  0  0  0
  -11.9999   -1.3856    0.0000 C   0  0  0  0  0  0  0  0  0  0  0  0
  -12.8000   -2.7713    0.0000 H   0  0  0  0  0  0  0  0  0  0  0  0
  -13.6000   -1.3856    0.0000 H   0  0  0  0  0  0  0  0  0  0  0  0
  -11.1999   -2.7713    0.0000 H   0  0  0  0  0  0  0  0  0  0  0  0
   -5.5999    4.1570    0.0000 O   0  0  0  0  0  0  0  0  0  0  0  0
   -4.7999    5.5425    0.0000 C   0  0  0  0  0  0  0  0  0  0  0  0
   -3.3217    4.9303    0.0000 H   0  0  0  0  0  0  0  0  0  0  0  0
   -3.3217    6.1549    0.0000 H   0  0  0  0  0  0  0  0  0  0  0  0
   -5.5999    6.9282    0.0000 C   0  0  0  0  0  0  0  0  0  0  0  0
   -7.0783    7.5406    0.0000 H   0  0  0  0  0  0  0  0  0  0  0  0
   -7.0783    6.3158    0.0000 H   0  0  0  0  0  0  0  0  0  0  0  0
   -4.7999    8.3139    0.0000 C   0  0  0  0  0  0  0  0  0  0  0  0
   -3.3217    7.7015    0.0000 H   0  0  0  0  0  0  0  0  0  0  0  0
   -3.3217    8.9260    0.0000 H   0  0  0  0  0  0  0  0  0  0  0  0
   -5.5999    9.6996    0.0000 C   0  0  0  0  0  0  0  0  0  0  0  0
   -7.0783   10.3117    0.0000 H   0  0  0  0  0  0  0  0  0  0  0  0
   -7.0783    9.0872    0.0000 H   0  0  0  0  0  0  0  0  0  0  0  0
   -4.7999   11.0851    0.0000 C   0  0  0  0  0  0  0  0  0  0  0  0
   -4.0001   12.4708    0.0000 H   0  0  0  0  0  0  0  0  0  0  0  0
   -5.5999   12.4708    0.0000 H   0  0  0  0  0  0  0  0  0  0  0  0
   -3.2001   11.0851    0.0000 H   0  0  0  0  0  0  0  0  0  0  0  0
  1  2  1  0  0  0  0
  1  3  1  0  0  0  0
  1  4  1  0  0  0  0
  1  5  1  0  0  0  0
  5  6  1  0  0  0  0
  5  7  1  0  0  0  0
  5  8  1  0  0  0  0
  8  9  1  0  0  0  0
  8 10  1  0  0  0  0
  8 11  1  0  0  0  0
 11 12  1  0  0  0  0
 11 13  1  0  0  0  0
 11 14  1  0  0  0  0
 14 15  1  0  0  0  0
 14 16  1  0  0  0  0
 14 17  1  0  0  0  0
 17 18  1  0  0  0  0
 18 19  2  0  0  0  0
 18 20  1  0  0  0  0
 20 21  1  0  0  0  0
 21 22  1  0  0  0  0
 21 23  1  0  0  0  0
 21 24  1  0  0  0  0
 24 25  1  0  0  0  0
 24 26  1  0  0  0  0
 24 27  1  0  0  0  0
 27 28  1  0  0  0  0
 27 29  1  0  0  0  0
 27 30  1  0  0  0  0
 30 31  1  0  0  0  0
 30 32  1  0  0  0  0
 30 33  1  0  0  0  0
 33 34  1  0  0  0  0
 33 35  1  0  0  0  0
 33 36  1  0  0  0  0
 18 37  1  0  0  0  0
 37 38  1  0  0  0  0
 38 39  1  0  0  0  0
 38 40  1  0  0  0  0
 38 41  1  0  0  0  0
 41 42  1  0  0  0  0
 41 43  1  0  0  0  0
 41 44  1  0  0  0  0
 44 45  1  0  0  0  0
 44 46  1  0  0  0  0
 44 47  1  0  0  0  0
 47 48  1  0  0  0  0
 47 49  1  0  0  0  0
 47 50  1  0  0  0  0
 50 51  1  0  0  0  0
 50 52  1  0  0  0  0
 50 53  1  0  0  0  0
M  END
> <ChemID>
201662

> <source_casrn>
2528-38-3

> <CAS>
2528-38-3

> <SMILES>
CCCCCO[P](=O)(OCCCCC)OCCCCC

> <NAME>


> <preferred_name>
Tripentyl phosphate

> <iupac>
tripentyl phosphate

> <MPID>
101399

> <dsstox_substance_id>
DTXSID3052698

> <Canonical_QSARr>
CCCCCOP(=O)(OCCCCC)OCCCCC

> <InChI_Code_QSARr>
InChI=1S/C15H33O4P/c1-4-7-10-13-17-20(16,18-14-11-8-5-2)19-15-12-9-6-3/h4-15H2,1-3H3

> <InChI Key_QSARr>
QJAVUVZBMMXBRO-UHFFFAOYSA-N

> <Salt_Solvent>


> <Ready_Biodeg>
0.0

$$$$
201665
  -INDIGO-08031722522D

 35 34  0  0  0  0  0  0  0  0999 V2000
    5.6184    0.7340    0.0000 C   0  0  0  0  0  0  0  0  0  0  0  0
    7.1218    0.1868    0.0000 H   0  0  0  0  0  0  0  0  0  0  0  0
    6.8439    1.7624    0.0000 H   0  0  0  0  0  0  0  0  0  0  0  0
    5.8961   -0.8417    0.0000 H   0  0  0  0  0  0  0  0  0  0  0  0
    4.1147    1.2813    0.0000 C   0  0  0  0  0  0  0  0  0  0  0  0
    3.2552    2.6306    0.0000 H   0  0  0  0  0  0  0  0  0  0  0  0
    4.4612    2.8434    0.0000 H   0  0  0  0  0  0  0  0  0  0  0  0
    2.8892    0.2528    0.0000 C   0  0  0  0  0  0  0  0  0  0  0  0
    3.7488   -1.0966    0.0000 H   0  0  0  0  0  0  0  0  0  0  0  0
    2.5428   -1.3092    0.0000 H   0  0  0  0  0  0  0  0  0  0  0  0
    1.3856    0.8000    0.0000 C   0  0  0  0  0  0  0  0  0  0  0  0
    0.7734    2.2783    0.0000 H   0  0  0  0  0  0  0  0  0  0  0  0
    1.9980    2.2783    0.0000 H   0  0  0  0  0  0  0  0  0  0  0  0
    0.0000   -0.0000    0.0000 N   0  0  0  0  0  0  0  0  0  0  0  0
    0.0000   -1.6001    0.0000 C   0  0  0  0  0  0  0  0  0  0  0  0
    1.5863   -1.8089    0.0000 H   0  0  0  0  0  0  0  0  0  0  0  0
    0.9739   -2.8694    0.0000 H   0  0  0  0  0  0  0  0  0  0  0  0
   -1.3856   -2.3999    0.0000 C   0  0  0  0  0  0  0  0  0  0  0  0
   -1.9980   -3.8782    0.0000 H   0  0  0  0  0  0  0  0  0  0  0  0
   -0.7734   -3.8782    0.0000 H   0  0  0  0  0  0  0  0  0  0  0  0
   -2.7713   -1.6001    0.0000 O   0  0  0  0  0  0  0  0  0  0  0  0
   -4.1569   -2.3999    0.0000 H   0  0  0  0  0  0  0  0  0  0  0  0
   -1.3856    0.8000    0.0000 C   0  0  0  0  0  0  0  0  0  0  0  0
   -2.9115    0.3189    0.0000 H   0  0  0  0  0  0  0  0  0  0  0  0
   -2.1245   -0.6192    0.0000 H   0  0  0  0  0  0  0  0  0  0  0  0
   -1.6635    2.3756    0.0000 C   0  0  0  0  0  0  0  0  0  0  0  0
   -0.1376    2.8569    0.0000 H   0  0  0  0  0  0  0  0  0  0  0  0
   -0.9248    3.7950    0.0000 H   0  0  0  0  0  0  0  0  0  0  0  0
   -3.1670    2.9229    0.0000 C   0  0  0  0  0  0  0  0  0  0  0  0
   -4.6929    2.4418    0.0000 H   0  0  0  0  0  0  0  0  0  0  0  0
   -3.9057    1.5038    0.0000 H   0  0  0  0  0  0  0  0  0  0  0  0
   -3.4449    4.4986    0.0000 C   0  0  0  0  0  0  0  0  0  0  0  0
   -3.7226    6.0743    0.0000 H   0  0  0  0  0  0  0  0  0  0  0  0
   -4.9483    5.0459    0.0000 H   0  0  0  0  0  0  0  0  0  0  0  0
   -2.2192    5.5271    0.0000 H   0  0  0  0  0  0  0  0  0  0  0  0
  1  2  1  0  0  0  0
  1  3  1  0  0  0  0
  1  4  1  0  0  0  0
  1  5  1  0  0  0  0
  5  6  1  0  0  0  0
  5  7  1  0  0  0  0
  5  8  1  0  0  0  0
  8  9  1  0  0  0  0
  8 10  1  0  0  0  0
  8 11  1  0  0  0  0
 11 12  1  0  0  0  0
 11 13  1  0  0  0  0
 11 14  1  0  0  0  0
 14 15  1  0  0  0  0
 15 16  1  0  0  0  0
 15 17  1  0  0  0  0
 15 18  1  0  0  0  0
 18 19  1  0  0  0  0
 18 20  1  0  0  0  0
 18 21  1  0  0  0  0
 21 22  1  0  0  0  0
 14 23  1  0  0  0  0
 23 24  1  0  0  0  0
 23 25  1  0  0  0  0
 23 26  1  0  0  0  0
 26 27  1  0  0  0  0
 26 28  1  0  0  0  0
 26 29  1  0  0  0  0
 29 30  1  0  0  0  0
 29 31  1  0  0  0  0
 29 32  1  0  0  0  0
 32 33  1  0  0  0  0
 32 34  1  0  0  0  0
 32 35  1  0  0  0  0
M  END
> <ChemID>
201665

> <source_casrn>
102-81-8

> <CAS>
102-81-8

> <SMILES>
CCCCN(CCO)CCCC

> <NAME>


> <preferred_name>
2-(Dibutylamino)ethanol

> <iupac>
2-(dibutylamino)ethanol

> <MPID>
101401

> <dsstox_substance_id>
DTXSID2024953

> <Canonical_QSARr>
CCCCN(CCO)CCCC

> <InChI_Code_QSARr>
InChI=1S/C10H23NO/c1-3-5-7-11(9-10-12)8-6-4-2/h12H,3-10H2,1-2H3

> <InChI Key_QSARr>
IWSZDQRGNFLMJS-UHFFFAOYSA-N

> <Salt_Solvent>


> <Ready_Biodeg>
0.0

$$$$
201667
  -INDIGO-08031722522D

 29 29  0  0  0  0  0  0  0  0999 V2000
    2.7714    0.0000    0.0000 C   0  0  0  0  0  0  0  0  0  0  0  0
    4.1569    0.8000    0.0000 H   0  0  0  0  0  0  0  0  0  0  0  0
    4.1569   -0.8000    0.0000 H   0  0  0  0  0  0  0  0  0  0  0  0
    2.7714    1.6000    0.0000 H   0  0  0  0  0  0  0  0  0  0  0  0
    1.3856   -0.8000    0.0000 C   0  0  0  0  0  0  0  0  0  0  0  0
    0.7733   -2.2782    0.0000 H   0  0  0  0  0  0  0  0  0  0  0  0
    1.9980   -2.2782    0.0000 H   0  0  0  0  0  0  0  0  0  0  0  0
    0.0001    0.0000    0.0000 C   0  0  0  0  0  0  0  0  0  0  0  0
    0.6122    1.4782    0.0000 H   0  0  0  0  0  0  0  0  0  0  0  0
   -0.6122    1.4782    0.0000 H   0  0  0  0  0  0  0  0  0  0  0  0
   -1.3856   -0.8000    0.0000 C   0  0  0  0  0  0  0  0  0  0  0  0
   -1.9980   -2.2782    0.0000 H   0  0  0  0  0  0  0  0  0  0  0  0
   -0.7733   -2.2782    0.0000 H   0  0  0  0  0  0  0  0  0  0  0  0
   -2.7712    0.0000    0.0000 N   0  0  0  0  0  0  0  0  0  0  0  0
   -2.7714    1.6000    0.0000 H   0  0  0  0  0  0  0  0  0  0  0  0
   -4.1569   -0.8000    0.0000 S   0  0  0  0  0  0  0  0  0  0  0  0
   -3.3569   -2.1856    0.0000 O   0  0  0  0  0  0  0  0  0  0  0  0
   -4.9570    0.5856    0.0000 O   0  0  0  0  0  0  0  0  0  0  0  0
   -5.5427   -1.6000    0.0000 C   0  0  0  0  0  0  0  0  0  0  0  0
   -5.5425   -3.2000    0.0000 C   0  0  0  0  0  0  0  0  0  0  0  0
   -4.1569   -4.0000    0.0000 H   0  0  0  0  0  0  0  0  0  0  0  0
   -6.9282   -4.0000    0.0000 C   0  0  0  0  0  0  0  0  0  0  0  0
   -6.9282   -5.6000    0.0000 H   0  0  0  0  0  0  0  0  0  0  0  0
   -8.3139   -3.2000    0.0000 C   0  0  0  0  0  0  0  0  0  0  0  0
   -9.6995   -4.0000    0.0000 H   0  0  0  0  0  0  0  0  0  0  0  0
   -8.3137   -1.6000    0.0000 C   0  0  0  0  0  0  0  0  0  0  0  0
   -9.6995   -0.8000    0.0000 H   0  0  0  0  0  0  0  0  0  0  0  0
   -6.9282   -0.8000    0.0000 C   0  0  0  0  0  0  0  0  0  0  0  0
   -6.9282    0.8000    0.0000 H   0  0  0  0  0  0  0  0  0  0  0  0
  1  2  1  0  0  0  0
  1  3  1  0  0  0  0
  1  4  1  0  0  0  0
  1  5  1  0  0  0  0
  5  6  1  0  0  0  0
  5  7  1  0  0  0  0
  5  8  1  0  0  0  0
  8  9  1  0  0  0  0
  8 10  1  0  0  0  0
  8 11  1  0  0  0  0
 11 12  1  0  0  0  0
 11 13  1  0  0  0  0
 11 14  1  0  0  0  0
 14 15  1  0  0  0  0
 14 16  1  0  0  0  0
 16 17  2  0  0  0  0
 16 18  2  0  0  0  0
 16 19  1  0  0  0  0
 19 20  1  0  0  0  0
 20 21  1  0  0  0  0
 20 22  2  0  0  0  0
 22 23  1  0  0  0  0
 22 24  1  0  0  0  0
 24 25  1  0  0  0  0
 24 26  2  0  0  0  0
 26 27  1  0  0  0  0
 26 28  1  0  0  0  0
 28 19  2  0  0  0  0
 28 29  1  0  0  0  0
M  END
> <ChemID>
201667

> <source_casrn>
3622-84-2

> <CAS>
3622-84-2

> <SMILES>
CCCCN[S](=O)(=O)c1ccccc1

> <NAME>


> <preferred_name>
N-Butylbenzenesulfonamide

> <iupac>
N-butylbenzenesulfonamide

> <MPID>
101402

> <dsstox_substance_id>
DTXSID7027540

> <Canonical_QSARr>
CCCCNS(=O)(=O)c1ccccc1

> <InChI_Code_QSARr>
InChI=1S/C10H15NO2S/c1-2-3-9-11-14(12,13)10-7-5-4-6-8-10/h4-8,11H,2-3,9H2,1H3

> <InChI Key_QSARr>
IPRJXAGUEGOFGG-UHFFFAOYSA-N

> <Salt_Solvent>


> <Ready_Biodeg>
0.0

$$$$
201669
  -INDIGO-08031722522D

 44 43  0  0  0  0  0  0  0  0999 V2000
    9.6995   -0.8000    0.0000 C   0  0  0  0  0  0  0  0  0  0  0  0
   11.0851   -1.6000    0.0000 H   0  0  0  0  0  0  0  0  0  0  0  0
   11.0851    0.0000    0.0000 H   0  0  0  0  0  0  0  0  0  0  0  0
    9.6995   -2.4000    0.0000 H   0  0  0  0  0  0  0  0  0  0  0  0
    8.3138    0.0000    0.0000 C   0  0  0  0  0  0  0  0  0  0  0  0
    8.9260    1.4782    0.0000 H   0  0  0  0  0  0  0  0  0  0  0  0
    7.7017    1.4782    0.0000 H   0  0  0  0  0  0  0  0  0  0  0  0
    6.9282   -0.8000    0.0000 C   0  0  0  0  0  0  0  0  0  0  0  0
    6.3161   -2.2782    0.0000 H   0  0  0  0  0  0  0  0  0  0  0  0
    7.5403   -2.2782    0.0000 H   0  0  0  0  0  0  0  0  0  0  0  0
    5.5426    0.0000    0.0000 C   0  0  0  0  0  0  0  0  0  0  0  0
    6.1547    1.4782    0.0000 H   0  0  0  0  0  0  0  0  0  0  0  0
    4.9304    1.4782    0.0000 H   0  0  0  0  0  0  0  0  0  0  0  0
    4.1569   -0.8000    0.0000 O   0  0  0  0  0  0  0  0  0  0  0  0
    2.7713    0.0000    0.0000 C   0  0  0  0  0  0  0  0  0  0  0  0
    2.7713    1.6000    0.0000 O   0  0  0  0  0  0  0  0  0  0  0  0
    1.3856   -0.8000    0.0000 C   0  0  0  0  0  0  0  0  0  0  0  0
    0.7735   -2.2782    0.0000 H   0  0  0  0  0  0  0  0  0  0  0  0
    1.9978   -2.2782    0.0000 H   0  0  0  0  0  0  0  0  0  0  0  0
    0.0000    0.0000    0.0000 C   0  0  0  0  0  0  0  0  0  0  0  0
    0.6121    1.4782    0.0000 H   0  0  0  0  0  0  0  0  0  0  0  0
   -0.6121    1.4782    0.0000 H   0  0  0  0  0  0  0  0  0  0  0  0
   -1.3856   -0.8000    0.0000 C   0  0  0  0  0  0  0  0  0  0  0  0
   -1.9978   -2.2782    0.0000 H   0  0  0  0  0  0  0  0  0  0  0  0
   -0.7735   -2.2782    0.0000 H   0  0  0  0  0  0  0  0  0  0  0  0
   -2.7713    0.0000    0.0000 C   0  0  0  0  0  0  0  0  0  0  0  0
   -2.1592    1.4782    0.0000 H   0  0  0  0  0  0  0  0  0  0  0  0
   -3.3834    1.4782    0.0000 H   0  0  0  0  0  0  0  0  0  0  0  0
   -4.1569   -0.8000    0.0000 C   0  0  0  0  0  0  0  0  0  0  0  0
   -4.1569   -2.4000    0.0000 O   0  0  0  0  0  0  0  0  0  0  0  0
   -5.5426    0.0000    0.0000 O   0  0  0  0  0  0  0  0  0  0  0  0
   -6.9282   -0.8000    0.0000 C   0  0  0  0  0  0  0  0  0  0  0  0
   -7.5403   -2.2782    0.0000 H   0  0  0  0  0  0  0  0  0  0  0  0
   -6.3161   -2.2782    0.0000 H   0  0  0  0  0  0  0  0  0  0  0  0
   -8.3138    0.0000    0.0000 C   0  0  0  0  0  0  0  0  0  0  0  0
   -7.7017    1.4782    0.0000 H   0  0  0  0  0  0  0  0  0  0  0  0
   -8.9260    1.4782    0.0000 H   0  0  0  0  0  0  0  0  0  0  0  0
   -9.6995   -0.8000    0.0000 C   0  0  0  0  0  0  0  0  0  0  0  0
  -10.3116   -2.2782    0.0000 H   0  0  0  0  0  0  0  0  0  0  0  0
   -9.0874   -2.2782    0.0000 H   0  0  0  0  0  0  0  0  0  0  0  0
  -11.0851    0.0000    0.0000 C   0  0  0  0  0  0  0  0  0  0  0  0
  -12.4708    0.8000    0.0000 H   0  0  0  0  0  0  0  0  0  0  0  0
  -12.4708   -0.8000    0.0000 H   0  0  0  0  0  0  0  0  0  0  0  0
  -11.0851    1.6000    0.0000 H   0  0  0  0  0  0  0  0  0  0  0  0
  1  2  1  0  0  0  0
  1  3  1  0  0  0  0
  1  4  1  0  0  0  0
  1  5  1  0  0  0  0
  5  6  1  0  0  0  0
  5  7  1  0  0  0  0
  5  8  1  0  0  0  0
  8  9  1  0  0  0  0
  8 10  1  0  0  0  0
  8 11  1  0  0  0  0
 11 12  1  0  0  0  0
 11 13  1  0  0  0  0
 11 14  1  0  0  0  0
 14 15  1  0  0  0  0
 15 16  2  0  0  0  0
 15 17  1  0  0  0  0
 17 18  1  0  0  0  0
 17 19  1  0  0  0  0
 17 20  1  0  0  0  0
 20 21  1  0  0  0  0
 20 22  1  0  0  0  0
 20 23  1  0  0  0  0
 23 24  1  0  0  0  0
 23 25  1  0  0  0  0
 23 26  1  0  0  0  0
 26 27  1  0  0  0  0
 26 28  1  0  0  0  0
 26 29  1  0  0  0  0
 29 30  2  0  0  0  0
 29 31  1  0  0  0  0
 31 32  1  0  0  0  0
 32 33  1  0  0  0  0
 32 34  1  0  0  0  0
 32 35  1  0  0  0  0
 35 36  1  0  0  0  0
 35 37  1  0  0  0  0
 35 38  1  0  0  0  0
 38 39  1  0  0  0  0
 38 40  1  0  0  0  0
 38 41  1  0  0  0  0
 41 42  1  0  0  0  0
 41 43  1  0  0  0  0
 41 44  1  0  0  0  0
M  END
> <ChemID>
201669

> <source_casrn>
105-99-7

> <CAS>
105-99-7

> <SMILES>
CCCCOC(=O)CCCCC(=O)OCCCC

> <NAME>


> <preferred_name>
Dibutyl hexanedioate

> <iupac>
dibutyl hexanedioate

> <MPID>
101403

> <dsstox_substance_id>
DTXSID2021866

> <Canonical_QSARr>
CCCCOC(=O)CCCCC(=O)OCCCC

> <InChI_Code_QSARr>
InChI=1S/C14H26O4/c1-3-5-11-17-13(15)9-7-8-10-14(16)18-12-6-4-2/h3-12H2,1-2H3

> <InChI Key_QSARr>
XTJFFFGAUHQWII-UHFFFAOYSA-N

> <Salt_Solvent>


> <Ready_Biodeg>
1.0

$$$$
201671
  -INDIGO-08031722522D

 57 57  0  0  0  0  0  0  0  0999 V2000
    9.6000  -11.0852    0.0000 C   0  0  0  0  0  0  0  0  0  0  0  0
   10.3999  -12.4708    0.0000 H   0  0  0  0  0  0  0  0  0  0  0  0
   11.2000  -11.0852    0.0000 H   0  0  0  0  0  0  0  0  0  0  0  0
    8.7999  -12.4708    0.0000 H   0  0  0  0  0  0  0  0  0  0  0  0
    8.7999   -9.6994    0.0000 C   0  0  0  0  0  0  0  0  0  0  0  0
   10.0695   -8.7256    0.0000 H   0  0  0  0  0  0  0  0  0  0  0  0
    9.0088   -8.1131    0.0000 H   0  0  0  0  0  0  0  0  0  0  0  0
    7.2000   -9.6994    0.0000 C   0  0  0  0  0  0  0  0  0  0  0  0
    5.9307  -10.6734    0.0000 H   0  0  0  0  0  0  0  0  0  0  0  0
    6.9911  -11.2859    0.0000 H   0  0  0  0  0  0  0  0  0  0  0  0
    6.4001   -8.3138    0.0000 C   0  0  0  0  0  0  0  0  0  0  0  0
    7.6694   -7.3397    0.0000 H   0  0  0  0  0  0  0  0  0  0  0  0
    6.6090   -6.7275    0.0000 H   0  0  0  0  0  0  0  0  0  0  0  0
    4.7999   -8.3138    0.0000 O   0  0  0  0  0  0  0  0  0  0  0  0
    4.0001   -6.9282    0.0000 C   0  0  0  0  0  0  0  0  0  0  0  0
    4.7999   -5.5426    0.0000 O   0  0  0  0  0  0  0  0  0  0  0  0
    2.4001   -6.9282    0.0000 C   0  0  0  0  0  0  0  0  0  0  0  0
    1.6000   -8.3138    0.0000 C   0  0  0  0  0  0  0  0  0  0  0  0
    2.4001   -9.6996    0.0000 H   0  0  0  0  0  0  0  0  0  0  0  0
    0.0000   -8.3138    0.0000 C   0  0  0  0  0  0  0  0  0  0  0  0
   -0.8001   -9.6994    0.0000 H   0  0  0  0  0  0  0  0  0  0  0  0
   -0.8001   -6.9282    0.0000 C   0  0  0  0  0  0  0  0  0  0  0  0
   -2.4001   -6.9282    0.0000 C   0  0  0  0  0  0  0  0  0  0  0  0
   -3.1999   -5.5426    0.0000 O   0  0  0  0  0  0  0  0  0  0  0  0
   -3.1999   -8.3138    0.0000 O   0  0  0  0  0  0  0  0  0  0  0  0
   -4.8001   -8.3138    0.0000 C   0  0  0  0  0  0  0  0  0  0  0  0
   -5.0090   -6.7275    0.0000 H   0  0  0  0  0  0  0  0  0  0  0  0
   -6.0694   -7.3397    0.0000 H   0  0  0  0  0  0  0  0  0  0  0  0
   -5.6000   -9.6994    0.0000 C   0  0  0  0  0  0  0  0  0  0  0  0
   -5.3911  -11.2859    0.0000 H   0  0  0  0  0  0  0  0  0  0  0  0
   -4.3307  -10.6734    0.0000 H   0  0  0  0  0  0  0  0  0  0  0  0
   -7.1999   -9.6994    0.0000 C   0  0  0  0  0  0  0  0  0  0  0  0
   -7.4088   -8.1131    0.0000 H   0  0  0  0  0  0  0  0  0  0  0  0
   -8.4695   -8.7256    0.0000 H   0  0  0  0  0  0  0  0  0  0  0  0
   -8.0001  -11.0852    0.0000 C   0  0  0  0  0  0  0  0  0  0  0  0
   -8.7999  -12.4708    0.0000 H   0  0  0  0  0  0  0  0  0  0  0  0
   -9.6000  -11.0852    0.0000 H   0  0  0  0  0  0  0  0  0  0  0  0
   -7.1999  -12.4708    0.0000 H   0  0  0  0  0  0  0  0  0  0  0  0
    0.0000   -5.5426    0.0000 C   0  0  0  0  0  0  0  0  0  0  0  0
   -0.8001   -4.1568    0.0000 C   0  0  0  0  0  0  0  0  0  0  0  0
   -2.4001   -4.1568    0.0000 O   0  0  0  0  0  0  0  0  0  0  0  0
    0.0000   -2.7712    0.0000 O   0  0  0  0  0  0  0  0  0  0  0  0
   -0.8001   -1.3856    0.0000 C   0  0  0  0  0  0  0  0  0  0  0  0
   -2.2782   -0.7734    0.0000 H   0  0  0  0  0  0  0  0  0  0  0  0
   -2.2782   -1.9979    0.0000 H   0  0  0  0  0  0  0  0  0  0  0  0
    0.0000   -0.0001    0.0000 C   0  0  0  0  0  0  0  0  0  0  0  0
    1.4781   -0.6123    0.0000 H   0  0  0  0  0  0  0  0  0  0  0  0
    1.4781    0.6122    0.0000 H   0  0  0  0  0  0  0  0  0  0  0  0
   -0.8001    1.3858    0.0000 C   0  0  0  0  0  0  0  0  0  0  0  0
   -2.2782    1.9980    0.0000 H   0  0  0  0  0  0  0  0  0  0  0  0
   -2.2782    0.7733    0.0000 H   0  0  0  0  0  0  0  0  0  0  0  0
    0.0000    2.7713    0.0000 C   0  0  0  0  0  0  0  0  0  0  0  0
    0.8002    4.1569    0.0000 H   0  0  0  0  0  0  0  0  0  0  0  0
   -0.8001    4.1569    0.0000 H   0  0  0  0  0  0  0  0  0  0  0  0
    1.6000    2.7713    0.0000 H   0  0  0  0  0  0  0  0  0  0  0  0
    1.6000   -5.5426    0.0000 C   0  0  0  0  0  0  0  0  0  0  0  0
    2.4001   -4.1568    0.0000 H   0  0  0  0  0  0  0  0  0  0  0  0
  1  2  1  0  0  0  0
  1  3  1  0  0  0  0
  1  4  1  0  0  0  0
  1  5  1  0  0  0  0
  5  6  1  0  0  0  0
  5  7  1  0  0  0  0
  5  8  1  0  0  0  0
  8  9  1  0  0  0  0
  8 10  1  0  0  0  0
  8 11  1  0  0  0  0
 11 12  1  0  0  0  0
 11 13  1  0  0  0  0
 11 14  1  0  0  0  0
 14 15  1  0  0  0  0
 15 16  2  0  0  0  0
 15 17  1  0  0  0  0
 17 18  1  0  0  0  0
 18 19  1  0  0  0  0
 18 20  2  0  0  0  0
 20 21  1  0  0  0  0
 20 22  1  0  0  0  0
 22 23  1  0  0  0  0
 23 24  2  0  0  0  0
 23 25  1  0  0  0  0
 25 26  1  0  0  0  0
 26 27  1  0  0  0  0
 26 28  1  0  0  0  0
 26 29  1  0  0  0  0
 29 30  1  0  0  0  0
 29 31  1  0  0  0  0
 29 32  1  0  0  0  0
 32 33  1  0  0  0  0
 32 34  1  0  0  0  0
 32 35  1  0  0  0  0
 35 36  1  0  0  0  0
 35 37  1  0  0  0  0
 35 38  1  0  0  0  0
 22 39  2  0  0  0  0
 39 40  1  0  0  0  0
 40 41  2  0  0  0  0
 40 42  1  0  0  0  0
 42 43  1  0  0  0  0
 43 44  1  0  0  0  0
 43 45  1  0  0  0  0
 43 46  1  0  0  0  0
 46 47  1  0  0  0  0
 46 48  1  0  0  0  0
 46 49  1  0  0  0  0
 49 50  1  0  0  0  0
 49 51  1  0  0  0  0
 49 52  1  0  0  0  0
 52 53  1  0  0  0  0
 52 54  1  0  0  0  0
 52 55  1  0  0  0  0
 39 56  1  0  0  0  0
 56 17  2  0  0  0  0
 56 57  1  0  0  0  0
M  END
> <ChemID>
201671

> <source_casrn>
1726-23-4

> <CAS>
1726-23-4

> <SMILES>
CCCCOC(=O)c1ccc(C(=O)OCCCC)c(c1)C(=O)OCCCC

> <NAME>


> <preferred_name>
Tributyl benzene-1,2,4-tricarboxylate

> <iupac>
Tributyl benzene-1,2,4-tricarboxylate

> <MPID>
101404

> <dsstox_substance_id>
DTXSID50169353

> <Canonical_QSARr>
CCCCOC(=O)c1ccc(cc1C(=O)OCCCC)C(=O)OCCCC

> <InChI_Code_QSARr>
InChI=1S/C21H30O6/c1-4-7-12-25-19(22)16-10-11-17(20(23)26-13-8-5-2)18(15-16)21(24)27-14-9-6-3/h10-11,15H,4-9,12-14H2,1-3H3

> <InChI Key_QSARr>
RJIFVNWOLLIBJV-UHFFFAOYSA-N

> <Salt_Solvent>


> <Ready_Biodeg>
1.0

$$$$
201681
  -INDIGO-08031722522D

 26 25  0  0  0  0  0  0  0  0999 V2000
    2.7712    0.0000    0.0000 C   0  0  0  0  0  0  0  0  0  0  0  0
    4.1569   -0.8000    0.0000 H   0  0  0  0  0  0  0  0  0  0  0  0
    4.1569    0.8000    0.0000 H   0  0  0  0  0  0  0  0  0  0  0  0
    2.7712   -1.6000    0.0000 H   0  0  0  0  0  0  0  0  0  0  0  0
    1.3857    0.8000    0.0000 C   0  0  0  0  0  0  0  0  0  0  0  0
    0.7734    2.2782    0.0000 H   0  0  0  0  0  0  0  0  0  0  0  0
    1.9979    2.2782    0.0000 H   0  0  0  0  0  0  0  0  0  0  0  0
    0.0000    0.0000    0.0000 C   0  0  0  0  0  0  0  0  0  0  0  0
    0.6122   -1.4782    0.0000 H   0  0  0  0  0  0  0  0  0  0  0  0
   -0.6123   -1.4782    0.0000 H   0  0  0  0  0  0  0  0  0  0  0  0
   -1.3857    0.8000    0.0000 C   0  0  0  0  0  0  0  0  0  0  0  0
   -1.9980    2.2782    0.0000 H   0  0  0  0  0  0  0  0  0  0  0  0
   -0.7733    2.2782    0.0000 H   0  0  0  0  0  0  0  0  0  0  0  0
   -2.7714    0.0000    0.0000 O   0  0  0  0  0  0  0  0  0  0  0  0
   -4.1568    0.8000    0.0000 C   0  0  0  0  0  0  0  0  0  0  0  0
   -4.7692    2.2782    0.0000 H   0  0  0  0  0  0  0  0  0  0  0  0
   -3.5447    2.2782    0.0000 H   0  0  0  0  0  0  0  0  0  0  0  0
   -5.5425    0.0000    0.0000 N   0  0  0  0  0  0  0  0  0  0  0  0
   -5.5425   -1.6000    0.0000 H   0  0  0  0  0  0  0  0  0  0  0  0
   -6.9282    0.8000    0.0000 C   0  0  0  0  0  0  0  0  0  0  0  0
   -6.9282    2.4000    0.0000 O   0  0  0  0  0  0  0  0  0  0  0  0
   -8.3139    0.0000    0.0000 C   0  0  0  0  0  0  0  0  0  0  0  0
   -8.3139   -1.6000    0.0000 H   0  0  0  0  0  0  0  0  0  0  0  0
   -9.6994    0.8000    0.0000 C   0  0  0  0  0  0  0  0  0  0  0  0
  -11.0851    0.0000    0.0000 H   0  0  0  0  0  0  0  0  0  0  0  0
   -9.6994    2.4000    0.0000 H   0  0  0  0  0  0  0  0  0  0  0  0
  1  2  1  0  0  0  0
  1  3  1  0  0  0  0
  1  4  1  0  0  0  0
  1  5  1  0  0  0  0
  5  6  1  0  0  0  0
  5  7  1  0  0  0  0
  5  8  1  0  0  0  0
  8  9  1  0  0  0  0
  8 10  1  0  0  0  0
  8 11  1  0  0  0  0
 11 12  1  0  0  0  0
 11 13  1  0  0  0  0
 11 14  1  0  0  0  0
 14 15  1  0  0  0  0
 15 16  1  0  0  0  0
 15 17  1  0  0  0  0
 15 18  1  0  0  0  0
 18 19  1  0  0  0  0
 18 20  1  0  0  0  0
 20 21  2  0  0  0  0
 20 22  1  0  0  0  0
 22 23  1  0  0  0  0
 22 24  2  0  0  0  0
 24 25  1  0  0  0  0
 24 26  1  0  0  0  0
M  END
> <ChemID>
201681

> <source_casrn>
1852-16-0

> <CAS>
1852-16-0

> <SMILES>
CCCCOCNC(=O)C=C

> <NAME>


> <preferred_name>
N-(Butoxymethyl)acrylamide

> <iupac>
N-(butoxymethyl)prop-2-enamide

> <MPID>
101405

> <dsstox_substance_id>
DTXSID9027443

> <Canonical_QSARr>
CCCCOCNC(=O)C=C

> <InChI_Code_QSARr>
InChI=1S/C8H15NO2/c1-3-5-6-11-7-9-8(10)4-2/h4H,2-3,5-7H2,1H3,(H,9,10)

> <InChI Key_QSARr>
UTSYWKJYFPPRAP-UHFFFAOYSA-N

> <Salt_Solvent>


> <Ready_Biodeg>
1.0

$$$$
201682
  -INDIGO-08031722522D

 32 31  0  0  0  0  0  0  0  0999 V2000
    2.7713    0.0000    0.0000 C   0  0  0  0  0  0  0  0  0  0  0  0
    4.1569   -0.8000    0.0000 H   0  0  0  0  0  0  0  0  0  0  0  0
    4.1569    0.8000    0.0000 H   0  0  0  0  0  0  0  0  0  0  0  0
    2.7713   -1.6000    0.0000 H   0  0  0  0  0  0  0  0  0  0  0  0
    1.3858    0.8000    0.0000 C   0  0  0  0  0  0  0  0  0  0  0  0
    0.7733    2.2782    0.0000 H   0  0  0  0  0  0  0  0  0  0  0  0
    1.9980    2.2782    0.0000 H   0  0  0  0  0  0  0  0  0  0  0  0
   -0.0001    0.0000    0.0000 C   0  0  0  0  0  0  0  0  0  0  0  0
    0.6122   -1.4782    0.0000 H   0  0  0  0  0  0  0  0  0  0  0  0
   -0.6123   -1.4782    0.0000 H   0  0  0  0  0  0  0  0  0  0  0  0
   -1.3856    0.8000    0.0000 C   0  0  0  0  0  0  0  0  0  0  0  0
   -1.9979    2.2782    0.0000 H   0  0  0  0  0  0  0  0  0  0  0  0
   -0.7734    2.2782    0.0000 H   0  0  0  0  0  0  0  0  0  0  0  0
   -2.7712    0.0000    0.0000 O   0  0  0  0  0  0  0  0  0  0  0  0
   -4.1568    0.8000    0.0000 P   0  0  0  0  0  0  0  0  0  0  0  0
   -5.5426    0.0000    0.0000 O   0  0  0  0  0  0  0  0  0  0  0  0
   -5.5426   -1.6000    0.0000 H   0  0  0  0  0  0  0  0  0  0  0  0
   -4.1568    2.4000    0.0000 O   0  0  0  0  0  0  0  0  0  0  0  0
   -5.5426    1.6000    0.0000 O   0  0  0  0  0  0  0  0  0  0  0  0
   -6.9282    0.8000    0.0000 C   0  0  0  0  0  0  0  0  0  0  0  0
   -6.3160   -0.6782    0.0000 H   0  0  0  0  0  0  0  0  0  0  0  0
   -7.5404   -0.6782    0.0000 H   0  0  0  0  0  0  0  0  0  0  0  0
   -8.3138    1.6000    0.0000 C   0  0  0  0  0  0  0  0  0  0  0  0
   -8.9260    3.0782    0.0000 H   0  0  0  0  0  0  0  0  0  0  0  0
   -7.7015    3.0782    0.0000 H   0  0  0  0  0  0  0  0  0  0  0  0
   -9.6994    0.8000    0.0000 C   0  0  0  0  0  0  0  0  0  0  0  0
   -9.0871   -0.6782    0.0000 H   0  0  0  0  0  0  0  0  0  0  0  0
  -10.3118   -0.6782    0.0000 H   0  0  0  0  0  0  0  0  0  0  0  0
  -11.0852    1.6000    0.0000 C   0  0  0  0  0  0  0  0  0  0  0  0
  -12.4708    2.4000    0.0000 H   0  0  0  0  0  0  0  0  0  0  0  0
  -12.4708    0.8000    0.0000 H   0  0  0  0  0  0  0  0  0  0  0  0
  -11.0852    3.2000    0.0000 H   0  0  0  0  0  0  0  0  0  0  0  0
  1  2  1  0  0  0  0
  1  3  1  0  0  0  0
  1  4  1  0  0  0  0
  1  5  1  0  0  0  0
  5  6  1  0  0  0  0
  5  7  1  0  0  0  0
  5  8  1  0  0  0  0
  8  9  1  0  0  0  0
  8 10  1  0  0  0  0
  8 11  1  0  0  0  0
 11 12  1  0  0  0  0
 11 13  1  0  0  0  0
 11 14  1  0  0  0  0
 14 15  1  0  0  0  0
 15 16  1  0  0  0  0
 16 17  1  0  0  0  0
 15 18  2  0  0  0  0
 15 19  1  0  0  0  0
 19 20  1  0  0  0  0
 20 21  1  0  0  0  0
 20 22  1  0  0  0  0
 20 23  1  0  0  0  0
 23 24  1  0  0  0  0
 23 25  1  0  0  0  0
 23 26  1  0  0  0  0
 26 27  1  0  0  0  0
 26 28  1  0  0  0  0
 26 29  1  0  0  0  0
 29 30  1  0  0  0  0
 29 31  1  0  0  0  0
 29 32  1  0  0  0  0
M  END
> <ChemID>
201682

> <source_casrn>
107-66-4

> <CAS>
107-66-4

> <SMILES>
CCCCO[P](O)(=O)OCCCC

> <NAME>


> <preferred_name>
Phosphoric acid, dibutyl ester

> <iupac>
dibutyl hydrogen phosphate

> <MPID>
101406

> <dsstox_substance_id>
DTXSID3040728

> <Canonical_QSARr>
CCCCOP(O)(=O)OCCCC

> <InChI_Code_QSARr>
InChI=1S/C8H19O4P/c1-3-5-7-11-13(9,10)12-8-6-4-2/h3-8H2,1-2H3,(H,9,10)

> <InChI Key_QSARr>
JYFHYPJRHGVZDY-UHFFFAOYSA-N

> <Salt_Solvent>


> <Ready_Biodeg>
0.0

$$$$
201683
  -INDIGO-08031722522D

 38 38  0  0  0  0  0  0  0  0999 V2000
    2.4001    1.3857    0.0000 C   0  0  0  0  0  0  0  0  0  0  0  0
    3.1999    2.7713    0.0000 H   0  0  0  0  0  0  0  0  0  0  0  0
    4.0000    1.3857    0.0000 H   0  0  0  0  0  0  0  0  0  0  0  0
    1.6001    2.7713    0.0000 H   0  0  0  0  0  0  0  0  0  0  0  0
    1.6001    0.0000    0.0000 C   0  0  0  0  0  0  0  0  0  0  0  0
    1.8088   -1.5863    0.0000 H   0  0  0  0  0  0  0  0  0  0  0  0
    2.8694   -0.9740    0.0000 H   0  0  0  0  0  0  0  0  0  0  0  0
   -0.0001    0.0000    0.0000 C   0  0  0  0  0  0  0  0  0  0  0  0
   -0.2088    1.5864    0.0000 H   0  0  0  0  0  0  0  0  0  0  0  0
   -1.2694    0.9741    0.0000 H   0  0  0  0  0  0  0  0  0  0  0  0
   -0.7999   -1.3856    0.0000 C   0  0  0  0  0  0  0  0  0  0  0  0
   -0.5911   -2.9719    0.0000 H   0  0  0  0  0  0  0  0  0  0  0  0
    0.4694   -2.3596    0.0000 H   0  0  0  0  0  0  0  0  0  0  0  0
   -2.4000   -1.3856    0.0000 O   0  0  0  0  0  0  0  0  0  0  0  0
   -3.2001   -2.7713    0.0000 C   0  0  0  0  0  0  0  0  0  0  0  0
   -2.4000   -4.1570    0.0000 C   0  0  0  0  0  0  0  0  0  0  0  0
   -0.7999   -4.1570    0.0000 H   0  0  0  0  0  0  0  0  0  0  0  0
   -3.2001   -5.5426    0.0000 C   0  0  0  0  0  0  0  0  0  0  0  0
   -2.4000   -6.9282    0.0000 H   0  0  0  0  0  0  0  0  0  0  0  0
   -4.7999   -5.5426    0.0000 C   0  0  0  0  0  0  0  0  0  0  0  0
   -5.6000   -6.9282    0.0000 H   0  0  0  0  0  0  0  0  0  0  0  0
   -5.6000   -4.1570    0.0000 C   0  0  0  0  0  0  0  0  0  0  0  0
   -7.2001   -4.1570    0.0000 H   0  0  0  0  0  0  0  0  0  0  0  0
   -4.7999   -2.7713    0.0000 C   0  0  0  0  0  0  0  0  0  0  0  0
   -5.6000   -1.3856    0.0000 O   0  0  0  0  0  0  0  0  0  0  0  0
   -7.1999   -1.3856    0.0000 C   0  0  0  0  0  0  0  0  0  0  0  0
   -8.4694   -2.3596    0.0000 H   0  0  0  0  0  0  0  0  0  0  0  0
   -7.4089   -2.9719    0.0000 H   0  0  0  0  0  0  0  0  0  0  0  0
   -7.9999    0.0000    0.0000 C   0  0  0  0  0  0  0  0  0  0  0  0
   -6.7306    0.9741    0.0000 H   0  0  0  0  0  0  0  0  0  0  0  0
   -7.7912    1.5864    0.0000 H   0  0  0  0  0  0  0  0  0  0  0  0
   -9.6001    0.0000    0.0000 C   0  0  0  0  0  0  0  0  0  0  0  0
  -10.8694   -0.9740    0.0000 H   0  0  0  0  0  0  0  0  0  0  0  0
   -9.8088   -1.5863    0.0000 H   0  0  0  0  0  0  0  0  0  0  0  0
  -10.4001    1.3857    0.0000 C   0  0  0  0  0  0  0  0  0  0  0  0
  -11.1999    2.7713    0.0000 H   0  0  0  0  0  0  0  0  0  0  0  0
  -12.0000    1.3857    0.0000 H   0  0  0  0  0  0  0  0  0  0  0  0
   -9.6001    2.7713    0.0000 H   0  0  0  0  0  0  0  0  0  0  0  0
  1  2  1  0  0  0  0
  1  3  1  0  0  0  0
  1  4  1  0  0  0  0
  1  5  1  0  0  0  0
  5  6  1  0  0  0  0
  5  7  1  0  0  0  0
  5  8  1  0  0  0  0
  8  9  1  0  0  0  0
  8 10  1  0  0  0  0
  8 11  1  0  0  0  0
 11 12  1  0  0  0  0
 11 13  1  0  0  0  0
 11 14  1  0  0  0  0
 14 15  1  0  0  0  0
 15 16  1  0  0  0  0
 16 17  1  0  0  0  0
 16 18  2  0  0  0  0
 18 19  1  0  0  0  0
 18 20  1  0  0  0  0
 20 21  1  0  0  0  0
 20 22  2  0  0  0  0
 22 23  1  0  0  0  0
 22 24  1  0  0  0  0
 24 15  2  0  0  0  0
 24 25  1  0  0  0  0
 25 26  1  0  0  0  0
 26 27  1  0  0  0  0
 26 28  1  0  0  0  0
 26 29  1  0  0  0  0
 29 30  1  0  0  0  0
 29 31  1  0  0  0  0
 29 32  1  0  0  0  0
 32 33  1  0  0  0  0
 32 34  1  0  0  0  0
 32 35  1  0  0  0  0
 35 36  1  0  0  0  0
 35 37  1  0  0  0  0
 35 38  1  0  0  0  0
M  END
> <ChemID>
201683

> <source_casrn>


> <CAS>
20367-35-5

> <SMILES>
CCCCOc1ccccc1OCCCC

> <NAME>


> <preferred_name>


> <iupac>


> <MPID>
101407

> <dsstox_substance_id>


> <Canonical_QSARr>
CCCCOc1ccccc1OCCCC

> <InChI_Code_QSARr>
InChI=1S/C14H22O2/c1-3-5-11-15-13-9-7-8-10-14(13)16-12-6-4-2/h7-10H,3-6,11-12H2,1-2H3

> <InChI Key_QSARr>
GHKFGRVGAQYZNT-UHFFFAOYSA-N

> <Salt_Solvent>


> <Ready_Biodeg>
0.0

$$$$
201689
  -INDIGO-08031722522D

 39 39  0  0  0  0  0  0  0  0999 V2000
    2.1857   -3.7857    0.0000 C   0  0  0  0  0  0  0  0  0  0  0  0
    2.1857   -5.3856    0.0000 H   0  0  0  0  0  0  0  0  0  0  0  0
    3.5713   -4.5857    0.0000 H   0  0  0  0  0  0  0  0  0  0  0  0
    0.7999   -4.5857    0.0000 H   0  0  0  0  0  0  0  0  0  0  0  0
    2.1857   -2.1857    0.0000 C   0  0  0  0  0  0  0  0  0  0  0  0
    3.7719   -1.9768    0.0000 H   0  0  0  0  0  0  0  0  0  0  0  0
    3.1597   -0.9163    0.0000 H   0  0  0  0  0  0  0  0  0  0  0  0
    0.7999   -1.3856    0.0000 C   0  0  0  0  0  0  0  0  0  0  0  0
   -0.4694   -2.3597    0.0000 H   0  0  0  0  0  0  0  0  0  0  0  0
    0.5911   -2.9720    0.0000 H   0  0  0  0  0  0  0  0  0  0  0  0
   -0.0001    0.0000    0.0000 N   0  0  0  0  0  0  0  0  0  0  0  0
    0.7999    1.3857    0.0000 C   0  0  0  0  0  0  0  0  0  0  0  0
    0.5911    2.9719    0.0000 H   0  0  0  0  0  0  0  0  0  0  0  0
   -0.4694    2.3597    0.0000 H   0  0  0  0  0  0  0  0  0  0  0  0
    2.4000    1.3857    0.0000 C   0  0  0  0  0  0  0  0  0  0  0  0
    2.3302   -0.2128    0.0000 H   0  0  0  0  0  0  0  0  0  0  0  0
    3.6693    0.4117    0.0000 H   0  0  0  0  0  0  0  0  0  0  0  0
    3.2000    2.7713    0.0000 C   0  0  0  0  0  0  0  0  0  0  0  0
    4.0000    4.1569    0.0000 H   0  0  0  0  0  0  0  0  0  0  0  0
    4.8000    2.7713    0.0000 H   0  0  0  0  0  0  0  0  0  0  0  0
    2.4000    4.1569    0.0000 H   0  0  0  0  0  0  0  0  0  0  0  0
   -1.6001    0.0000    0.0000 C   0  0  0  0  0  0  0  0  0  0  0  0
   -2.3999    1.3857    0.0000 C   0  0  0  0  0  0  0  0  0  0  0  0
   -2.1222    2.9613    0.0000 N   0  0  0  0  0  0  0  0  0  0  0  0
   -3.3478    3.9898    0.0000 O   0  0  0  0  0  0  0  0  0  0  0  0
   -0.6186    3.5085    0.0000 O   0  0  0  0  0  0  0  0  0  0  0  0
   -3.9999    1.3857    0.0000 C   0  0  0  0  0  0  0  0  0  0  0  0
   -4.8000    2.7713    0.0000 H   0  0  0  0  0  0  0  0  0  0  0  0
   -4.8000    0.0000    0.0000 C   0  0  0  0  0  0  0  0  0  0  0  0
   -6.4000    0.0000    0.0000 C   0  0  0  0  0  0  0  0  0  0  0  0
   -8.0000    0.0000    0.0000 F   0  0  0  0  0  0  0  0  0  0  0  0
   -7.2000   -1.3856    0.0000 F   0  0  0  0  0  0  0  0  0  0  0  0
   -7.2000    1.3857    0.0000 F   0  0  0  0  0  0  0  0  0  0  0  0
   -3.9999   -1.3856    0.0000 C   0  0  0  0  0  0  0  0  0  0  0  0
   -4.8000   -2.7712    0.0000 H   0  0  0  0  0  0  0  0  0  0  0  0
   -2.3999   -1.3856    0.0000 C   0  0  0  0  0  0  0  0  0  0  0  0
   -2.1222   -2.9614    0.0000 N   0  0  0  0  0  0  0  0  0  0  0  0
   -3.3478   -3.9898    0.0000 O   0  0  0  0  0  0  0  0  0  0  0  0
   -0.6186   -3.5086    0.0000 O   0  0  0  0  0  0  0  0  0  0  0  0
  1  2  1  0  0  0  0
  1  3  1  0  0  0  0
  1  4  1  0  0  0  0
  1  5  1  0  0  0  0
  5  6  1  0  0  0  0
  5  7  1  0  0  0  0
  5  8  1  0  0  0  0
  8  9  1  0  0  0  0
  8 10  1  0  0  0  0
  8 11  1  0  0  0  0
 11 12  1  0  0  0  0
 12 13  1  0  0  0  0
 12 14  1  0  0  0  0
 12 15  1  0  0  0  0
 15 16  1  0  0  0  0
 15 17  1  0  0  0  0
 15 18  1  0  0  0  0
 18 19  1  0  0  0  0
 18 20  1  0  0  0  0
 18 21  1  0  0  0  0
 11 22  1  0  0  0  0
 22 23  1  0  0  0  0
 23 24  1  0  0  0  0
 24 25  1  0  0  0  0
 24 26  2  0  0  0  0
 23 27  2  0  0  0  0
 27 28  1  0  0  0  0
 27 29  1  0  0  0  0
 29 30  1  0  0  0  0
 30 31  1  0  0  0  0
 30 32  1  0  0  0  0
 30 33  1  0  0  0  0
 29 34  2  0  0  0  0
 34 35  1  0  0  0  0
 34 36  1  0  0  0  0
 36 22  2  0  0  0  0
 36 37  1  0  0  0  0
 37 38  1  0  0  0  0
 37 39  2  0  0  0  0
M  CHG  4  24   1  25  -1  37   1  38  -1
M  END
> <ChemID>
201689

> <source_casrn>
1582-09-8

> <CAS>
1582-09-8

> <SMILES>
CCCN(CCC)c1c(cc(cc1[N+]([O-])=O)C(F)(F)F)[N+]([O-])=O

> <NAME>


> <preferred_name>
Trifluralin

> <iupac>
2,6-dinitro-N,N-dipropyl-4-(trifluoromethyl)aniline

> <MPID>
101409

> <dsstox_substance_id>
DTXSID4021395

> <Canonical_QSARr>
CCCN(CCC)c1c(cc(cc1[N+]([O-])=O)C(F)(F)F)[N+]([O-])=O

> <InChI_Code_QSARr>
InChI=1S/C13H16F3N3O4/c1-3-5-17(6-4-2)12-10(18(20)21)7-9(13(14,15)16)8-11(12)19(22)23/h7-8H,3-6H2,1-2H3

> <InChI Key_QSARr>
ZSDSQXJSNMTJDA-UHFFFAOYSA-N

> <Salt_Solvent>


> <Ready_Biodeg>
0.0

$$$$
201691
  -INDIGO-08031722522D

 42 43  0  0  0  0  0  0  0  0999 V2000
    2.4000   -1.3856    0.0000 C   0  0  0  0  0  0  0  0  0  0  0  0
    3.2000   -2.7713    0.0000 H   0  0  0  0  0  0  0  0  0  0  0  0
    4.0000   -1.3856    0.0000 H   0  0  0  0  0  0  0  0  0  0  0  0
    1.6000   -2.7713    0.0000 H   0  0  0  0  0  0  0  0  0  0  0  0
    0.8000   -1.3856    0.0000 C   0  0  0  0  0  0  0  0  0  0  0  0
    0.5912   -2.9720    0.0000 H   0  0  0  0  0  0  0  0  0  0  0  0
   -0.4694   -2.3596    0.0000 H   0  0  0  0  0  0  0  0  0  0  0  0
    0.0000    0.0000    0.0000 N   0  0  0  0  0  0  0  0  0  0  0  0
    0.8000    1.3856    0.0000 C   0  0  0  0  0  0  0  0  0  0  0  0
   -0.4694    2.3597    0.0000 H   0  0  0  0  0  0  0  0  0  0  0  0
    0.5912    2.9720    0.0000 H   0  0  0  0  0  0  0  0  0  0  0  0
    2.4000    1.3856    0.0000 C   0  0  0  0  0  0  0  0  0  0  0  0
    4.0000    1.3856    0.0000 H   0  0  0  0  0  0  0  0  0  0  0  0
    3.2000    2.7712    0.0000 H   0  0  0  0  0  0  0  0  0  0  0  0
    3.2000    0.0000    0.0000 H   0  0  0  0  0  0  0  0  0  0  0  0
   -1.6000    0.0000    0.0000 C   0  0  0  0  0  0  0  0  0  0  0  0
   -2.4000    1.3856    0.0000 C   0  0  0  0  0  0  0  0  0  0  0  0
   -1.6000    2.7712    0.0000 H   0  0  0  0  0  0  0  0  0  0  0  0
   -4.0000    1.3856    0.0000 C   0  0  0  0  0  0  0  0  0  0  0  0
   -4.8000    2.7712    0.0000 H   0  0  0  0  0  0  0  0  0  0  0  0
   -4.8000    0.0000    0.0000 C   0  0  0  0  0  0  0  0  0  0  0  0
   -6.3999    0.0000    0.0000 C   0  0  0  0  0  0  0  0  0  0  0  0
   -6.6777   -1.5756    0.0000 O   0  0  0  0  0  0  0  0  0  0  0  0
   -7.6256    1.0285    0.0000 C   0  0  0  0  0  0  0  0  0  0  0  0
   -7.3478    2.6042    0.0000 C   0  0  0  0  0  0  0  0  0  0  0  0
   -5.8444    3.1513    0.0000 H   0  0  0  0  0  0  0  0  0  0  0  0
   -8.5734    3.6326    0.0000 C   0  0  0  0  0  0  0  0  0  0  0  0
   -8.2956    5.2083    0.0000 H   0  0  0  0  0  0  0  0  0  0  0  0
  -10.0771    3.0853    0.0000 C   0  0  0  0  0  0  0  0  0  0  0  0
  -11.3028    4.1138    0.0000 H   0  0  0  0  0  0  0  0  0  0  0  0
  -10.3549    1.5097    0.0000 C   0  0  0  0  0  0  0  0  0  0  0  0
  -11.8584    0.9625    0.0000 H   0  0  0  0  0  0  0  0  0  0  0  0
   -9.1293    0.4812    0.0000 C   0  0  0  0  0  0  0  0  0  0  0  0
   -9.4071   -1.0945    0.0000 C   0  0  0  0  0  0  0  0  0  0  0  0
  -10.9105   -1.6417    0.0000 O   0  0  0  0  0  0  0  0  0  0  0  0
  -11.1883   -3.2173    0.0000 H   0  0  0  0  0  0  0  0  0  0  0  0
   -8.1814   -2.1230    0.0000 O   0  0  0  0  0  0  0  0  0  0  0  0
   -4.0000   -1.3856    0.0000 C   0  0  0  0  0  0  0  0  0  0  0  0
   -4.8000   -2.7713    0.0000 O   0  0  0  0  0  0  0  0  0  0  0  0
   -4.0000   -4.1569    0.0000 H   0  0  0  0  0  0  0  0  0  0  0  0
   -2.4000   -1.3856    0.0000 C   0  0  0  0  0  0  0  0  0  0  0  0
   -1.6000   -2.7713    0.0000 H   0  0  0  0  0  0  0  0  0  0  0  0
  1  2  1  0  0  0  0
  1  3  1  0  0  0  0
  1  4  1  0  0  0  0
  1  5  1  0  0  0  0
  5  6  1  0  0  0  0
  5  7  1  0  0  0  0
  5  8  1  0  0  0  0
  8  9  1  0  0  0  0
  9 10  1  0  0  0  0
  9 11  1  0  0  0  0
  9 12  1  0  0  0  0
 12 13  1  0  0  0  0
 12 14  1  0  0  0  0
 12 15  1  0  0  0  0
  8 16  1  0  0  0  0
 16 17  1  0  0  0  0
 17 18  1  0  0  0  0
 17 19  2  0  0  0  0
 19 20  1  0  0  0  0
 19 21  1  0  0  0  0
 21 22  1  0  0  0  0
 22 23  2  0  0  0  0
 22 24  1  0  0  0  0
 24 25  1  0  0  0  0
 25 26  1  0  0  0  0
 25 27  2  0  0  0  0
 27 28  1  0  0  0  0
 27 29  1  0  0  0  0
 29 30  1  0  0  0  0
 29 31  2  0  0  0  0
 31 32  1  0  0  0  0
 31 33  1  0  0  0  0
 33 24  2  0  0  0  0
 33 34  1  0  0  0  0
 34 35  1  0  0  0  0
 35 36  1  0  0  0  0
 34 37  2  0  0  0  0
 21 38  2  0  0  0  0
 38 39  1  0  0  0  0
 39 40  1  0  0  0  0
 38 41  1  0  0  0  0
 41 16  2  0  0  0  0
 41 42  1  0  0  0  0
M  END
> <ChemID>
201691

> <source_casrn>
5809-23-4

> <CAS>
5809-23-4

> <SMILES>
CCN(CC)c1ccc(c(O)c1)C(=O)c2ccccc2C(O)=O

> <NAME>


> <preferred_name>
2-[4-(Diethylamino)-2-hydroxybenzoyl]benzoic acid

> <iupac>
2-[4-(diethylamino)-2-hydroxybenzoyl]benzoic acid

> <MPID>
101410

> <dsstox_substance_id>
DTXSID4027604

> <Canonical_QSARr>
CCN(CC)c1cc(O)c(cc1)C(=O)c1ccccc1C(O)=O

> <InChI_Code_QSARr>
InChI=1S/C18H19NO4/c1-3-19(4-2)12-9-10-15(16(20)11-12)17(21)13-7-5-6-8-14(13)18(22)23/h5-11,20H,3-4H2,1-2H3,(H,22,23)

> <InChI Key_QSARr>
FQNKTJPBXAZUGC-UHFFFAOYSA-N

> <Salt_Solvent>


> <Ready_Biodeg>
0.0

$$$$
201694
  -INDIGO-08031722522D

 23 22  0  0  0  0  0  0  0  0999 V2000
    2.4001   -1.3856    0.0000 C   0  0  0  0  0  0  0  0  0  0  0  0
    3.2000   -2.7713    0.0000 H   0  0  0  0  0  0  0  0  0  0  0  0
    4.0000   -1.3856    0.0000 H   0  0  0  0  0  0  0  0  0  0  0  0
    1.6000   -2.7713    0.0000 H   0  0  0  0  0  0  0  0  0  0  0  0
    1.6000    0.0000    0.0000 C   0  0  0  0  0  0  0  0  0  0  0  0
    2.8694    0.9740    0.0000 H   0  0  0  0  0  0  0  0  0  0  0  0
    1.8088    1.5863    0.0000 H   0  0  0  0  0  0  0  0  0  0  0  0
   -0.0000    0.0000    0.0000 N   0  0  0  0  0  0  0  0  0  0  0  0
   -0.8000    1.3857    0.0000 C   0  0  0  0  0  0  0  0  0  0  0  0
   -2.2782    1.9980    0.0000 H   0  0  0  0  0  0  0  0  0  0  0  0
   -2.2782    0.7733    0.0000 H   0  0  0  0  0  0  0  0  0  0  0  0
   -0.0000    2.7713    0.0000 C   0  0  0  0  0  0  0  0  0  0  0  0
    0.8000    4.1569    0.0000 H   0  0  0  0  0  0  0  0  0  0  0  0
   -0.8000    4.1569    0.0000 H   0  0  0  0  0  0  0  0  0  0  0  0
    1.6000    2.7713    0.0000 H   0  0  0  0  0  0  0  0  0  0  0  0
   -0.8000   -1.3856    0.0000 C   0  0  0  0  0  0  0  0  0  0  0  0
   -0.5911   -2.9720    0.0000 H   0  0  0  0  0  0  0  0  0  0  0  0
    0.4694   -2.3596    0.0000 H   0  0  0  0  0  0  0  0  0  0  0  0
   -2.4000   -1.3856    0.0000 C   0  0  0  0  0  0  0  0  0  0  0  0
   -2.6088   -2.9720    0.0000 H   0  0  0  0  0  0  0  0  0  0  0  0
   -3.6694   -2.3596    0.0000 H   0  0  0  0  0  0  0  0  0  0  0  0
   -3.2001    0.0000    0.0000 O   0  0  0  0  0  0  0  0  0  0  0  0
   -4.8000    0.0000    0.0000 H   0  0  0  0  0  0  0  0  0  0  0  0
  1  2  1  0  0  0  0
  1  3  1  0  0  0  0
  1  4  1  0  0  0  0
  1  5  1  0  0  0  0
  5  6  1  0  0  0  0
  5  7  1  0  0  0  0
  5  8  1  0  0  0  0
  8  9  1  0  0  0  0
  9 10  1  0  0  0  0
  9 11  1  0  0  0  0
  9 12  1  0  0  0  0
 12 13  1  0  0  0  0
 12 14  1  0  0  0  0
 12 15  1  0  0  0  0
  8 16  1  0  0  0  0
 16 17  1  0  0  0  0
 16 18  1  0  0  0  0
 16 19  1  0  0  0  0
 19 20  1  0  0  0  0
 19 21  1  0  0  0  0
 19 22  1  0  0  0  0
 22 23  1  0  0  0  0
M  END
> <ChemID>
201694

> <source_casrn>
100-37-8

> <CAS>
100-37-8

> <SMILES>
CCN(CC)CCO

> <NAME>


> <preferred_name>
N,N-Diethylethanolamine

> <iupac>
C6H15NO

> <MPID>
101412

> <dsstox_substance_id>
DTXSID5021837

> <Canonical_QSARr>
CCN(CCO)CC

> <InChI_Code_QSARr>
InChI=1S/C6H15NO/c1-3-7(4-2)5-6-8/h8H,3-6H2,1-2H3

> <InChI Key_QSARr>
BFSVOASYOCHEOV-UHFFFAOYSA-N

> <Salt_Solvent>


> <Ready_Biodeg>
0.0

$$$$
201695
  -INDIGO-08031722522D

 24 23  0  0  0  0  0  0  0  0999 V2000
   -1.3857   -2.4000    0.0000 C   0  0  0  0  0  0  0  0  0  0  0  0
   -1.3857   -4.0000    0.0000 H   0  0  0  0  0  0  0  0  0  0  0  0
   -2.7712   -3.2000    0.0000 H   0  0  0  0  0  0  0  0  0  0  0  0
    0.0001   -3.2000    0.0000 H   0  0  0  0  0  0  0  0  0  0  0  0
    0.0001   -1.6000    0.0000 C   0  0  0  0  0  0  0  0  0  0  0  0
    1.5863   -1.8089    0.0000 H   0  0  0  0  0  0  0  0  0  0  0  0
    0.9740   -2.8694    0.0000 H   0  0  0  0  0  0  0  0  0  0  0  0
    0.0001    0.0000    0.0000 N   0  0  0  0  0  0  0  0  0  0  0  0
   -1.3857    0.8000    0.0000 C   0  0  0  0  0  0  0  0  0  0  0  0
   -1.9979    2.2782    0.0000 H   0  0  0  0  0  0  0  0  0  0  0  0
   -0.7734    2.2782    0.0000 H   0  0  0  0  0  0  0  0  0  0  0  0
   -2.7712    0.0000    0.0000 C   0  0  0  0  0  0  0  0  0  0  0  0
   -2.1590   -1.4782    0.0000 H   0  0  0  0  0  0  0  0  0  0  0  0
   -3.3835   -1.4782    0.0000 H   0  0  0  0  0  0  0  0  0  0  0  0
   -4.1570    0.8000    0.0000 O   0  0  0  0  0  0  0  0  0  0  0  0
   -5.5426    0.0000    0.0000 H   0  0  0  0  0  0  0  0  0  0  0  0
    1.3857    0.8000    0.0000 C   0  0  0  0  0  0  0  0  0  0  0  0
    0.7734    2.2782    0.0000 H   0  0  0  0  0  0  0  0  0  0  0  0
    1.9979    2.2782    0.0000 H   0  0  0  0  0  0  0  0  0  0  0  0
    2.7712    0.0000    0.0000 C   0  0  0  0  0  0  0  0  0  0  0  0
    4.3576    0.2088    0.0000 H   0  0  0  0  0  0  0  0  0  0  0  0
    3.7453    1.2693    0.0000 H   0  0  0  0  0  0  0  0  0  0  0  0
    2.7712   -1.6000    0.0000 O   0  0  0  0  0  0  0  0  0  0  0  0
    4.1570   -2.4000    0.0000 H   0  0  0  0  0  0  0  0  0  0  0  0
  1  2  1  0  0  0  0
  1  3  1  0  0  0  0
  1  4  1  0  0  0  0
  1  5  1  0  0  0  0
  5  6  1  0  0  0  0
  5  7  1  0  0  0  0
  5  8  1  0  0  0  0
  8  9  1  0  0  0  0
  9 10  1  0  0  0  0
  9 11  1  0  0  0  0
  9 12  1  0  0  0  0
 12 13  1  0  0  0  0
 12 14  1  0  0  0  0
 12 15  1  0  0  0  0
 15 16  1  0  0  0  0
  8 17  1  0  0  0  0
 17 18  1  0  0  0  0
 17 19  1  0  0  0  0
 17 20  1  0  0  0  0
 20 21  1  0  0  0  0
 20 22  1  0  0  0  0
 20 23  1  0  0  0  0
 23 24  1  0  0  0  0
M  END
> <ChemID>
201695

> <source_casrn>
139-87-7

> <CAS>
139-87-7

> <SMILES>
CCN(CCO)CCO

> <NAME>


> <preferred_name>
Ethyl diethanolamine

> <iupac>
2,2'-(ethylimino)diethanol

> <MPID>
101413

> <dsstox_substance_id>
DTXSID8041955

> <Canonical_QSARr>
CCN(CCO)CCO

> <InChI_Code_QSARr>
InChI=1S/C6H15NO2/c1-2-7(3-5-8)4-6-9/h8-9H,2-6H2,1H3

> <InChI Key_QSARr>
AKNUHUCEWALCOI-UHFFFAOYSA-N

> <Salt_Solvent>


> <Ready_Biodeg>
0.0

$$$$
201697
  -INDIGO-08031722522D

 21 21  0  0  0  0  0  0  0  0999 V2000
    2.7713   -0.0000    0.0000 C   0  0  0  0  0  0  0  0  0  0  0  0
    4.1569    0.8000    0.0000 H   0  0  0  0  0  0  0  0  0  0  0  0
    4.1569   -0.8000    0.0000 H   0  0  0  0  0  0  0  0  0  0  0  0
    2.7713    1.6000    0.0000 H   0  0  0  0  0  0  0  0  0  0  0  0
    1.3856    0.8000    0.0000 C   0  0  0  0  0  0  0  0  0  0  0  0
    1.9980    2.2782    0.0000 H   0  0  0  0  0  0  0  0  0  0  0  0
    0.7734    2.2782    0.0000 H   0  0  0  0  0  0  0  0  0  0  0  0
    0.0000   -0.0000    0.0000 N   0  0  0  0  0  0  0  0  0  0  0  0
    0.0000   -1.6000    0.0000 C   0  0  0  0  0  0  0  0  0  0  0  0
    1.5757   -1.3221    0.0000 H   0  0  0  0  0  0  0  0  0  0  0  0
    0.5472   -3.1035    0.0000 H   0  0  0  0  0  0  0  0  0  0  0  0
   -1.3857   -2.4000    0.0000 C   0  0  0  0  0  0  0  0  0  0  0  0
   -0.3572   -3.6257    0.0000 H   0  0  0  0  0  0  0  0  0  0  0  0
   -2.4141   -3.6257    0.0000 H   0  0  0  0  0  0  0  0  0  0  0  0
   -2.7713   -1.6000    0.0000 O   0  0  0  0  0  0  0  0  0  0  0  0
   -2.7713   -0.0000    0.0000 C   0  0  0  0  0  0  0  0  0  0  0  0
   -4.3470   -0.2778    0.0000 H   0  0  0  0  0  0  0  0  0  0  0  0
   -3.3185    1.5035    0.0000 H   0  0  0  0  0  0  0  0  0  0  0  0
   -1.3857    0.8000    0.0000 C   0  0  0  0  0  0  0  0  0  0  0  0
   -2.4141    2.0257    0.0000 H   0  0  0  0  0  0  0  0  0  0  0  0
   -0.3572    2.0257    0.0000 H   0  0  0  0  0  0  0  0  0  0  0  0
  1  2  1  0  0  0  0
  1  3  1  0  0  0  0
  1  4  1  0  0  0  0
  1  5  1  0  0  0  0
  5  6  1  0  0  0  0
  5  7  1  0  0  0  0
  5  8  1  0  0  0  0
  8  9  1  0  0  0  0
  9 10  1  0  0  0  0
  9 11  1  0  0  0  0
  9 12  1  0  0  0  0
 12 13  1  0  0  0  0
 12 14  1  0  0  0  0
 12 15  1  0  0  0  0
 15 16  1  0  0  0  0
 16 17  1  0  0  0  0
 16 18  1  0  0  0  0
 16 19  1  0  0  0  0
 19  8  1  0  0  0  0
 19 20  1  0  0  0  0
 19 21  1  0  0  0  0
M  END
> <ChemID>
201697

> <source_casrn>
100-74-3

> <CAS>
100-74-3

> <SMILES>
CCN1CCOCC1

> <NAME>


> <preferred_name>
N-Ethylmorpholine

> <iupac>
4-ethylmorpholine

> <MPID>
101415

> <dsstox_substance_id>
DTXSID5025312

> <Canonical_QSARr>
CCN1CCOCC1

> <InChI_Code_QSARr>
InChI=1S/C6H13NO/c1-2-7-3-5-8-6-4-7/h2-6H2,1H3

> <InChI Key_QSARr>
HVCNXQOWACZAFN-UHFFFAOYSA-N

> <Salt_Solvent>


> <Ready_Biodeg>
0.0

$$$$
201701
  -INDIGO-08031722522D

 32 32  0  0  0  0  0  0  0  0999 V2000
    9.6996    0.8000    0.0000 C   0  0  0  0  0  0  0  0  0  0  0  0
   11.0851    1.5999    0.0000 H   0  0  0  0  0  0  0  0  0  0  0  0
   11.0851   -0.0000    0.0000 H   0  0  0  0  0  0  0  0  0  0  0  0
    9.6996    2.4000    0.0000 H   0  0  0  0  0  0  0  0  0  0  0  0
    8.3138   -0.0000    0.0000 C   0  0  0  0  0  0  0  0  0  0  0  0
    8.9262   -1.4781    0.0000 H   0  0  0  0  0  0  0  0  0  0  0  0
    7.7015   -1.4781    0.0000 H   0  0  0  0  0  0  0  0  0  0  0  0
    6.9283    0.8000    0.0000 N   0  0  0  0  0  0  0  0  0  0  0  0
    6.9283    2.4000    0.0000 H   0  0  0  0  0  0  0  0  0  0  0  0
    5.5426   -0.0000    0.0000 C   0  0  0  0  0  0  0  0  0  0  0  0
    4.1570    0.8000    0.0000 N   0  0  0  0  0  0  0  0  0  0  0  0
    2.7713   -0.0000    0.0000 C   0  0  0  0  0  0  0  0  0  0  0  0
    1.3857    0.8000    0.0000 N   0  0  0  0  0  0  0  0  0  0  0  0
    1.3857    2.4000    0.0000 H   0  0  0  0  0  0  0  0  0  0  0  0
    0.0000   -0.0000    0.0000 C   0  0  0  0  0  0  0  0  0  0  0  0
    0.8001   -1.3856    0.0000 H   0  0  0  0  0  0  0  0  0  0  0  0
   -1.3855   -0.8000    0.0000 C   0  0  0  0  0  0  0  0  0  0  0  0
   -2.7713   -1.6000    0.0000 H   0  0  0  0  0  0  0  0  0  0  0  0
   -2.7713   -0.0000    0.0000 H   0  0  0  0  0  0  0  0  0  0  0  0
   -1.3857   -2.4000    0.0000 H   0  0  0  0  0  0  0  0  0  0  0  0
   -0.8001    1.3857    0.0000 C   0  0  0  0  0  0  0  0  0  0  0  0
   -1.5999    2.7713    0.0000 H   0  0  0  0  0  0  0  0  0  0  0  0
   -2.4000    1.3857    0.0000 H   0  0  0  0  0  0  0  0  0  0  0  0
    0.0000    2.7713    0.0000 H   0  0  0  0  0  0  0  0  0  0  0  0
    2.7713   -1.6000    0.0000 N   0  0  0  0  0  0  0  0  0  0  0  0
    4.1570   -2.4000    0.0000 C   0  0  0  0  0  0  0  0  0  0  0  0
    4.1570   -3.9999    0.0000 S   0  0  0  0  0  0  0  0  0  0  0  0
    5.5426   -4.8000    0.0000 C   0  0  0  0  0  0  0  0  0  0  0  0
    5.5426   -6.4000    0.0000 H   0  0  0  0  0  0  0  0  0  0  0  0
    6.9283   -5.5999    0.0000 H   0  0  0  0  0  0  0  0  0  0  0  0
    6.9283   -3.9999    0.0000 H   0  0  0  0  0  0  0  0  0  0  0  0
    5.5426   -1.6000    0.0000 N   0  0  0  0  0  0  0  0  0  0  0  0
  1  2  1  0  0  0  0
  1  3  1  0  0  0  0
  1  4  1  0  0  0  0
  1  5  1  0  0  0  0
  5  6  1  0  0  0  0
  5  7  1  0  0  0  0
  5  8  1  0  0  0  0
  8  9  1  0  0  0  0
  8 10  1  0  0  0  0
 10 11  1  0  0  0  0
 11 12  2  0  0  0  0
 12 13  1  0  0  0  0
 13 14  1  0  0  0  0
 13 15  1  0  0  0  0
 15 16  1  0  0  0  0
 15 17  1  0  0  0  0
 17 18  1  0  0  0  0
 17 19  1  0  0  0  0
 17 20  1  0  0  0  0
 15 21  1  0  0  0  0
 21 22  1  0  0  0  0
 21 23  1  0  0  0  0
 21 24  1  0  0  0  0
 12 25  1  0  0  0  0
 25 26  2  0  0  0  0
 26 27  1  0  0  0  0
 27 28  1  0  0  0  0
 28 29  1  0  0  0  0
 28 30  1  0  0  0  0
 28 31  1  0  0  0  0
 26 32  1  0  0  0  0
 32 10  2  0  0  0  0
M  END
> <ChemID>
201701

> <source_casrn>
834-12-8

> <CAS>
834-12-8

> <SMILES>
CCNc1nc(NC(C)C)nc(SC)n1

> <NAME>


> <preferred_name>
Ametryn

> <iupac>
N-ethyl-6-(methylsulfanyl)-N'-(propan-2-yl)-1,3,5-triazine-2,4-diamine

> <MPID>
101416

> <dsstox_substance_id>
DTXSID1023869

> <Canonical_QSARr>
CCNc1[n]c(NC(C)C)[n]c([n]1)SC

> <InChI_Code_QSARr>
InChI=1S/C9H17N5S/c1-5-10-7-12-8(11-6(2)3)14-9(13-7)15-4/h6H,5H2,1-4H3,(H2,10,11,12,13,14)

> <InChI Key_QSARr>
RQVYBGPQFYCBGX-UHFFFAOYSA-N

> <Salt_Solvent>


> <Ready_Biodeg>
0.0

$$$$
201705
  -INDIGO-08031722522D

 20 19  0  0  0  0  0  0  0  0999 V2000
    1.3856    0.8000    0.0000 C   0  0  0  0  0  0  0  0  0  0  0  0
    2.7713    1.6000    0.0000 H   0  0  0  0  0  0  0  0  0  0  0  0
    2.7713    0.0000    0.0000 H   0  0  0  0  0  0  0  0  0  0  0  0
    1.3856    2.4000    0.0000 H   0  0  0  0  0  0  0  0  0  0  0  0
    0.0001    0.0000    0.0000 C   0  0  0  0  0  0  0  0  0  0  0  0
    0.6122   -1.4782    0.0000 H   0  0  0  0  0  0  0  0  0  0  0  0
   -0.6123   -1.4782    0.0000 H   0  0  0  0  0  0  0  0  0  0  0  0
   -1.3856    0.8000    0.0000 O   0  0  0  0  0  0  0  0  0  0  0  0
   -2.7713    0.0000    0.0000 C   0  0  0  0  0  0  0  0  0  0  0  0
   -2.7713   -1.6000    0.0000 O   0  0  0  0  0  0  0  0  0  0  0  0
   -4.1569    0.8000    0.0000 C   0  0  0  0  0  0  0  0  0  0  0  0
   -4.1569    2.4000    0.0000 O   0  0  0  0  0  0  0  0  0  0  0  0
   -5.5426    0.0000    0.0000 O   0  0  0  0  0  0  0  0  0  0  0  0
   -6.9283    0.8000    0.0000 C   0  0  0  0  0  0  0  0  0  0  0  0
   -7.5404    2.2782    0.0000 H   0  0  0  0  0  0  0  0  0  0  0  0
   -6.3159    2.2782    0.0000 H   0  0  0  0  0  0  0  0  0  0  0  0
   -8.3138    0.0000    0.0000 C   0  0  0  0  0  0  0  0  0  0  0  0
   -9.6995   -0.8000    0.0000 H   0  0  0  0  0  0  0  0  0  0  0  0
   -9.6995    0.8000    0.0000 H   0  0  0  0  0  0  0  0  0  0  0  0
   -8.3138   -1.6000    0.0000 H   0  0  0  0  0  0  0  0  0  0  0  0
  1  2  1  0  0  0  0
  1  3  1  0  0  0  0
  1  4  1  0  0  0  0
  1  5  1  0  0  0  0
  5  6  1  0  0  0  0
  5  7  1  0  0  0  0
  5  8  1  0  0  0  0
  8  9  1  0  0  0  0
  9 10  2  0  0  0  0
  9 11  1  0  0  0  0
 11 12  2  0  0  0  0
 11 13  1  0  0  0  0
 13 14  1  0  0  0  0
 14 15  1  0  0  0  0
 14 16  1  0  0  0  0
 14 17  1  0  0  0  0
 17 18  1  0  0  0  0
 17 19  1  0  0  0  0
 17 20  1  0  0  0  0
M  END
> <ChemID>
201705

> <source_casrn>
95-92-1

> <CAS>
95-92-1

> <SMILES>
CCOC(=O)C(=O)OCC

> <NAME>


> <preferred_name>
Diethyl oxalate

> <iupac>
diethyl ethanedioate

> <MPID>
101417

> <dsstox_substance_id>
DTXSID2044472

> <Canonical_QSARr>
CCOC(=O)C(=O)OCC

> <InChI_Code_QSARr>
InChI=1S/C6H10O4/c1-3-9-5(7)6(8)10-4-2/h3-4H2,1-2H3

> <InChI Key_QSARr>
WYACBZDAHNBPPB-UHFFFAOYSA-N

> <Salt_Solvent>


> <Ready_Biodeg>
1.0

$$$$
201710
  -INDIGO-08031722522D

 24 23  0  0  0  0  0  0  0  0999 V2000
    1.3856    0.8000    0.0000 C   0  0  0  0  0  0  0  0  0  0  0  0
    2.7713    1.6000    0.0000 H   0  0  0  0  0  0  0  0  0  0  0  0
    2.7713    0.0000    0.0000 H   0  0  0  0  0  0  0  0  0  0  0  0
    1.3856    2.4000    0.0000 H   0  0  0  0  0  0  0  0  0  0  0  0
    0.0001    0.0000    0.0000 C   0  0  0  0  0  0  0  0  0  0  0  0
    0.6123   -1.4782    0.0000 H   0  0  0  0  0  0  0  0  0  0  0  0
   -0.6123   -1.4782    0.0000 H   0  0  0  0  0  0  0  0  0  0  0  0
   -1.3856    0.8000    0.0000 O   0  0  0  0  0  0  0  0  0  0  0  0
   -2.7713    0.0000    0.0000 C   0  0  0  0  0  0  0  0  0  0  0  0
   -2.7713   -1.6000    0.0000 O   0  0  0  0  0  0  0  0  0  0  0  0
   -4.1570    0.8000    0.0000 C   0  0  0  0  0  0  0  0  0  0  0  0
   -4.1570    2.4000    0.0000 H   0  0  0  0  0  0  0  0  0  0  0  0
   -5.5425    0.0000    0.0000 C   0  0  0  0  0  0  0  0  0  0  0  0
   -5.5425   -1.6000    0.0000 H   0  0  0  0  0  0  0  0  0  0  0  0
   -6.9282    0.8000    0.0000 C   0  0  0  0  0  0  0  0  0  0  0  0
   -6.9282    2.4000    0.0000 O   0  0  0  0  0  0  0  0  0  0  0  0
   -8.3139    0.0000    0.0000 O   0  0  0  0  0  0  0  0  0  0  0  0
   -9.6996    0.8000    0.0000 C   0  0  0  0  0  0  0  0  0  0  0  0
  -10.3117    2.2782    0.0000 H   0  0  0  0  0  0  0  0  0  0  0  0
   -9.0872    2.2782    0.0000 H   0  0  0  0  0  0  0  0  0  0  0  0
  -11.0851    0.0000    0.0000 C   0  0  0  0  0  0  0  0  0  0  0  0
  -12.4708   -0.8000    0.0000 H   0  0  0  0  0  0  0  0  0  0  0  0
  -12.4708    0.8000    0.0000 H   0  0  0  0  0  0  0  0  0  0  0  0
  -11.0851   -1.6000    0.0000 H   0  0  0  0  0  0  0  0  0  0  0  0
  1  2  1  0  0  0  0
  1  3  1  0  0  0  0
  1  4  1  0  0  0  0
  1  5  1  0  0  0  0
  5  6  1  0  0  0  0
  5  7  1  0  0  0  0
  5  8  1  0  0  0  0
  8  9  1  0  0  0  0
  9 10  2  0  0  0  0
  9 11  1  0  0  0  0
 11 12  1  0  0  0  0
 11 13  2  0  0  0  0
 13 14  1  0  0  0  0
 13 15  1  0  0  0  0
 15 16  2  0  0  0  0
 15 17  1  0  0  0  0
 17 18  1  0  0  0  0
 18 19  1  0  0  0  0
 18 20  1  0  0  0  0
 18 21  1  0  0  0  0
 21 22  1  0  0  0  0
 21 23  1  0  0  0  0
 21 24  1  0  0  0  0
M  END
> <ChemID>
201710

> <source_casrn>
623-91-6

> <CAS>
623-91-6

> <SMILES>
CCOC(=O)\C=C\C(=O)OCC

> <NAME>


> <preferred_name>
Diethyl (2E)-but-2-enedioate

> <iupac>
diethyl (2E)-but-2-enedioate

> <MPID>
101418

> <dsstox_substance_id>
DTXSID7027253

> <Canonical_QSARr>
CCOC(=O)C=CC(=O)OCC

> <InChI_Code_QSARr>
InChI=1S/C8H12O4/c1-3-11-7(9)5-6-8(10)12-4-2/h5-6H,3-4H2,1-2H3/b6-5+

> <InChI Key_QSARr>
IEPRKVQEAMIZSS-AATRIKPKSA-N

> <Salt_Solvent>


> <Ready_Biodeg>
1.0

$$$$
201711
  -INDIGO-08031722522D

 15 14  0  0  0  0  0  0  0  0999 V2000
    1.3857    0.8000    0.0000 C   0  0  0  0  0  0  0  0  0  0  0  0
    2.7713    1.6000    0.0000 H   0  0  0  0  0  0  0  0  0  0  0  0
    2.7713    0.0000    0.0000 H   0  0  0  0  0  0  0  0  0  0  0  0
    1.3857    2.4000    0.0000 H   0  0  0  0  0  0  0  0  0  0  0  0
    0.0000    0.0000    0.0000 C   0  0  0  0  0  0  0  0  0  0  0  0
    0.6123   -1.4782    0.0000 H   0  0  0  0  0  0  0  0  0  0  0  0
   -0.6123   -1.4782    0.0000 H   0  0  0  0  0  0  0  0  0  0  0  0
   -1.3856    0.8000    0.0000 O   0  0  0  0  0  0  0  0  0  0  0  0
   -2.7713    0.0000    0.0000 C   0  0  0  0  0  0  0  0  0  0  0  0
   -2.7713   -1.6000    0.0000 O   0  0  0  0  0  0  0  0  0  0  0  0
   -4.1570    0.8000    0.0000 C   0  0  0  0  0  0  0  0  0  0  0  0
   -4.7693    2.2782    0.0000 H   0  0  0  0  0  0  0  0  0  0  0  0
   -3.5447    2.2782    0.0000 H   0  0  0  0  0  0  0  0  0  0  0  0
   -5.5426    0.0000    0.0000 C   0  0  0  0  0  0  0  0  0  0  0  0
   -6.9282   -0.8000    0.0000 N   0  0  0  0  0  0  0  0  0  0  0  0
  1  2  1  0  0  0  0
  1  3  1  0  0  0  0
  1  4  1  0  0  0  0
  1  5  1  0  0  0  0
  5  6  1  0  0  0  0
  5  7  1  0  0  0  0
  5  8  1  0  0  0  0
  8  9  1  0  0  0  0
  9 10  2  0  0  0  0
  9 11  1  0  0  0  0
 11 12  1  0  0  0  0
 11 13  1  0  0  0  0
 11 14  1  0  0  0  0
 14 15  3  0  0  0  0
M  END
> <ChemID>
201711

> <source_casrn>
105-56-6

> <CAS>
105-56-6

> <SMILES>
CCOC(=O)CC#N

> <NAME>


> <preferred_name>
Ethyl cyanoacetate

> <iupac>
ethyl cyanoacetate

> <MPID>
101419

> <dsstox_substance_id>
DTXSID9026718

> <Canonical_QSARr>
CCOC(=O)CC#N

> <InChI_Code_QSARr>
InChI=1S/C5H7NO2/c1-2-8-5(7)3-4-6/h2-3H2,1H3

> <InChI Key_QSARr>
ZIUSEGSNTOUIPT-UHFFFAOYSA-N

> <Salt_Solvent>


> <Ready_Biodeg>
1.0

$$$$
201715
  -INDIGO-08031722522D

 28 28  0  0  0  0  0  0  0  0999 V2000
    8.3138    1.6000    0.0000 C   0  0  0  0  0  0  0  0  0  0  0  0
    9.6995    0.8000    0.0000 H   0  0  0  0  0  0  0  0  0  0  0  0
    9.6995    2.4000    0.0000 H   0  0  0  0  0  0  0  0  0  0  0  0
    8.3138    0.0000    0.0000 H   0  0  0  0  0  0  0  0  0  0  0  0
    6.9283    2.4000    0.0000 C   0  0  0  0  0  0  0  0  0  0  0  0
    6.3159    3.8782    0.0000 H   0  0  0  0  0  0  0  0  0  0  0  0
    7.5405    3.8782    0.0000 H   0  0  0  0  0  0  0  0  0  0  0  0
    5.5426    1.6000    0.0000 O   0  0  0  0  0  0  0  0  0  0  0  0
    4.1569    2.4000    0.0000 C   0  0  0  0  0  0  0  0  0  0  0  0
    4.1569    4.0000    0.0000 O   0  0  0  0  0  0  0  0  0  0  0  0
    2.7712    1.6000    0.0000 C   0  0  0  0  0  0  0  0  0  0  0  0
    1.3857    2.4000    0.0000 C   0  0  0  0  0  0  0  0  0  0  0  0
    1.3857    4.0000    0.0000 H   0  0  0  0  0  0  0  0  0  0  0  0
    0.0000    1.6000    0.0000 C   0  0  0  0  0  0  0  0  0  0  0  0
   -1.3857    2.4000    0.0000 H   0  0  0  0  0  0  0  0  0  0  0  0
    0.0000    0.0000    0.0000 C   0  0  0  0  0  0  0  0  0  0  0  0
   -1.3857   -0.8000    0.0000 N   0  0  0  0  0  0  0  0  0  0  0  0
   -1.3857   -2.4000    0.0000 H   0  0  0  0  0  0  0  0  0  0  0  0
   -2.7714    0.0000    0.0000 C   0  0  0  0  0  0  0  0  0  0  0  0
   -2.7714    1.6000    0.0000 O   0  0  0  0  0  0  0  0  0  0  0  0
   -4.1569   -0.8000    0.0000 C   0  0  0  0  0  0  0  0  0  0  0  0
   -5.5426   -1.6000    0.0000 H   0  0  0  0  0  0  0  0  0  0  0  0
   -5.5426    0.0000    0.0000 H   0  0  0  0  0  0  0  0  0  0  0  0
   -4.1569   -2.4000    0.0000 Cl  0  0  0  0  0  0  0  0  0  0  0  0
    1.3857   -0.8000    0.0000 C   0  0  0  0  0  0  0  0  0  0  0  0
    1.3857   -2.4000    0.0000 H   0  0  0  0  0  0  0  0  0  0  0  0
    2.7712    0.0000    0.0000 C   0  0  0  0  0  0  0  0  0  0  0  0
    4.1569   -0.8000    0.0000 H   0  0  0  0  0  0  0  0  0  0  0  0
  1  2  1  0  0  0  0
  1  3  1  0  0  0  0
  1  4  1  0  0  0  0
  1  5  1  0  0  0  0
  5  6  1  0  0  0  0
  5  7  1  0  0  0  0
  5  8  1  0  0  0  0
  8  9  1  0  0  0  0
  9 10  2  0  0  0  0
  9 11  1  0  0  0  0
 11 12  1  0  0  0  0
 12 13  1  0  0  0  0
 12 14  2  0  0  0  0
 14 15  1  0  0  0  0
 14 16  1  0  0  0  0
 16 17  1  0  0  0  0
 17 18  1  0  0  0  0
 17 19  1  0  0  0  0
 19 20  2  0  0  0  0
 19 21  1  0  0  0  0
 21 22  1  0  0  0  0
 21 23  1  0  0  0  0
 21 24  1  0  0  0  0
 16 25  2  0  0  0  0
 25 26  1  0  0  0  0
 25 27  1  0  0  0  0
 27 11  2  0  0  0  0
 27 28  1  0  0  0  0
M  END
> <ChemID>
201715

> <source_casrn>
26226-72-2

> <CAS>
26226-72-2

> <SMILES>
CCOC(=O)c1ccc(NC(=O)CCl)cc1

> <NAME>


> <preferred_name>
ethyl 4-[(chloroacetyl)amino]benzoate

> <iupac>
C11H12ClNO3

> <MPID>
101421

> <dsstox_substance_id>
DTXSID10288175

> <Canonical_QSARr>
CCOC(=O)c1ccc(cc1)NC(=O)CCl

> <InChI_Code_QSARr>
InChI=1S/C11H12ClNO3/c1-2-16-11(15)8-3-5-9(6-4-8)13-10(14)7-12/h3-6H,2,7H2,1H3,(H,13,14)

> <InChI Key_QSARr>
ZVRJEYAQESBSSH-UHFFFAOYSA-N

> <Salt_Solvent>


> <Ready_Biodeg>
1.0

$$$$
201718
  -INDIGO-08031722522D

 13 12  0  0  0  0  0  0  0  0999 V2000
    1.3856    0.8000    0.0000 C   0  0  0  0  0  0  0  0  0  0  0  0
    2.7713    1.6000    0.0000 H   0  0  0  0  0  0  0  0  0  0  0  0
    2.7713    0.0000    0.0000 H   0  0  0  0  0  0  0  0  0  0  0  0
    1.3856    2.4000    0.0000 H   0  0  0  0  0  0  0  0  0  0  0  0
    0.0000    0.0000    0.0000 C   0  0  0  0  0  0  0  0  0  0  0  0
    0.6122   -1.4782    0.0000 H   0  0  0  0  0  0  0  0  0  0  0  0
   -0.6122   -1.4782    0.0000 H   0  0  0  0  0  0  0  0  0  0  0  0
   -1.3857    0.8000    0.0000 O   0  0  0  0  0  0  0  0  0  0  0  0
   -2.7713    0.0000    0.0000 C   0  0  0  0  0  0  0  0  0  0  0  0
   -4.1569    0.8000    0.0000 N   0  0  0  0  0  0  0  0  0  0  0  0
   -5.5426    0.0000    0.0000 H   0  0  0  0  0  0  0  0  0  0  0  0
   -4.1570    2.4000    0.0000 H   0  0  0  0  0  0  0  0  0  0  0  0
   -2.7713   -1.6000    0.0000 O   0  0  0  0  0  0  0  0  0  0  0  0
  1  2  1  0  0  0  0
  1  3  1  0  0  0  0
  1  4  1  0  0  0  0
  1  5  1  0  0  0  0
  5  6  1  0  0  0  0
  5  7  1  0  0  0  0
  5  8  1  0  0  0  0
  8  9  1  0  0  0  0
  9 10  1  0  0  0  0
 10 11  1  0  0  0  0
 10 12  1  0  0  0  0
  9 13  2  0  0  0  0
M  END
> <ChemID>
201718

> <source_casrn>
51-79-6

> <CAS>
51-79-6

> <SMILES>
CCOC(N)=O

> <NAME>


> <preferred_name>
Urethane

> <iupac>
ethyl carbamate

> <MPID>
101422

> <dsstox_substance_id>
DTXSID9021427

> <Canonical_QSARr>
CCOC(N)=O

> <InChI_Code_QSARr>
InChI=1S/C3H7NO2/c1-2-6-3(4)5/h2H2,1H3,(H2,4,5)

> <InChI Key_QSARr>
JOYRKODLDBILNP-UHFFFAOYSA-N

> <Salt_Solvent>


> <Ready_Biodeg>
0.0

$$$$
201722
  -INDIGO-08031722522D

 30 29  0  0  0  0  0  0  0  0999 V2000
    8.3139   -0.0000    0.0000 C   0  0  0  0  0  0  0  0  0  0  0  0
    9.6995   -0.8000    0.0000 H   0  0  0  0  0  0  0  0  0  0  0  0
    9.6995    0.8000    0.0000 H   0  0  0  0  0  0  0  0  0  0  0  0
    8.3139   -1.6000    0.0000 H   0  0  0  0  0  0  0  0  0  0  0  0
    6.9283    0.8000    0.0000 C   0  0  0  0  0  0  0  0  0  0  0  0
    7.5404    2.2782    0.0000 H   0  0  0  0  0  0  0  0  0  0  0  0
    6.3159    2.2782    0.0000 H   0  0  0  0  0  0  0  0  0  0  0  0
    5.5427   -0.0000    0.0000 O   0  0  0  0  0  0  0  0  0  0  0  0
    4.1568    0.8000    0.0000 C   0  0  0  0  0  0  0  0  0  0  0  0
    4.7692    2.2782    0.0000 H   0  0  0  0  0  0  0  0  0  0  0  0
    3.5447    2.2782    0.0000 H   0  0  0  0  0  0  0  0  0  0  0  0
    2.7712   -0.0000    0.0000 C   0  0  0  0  0  0  0  0  0  0  0  0
    2.1591   -1.4782    0.0000 H   0  0  0  0  0  0  0  0  0  0  0  0
    3.3836   -1.4782    0.0000 H   0  0  0  0  0  0  0  0  0  0  0  0
    1.3856    0.8000    0.0000 O   0  0  0  0  0  0  0  0  0  0  0  0
    0.0000   -0.0000    0.0000 C   0  0  0  0  0  0  0  0  0  0  0  0
   -0.6124   -1.4782    0.0000 H   0  0  0  0  0  0  0  0  0  0  0  0
    0.6124   -1.4782    0.0000 H   0  0  0  0  0  0  0  0  0  0  0  0
   -1.3856    0.8000    0.0000 C   0  0  0  0  0  0  0  0  0  0  0  0
   -0.7735    2.2782    0.0000 H   0  0  0  0  0  0  0  0  0  0  0  0
   -1.9980    2.2782    0.0000 H   0  0  0  0  0  0  0  0  0  0  0  0
   -2.7712   -0.0000    0.0000 O   0  0  0  0  0  0  0  0  0  0  0  0
   -4.1570    0.8000    0.0000 C   0  0  0  0  0  0  0  0  0  0  0  0
   -3.5446    2.2782    0.0000 H   0  0  0  0  0  0  0  0  0  0  0  0
   -4.7692    2.2782    0.0000 H   0  0  0  0  0  0  0  0  0  0  0  0
   -5.5426   -0.0000    0.0000 C   0  0  0  0  0  0  0  0  0  0  0  0
   -6.1548   -1.4782    0.0000 H   0  0  0  0  0  0  0  0  0  0  0  0
   -4.9302   -1.4782    0.0000 H   0  0  0  0  0  0  0  0  0  0  0  0
   -6.9282    0.8000    0.0000 O   0  0  0  0  0  0  0  0  0  0  0  0
   -8.3138   -0.0000    0.0000 H   0  0  0  0  0  0  0  0  0  0  0  0
  1  2  1  0  0  0  0
  1  3  1  0  0  0  0
  1  4  1  0  0  0  0
  1  5  1  0  0  0  0
  5  6  1  0  0  0  0
  5  7  1  0  0  0  0
  5  8  1  0  0  0  0
  8  9  1  0  0  0  0
  9 10  1  0  0  0  0
  9 11  1  0  0  0  0
  9 12  1  0  0  0  0
 12 13  1  0  0  0  0
 12 14  1  0  0  0  0
 12 15  1  0  0  0  0
 15 16  1  0  0  0  0
 16 17  1  0  0  0  0
 16 18  1  0  0  0  0
 16 19  1  0  0  0  0
 19 20  1  0  0  0  0
 19 21  1  0  0  0  0
 19 22  1  0  0  0  0
 22 23  1  0  0  0  0
 23 24  1  0  0  0  0
 23 25  1  0  0  0  0
 23 26  1  0  0  0  0
 26 27  1  0  0  0  0
 26 28  1  0  0  0  0
 26 29  1  0  0  0  0
 29 30  1  0  0  0  0
M  END
> <ChemID>
201722

> <source_casrn>
112-50-5

> <CAS>
112-50-5

> <SMILES>
CCOCCOCCOCCO

> <NAME>


> <preferred_name>
2-[2-(2-Ethoxyethoxy)ethoxy]ethanol

> <iupac>
2-[2-(2-ethoxyethoxy)ethoxy]ethanol

> <MPID>
101423

> <dsstox_substance_id>
DTXSID3024368

> <Canonical_QSARr>
CCOCCOCCOCCO

> <InChI_Code_QSARr>
InChI=1S/C8H18O4/c1-2-10-5-6-12-8-7-11-4-3-9/h9H,2-8H2,1H3

> <InChI Key_QSARr>
WFSMVVDJSNMRAR-UHFFFAOYSA-N

> <Salt_Solvent>


> <Ready_Biodeg>
1.0

$$$$
201726
  -INDIGO-08031722522D

 33 34  0  0  0  0  0  0  0  0999 V2000
    4.0001    1.3857    0.0000 C   0  0  0  0  0  0  0  0  0  0  0  0
    4.8001    2.7713    0.0000 H   0  0  0  0  0  0  0  0  0  0  0  0
    5.6001    1.3857    0.0000 H   0  0  0  0  0  0  0  0  0  0  0  0
    3.2001    2.7713    0.0000 H   0  0  0  0  0  0  0  0  0  0  0  0
    2.4001    1.3857    0.0000 C   0  0  0  0  0  0  0  0  0  0  0  0
    2.1912    2.9720    0.0000 H   0  0  0  0  0  0  0  0  0  0  0  0
    1.1307    2.3597    0.0000 H   0  0  0  0  0  0  0  0  0  0  0  0
    1.6000    0.0000    0.0000 O   0  0  0  0  0  0  0  0  0  0  0  0
    0.0000    0.0000    0.0000 P   0  0  0  0  0  0  0  0  0  0  0  0
    0.8000    1.3857    0.0000 S   0  0  0  0  0  0  0  0  0  0  0  0
    0.5473   -1.5035    0.0000 O   0  0  0  0  0  0  0  0  0  0  0  0
    2.0508   -2.0507    0.0000 C   0  0  0  0  0  0  0  0  0  0  0  0
    3.2764   -1.0223    0.0000 C   0  0  0  0  0  0  0  0  0  0  0  0
    2.9985    0.5534    0.0000 H   0  0  0  0  0  0  0  0  0  0  0  0
    4.7799   -1.5695    0.0000 C   0  0  0  0  0  0  0  0  0  0  0  0
    6.0055   -0.5411    0.0000 H   0  0  0  0  0  0  0  0  0  0  0  0
    5.0578   -3.1451    0.0000 C   0  0  0  0  0  0  0  0  0  0  0  0
    6.5613   -3.6925    0.0000 Cl  0  0  0  0  0  0  0  0  0  0  0  0
    3.8321   -4.1737    0.0000 C   0  0  0  0  0  0  0  0  0  0  0  0
    4.1098   -5.7494    0.0000 H   0  0  0  0  0  0  0  0  0  0  0  0
    2.3287   -3.6265    0.0000 C   0  0  0  0  0  0  0  0  0  0  0  0
    1.1028   -4.6549    0.0000 Cl  0  0  0  0  0  0  0  0  0  0  0  0
   -1.6000    0.0000    0.0000 C   0  0  0  0  0  0  0  0  0  0  0  0
   -2.4000    1.3857    0.0000 C   0  0  0  0  0  0  0  0  0  0  0  0
   -1.6000    2.7713    0.0000 H   0  0  0  0  0  0  0  0  0  0  0  0
   -4.0000    1.3857    0.0000 C   0  0  0  0  0  0  0  0  0  0  0  0
   -4.8000    2.7713    0.0000 H   0  0  0  0  0  0  0  0  0  0  0  0
   -4.8000    0.0000    0.0000 C   0  0  0  0  0  0  0  0  0  0  0  0
   -6.4000    0.0000    0.0000 H   0  0  0  0  0  0  0  0  0  0  0  0
   -4.0000   -1.3856    0.0000 C   0  0  0  0  0  0  0  0  0  0  0  0
   -4.8000   -2.7713    0.0000 H   0  0  0  0  0  0  0  0  0  0  0  0
   -2.4000   -1.3856    0.0000 C   0  0  0  0  0  0  0  0  0  0  0  0
   -1.6000   -2.7713    0.0000 H   0  0  0  0  0  0  0  0  0  0  0  0
  1  2  1  0  0  0  0
  1  3  1  0  0  0  0
  1  4  1  0  0  0  0
  1  5  1  0  0  0  0
  5  6  1  0  0  0  0
  5  7  1  0  0  0  0
  5  8  1  0  0  0  0
  8  9  1  0  0  0  0
  9 10  2  0  0  0  0
  9 11  1  0  0  0  0
 11 12  1  0  0  0  0
 12 13  1  0  0  0  0
 13 14  1  0  0  0  0
 13 15  2  0  0  0  0
 15 16  1  0  0  0  0
 15 17  1  0  0  0  0
 17 18  1  0  0  0  0
 17 19  2  0  0  0  0
 19 20  1  0  0  0  0
 19 21  1  0  0  0  0
 21 12  2  0  0  0  0
 21 22  1  0  0  0  0
  9 23  1  0  0  0  0
 23 24  1  0  0  0  0
 24 25  1  0  0  0  0
 24 26  2  0  0  0  0
 26 27  1  0  0  0  0
 26 28  1  0  0  0  0
 28 29  1  0  0  0  0
 28 30  2  0  0  0  0
 30 31  1  0  0  0  0
 30 32  1  0  0  0  0
 32 23  2  0  0  0  0
 32 33  1  0  0  0  0
M  END
> <ChemID>
201726

> <source_casrn>
3792-59-4

> <CAS>
3792-59-4

> <SMILES>
CCO[P](=S)(Oc1ccc(Cl)cc1Cl)c2ccccc2

> <NAME>


> <preferred_name>
O-(2,4-Dichlorophenyl) O-ethyl phenylphosphonothioate

> <iupac>
O-(2,4-dichlorophenyl) O-ethyl phenylphosphonothioate

> <MPID>
101424

> <dsstox_substance_id>
DTXSID7042221

> <Canonical_QSARr>
CCOP(=S)(Oc1ccc(Cl)cc1Cl)c1ccccc1

> <InChI_Code_QSARr>
InChI=1S/C14H13Cl2O2PS/c1-2-17-19(20,12-6-4-3-5-7-12)18-14-9-8-11(15)10-13(14)16/h3-10H,2H2,1H3

> <InChI Key_QSARr>
PNAAEIYEUKNTMO-UHFFFAOYSA-N

> <Salt_Solvent>


> <Ready_Biodeg>
0.0

$$$$
201729
  -INDIGO-08031722522D

 37 36  0  0  0  0  0  0  0  0999 V2000
    4.0001   -1.3856    0.0000 C   0  0  0  0  0  0  0  0  0  0  0  0
    4.8000   -2.7712    0.0000 H   0  0  0  0  0  0  0  0  0  0  0  0
    5.6000   -1.3856    0.0000 H   0  0  0  0  0  0  0  0  0  0  0  0
    4.8000    0.0000    0.0000 H   0  0  0  0  0  0  0  0  0  0  0  0
    2.4000   -1.3856    0.0000 C   0  0  0  0  0  0  0  0  0  0  0  0
    1.1306   -2.3596    0.0000 H   0  0  0  0  0  0  0  0  0  0  0  0
    2.1912   -2.9719    0.0000 H   0  0  0  0  0  0  0  0  0  0  0  0
    1.6000    0.0000    0.0000 O   0  0  0  0  0  0  0  0  0  0  0  0
   -0.0000    0.0000    0.0000 Si  0  0  0  0  0  0  0  0  0  0  0  0
   -1.0285   -1.2257    0.0000 C   0  0  0  0  0  0  0  0  0  0  0  0
   -1.0982   -2.8241    0.0000 H   0  0  0  0  0  0  0  0  0  0  0  0
    0.0525   -2.4053    0.0000 H   0  0  0  0  0  0  0  0  0  0  0  0
   -2.6042   -0.9478    0.0000 C   0  0  0  0  0  0  0  0  0  0  0  0
   -2.5343    0.6507    0.0000 H   0  0  0  0  0  0  0  0  0  0  0  0
   -3.6852    0.2318    0.0000 H   0  0  0  0  0  0  0  0  0  0  0  0
   -3.6326   -2.1734    0.0000 C   0  0  0  0  0  0  0  0  0  0  0  0
   -3.7023   -3.7720    0.0000 H   0  0  0  0  0  0  0  0  0  0  0  0
   -2.5516   -3.3531    0.0000 H   0  0  0  0  0  0  0  0  0  0  0  0
   -5.2083   -1.8957    0.0000 N   0  0  0  0  0  0  0  0  0  0  0  0
   -6.2368   -3.1213    0.0000 H   0  0  0  0  0  0  0  0  0  0  0  0
   -5.7556   -0.3921    0.0000 H   0  0  0  0  0  0  0  0  0  0  0  0
    0.7999    1.3857    0.0000 O   0  0  0  0  0  0  0  0  0  0  0  0
    2.4000    1.3857    0.0000 C   0  0  0  0  0  0  0  0  0  0  0  0
    2.6088   -0.2007    0.0000 H   0  0  0  0  0  0  0  0  0  0  0  0
    3.6694    0.4116    0.0000 H   0  0  0  0  0  0  0  0  0  0  0  0
    3.2000    2.7713    0.0000 C   0  0  0  0  0  0  0  0  0  0  0  0
    4.0001    4.1569    0.0000 H   0  0  0  0  0  0  0  0  0  0  0  0
    4.8000    2.7713    0.0000 H   0  0  0  0  0  0  0  0  0  0  0  0
    2.4000    4.1569    0.0000 H   0  0  0  0  0  0  0  0  0  0  0  0
   -0.8000    1.3857    0.0000 O   0  0  0  0  0  0  0  0  0  0  0  0
   -0.0000    2.7713    0.0000 C   0  0  0  0  0  0  0  0  0  0  0  0
    1.4781    3.3836    0.0000 H   0  0  0  0  0  0  0  0  0  0  0  0
    1.4781    2.1590    0.0000 H   0  0  0  0  0  0  0  0  0  0  0  0
   -0.8000    4.1569    0.0000 C   0  0  0  0  0  0  0  0  0  0  0  0
   -1.6000    5.5426    0.0000 H   0  0  0  0  0  0  0  0  0  0  0  0
   -0.0000    5.5426    0.0000 H   0  0  0  0  0  0  0  0  0  0  0  0
   -2.4001    4.1569    0.0000 H   0  0  0  0  0  0  0  0  0  0  0  0
  1  2  1  0  0  0  0
  1  3  1  0  0  0  0
  1  4  1  0  0  0  0
  1  5  1  0  0  0  0
  5  6  1  0  0  0  0
  5  7  1  0  0  0  0
  5  8  1  0  0  0  0
  8  9  1  0  0  0  0
  9 10  1  0  0  0  0
 10 11  1  0  0  0  0
 10 12  1  0  0  0  0
 10 13  1  0  0  0  0
 13 14  1  0  0  0  0
 13 15  1  0  0  0  0
 13 16  1  0  0  0  0
 16 17  1  0  0  0  0
 16 18  1  0  0  0  0
 16 19  1  0  0  0  0
 19 20  1  0  0  0  0
 19 21  1  0  0  0  0
  9 22  1  0  0  0  0
 22 23  1  0  0  0  0
 23 24  1  0  0  0  0
 23 25  1  0  0  0  0
 23 26  1  0  0  0  0
 26 27  1  0  0  0  0
 26 28  1  0  0  0  0
 26 29  1  0  0  0  0
  9 30  1  0  0  0  0
 30 31  1  0  0  0  0
 31 32  1  0  0  0  0
 31 33  1  0  0  0  0
 31 34  1  0  0  0  0
 34 35  1  0  0  0  0
 34 36  1  0  0  0  0
 34 37  1  0  0  0  0
M  END
> <ChemID>
201729

> <source_casrn>
919-30-2

> <CAS>
919-30-2

> <SMILES>
CCO[Si](CCCN)(OCC)OCC

> <NAME>


> <preferred_name>
3-Aminopropyltriethoxysilane

> <iupac>
3-(triethoxysilyl)propan-1-amine

> <MPID>
101425

> <dsstox_substance_id>
DTXSID2027333

> <Canonical_QSARr>
CCO[Si](CCCN)(OCC)OCC

> <InChI_Code_QSARr>
InChI=1S/C9H23NO3Si/c1-4-11-14(12-5-2,13-6-3)9-7-8-10/h4-10H2,1-3H3

> <InChI Key_QSARr>
WYTZZXDRDKSJID-UHFFFAOYSA-N

> <Salt_Solvent>


> <Ready_Biodeg>
0.0

$$$$
201730
  -INDIGO-08031722522D

 22 22  0  0  0  0  0  0  0  0999 V2000
    4.1569   -0.8001    0.0000 C   0  0  0  0  0  0  0  0  0  0  0  0
    5.5426   -1.6000    0.0000 H   0  0  0  0  0  0  0  0  0  0  0  0
    5.5426    0.0000    0.0000 H   0  0  0  0  0  0  0  0  0  0  0  0
    4.1569   -2.4001    0.0000 H   0  0  0  0  0  0  0  0  0  0  0  0
    2.7713    0.0000    0.0000 C   0  0  0  0  0  0  0  0  0  0  0  0
    2.1590    1.4782    0.0000 H   0  0  0  0  0  0  0  0  0  0  0  0
    3.3836    1.4782    0.0000 H   0  0  0  0  0  0  0  0  0  0  0  0
    1.3857   -0.8001    0.0000 O   0  0  0  0  0  0  0  0  0  0  0  0
   -0.0001    0.0000    0.0000 C   0  0  0  0  0  0  0  0  0  0  0  0
   -0.0001    1.6000    0.0000 C   0  0  0  0  0  0  0  0  0  0  0  0
    1.3857    2.4001    0.0000 H   0  0  0  0  0  0  0  0  0  0  0  0
   -1.3857    2.4001    0.0000 C   0  0  0  0  0  0  0  0  0  0  0  0
   -1.3857    4.0001    0.0000 C   0  0  0  0  0  0  0  0  0  0  0  0
   -2.7713    4.8000    0.0000 H   0  0  0  0  0  0  0  0  0  0  0  0
   -0.0001    4.8000    0.0000 O   0  0  0  0  0  0  0  0  0  0  0  0
   -2.7713    1.6000    0.0000 C   0  0  0  0  0  0  0  0  0  0  0  0
   -4.1569    2.4001    0.0000 H   0  0  0  0  0  0  0  0  0  0  0  0
   -2.7713    0.0000    0.0000 C   0  0  0  0  0  0  0  0  0  0  0  0
   -4.1569   -0.7999    0.0000 H   0  0  0  0  0  0  0  0  0  0  0  0
   -1.3857   -0.8001    0.0000 C   0  0  0  0  0  0  0  0  0  0  0  0
   -1.3857   -2.4001    0.0000 O   0  0  0  0  0  0  0  0  0  0  0  0
   -2.7713   -3.2000    0.0000 H   0  0  0  0  0  0  0  0  0  0  0  0
  1  2  1  0  0  0  0
  1  3  1  0  0  0  0
  1  4  1  0  0  0  0
  1  5  1  0  0  0  0
  5  6  1  0  0  0  0
  5  7  1  0  0  0  0
  5  8  1  0  0  0  0
  8  9  1  0  0  0  0
  9 10  1  0  0  0  0
 10 11  1  0  0  0  0
 10 12  2  0  0  0  0
 12 13  1  0  0  0  0
 13 14  1  0  0  0  0
 13 15  2  0  0  0  0
 12 16  1  0  0  0  0
 16 17  1  0  0  0  0
 16 18  2  0  0  0  0
 18 19  1  0  0  0  0
 18 20  1  0  0  0  0
 20  9  2  0  0  0  0
 20 21  1  0  0  0  0
 21 22  1  0  0  0  0
M  END
> <ChemID>
201730

> <source_casrn>
121-32-4

> <CAS>
121-32-4

> <SMILES>
CCOc1cc(C=O)ccc1O

> <NAME>


> <preferred_name>
3-Ethoxy-4-hydroxybenzaldehyde

> <iupac>
3-ethoxy-4-hydroxybenzaldehyde

> <MPID>
101426

> <dsstox_substance_id>
DTXSID5021968

> <Canonical_QSARr>
CCOc1cc(C=O)ccc1O

> <InChI_Code_QSARr>
InChI=1S/C9H10O3/c1-2-12-9-5-7(6-10)3-4-8(9)11/h3-6,11H,2H2,1H3

> <InChI Key_QSARr>
CBOQJANXLMLOSS-UHFFFAOYSA-N

> <Salt_Solvent>


> <Ready_Biodeg>
1.0

$$$$
201735
  -INDIGO-08031722522D

 19 19  0  0  0  0  0  0  0  0999 V2000
    2.4001   -1.3856    0.0000 C   0  0  0  0  0  0  0  0  0  0  0  0
    4.0000   -1.3856    0.0000 H   0  0  0  0  0  0  0  0  0  0  0  0
    3.2000   -2.7713    0.0000 H   0  0  0  0  0  0  0  0  0  0  0  0
    3.2000   -0.0000    0.0000 H   0  0  0  0  0  0  0  0  0  0  0  0
    1.6000   -0.0000    0.0000 C   0  0  0  0  0  0  0  0  0  0  0  0
    1.8089    1.5863    0.0000 H   0  0  0  0  0  0  0  0  0  0  0  0
    2.8694    0.9740    0.0000 H   0  0  0  0  0  0  0  0  0  0  0  0
    0.0000    0.0000    0.0000 C   0  0  0  0  0  0  0  0  0  0  0  0
   -0.7999    1.3856    0.0000 C   0  0  0  0  0  0  0  0  0  0  0  0
    0.0000    2.7713    0.0000 H   0  0  0  0  0  0  0  0  0  0  0  0
   -2.4000    1.3856    0.0000 C   0  0  0  0  0  0  0  0  0  0  0  0
   -3.2000    2.7713    0.0000 H   0  0  0  0  0  0  0  0  0  0  0  0
   -3.2000    0.0000    0.0000 C   0  0  0  0  0  0  0  0  0  0  0  0
   -4.8000   -0.0000    0.0000 O   0  0  0  0  0  0  0  0  0  0  0  0
   -5.6000    1.3856    0.0000 H   0  0  0  0  0  0  0  0  0  0  0  0
   -2.4000   -1.3856    0.0000 C   0  0  0  0  0  0  0  0  0  0  0  0
   -3.2000   -2.7713    0.0000 H   0  0  0  0  0  0  0  0  0  0  0  0
   -0.7999   -1.3856    0.0000 C   0  0  0  0  0  0  0  0  0  0  0  0
    0.0000   -2.7713    0.0000 H   0  0  0  0  0  0  0  0  0  0  0  0
  1  2  1  0  0  0  0
  1  3  1  0  0  0  0
  1  4  1  0  0  0  0
  1  5  1  0  0  0  0
  5  6  1  0  0  0  0
  5  7  1  0  0  0  0
  5  8  1  0  0  0  0
  8  9  1  0  0  0  0
  9 10  1  0  0  0  0
  9 11  2  0  0  0  0
 11 12  1  0  0  0  0
 11 13  1  0  0  0  0
 13 14  1  0  0  0  0
 14 15  1  0  0  0  0
 13 16  2  0  0  0  0
 16 17  1  0  0  0  0
 16 18  1  0  0  0  0
 18  8  2  0  0  0  0
 18 19  1  0  0  0  0
M  END
> <ChemID>
201735

> <source_casrn>
123-07-9

> <CAS>
123-07-9

> <SMILES>
CCc1ccc(O)cc1

> <NAME>


> <preferred_name>
4-Ethylphenol

> <iupac>
4-ethylphenol

> <MPID>
101427

> <dsstox_substance_id>
DTXSID4021977

> <Canonical_QSARr>
CCc1ccc(O)cc1

> <InChI_Code_QSARr>
InChI=1S/C8H10O/c1-2-7-3-5-8(9)6-4-7/h3-6,9H,2H2,1H3

> <InChI Key_QSARr>
HXDOZKJGKXYMEW-UHFFFAOYSA-N

> <Salt_Solvent>


> <Ready_Biodeg>
1.0

$$$$
201737
  -INDIGO-08031722522D

 19 19  0  0  0  0  0  0  0  0999 V2000
    2.7713   -0.0000    0.0000 C   0  0  0  0  0  0  0  0  0  0  0  0
    4.1569    0.8000    0.0000 H   0  0  0  0  0  0  0  0  0  0  0  0
    4.1569   -0.8000    0.0000 H   0  0  0  0  0  0  0  0  0  0  0  0
    2.7713    1.6000    0.0000 H   0  0  0  0  0  0  0  0  0  0  0  0
    1.3857    0.8000    0.0000 C   0  0  0  0  0  0  0  0  0  0  0  0
    1.9980    2.2782    0.0000 H   0  0  0  0  0  0  0  0  0  0  0  0
    0.7734    2.2782    0.0000 H   0  0  0  0  0  0  0  0  0  0  0  0
    0.0001   -0.0000    0.0000 C   0  0  0  0  0  0  0  0  0  0  0  0
    0.0001   -1.6000    0.0000 C   0  0  0  0  0  0  0  0  0  0  0  0
    1.3857   -2.4000    0.0000 H   0  0  0  0  0  0  0  0  0  0  0  0
   -1.3857   -2.4000    0.0000 C   0  0  0  0  0  0  0  0  0  0  0  0
   -1.3857   -4.0000    0.0000 H   0  0  0  0  0  0  0  0  0  0  0  0
   -2.7713   -1.6000    0.0000 C   0  0  0  0  0  0  0  0  0  0  0  0
   -4.1569   -2.4000    0.0000 H   0  0  0  0  0  0  0  0  0  0  0  0
   -2.7713   -0.0000    0.0000 C   0  0  0  0  0  0  0  0  0  0  0  0
   -4.1569    0.8000    0.0000 O   0  0  0  0  0  0  0  0  0  0  0  0
   -5.5426   -0.0000    0.0000 H   0  0  0  0  0  0  0  0  0  0  0  0
   -1.3857    0.8000    0.0000 C   0  0  0  0  0  0  0  0  0  0  0  0
   -1.3857    2.4000    0.0000 H   0  0  0  0  0  0  0  0  0  0  0  0
  1  2  1  0  0  0  0
  1  3  1  0  0  0  0
  1  4  1  0  0  0  0
  1  5  1  0  0  0  0
  5  6  1  0  0  0  0
  5  7  1  0  0  0  0
  5  8  1  0  0  0  0
  8  9  1  0  0  0  0
  9 10  1  0  0  0  0
  9 11  2  0  0  0  0
 11 12  1  0  0  0  0
 11 13  1  0  0  0  0
 13 14  1  0  0  0  0
 13 15  2  0  0  0  0
 15 16  1  0  0  0  0
 16 17  1  0  0  0  0
 15 18  1  0  0  0  0
 18  8  2  0  0  0  0
 18 19  1  0  0  0  0
M  END
> <ChemID>
201737

> <source_casrn>
620-17-7

> <CAS>
620-17-7

> <SMILES>
CCc1cccc(O)c1

> <NAME>


> <preferred_name>
3-Ethylphenol

> <iupac>
3-ethylphenol

> <MPID>
101429

> <dsstox_substance_id>
DTXSID0022480

> <Canonical_QSARr>
CCc1cccc(O)c1

> <InChI_Code_QSARr>
InChI=1S/C8H10O/c1-2-7-4-3-5-8(9)6-7/h3-6,9H,2H2,1H3

> <InChI Key_QSARr>
HMNKTRSOROOSPP-UHFFFAOYSA-N

> <Salt_Solvent>


> <Ready_Biodeg>
1.0

$$$$
201738
  -INDIGO-08031722522D

 34 35  0  0  0  0  0  0  0  0999 V2000
    3.2848   -2.6701    0.0000 C   0  0  0  0  0  0  0  0  0  0  0  0
    4.7884   -3.2174    0.0000 H   0  0  0  0  0  0  0  0  0  0  0  0
    4.5106   -1.6417    0.0000 H   0  0  0  0  0  0  0  0  0  0  0  0
    3.5627   -4.2459    0.0000 H   0  0  0  0  0  0  0  0  0  0  0  0
    1.7814   -2.1230    0.0000 C   0  0  0  0  0  0  0  0  0  0  0  0
    1.0425   -3.5421    0.0000 H   0  0  0  0  0  0  0  0  0  0  0  0
    0.2554   -2.6041    0.0000 H   0  0  0  0  0  0  0  0  0  0  0  0
    1.5035   -0.5472    0.0000 C   0  0  0  0  0  0  0  0  0  0  0  0
    2.7291    0.4812    0.0000 C   0  0  0  0  0  0  0  0  0  0  0  0
    4.2327   -0.0660    0.0000 H   0  0  0  0  0  0  0  0  0  0  0  0
    2.4514    2.0569    0.0000 C   0  0  0  0  0  0  0  0  0  0  0  0
    3.6770    3.0854    0.0000 H   0  0  0  0  0  0  0  0  0  0  0  0
    0.9478    2.6042    0.0000 C   0  0  0  0  0  0  0  0  0  0  0  0
    0.6700    4.1798    0.0000 H   0  0  0  0  0  0  0  0  0  0  0  0
   -0.2779    1.5757    0.0000 C   0  0  0  0  0  0  0  0  0  0  0  0
   -1.7813    2.1230    0.0000 H   0  0  0  0  0  0  0  0  0  0  0  0
    0.0001   -0.0001    0.0000 C   0  0  0  0  0  0  0  0  0  0  0  0
   -1.3856   -0.8000    0.0000 C   0  0  0  0  0  0  0  0  0  0  0  0
   -1.3856   -2.4000    0.0000 C   0  0  0  0  0  0  0  0  0  0  0  0
   -0.3572   -3.6257    0.0000 H   0  0  0  0  0  0  0  0  0  0  0  0
   -2.7713   -3.2000    0.0000 C   0  0  0  0  0  0  0  0  0  0  0  0
   -2.7713   -4.8000    0.0000 H   0  0  0  0  0  0  0  0  0  0  0  0
   -4.1569   -2.4000    0.0000 C   0  0  0  0  0  0  0  0  0  0  0  0
   -5.5426   -3.2000    0.0000 H   0  0  0  0  0  0  0  0  0  0  0  0
   -4.1569   -0.8000    0.0000 C   0  0  0  0  0  0  0  0  0  0  0  0
   -5.5426   -0.0001    0.0000 H   0  0  0  0  0  0  0  0  0  0  0  0
   -2.7713   -0.0001    0.0000 C   0  0  0  0  0  0  0  0  0  0  0  0
   -2.7713    1.6000    0.0000 C   0  0  0  0  0  0  0  0  0  0  0  0
   -1.2092    1.2537    0.0000 H   0  0  0  0  0  0  0  0  0  0  0  0
   -2.2901    3.1260    0.0000 H   0  0  0  0  0  0  0  0  0  0  0  0
   -4.1569    2.4000    0.0000 C   0  0  0  0  0  0  0  0  0  0  0  0
   -5.5426    3.2000    0.0000 H   0  0  0  0  0  0  0  0  0  0  0  0
   -4.1569    3.9999    0.0000 H   0  0  0  0  0  0  0  0  0  0  0  0
   -5.5426    1.6000    0.0000 H   0  0  0  0  0  0  0  0  0  0  0  0
  1  2  1  0  0  0  0
  1  3  1  0  0  0  0
  1  4  1  0  0  0  0
  1  5  1  0  0  0  0
  5  6  1  0  0  0  0
  5  7  1  0  0  0  0
  5  8  1  0  0  0  0
  8  9  1  0  0  0  0
  9 10  1  0  0  0  0
  9 11  2  0  0  0  0
 11 12  1  0  0  0  0
 11 13  1  0  0  0  0
 13 14  1  0  0  0  0
 13 15  2  0  0  0  0
 15 16  1  0  0  0  0
 15 17  1  0  0  0  0
 17  8  2  0  0  0  0
 17 18  1  0  0  0  0
 18 19  1  0  0  0  0
 19 20  1  0  0  0  0
 19 21  2  0  0  0  0
 21 22  1  0  0  0  0
 21 23  1  0  0  0  0
 23 24  1  0  0  0  0
 23 25  2  0  0  0  0
 25 26  1  0  0  0  0
 25 27  1  0  0  0  0
 27 18  2  0  0  0  0
 27 28  1  0  0  0  0
 28 29  1  0  0  0  0
 28 30  1  0  0  0  0
 28 31  1  0  0  0  0
 31 32  1  0  0  0  0
 31 33  1  0  0  0  0
 31 34  1  0  0  0  0
M  END
> <ChemID>
201738

> <source_casrn>
28575-17-9

> <CAS>
13049-35-9

> <SMILES>
CCc1ccccc1c2ccccc2CC

> <NAME>


> <preferred_name>


> <iupac>


> <MPID>
101430

> <dsstox_substance_id>
DTXSID00156576

> <Canonical_QSARr>
CCc1ccccc1-c1ccccc1CC

> <InChI_Code_QSARr>
InChI=1S/C16H18/c1-3-13-9-5-7-11-15(13)16-12-8-6-10-14(16)4-2/h5-12H,3-4H2,1-2H3

> <InChI Key_QSARr>
VYVNYOJZPQVWHK-UHFFFAOYSA-N

> <Salt_Solvent>


> <Ready_Biodeg>
0.0

$$$$
201739
  -INDIGO-08031722522D

 22 22  0  0  0  0  0  0  0  0999 V2000
    2.4001    1.3856    0.0000 C   0  0  0  0  0  0  0  0  0  0  0  0
    3.2000    2.7713    0.0000 H   0  0  0  0  0  0  0  0  0  0  0  0
    4.0000    1.3856    0.0000 H   0  0  0  0  0  0  0  0  0  0  0  0
    3.2000   -0.0000    0.0000 H   0  0  0  0  0  0  0  0  0  0  0  0
    0.8000    1.3856    0.0000 C   0  0  0  0  0  0  0  0  0  0  0  0
    0.5912    2.9720    0.0000 H   0  0  0  0  0  0  0  0  0  0  0  0
   -0.4694    2.3596    0.0000 H   0  0  0  0  0  0  0  0  0  0  0  0
   -0.0000   -0.0000    0.0000 C   0  0  0  0  0  0  0  0  0  0  0  0
    0.8000   -1.3857    0.0000 C   0  0  0  0  0  0  0  0  0  0  0  0
    2.4001   -1.3857    0.0000 H   0  0  0  0  0  0  0  0  0  0  0  0
   -0.0000   -2.7713    0.0000 C   0  0  0  0  0  0  0  0  0  0  0  0
    0.8000   -4.1569    0.0000 H   0  0  0  0  0  0  0  0  0  0  0  0
   -1.6000   -2.7713    0.0000 C   0  0  0  0  0  0  0  0  0  0  0  0
   -2.4000   -4.1569    0.0000 H   0  0  0  0  0  0  0  0  0  0  0  0
   -2.4000   -1.3857    0.0000 C   0  0  0  0  0  0  0  0  0  0  0  0
   -4.0000   -1.3857    0.0000 H   0  0  0  0  0  0  0  0  0  0  0  0
   -1.6000   -0.0000    0.0000 C   0  0  0  0  0  0  0  0  0  0  0  0
   -2.4000    1.3856    0.0000 C   0  0  0  0  0  0  0  0  0  0  0  0
   -1.6000    2.7713    0.0000 H   0  0  0  0  0  0  0  0  0  0  0  0
   -4.0000    1.3856    0.0000 C   0  0  0  0  0  0  0  0  0  0  0  0
   -4.8000    2.7713    0.0000 H   0  0  0  0  0  0  0  0  0  0  0  0
   -4.8000   -0.0000    0.0000 H   0  0  0  0  0  0  0  0  0  0  0  0
  1  2  1  0  0  0  0
  1  3  1  0  0  0  0
  1  4  1  0  0  0  0
  1  5  1  0  0  0  0
  5  6  1  0  0  0  0
  5  7  1  0  0  0  0
  5  8  1  0  0  0  0
  8  9  1  0  0  0  0
  9 10  1  0  0  0  0
  9 11  2  0  0  0  0
 11 12  1  0  0  0  0
 11 13  1  0  0  0  0
 13 14  1  0  0  0  0
 13 15  2  0  0  0  0
 15 16  1  0  0  0  0
 15 17  1  0  0  0  0
 17  8  2  0  0  0  0
 17 18  1  0  0  0  0
 18 19  1  0  0  0  0
 18 20  2  0  0  0  0
 20 21  1  0  0  0  0
 20 22  1  0  0  0  0
M  END
> <ChemID>
201739

> <source_casrn>
28106-30-1

> <CAS>
28106-30-1

> <SMILES>
CCc1ccccc1C=C

> <NAME>


> <preferred_name>
Ethylstyrene

> <iupac>
1-ethenyl-2-ethylbenzene

> <MPID>
101431

> <dsstox_substance_id>
DTXSID5027938

> <Canonical_QSARr>
CCc1ccccc1C=C

> <InChI_Code_QSARr>
InChI=1S/C10H12/c1-3-9-7-5-6-8-10(9)4-2/h3,5-8H,1,4H2,2H3

> <InChI Key_QSARr>
VTPNYMSKBPZSTF-UHFFFAOYSA-N

> <Salt_Solvent>


> <Ready_Biodeg>
0.0

$$$$
201742
  -INDIGO-08031722522D

 45 44  0  0  0  0  0  0  0  0999 V2000
   -1.3855   -2.4000    0.0000 C   0  0  0  0  0  0  0  0  0  0  0  0
   -1.3855   -3.9999    0.0000 H   0  0  0  0  0  0  0  0  0  0  0  0
   -2.7713   -3.2000    0.0000 H   0  0  0  0  0  0  0  0  0  0  0  0
    0.0001   -3.2000    0.0000 H   0  0  0  0  0  0  0  0  0  0  0  0
   -1.3855   -0.7999    0.0000 O   0  0  0  0  0  0  0  0  0  0  0  0
    0.0001    0.0000    0.0000 Si  0  0  0  0  0  0  0  0  0  0  0  0
    1.3856   -0.7999    0.0000 C   0  0  0  0  0  0  0  0  0  0  0  0
    1.9980   -2.2782    0.0000 H   0  0  0  0  0  0  0  0  0  0  0  0
    0.7732   -2.2782    0.0000 H   0  0  0  0  0  0  0  0  0  0  0  0
    2.7712    0.0000    0.0000 C   0  0  0  0  0  0  0  0  0  0  0  0
    2.1591    1.4783    0.0000 H   0  0  0  0  0  0  0  0  0  0  0  0
    3.3836    1.4783    0.0000 H   0  0  0  0  0  0  0  0  0  0  0  0
    4.1570   -0.7999    0.0000 C   0  0  0  0  0  0  0  0  0  0  0  0
    4.7692   -2.2782    0.0000 H   0  0  0  0  0  0  0  0  0  0  0  0
    3.5446   -2.2782    0.0000 H   0  0  0  0  0  0  0  0  0  0  0  0
    5.5426    0.0000    0.0000 N   0  0  0  0  0  0  0  0  0  0  0  0
    6.9282   -0.7999    0.0000 C   0  0  0  0  0  0  0  0  0  0  0  0
    7.2061   -2.3757    0.0000 N   0  0  0  0  0  0  0  0  0  0  0  0
    8.7095   -2.9230    0.0000 C   0  0  0  0  0  0  0  0  0  0  0  0
   10.2131   -3.4702    0.0000 H   0  0  0  0  0  0  0  0  0  0  0  0
    8.9874   -4.4986    0.0000 H   0  0  0  0  0  0  0  0  0  0  0  0
    9.9352   -1.8944    0.0000 H   0  0  0  0  0  0  0  0  0  0  0  0
    6.1777   -3.6014    0.0000 C   0  0  0  0  0  0  0  0  0  0  0  0
    5.1492   -4.8270    0.0000 H   0  0  0  0  0  0  0  0  0  0  0  0
    4.6018   -3.3235    0.0000 H   0  0  0  0  0  0  0  0  0  0  0  0
    6.7248   -5.1049    0.0000 H   0  0  0  0  0  0  0  0  0  0  0  0
    8.1539    0.2284    0.0000 N   0  0  0  0  0  0  0  0  0  0  0  0
    9.6573   -0.3188    0.0000 C   0  0  0  0  0  0  0  0  0  0  0  0
   10.8830    0.7097    0.0000 H   0  0  0  0  0  0  0  0  0  0  0  0
   11.1609   -0.8659    0.0000 H   0  0  0  0  0  0  0  0  0  0  0  0
    9.3796    1.2569    0.0000 H   0  0  0  0  0  0  0  0  0  0  0  0
    7.8760    1.8042    0.0000 C   0  0  0  0  0  0  0  0  0  0  0  0
    7.5983    3.3798    0.0000 H   0  0  0  0  0  0  0  0  0  0  0  0
    9.1017    2.8326    0.0000 H   0  0  0  0  0  0  0  0  0  0  0  0
    6.3726    2.3514    0.0000 H   0  0  0  0  0  0  0  0  0  0  0  0
   -1.3855    0.8000    0.0000 O   0  0  0  0  0  0  0  0  0  0  0  0
   -2.7713    0.0000    0.0000 C   0  0  0  0  0  0  0  0  0  0  0  0
   -4.1569    0.8000    0.0000 H   0  0  0  0  0  0  0  0  0  0  0  0
   -4.1569   -0.7999    0.0000 H   0  0  0  0  0  0  0  0  0  0  0  0
   -2.7713    1.6000    0.0000 H   0  0  0  0  0  0  0  0  0  0  0  0
    0.0001    1.6000    0.0000 O   0  0  0  0  0  0  0  0  0  0  0  0
    1.3856    2.4001    0.0000 C   0  0  0  0  0  0  0  0  0  0  0  0
    1.3856    4.0000    0.0000 H   0  0  0  0  0  0  0  0  0  0  0  0
    2.7712    3.2000    0.0000 H   0  0  0  0  0  0  0  0  0  0  0  0
    0.0001    3.2000    0.0000 H   0  0  0  0  0  0  0  0  0  0  0  0
  1  2  1  0  0  0  0
  1  3  1  0  0  0  0
  1  4  1  0  0  0  0
  1  5  1  0  0  0  0
  5  6  1  0  0  0  0
  6  7  1  0  0  0  0
  7  8  1  0  0  0  0
  7  9  1  0  0  0  0
  7 10  1  0  0  0  0
 10 11  1  0  0  0  0
 10 12  1  0  0  0  0
 10 13  1  0  0  0  0
 13 14  1  0  0  0  0
 13 15  1  0  0  0  0
 13 16  1  0  0  0  0
 16 17  2  0  0  0  0
 17 18  1  0  0  0  0
 18 19  1  0  0  0  0
 19 20  1  0  0  0  0
 19 21  1  0  0  0  0
 19 22  1  0  0  0  0
 18 23  1  0  0  0  0
 23 24  1  0  0  0  0
 23 25  1  0  0  0  0
 23 26  1  0  0  0  0
 17 27  1  0  0  0  0
 27 28  1  0  0  0  0
 28 29  1  0  0  0  0
 28 30  1  0  0  0  0
 28 31  1  0  0  0  0
 27 32  1  0  0  0  0
 32 33  1  0  0  0  0
 32 34  1  0  0  0  0
 32 35  1  0  0  0  0
  6 36  1  0  0  0  0
 36 37  1  0  0  0  0
 37 38  1  0  0  0  0
 37 39  1  0  0  0  0
 37 40  1  0  0  0  0
  6 41  1  0  0  0  0
 41 42  1  0  0  0  0
 42 43  1  0  0  0  0
 42 44  1  0  0  0  0
 42 45  1  0  0  0  0
M  END
> <ChemID>
201742

> <source_casrn>
69709-01-9

> <CAS>
69709-01-9

> <SMILES>
CO[Si](CCCN=C(N(C)C)N(C)C)(OC)OC

> <NAME>


> <preferred_name>
N,N,N',N'-Tetramethyl-N''-(3-(trimethoxysilyl)propyl)guanidine

> <iupac>
1,1,3,3-tetramethyl-2-(3-trimethoxysilylpropyl)guanidine

> <MPID>
101433

> <dsstox_substance_id>
DTXSID00219998

> <Canonical_QSARr>
CN(C)C(=NCCC[Si](OC)(OC)OC)N(C)C

> <InChI_Code_QSARr>
InChI=1S/C11H27N3O3Si/c1-13(2)11(14(3)4)12-9-8-10-18(15-5,16-6)17-7/h8-10H2,1-7H3

> <InChI Key_QSARr>
ZUEIRGBMFHHKAC-UHFFFAOYSA-N

> <Salt_Solvent>


> <Ready_Biodeg>
0.0

$$$$
201743
  -INDIGO-08031722522D

 16 15  0  0  0  0  0  0  0  0999 V2000
    0.8000   -1.3856    0.0000 C   0  0  0  0  0  0  0  0  0  0  0  0
    1.6000   -2.7713    0.0000 H   0  0  0  0  0  0  0  0  0  0  0  0
    0.0000   -2.7713    0.0000 H   0  0  0  0  0  0  0  0  0  0  0  0
    2.4000   -1.3856    0.0000 H   0  0  0  0  0  0  0  0  0  0  0  0
    0.0000    0.0000    0.0000 N   0  0  0  0  0  0  0  0  0  0  0  0
    0.8000    1.3856    0.0000 C   0  0  0  0  0  0  0  0  0  0  0  0
    1.6000    2.7713    0.0000 H   0  0  0  0  0  0  0  0  0  0  0  0
    0.0000    2.7713    0.0000 H   0  0  0  0  0  0  0  0  0  0  0  0
    2.4000    1.3856    0.0000 H   0  0  0  0  0  0  0  0  0  0  0  0
   -1.6000    0.0000    0.0000 C   0  0  0  0  0  0  0  0  0  0  0  0
   -2.4000   -1.3856    0.0000 O   0  0  0  0  0  0  0  0  0  0  0  0
   -2.4000    1.3856    0.0000 C   0  0  0  0  0  0  0  0  0  0  0  0
   -1.6000    2.7713    0.0000 H   0  0  0  0  0  0  0  0  0  0  0  0
   -4.0000    1.3856    0.0000 C   0  0  0  0  0  0  0  0  0  0  0  0
   -4.8000    2.7713    0.0000 H   0  0  0  0  0  0  0  0  0  0  0  0
   -4.8000   -0.0000    0.0000 H   0  0  0  0  0  0  0  0  0  0  0  0
  1  2  1  0  0  0  0
  1  3  1  0  0  0  0
  1  4  1  0  0  0  0
  1  5  1  0  0  0  0
  5  6  1  0  0  0  0
  6  7  1  0  0  0  0
  6  8  1  0  0  0  0
  6  9  1  0  0  0  0
  5 10  1  0  0  0  0
 10 11  2  0  0  0  0
 10 12  1  0  0  0  0
 12 13  1  0  0  0  0
 12 14  2  0  0  0  0
 14 15  1  0  0  0  0
 14 16  1  0  0  0  0
M  END
> <ChemID>
201743

> <source_casrn>
2680-03-7

> <CAS>
2680-03-7

> <SMILES>
CN(C)C(=O)C=C

> <NAME>


> <preferred_name>
N,N-Dimethylacrylamide

> <iupac>
N,N-dimethylacrylamide

> <MPID>
101434

> <dsstox_substance_id>
DTXSID0051944

> <Canonical_QSARr>
CN(C)C(=O)C=C

> <InChI_Code_QSARr>
InChI=1S/C5H9NO/c1-4-5(7)6(2)3/h4H,1H2,2-3H3

> <InChI Key_QSARr>
YLGYACDQVQQZSW-UHFFFAOYSA-N

> <Salt_Solvent>


> <Ready_Biodeg>
0.0

$$$$
201747
  -INDIGO-08031722522D

 29 28  0  0  0  0  0  0  0  0999 V2000
    2.3757   -1.6635    0.0000 C   0  0  0  0  0  0  0  0  0  0  0  0
    3.9514   -1.9413    0.0000 H   0  0  0  0  0  0  0  0  0  0  0  0
    2.9229   -3.1670    0.0000 H   0  0  0  0  0  0  0  0  0  0  0  0
    3.4042   -0.4379    0.0000 H   0  0  0  0  0  0  0  0  0  0  0  0
    0.8000   -1.3856    0.0000 N   0  0  0  0  0  0  0  0  0  0  0  0
   -0.0001   -2.7713    0.0000 C   0  0  0  0  0  0  0  0  0  0  0  0
   -0.8000   -4.1569    0.0000 H   0  0  0  0  0  0  0  0  0  0  0  0
    0.8000   -4.1569    0.0000 H   0  0  0  0  0  0  0  0  0  0  0  0
   -1.6000   -2.7713    0.0000 H   0  0  0  0  0  0  0  0  0  0  0  0
   -0.0001   -0.0000    0.0000 C   0  0  0  0  0  0  0  0  0  0  0  0
   -1.3856   -0.8000    0.0000 H   0  0  0  0  0  0  0  0  0  0  0  0
   -1.0284    1.2257    0.0000 C   0  0  0  0  0  0  0  0  0  0  0  0
   -1.0982    2.8241    0.0000 H   0  0  0  0  0  0  0  0  0  0  0  0
    0.0524    2.4053    0.0000 H   0  0  0  0  0  0  0  0  0  0  0  0
   -2.6041    0.9478    0.0000 S   0  0  0  0  0  0  0  0  0  0  0  0
   -3.6326    2.1735    0.0000 C   0  0  0  0  0  0  0  0  0  0  0  0
   -5.2083    1.8957    0.0000 N   0  0  0  0  0  0  0  0  0  0  0  0
   -6.2368    3.1213    0.0000 H   0  0  0  0  0  0  0  0  0  0  0  0
   -5.7556    0.3921    0.0000 H   0  0  0  0  0  0  0  0  0  0  0  0
   -3.0854    3.6771    0.0000 O   0  0  0  0  0  0  0  0  0  0  0  0
    1.3856    0.8001    0.0000 C   0  0  0  0  0  0  0  0  0  0  0  0
    2.9719    0.5912    0.0000 H   0  0  0  0  0  0  0  0  0  0  0  0
    2.3597   -0.4694    0.0000 H   0  0  0  0  0  0  0  0  0  0  0  0
    1.3856    2.4000    0.0000 S   0  0  0  0  0  0  0  0  0  0  0  0
    2.7713    3.2000    0.0000 C   0  0  0  0  0  0  0  0  0  0  0  0
    2.7713    4.8001    0.0000 N   0  0  0  0  0  0  0  0  0  0  0  0
    4.1569    5.6000    0.0000 H   0  0  0  0  0  0  0  0  0  0  0  0
    1.3856    5.6000    0.0000 H   0  0  0  0  0  0  0  0  0  0  0  0
    4.1569    2.4000    0.0000 O   0  0  0  0  0  0  0  0  0  0  0  0
  1  2  1  0  0  0  0
  1  3  1  0  0  0  0
  1  4  1  0  0  0  0
  1  5  1  0  0  0  0
  5  6  1  0  0  0  0
  6  7  1  0  0  0  0
  6  8  1  0  0  0  0
  6  9  1  0  0  0  0
  5 10  1  0  0  0  0
 10 11  1  0  0  0  0
 10 12  1  0  0  0  0
 12 13  1  0  0  0  0
 12 14  1  0  0  0  0
 12 15  1  0  0  0  0
 15 16  1  0  0  0  0
 16 17  1  0  0  0  0
 17 18  1  0  0  0  0
 17 19  1  0  0  0  0
 16 20  2  0  0  0  0
 10 21  1  0  0  0  0
 21 22  1  0  0  0  0
 21 23  1  0  0  0  0
 21 24  1  0  0  0  0
 24 25  1  0  0  0  0
 25 26  1  0  0  0  0
 26 27  1  0  0  0  0
 26 28  1  0  0  0  0
 25 29  2  0  0  0  0
M  END
> <ChemID>
201747

> <source_casrn>
15263-53-3

> <CAS>
15263-53-3

> <SMILES>
CN(C)C(CSC(N)=O)CSC(N)=O

> <NAME>


> <preferred_name>
Cartap

> <iupac>
S,S'-[2-(dimethylamino)propane-1,3-diyl] dicarbamothioate

> <MPID>
101435

> <dsstox_substance_id>
DTXSID4044165

> <Canonical_QSARr>
CN(C)C(CSC(N)=O)CSC(N)=O

> <InChI_Code_QSARr>
InChI=1S/C7H15N3O2S2/c1-10(2)5(3-13-6(8)11)4-14-7(9)12/h5H,3-4H2,1-2H3,(H2,8,11)(H2,9,12)

> <InChI Key_QSARr>
IRUJZVNXZWPBMU-UHFFFAOYSA-N

> <Salt_Solvent>


> <Ready_Biodeg>
0.0

$$$$
201750
  -INDIGO-08031722522D

 18 17  0  0  0  0  0  0  0  0999 V2000
    1.3856    2.4000    0.0000 C   0  0  0  0  0  0  0  0  0  0  0  0
    1.3856    4.0000    0.0000 H   0  0  0  0  0  0  0  0  0  0  0  0
    2.7713    3.2000    0.0000 H   0  0  0  0  0  0  0  0  0  0  0  0
    0.0001    3.2000    0.0000 H   0  0  0  0  0  0  0  0  0  0  0  0
    1.3856    0.8000    0.0000 N   0  0  0  0  0  0  0  0  0  0  0  0
    2.7713   -0.0000    0.0000 C   0  0  0  0  0  0  0  0  0  0  0  0
    4.1569   -0.8000    0.0000 H   0  0  0  0  0  0  0  0  0  0  0  0
    4.1569    0.8000    0.0000 H   0  0  0  0  0  0  0  0  0  0  0  0
    2.7713   -1.6000    0.0000 H   0  0  0  0  0  0  0  0  0  0  0  0
    0.0001   -0.0000    0.0000 C   0  0  0  0  0  0  0  0  0  0  0  0
    0.6123   -1.4782    0.0000 H   0  0  0  0  0  0  0  0  0  0  0  0
   -0.6123   -1.4782    0.0000 H   0  0  0  0  0  0  0  0  0  0  0  0
   -1.3856    0.8000    0.0000 C   0  0  0  0  0  0  0  0  0  0  0  0
   -1.9979    2.2782    0.0000 H   0  0  0  0  0  0  0  0  0  0  0  0
   -0.7734    2.2782    0.0000 H   0  0  0  0  0  0  0  0  0  0  0  0
   -2.7713   -0.0000    0.0000 N   0  0  0  0  0  0  0  0  0  0  0  0
   -4.1569    0.8000    0.0000 H   0  0  0  0  0  0  0  0  0  0  0  0
   -2.7712   -1.6000    0.0000 H   0  0  0  0  0  0  0  0  0  0  0  0
  1  2  1  0  0  0  0
  1  3  1  0  0  0  0
  1  4  1  0  0  0  0
  1  5  1  0  0  0  0
  5  6  1  0  0  0  0
  6  7  1  0  0  0  0
  6  8  1  0  0  0  0
  6  9  1  0  0  0  0
  5 10  1  0  0  0  0
 10 11  1  0  0  0  0
 10 12  1  0  0  0  0
 10 13  1  0  0  0  0
 13 14  1  0  0  0  0
 13 15  1  0  0  0  0
 13 16  1  0  0  0  0
 16 17  1  0  0  0  0
 16 18  1  0  0  0  0
M  END
> <ChemID>
201750

> <source_casrn>
108-00-9

> <CAS>
108-00-9

> <SMILES>
CN(C)CCN

> <NAME>


> <preferred_name>
1,2-Ethanediamine, N,N-dimethyl-

> <iupac>
N,N-dimethylethane-1,2-diamine

> <MPID>
101437

> <dsstox_substance_id>
DTXSID7059357

> <Canonical_QSARr>
CN(C)CCN

> <InChI_Code_QSARr>
InChI=1S/C4H12N2/c1-6(2)4-3-5/h3-5H2,1-2H3

> <InChI Key_QSARr>
DILRJUIACXKSQE-UHFFFAOYSA-N

> <Salt_Solvent>


> <Ready_Biodeg>
0.0

$$$$
201752
  -INDIGO-08031722522D

 31 30  0  0  0  0  0  0  0  0999 V2000
    1.3856    2.4000    0.0000 C   0  0  0  0  0  0  0  0  0  0  0  0
    1.3856    4.0000    0.0000 H   0  0  0  0  0  0  0  0  0  0  0  0
    2.7714    3.2000    0.0000 H   0  0  0  0  0  0  0  0  0  0  0  0
    0.0001    3.2000    0.0000 H   0  0  0  0  0  0  0  0  0  0  0  0
    1.3856    0.8000    0.0000 N   0  0  0  0  0  0  0  0  0  0  0  0
    2.7714   -0.0000    0.0000 C   0  0  0  0  0  0  0  0  0  0  0  0
    4.1569   -0.8000    0.0000 H   0  0  0  0  0  0  0  0  0  0  0  0
    4.1569    0.8000    0.0000 H   0  0  0  0  0  0  0  0  0  0  0  0
    2.7714   -1.6000    0.0000 H   0  0  0  0  0  0  0  0  0  0  0  0
    0.0001   -0.0000    0.0000 C   0  0  0  0  0  0  0  0  0  0  0  0
    0.6122   -1.4782    0.0000 H   0  0  0  0  0  0  0  0  0  0  0  0
   -0.6122   -1.4782    0.0000 H   0  0  0  0  0  0  0  0  0  0  0  0
   -1.3856    0.8000    0.0000 C   0  0  0  0  0  0  0  0  0  0  0  0
   -1.9980    2.2782    0.0000 H   0  0  0  0  0  0  0  0  0  0  0  0
   -0.7733    2.2782    0.0000 H   0  0  0  0  0  0  0  0  0  0  0  0
   -2.7712   -0.0000    0.0000 O   0  0  0  0  0  0  0  0  0  0  0  0
   -4.1569    0.8000    0.0000 C   0  0  0  0  0  0  0  0  0  0  0  0
   -4.7692    2.2782    0.0000 H   0  0  0  0  0  0  0  0  0  0  0  0
   -3.5446    2.2782    0.0000 H   0  0  0  0  0  0  0  0  0  0  0  0
   -5.5425   -0.0000    0.0000 C   0  0  0  0  0  0  0  0  0  0  0  0
   -4.9304   -1.4782    0.0000 H   0  0  0  0  0  0  0  0  0  0  0  0
   -6.1548   -1.4782    0.0000 H   0  0  0  0  0  0  0  0  0  0  0  0
   -6.9282    0.8000    0.0000 N   0  0  0  0  0  0  0  0  0  0  0  0
   -8.3137   -0.0000    0.0000 C   0  0  0  0  0  0  0  0  0  0  0  0
   -9.6995   -0.8000    0.0000 H   0  0  0  0  0  0  0  0  0  0  0  0
   -9.6995    0.8000    0.0000 H   0  0  0  0  0  0  0  0  0  0  0  0
   -8.3137   -1.6000    0.0000 H   0  0  0  0  0  0  0  0  0  0  0  0
   -6.9282    2.4000    0.0000 C   0  0  0  0  0  0  0  0  0  0  0  0
   -6.9282    4.0000    0.0000 H   0  0  0  0  0  0  0  0  0  0  0  0
   -8.3137    3.2000    0.0000 H   0  0  0  0  0  0  0  0  0  0  0  0
   -5.5425    3.2000    0.0000 H   0  0  0  0  0  0  0  0  0  0  0  0
  1  2  1  0  0  0  0
  1  3  1  0  0  0  0
  1  4  1  0  0  0  0
  1  5  1  0  0  0  0
  5  6  1  0  0  0  0
  6  7  1  0  0  0  0
  6  8  1  0  0  0  0
  6  9  1  0  0  0  0
  5 10  1  0  0  0  0
 10 11  1  0  0  0  0
 10 12  1  0  0  0  0
 10 13  1  0  0  0  0
 13 14  1  0  0  0  0
 13 15  1  0  0  0  0
 13 16  1  0  0  0  0
 16 17  1  0  0  0  0
 17 18  1  0  0  0  0
 17 19  1  0  0  0  0
 17 20  1  0  0  0  0
 20 21  1  0  0  0  0
 20 22  1  0  0  0  0
 20 23  1  0  0  0  0
 23 24  1  0  0  0  0
 24 25  1  0  0  0  0
 24 26  1  0  0  0  0
 24 27  1  0  0  0  0
 23 28  1  0  0  0  0
 28 29  1  0  0  0  0
 28 30  1  0  0  0  0
 28 31  1  0  0  0  0
M  END
> <ChemID>
201752

> <source_casrn>
3033-62-3

> <CAS>
3033-62-3

> <SMILES>
CN(C)CCOCCN(C)C

> <NAME>


> <preferred_name>
Bis[2-(dimethylamino)ethyl]ether

> <iupac>
2,2'-oxybis(N,N-dimethylethanamine)

> <MPID>
101438

> <dsstox_substance_id>
DTXSID5027512

> <Canonical_QSARr>
CN(C)CCOCCN(C)C

> <InChI_Code_QSARr>
InChI=1S/C8H20N2O/c1-9(2)5-7-11-8-6-10(3)4/h5-8H2,1-4H3

> <InChI Key_QSARr>
GTEXIOINCJRBIO-UHFFFAOYSA-N

> <Salt_Solvent>


> <Ready_Biodeg>
0.0

$$$$
201756
  -INDIGO-08031722522D

 29 29  0  0  0  0  0  0  0  0999 V2000
   -0.0001   -2.7712    0.0000 C   0  0  0  0  0  0  0  0  0  0  0  0
    0.7999   -4.1569    0.0000 H   0  0  0  0  0  0  0  0  0  0  0  0
   -0.8000   -4.1569    0.0000 H   0  0  0  0  0  0  0  0  0  0  0  0
    1.6001   -2.7712    0.0000 H   0  0  0  0  0  0  0  0  0  0  0  0
   -0.8000   -1.3856    0.0000 N   0  0  0  0  0  0  0  0  0  0  0  0
   -2.4000   -1.3856    0.0000 C   0  0  0  0  0  0  0  0  0  0  0  0
   -4.0000   -1.3856    0.0000 H   0  0  0  0  0  0  0  0  0  0  0  0
   -3.2000   -2.7712    0.0000 H   0  0  0  0  0  0  0  0  0  0  0  0
   -3.2000   -0.0001    0.0000 H   0  0  0  0  0  0  0  0  0  0  0  0
   -0.0001   -0.0001    0.0000 S   0  0  0  0  0  0  0  0  0  0  0  0
   -1.3856    0.8001    0.0000 O   0  0  0  0  0  0  0  0  0  0  0  0
    1.3856   -0.8000    0.0000 O   0  0  0  0  0  0  0  0  0  0  0  0
    0.7999    1.3856    0.0000 N   0  0  0  0  0  0  0  0  0  0  0  0
   -0.0001    2.7712    0.0000 S   0  0  0  0  0  0  0  0  0  0  0  0
   -1.6000    2.7712    0.0000 C   0  0  0  0  0  0  0  0  0  0  0  0
   -2.4000    4.1569    0.0000 F   0  0  0  0  0  0  0  0  0  0  0  0
   -3.2000    2.7712    0.0000 Cl  0  0  0  0  0  0  0  0  0  0  0  0
   -0.8000    4.1569    0.0000 Cl  0  0  0  0  0  0  0  0  0  0  0  0
    2.4001    1.3856    0.0000 C   0  0  0  0  0  0  0  0  0  0  0  0
    3.2001    2.7713    0.0000 C   0  0  0  0  0  0  0  0  0  0  0  0
    2.4001    4.1569    0.0000 H   0  0  0  0  0  0  0  0  0  0  0  0
    4.8000    2.7712    0.0000 C   0  0  0  0  0  0  0  0  0  0  0  0
    5.6000    4.1569    0.0000 H   0  0  0  0  0  0  0  0  0  0  0  0
    5.6000    1.3856    0.0000 C   0  0  0  0  0  0  0  0  0  0  0  0
    7.2000    1.3856    0.0000 H   0  0  0  0  0  0  0  0  0  0  0  0
    4.8000    0.0001    0.0000 C   0  0  0  0  0  0  0  0  0  0  0  0
    5.6000   -1.3856    0.0000 H   0  0  0  0  0  0  0  0  0  0  0  0
    3.2001    0.0001    0.0000 C   0  0  0  0  0  0  0  0  0  0  0  0
    2.4001   -1.3856    0.0000 H   0  0  0  0  0  0  0  0  0  0  0  0
  1  2  1  0  0  0  0
  1  3  1  0  0  0  0
  1  4  1  0  0  0  0
  1  5  1  0  0  0  0
  5  6  1  0  0  0  0
  6  7  1  0  0  0  0
  6  8  1  0  0  0  0
  6  9  1  0  0  0  0
  5 10  1  0  0  0  0
 10 11  2  0  0  0  0
 10 12  2  0  0  0  0
 10 13  1  0  0  0  0
 13 14  1  0  0  0  0
 14 15  1  0  0  0  0
 15 16  1  0  0  0  0
 15 17  1  0  0  0  0
 15 18  1  0  0  0  0
 13 19  1  0  0  0  0
 19 20  1  0  0  0  0
 20 21  1  0  0  0  0
 20 22  2  0  0  0  0
 22 23  1  0  0  0  0
 22 24  1  0  0  0  0
 24 25  1  0  0  0  0
 24 26  2  0  0  0  0
 26 27  1  0  0  0  0
 26 28  1  0  0  0  0
 28 19  2  0  0  0  0
 28 29  1  0  0  0  0
M  END
> <ChemID>
201756

> <source_casrn>
1085-98-9

> <CAS>
1085-98-9

> <SMILES>
CN(C)[S](=O)(=O)N(SC(F)(Cl)Cl)c1ccccc1

> <NAME>


> <preferred_name>
Dichlofluanid

> <iupac>
N-{[dichloro(fluoro)methyl]sulfanyl}-N',N'-dimethyl-N-phenylsulfuric diamide

> <MPID>
101439

> <dsstox_substance_id>
DTXSID5041851

> <Canonical_QSARr>
CN(C)S(=O)(=O)N(SC(F)(Cl)Cl)c1ccccc1

> <InChI_Code_QSARr>
InChI=1S/C9H11Cl2FN2O2S2/c1-13(2)18(15,16)14(17-9(10,11)12)8-6-4-3-5-7-8/h3-7H,1-2H3

> <InChI Key_QSARr>
WURGXGVFSMYFCG-UHFFFAOYSA-N

> <Salt_Solvent>


> <Ready_Biodeg>
0.0

$$$$
201758
  -INDIGO-08031722522D

 60 63  0  0  0  0  0  0  0  0999 V2000
    7.3556    0.3921    0.0000 C   0  0  0  0  0  0  0  0  0  0  0  0
    8.3839    1.6178    0.0000 H   0  0  0  0  0  0  0  0  0  0  0  0
    8.9312    0.1144    0.0000 H   0  0  0  0  0  0  0  0  0  0  0  0
    6.8083    1.8956    0.0000 H   0  0  0  0  0  0  0  0  0  0  0  0
    6.3271   -0.8336    0.0000 N   0  0  0  0  0  0  0  0  0  0  0  0
    6.8744   -2.3370    0.0000 C   0  0  0  0  0  0  0  0  0  0  0  0
    7.4215   -3.8405    0.0000 H   0  0  0  0  0  0  0  0  0  0  0  0
    8.4500   -2.6148    0.0000 H   0  0  0  0  0  0  0  0  0  0  0  0
    5.8459   -3.5626    0.0000 H   0  0  0  0  0  0  0  0  0  0  0  0
    4.7515   -0.5557    0.0000 C   0  0  0  0  0  0  0  0  0  0  0  0
    4.2041    0.9478    0.0000 C   0  0  0  0  0  0  0  0  0  0  0  0
    5.2327    2.1735    0.0000 H   0  0  0  0  0  0  0  0  0  0  0  0
    2.6285    1.2257    0.0000 C   0  0  0  0  0  0  0  0  0  0  0  0
    2.0812    2.7293    0.0000 H   0  0  0  0  0  0  0  0  0  0  0  0
    1.6000    0.0000    0.0000 C   0  0  0  0  0  0  0  0  0  0  0  0
    0.0001    0.0000    0.0000 C   0  0  0  0  0  0  0  0  0  0  0  0
    0.1672   -1.5912    0.0000 O   0  0  0  0  0  0  0  0  0  0  0  0
   -1.2944   -2.2420    0.0000 C   0  0  0  0  0  0  0  0  0  0  0  0
   -1.6271   -3.8070    0.0000 O   0  0  0  0  0  0  0  0  0  0  0  0
   -2.3651   -1.0530    0.0000 C   0  0  0  0  0  0  0  0  0  0  0  0
   -3.9650   -1.0530    0.0000 C   0  0  0  0  0  0  0  0  0  0  0  0
   -4.7651   -2.4386    0.0000 H   0  0  0  0  0  0  0  0  0  0  0  0
   -4.7651    0.3327    0.0000 C   0  0  0  0  0  0  0  0  0  0  0  0
   -3.9650    1.7184    0.0000 C   0  0  0  0  0  0  0  0  0  0  0  0
   -4.7651    3.1039    0.0000 H   0  0  0  0  0  0  0  0  0  0  0  0
   -2.3651    1.7184    0.0000 C   0  0  0  0  0  0  0  0  0  0  0  0
   -2.2665    2.5774    0.0000 H   0  0  0  0  0  0  0  0  0  0  0  0
   -1.5650    0.3327    0.0000 C   0  0  0  0  0  0  0  0  0  0  0  0
   -6.3650    0.3327    0.0000 N   0  0  0  0  0  0  0  0  0  0  0  0
   -7.1651   -1.0530    0.0000 C   0  0  0  0  0  0  0  0  0  0  0  0
   -7.9649   -2.4386    0.0000 H   0  0  0  0  0  0  0  0  0  0  0  0
   -8.7650   -1.0530    0.0000 H   0  0  0  0  0  0  0  0  0  0  0  0
   -6.3650   -2.4386    0.0000 H   0  0  0  0  0  0  0  0  0  0  0  0
   -7.1651    1.7184    0.0000 C   0  0  0  0  0  0  0  0  0  0  0  0
   -8.7650    1.7184    0.0000 H   0  0  0  0  0  0  0  0  0  0  0  0
   -7.9649    3.1039    0.0000 H   0  0  0  0  0  0  0  0  0  0  0  0
   -6.3650    3.1039    0.0000 H   0  0  0  0  0  0  0  0  0  0  0  0
    0.4410    1.5380    0.0000 C   0  0  0  0  0  0  0  0  0  0  0  0
   -0.6704    2.6890    0.0000 C   0  0  0  0  0  0  0  0  0  0  0  0
   -1.4548    3.0528    0.0000 H   0  0  0  0  0  0  0  0  0  0  0  0
   -0.2295    4.2270    0.0000 C   0  0  0  0  0  0  0  0  0  0  0  0
   -1.3409    5.3780    0.0000 H   0  0  0  0  0  0  0  0  0  0  0  0
    1.3229    4.6140    0.0000 C   0  0  0  0  0  0  0  0  0  0  0  0
    1.7642    6.1520    0.0000 N   0  0  0  0  0  0  0  0  0  0  0  0
    0.6527    7.3030    0.0000 C   0  0  0  0  0  0  0  0  0  0  0  0
    1.0937    8.8410    0.0000 H   0  0  0  0  0  0  0  0  0  0  0  0
   -0.4587    8.4540    0.0000 H   0  0  0  0  0  0  0  0  0  0  0  0
   -0.8999    6.9160    0.0000 H   0  0  0  0  0  0  0  0  0  0  0  0
    3.3165    6.5391    0.0000 C   0  0  0  0  0  0  0  0  0  0  0  0
    4.8689    6.9263    0.0000 H   0  0  0  0  0  0  0  0  0  0  0  0
    3.7575    8.0773    0.0000 H   0  0  0  0  0  0  0  0  0  0  0  0
    4.4280    5.3883    0.0000 H   0  0  0  0  0  0  0  0  0  0  0  0
    2.4346    3.4631    0.0000 C   0  0  0  0  0  0  0  0  0  0  0  0
    3.9870    3.8503    0.0000 H   0  0  0  0  0  0  0  0  0  0  0  0
    1.9934    1.9251    0.0000 C   0  0  0  0  0  0  0  0  0  0  0  0
    2.6442    0.4635    0.0000 H   0  0  0  0  0  0  0  0  0  0  0  0
    2.1473   -1.5035    0.0000 C   0  0  0  0  0  0  0  0  0  0  0  0
    1.1188   -2.7292    0.0000 H   0  0  0  0  0  0  0  0  0  0  0  0
    3.7229   -1.7814    0.0000 C   0  0  0  0  0  0  0  0  0  0  0  0
    4.2703   -3.2848    0.0000 H   0  0  0  0  0  0  0  0  0  0  0  0
  1  2  1  0  0  0  0
  1  3  1  0  0  0  0
  1  4  1  0  0  0  0
  1  5  1  0  0  0  0
  5  6  1  0  0  0  0
  6  7  1  0  0  0  0
  6  8  1  0  0  0  0
  6  9  1  0  0  0  0
  5 10  1  0  0  0  0
 10 11  1  0  0  0  0
 11 12  1  0  0  0  0
 11 13  2  0  0  0  0
 13 14  1  0  0  0  0
 13 15  1  0  0  0  0
 15 16  1  0  0  0  0
 16 17  1  0  0  0  0
 17 18  1  0  0  0  0
 18 19  2  0  0  0  0
 18 20  1  0  0  0  0
 20 21  1  0  0  0  0
 21 22  1  0  0  0  0
 21 23  2  0  0  0  0
 23 24  1  0  0  0  0
 24 25  1  0  0  0  0
 24 26  2  0  0  0  0
 26 27  1  0  0  0  0
 26 28  1  0  0  0  0
 28 16  1  0  0  0  0
 28 20  2  0  0  0  0
 23 29  1  0  0  0  0
 29 30  1  0  0  0  0
 30 31  1  0  0  0  0
 30 32  1  0  0  0  0
 30 33  1  0  0  0  0
 29 34  1  0  0  0  0
 34 35  1  0  0  0  0
 34 36  1  0  0  0  0
 34 37  1  0  0  0  0
 16 38  1  0  0  0  0
 38 39  1  0  0  0  0
 39 40  1  0  0  0  0
 39 41  2  0  0  0  0
 41 42  1  0  0  0  0
 41 43  1  0  0  0  0
 43 44  1  0  0  0  0
 44 45  1  0  0  0  0
 45 46  1  0  0  0  0
 45 47  1  0  0  0  0
 45 48  1  0  0  0  0
 44 49  1  0  0  0  0
 49 50  1  0  0  0  0
 49 51  1  0  0  0  0
 49 52  1  0  0  0  0
 43 53  2  0  0  0  0
 53 54  1  0  0  0  0
 53 55  1  0  0  0  0
 55 38  2  0  0  0  0
 55 56  1  0  0  0  0
 15 57  2  0  0  0  0
 57 58  1  0  0  0  0
 57 59  1  0  0  0  0
 59 10  2  0  0  0  0
 59 60  1  0  0  0  0
M  END
> <ChemID>
201758

> <source_casrn>
1552-42-7

> <CAS>
1552-42-7

> <SMILES>
CN(C)c1ccc(cc1)C2(OC(=O)c3cc(ccc23)N(C)C)c4ccc(cc4)N(C)C

> <NAME>


> <preferred_name>
Crystal Violet lactone

> <iupac>
6-(dimethylamino)-3,3-bis[4-(dimethylamino)phenyl]-2-benzofuran-1(3H)-one

> <MPID>
101441

> <dsstox_substance_id>
DTXSID8024866

> <Canonical_QSARr>
CN(C)c1cc2C(=O)OC(c2cc1)(c1ccc(cc1)N(C)C)c1ccc(cc1)N(C)C

> <InChI_Code_QSARr>
InChI=1S/C26H29N3O2/c1-27(2)20-11-7-18(8-12-20)26(19-9-13-21(14-10-19)28(3)4)24-16-15-22(29(5)6)17-23(24)25(30)31-26/h7-17H,1-6H3

> <InChI Key_QSARr>
IPAJDLMMTVZVPP-UHFFFAOYSA-N

> <Salt_Solvent>


> <Ready_Biodeg>
0.0

$$$$
201759
  -INDIGO-08031722522D

 41 42  0  0  0  0  0  0  0  0999 V2000
    6.8499   -2.6149    0.0000 C   0  0  0  0  0  0  0  0  0  0  0  0
    7.3973   -4.1184    0.0000 H   0  0  0  0  0  0  0  0  0  0  0  0
    8.4258   -2.8927    0.0000 H   0  0  0  0  0  0  0  0  0  0  0  0
    5.8215   -3.8406    0.0000 H   0  0  0  0  0  0  0  0  0  0  0  0
    6.3028   -1.1113    0.0000 N   0  0  0  0  0  0  0  0  0  0  0  0
    7.3313    0.1144    0.0000 C   0  0  0  0  0  0  0  0  0  0  0  0
    8.3596    1.3400    0.0000 H   0  0  0  0  0  0  0  0  0  0  0  0
    8.9069   -0.1635    0.0000 H   0  0  0  0  0  0  0  0  0  0  0  0
    6.7840    1.6179    0.0000 H   0  0  0  0  0  0  0  0  0  0  0  0
    4.7270   -0.8335    0.0000 C   0  0  0  0  0  0  0  0  0  0  0  0
    4.1799    0.6700    0.0000 C   0  0  0  0  0  0  0  0  0  0  0  0
    5.2084    1.8957    0.0000 H   0  0  0  0  0  0  0  0  0  0  0  0
    2.6041    0.9478    0.0000 C   0  0  0  0  0  0  0  0  0  0  0  0
    2.0570    2.4513    0.0000 H   0  0  0  0  0  0  0  0  0  0  0  0
    1.5756   -0.2779    0.0000 C   0  0  0  0  0  0  0  0  0  0  0  0
    0.0000   -0.0000    0.0000 C   0  0  0  0  0  0  0  0  0  0  0  0
   -0.8598    1.3494    0.0000 H   0  0  0  0  0  0  0  0  0  0  0  0
    0.3463    1.5621    0.0000 H   0  0  0  0  0  0  0  0  0  0  0  0
   -1.3856   -0.8000    0.0000 C   0  0  0  0  0  0  0  0  0  0  0  0
   -1.3856   -2.4000    0.0000 C   0  0  0  0  0  0  0  0  0  0  0  0
    0.0000   -3.2000    0.0000 H   0  0  0  0  0  0  0  0  0  0  0  0
   -2.7712   -3.2000    0.0000 C   0  0  0  0  0  0  0  0  0  0  0  0
   -2.7712   -4.8000    0.0000 H   0  0  0  0  0  0  0  0  0  0  0  0
   -4.1568   -2.4000    0.0000 C   0  0  0  0  0  0  0  0  0  0  0  0
   -5.5427   -3.2000    0.0000 N   0  0  0  0  0  0  0  0  0  0  0  0
   -5.5427   -4.8000    0.0000 C   0  0  0  0  0  0  0  0  0  0  0  0
   -5.5427   -6.4000    0.0000 H   0  0  0  0  0  0  0  0  0  0  0  0
   -6.9282   -5.6000    0.0000 H   0  0  0  0  0  0  0  0  0  0  0  0
   -4.1571   -5.6000    0.0000 H   0  0  0  0  0  0  0  0  0  0  0  0
   -6.9282   -2.4000    0.0000 C   0  0  0  0  0  0  0  0  0  0  0  0
   -8.3138   -1.6000    0.0000 H   0  0  0  0  0  0  0  0  0  0  0  0
   -8.3138   -3.2000    0.0000 H   0  0  0  0  0  0  0  0  0  0  0  0
   -6.9282   -0.8000    0.0000 H   0  0  0  0  0  0  0  0  0  0  0  0
   -4.1568   -0.8000    0.0000 C   0  0  0  0  0  0  0  0  0  0  0  0
   -5.5427   -0.0000    0.0000 H   0  0  0  0  0  0  0  0  0  0  0  0
   -2.7712   -0.0000    0.0000 C   0  0  0  0  0  0  0  0  0  0  0  0
   -2.7712    1.6000    0.0000 H   0  0  0  0  0  0  0  0  0  0  0  0
    2.1229   -1.7814    0.0000 C   0  0  0  0  0  0  0  0  0  0  0  0
    1.0944   -3.0070    0.0000 H   0  0  0  0  0  0  0  0  0  0  0  0
    3.6985   -2.0592    0.0000 C   0  0  0  0  0  0  0  0  0  0  0  0
    4.2459   -3.5627    0.0000 H   0  0  0  0  0  0  0  0  0  0  0  0
  1  2  1  0  0  0  0
  1  3  1  0  0  0  0
  1  4  1  0  0  0  0
  1  5  1  0  0  0  0
  5  6  1  0  0  0  0
  6  7  1  0  0  0  0
  6  8  1  0  0  0  0
  6  9  1  0  0  0  0
  5 10  1  0  0  0  0
 10 11  1  0  0  0  0
 11 12  1  0  0  0  0
 11 13  2  0  0  0  0
 13 14  1  0  0  0  0
 13 15  1  0  0  0  0
 15 16  1  0  0  0  0
 16 17  1  0  0  0  0
 16 18  1  0  0  0  0
 16 19  1  0  0  0  0
 19 20  1  0  0  0  0
 20 21  1  0  0  0  0
 20 22  2  0  0  0  0
 22 23  1  0  0  0  0
 22 24  1  0  0  0  0
 24 25  1  0  0  0  0
 25 26  1  0  0  0  0
 26 27  1  0  0  0  0
 26 28  1  0  0  0  0
 26 29  1  0  0  0  0
 25 30  1  0  0  0  0
 30 31  1  0  0  0  0
 30 32  1  0  0  0  0
 30 33  1  0  0  0  0
 24 34  2  0  0  0  0
 34 35  1  0  0  0  0
 34 36  1  0  0  0  0
 36 19  2  0  0  0  0
 36 37  1  0  0  0  0
 15 38  2  0  0  0  0
 38 39  1  0  0  0  0
 38 40  1  0  0  0  0
 40 10  2  0  0  0  0
 40 41  1  0  0  0  0
M  END
> <ChemID>
201759

> <source_casrn>
101-61-1

> <CAS>
101-61-1

> <SMILES>
CN(C)c1ccc(Cc2ccc(cc2)N(C)C)cc1

> <NAME>


> <preferred_name>
4,4'-Methylenebis(N,N-dimethylaniline)

> <iupac>
4,4'-methanediylbis(N,N-dimethylaniline)

> <MPID>
101442

> <dsstox_substance_id>
DTXSID5020869

> <Canonical_QSARr>
CN(C)c1ccc(Cc2ccc(cc2)N(C)C)cc1

> <InChI_Code_QSARr>
InChI=1S/C17H22N2/c1-18(2)16-9-5-14(6-10-16)13-15-7-11-17(12-8-15)19(3)4/h5-12H,13H2,1-4H3

> <InChI Key_QSARr>
JNRLEMMIVRBKJE-UHFFFAOYSA-N

> <Salt_Solvent>


> <Ready_Biodeg>
0.0

$$$$
201760
  -INDIGO-08031722522D

 41 42  0  0  0  0  0  0  0  0999 V2000
    2.6043    0.9478    0.0000 C   0  0  0  0  0  0  0  0  0  0  0  0
    3.6325    2.1736    0.0000 H   0  0  0  0  0  0  0  0  0  0  0  0
    4.1798    0.6699    0.0000 H   0  0  0  0  0  0  0  0  0  0  0  0
    2.0569    2.4513    0.0000 H   0  0  0  0  0  0  0  0  0  0  0  0
    1.5758   -0.2779    0.0000 N   0  0  0  0  0  0  0  0  0  0  0  0
    2.1229   -1.7814    0.0000 C   0  0  0  0  0  0  0  0  0  0  0  0
    2.6702   -3.2849    0.0000 H   0  0  0  0  0  0  0  0  0  0  0  0
    3.6987   -2.0591    0.0000 H   0  0  0  0  0  0  0  0  0  0  0  0
    1.0944   -3.0069    0.0000 H   0  0  0  0  0  0  0  0  0  0  0  0
   -0.0001    0.0000    0.0000 C   0  0  0  0  0  0  0  0  0  0  0  0
   -0.5472    1.5035    0.0000 C   0  0  0  0  0  0  0  0  0  0  0  0
    0.4813    2.7292    0.0000 H   0  0  0  0  0  0  0  0  0  0  0  0
   -2.1230    1.7813    0.0000 C   0  0  0  0  0  0  0  0  0  0  0  0
   -2.6701    3.2849    0.0000 H   0  0  0  0  0  0  0  0  0  0  0  0
   -3.1515    0.5557    0.0000 C   0  0  0  0  0  0  0  0  0  0  0  0
   -4.7271    0.8335    0.0000 C   0  0  0  0  0  0  0  0  0  0  0  0
   -5.2744    2.3370    0.0000 N   0  0  0  0  0  0  0  0  0  0  0  0
   -4.2459    3.5627    0.0000 H   0  0  0  0  0  0  0  0  0  0  0  0
   -6.1127    0.0335    0.0000 C   0  0  0  0  0  0  0  0  0  0  0  0
   -6.1127   -1.5664    0.0000 C   0  0  0  0  0  0  0  0  0  0  0  0
   -4.7271   -2.3664    0.0000 H   0  0  0  0  0  0  0  0  0  0  0  0
   -7.4983   -2.3664    0.0000 C   0  0  0  0  0  0  0  0  0  0  0  0
   -7.4983   -3.9665    0.0000 H   0  0  0  0  0  0  0  0  0  0  0  0
   -8.8841   -1.5664    0.0000 C   0  0  0  0  0  0  0  0  0  0  0  0
  -10.2697   -2.3664    0.0000 N   0  0  0  0  0  0  0  0  0  0  0  0
  -10.2697   -3.9665    0.0000 C   0  0  0  0  0  0  0  0  0  0  0  0
  -10.2697   -5.5665    0.0000 H   0  0  0  0  0  0  0  0  0  0  0  0
  -11.6553   -4.7665    0.0000 H   0  0  0  0  0  0  0  0  0  0  0  0
   -8.8841   -4.7665    0.0000 H   0  0  0  0  0  0  0  0  0  0  0  0
  -11.6553   -1.5664    0.0000 C   0  0  0  0  0  0  0  0  0  0  0  0
  -13.0409   -0.7665    0.0000 H   0  0  0  0  0  0  0  0  0  0  0  0
  -13.0409   -2.3664    0.0000 H   0  0  0  0  0  0  0  0  0  0  0  0
  -11.6553    0.0335    0.0000 H   0  0  0  0  0  0  0  0  0  0  0  0
   -8.8841    0.0335    0.0000 C   0  0  0  0  0  0  0  0  0  0  0  0
  -10.2697    0.8335    0.0000 H   0  0  0  0  0  0  0  0  0  0  0  0
   -7.4983    0.8335    0.0000 C   0  0  0  0  0  0  0  0  0  0  0  0
   -7.4983    2.4335    0.0000 H   0  0  0  0  0  0  0  0  0  0  0  0
   -2.6041   -0.9478    0.0000 C   0  0  0  0  0  0  0  0  0  0  0  0
   -3.6326   -2.1735    0.0000 H   0  0  0  0  0  0  0  0  0  0  0  0
   -1.0286   -1.2257    0.0000 C   0  0  0  0  0  0  0  0  0  0  0  0
   -0.4812   -2.7292    0.0000 H   0  0  0  0  0  0  0  0  0  0  0  0
  1  2  1  0  0  0  0
  1  3  1  0  0  0  0
  1  4  1  0  0  0  0
  1  5  1  0  0  0  0
  5  6  1  0  0  0  0
  6  7  1  0  0  0  0
  6  8  1  0  0  0  0
  6  9  1  0  0  0  0
  5 10  1  0  0  0  0
 10 11  1  0  0  0  0
 11 12  1  0  0  0  0
 11 13  2  0  0  0  0
 13 14  1  0  0  0  0
 13 15  1  0  0  0  0
 15 16  1  0  0  0  0
 16 17  2  0  0  0  0
 17 18  1  0  0  0  0
 16 19  1  0  0  0  0
 19 20  1  0  0  0  0
 20 21  1  0  0  0  0
 20 22  2  0  0  0  0
 22 23  1  0  0  0  0
 22 24  1  0  0  0  0
 24 25  1  0  0  0  0
 25 26  1  0  0  0  0
 26 27  1  0  0  0  0
 26 28  1  0  0  0  0
 26 29  1  0  0  0  0
 25 30  1  0  0  0  0
 30 31  1  0  0  0  0
 30 32  1  0  0  0  0
 30 33  1  0  0  0  0
 24 34  2  0  0  0  0
 34 35  1  0  0  0  0
 34 36  1  0  0  0  0
 36 19  2  0  0  0  0
 36 37  1  0  0  0  0
 15 38  2  0  0  0  0
 38 39  1  0  0  0  0
 38 40  1  0  0  0  0
 40 10  2  0  0  0  0
 40 41  1  0  0  0  0
M  END
> <ChemID>
201760

> <source_casrn>
2465-27-2

> <CAS>
492-80-8

> <SMILES>
CN(C)c1ccc(cc1)C(=N)c2ccc(cc2)N(C)C

> <NAME>


> <preferred_name>
Auramine hydrochloride

> <iupac>
4,4'-carbonimidoylbis(N,N-dimethylaniline) hydrochloride (1:1)

> <MPID>
101443

> <dsstox_substance_id>
DTXSID7043821

> <Canonical_QSARr>
CN(C)c1ccc(cc1)C(=N)c1ccc(cc1)N(C)C

> <InChI_Code_QSARr>
InChI=1S/C17H21N3/c1-19(2)15-9-5-13(6-10-15)17(18)14-7-11-16(12-8-14)20(3)4/h5-12,18H,1-4H3

> <InChI Key_QSARr>
JPIYZTWMUGTEHX-UHFFFAOYSA-N

> <Salt_Solvent>


> <Ready_Biodeg>
0.0

$$$$
201762
  -INDIGO-08031722522D

 35 34  0  0  0  0  0  0  0  0999 V2000
    4.1569    2.4000    0.0000 C   0  0  0  0  0  0  0  0  0  0  0  0
    4.1569    4.0000    0.0000 H   0  0  0  0  0  0  0  0  0  0  0  0
    5.5427    3.2000    0.0000 H   0  0  0  0  0  0  0  0  0  0  0  0
    2.7714    3.2000    0.0000 H   0  0  0  0  0  0  0  0  0  0  0  0
    4.1569    0.8000    0.0000 N   0  0  0  0  0  0  0  0  0  0  0  0
    5.5427    0.0000    0.0000 C   0  0  0  0  0  0  0  0  0  0  0  0
    6.9282   -0.8000    0.0000 H   0  0  0  0  0  0  0  0  0  0  0  0
    6.9282    0.8000    0.0000 H   0  0  0  0  0  0  0  0  0  0  0  0
    5.5427   -1.6000    0.0000 H   0  0  0  0  0  0  0  0  0  0  0  0
    2.7714    0.0000    0.0000 C   0  0  0  0  0  0  0  0  0  0  0  0
    3.3835   -1.4782    0.0000 H   0  0  0  0  0  0  0  0  0  0  0  0
    2.1591   -1.4782    0.0000 H   0  0  0  0  0  0  0  0  0  0  0  0
    1.3856    0.8000    0.0000 C   0  0  0  0  0  0  0  0  0  0  0  0
    0.7733    2.2782    0.0000 H   0  0  0  0  0  0  0  0  0  0  0  0
    1.9980    2.2782    0.0000 H   0  0  0  0  0  0  0  0  0  0  0  0
    0.0001    0.0000    0.0000 N   0  0  0  0  0  0  0  0  0  0  0  0
    0.0001   -1.6000    0.0000 C   0  0  0  0  0  0  0  0  0  0  0  0
    0.0001   -3.2000    0.0000 H   0  0  0  0  0  0  0  0  0  0  0  0
   -1.3856   -2.4000    0.0000 H   0  0  0  0  0  0  0  0  0  0  0  0
    1.3856   -2.4000    0.0000 H   0  0  0  0  0  0  0  0  0  0  0  0
   -1.3856    0.8000    0.0000 C   0  0  0  0  0  0  0  0  0  0  0  0
   -1.9980    2.2782    0.0000 H   0  0  0  0  0  0  0  0  0  0  0  0
   -0.7733    2.2782    0.0000 H   0  0  0  0  0  0  0  0  0  0  0  0
   -2.7712    0.0000    0.0000 C   0  0  0  0  0  0  0  0  0  0  0  0
   -2.1591   -1.4782    0.0000 H   0  0  0  0  0  0  0  0  0  0  0  0
   -3.3835   -1.4782    0.0000 H   0  0  0  0  0  0  0  0  0  0  0  0
   -4.1569    0.8000    0.0000 N   0  0  0  0  0  0  0  0  0  0  0  0
   -5.5425    0.0000    0.0000 C   0  0  0  0  0  0  0  0  0  0  0  0
   -6.9282   -0.8000    0.0000 H   0  0  0  0  0  0  0  0  0  0  0  0
   -6.9282    0.8000    0.0000 H   0  0  0  0  0  0  0  0  0  0  0  0
   -5.5425   -1.6000    0.0000 H   0  0  0  0  0  0  0  0  0  0  0  0
   -4.1569    2.4000    0.0000 C   0  0  0  0  0  0  0  0  0  0  0  0
   -4.1569    4.0000    0.0000 H   0  0  0  0  0  0  0  0  0  0  0  0
   -5.5427    3.2000    0.0000 H   0  0  0  0  0  0  0  0  0  0  0  0
   -2.7714    3.2000    0.0000 H   0  0  0  0  0  0  0  0  0  0  0  0
  1  2  1  0  0  0  0
  1  3  1  0  0  0  0
  1  4  1  0  0  0  0
  1  5  1  0  0  0  0
  5  6  1  0  0  0  0
  6  7  1  0  0  0  0
  6  8  1  0  0  0  0
  6  9  1  0  0  0  0
  5 10  1  0  0  0  0
 10 11  1  0  0  0  0
 10 12  1  0  0  0  0
 10 13  1  0  0  0  0
 13 14  1  0  0  0  0
 13 15  1  0  0  0  0
 13 16  1  0  0  0  0
 16 17  1  0  0  0  0
 17 18  1  0  0  0  0
 17 19  1  0  0  0  0
 17 20  1  0  0  0  0
 16 21  1  0  0  0  0
 21 22  1  0  0  0  0
 21 23  1  0  0  0  0
 21 24  1  0  0  0  0
 24 25  1  0  0  0  0
 24 26  1  0  0  0  0
 24 27  1  0  0  0  0
 27 28  1  0  0  0  0
 28 29  1  0  0  0  0
 28 30  1  0  0  0  0
 28 31  1  0  0  0  0
 27 32  1  0  0  0  0
 32 33  1  0  0  0  0
 32 34  1  0  0  0  0
 32 35  1  0  0  0  0
M  END
> <ChemID>
201762

> <source_casrn>
3030-47-5

> <CAS>
3030-47-5

> <SMILES>
CN(C)CCN(C)CCN(C)C

> <NAME>


> <preferred_name>
1,1,4,7,7-Pentamethyldiethylenetriamine

> <iupac>
N-[2-(dimethylamino)ethyl]-N,N',N'-trimethylethane-1,2-diamine

> <MPID>
101444

> <dsstox_substance_id>
DTXSID7029249

> <Canonical_QSARr>
CN(CCN(C)C)CCN(C)C

> <InChI_Code_QSARr>
InChI=1S/C9H23N3/c1-10(2)6-8-12(5)9-7-11(3)4/h6-9H2,1-5H3

> <InChI Key_QSARr>
UKODFQOELJFMII-UHFFFAOYSA-N

> <Salt_Solvent>


> <Ready_Biodeg>
0.0

$$$$
201763
  -INDIGO-08031722522D

 21 20  0  0  0  0  0  0  0  0999 V2000
    0.0001   -1.6000    0.0000 C   0  0  0  0  0  0  0  0  0  0  0  0
    0.0001   -3.2000    0.0000 H   0  0  0  0  0  0  0  0  0  0  0  0
   -1.3856   -2.4000    0.0000 H   0  0  0  0  0  0  0  0  0  0  0  0
    1.3856   -2.4000    0.0000 H   0  0  0  0  0  0  0  0  0  0  0  0
    0.0001   -0.0000    0.0000 N   0  0  0  0  0  0  0  0  0  0  0  0
   -1.3856    0.8000    0.0000 C   0  0  0  0  0  0  0  0  0  0  0  0
   -1.9979    2.2782    0.0000 H   0  0  0  0  0  0  0  0  0  0  0  0
   -0.7734    2.2782    0.0000 H   0  0  0  0  0  0  0  0  0  0  0  0
   -2.7712   -0.0000    0.0000 C   0  0  0  0  0  0  0  0  0  0  0  0
   -2.1589   -1.4782    0.0000 H   0  0  0  0  0  0  0  0  0  0  0  0
   -3.3836   -1.4782    0.0000 H   0  0  0  0  0  0  0  0  0  0  0  0
   -4.1569    0.8000    0.0000 O   0  0  0  0  0  0  0  0  0  0  0  0
   -5.5426   -0.0000    0.0000 H   0  0  0  0  0  0  0  0  0  0  0  0
    1.3856    0.8000    0.0000 C   0  0  0  0  0  0  0  0  0  0  0  0
    0.7734    2.2782    0.0000 H   0  0  0  0  0  0  0  0  0  0  0  0
    1.9979    2.2782    0.0000 H   0  0  0  0  0  0  0  0  0  0  0  0
    2.7712   -0.0000    0.0000 C   0  0  0  0  0  0  0  0  0  0  0  0
    3.3836   -1.4782    0.0000 H   0  0  0  0  0  0  0  0  0  0  0  0
    2.1589   -1.4782    0.0000 H   0  0  0  0  0  0  0  0  0  0  0  0
    4.1569    0.8000    0.0000 O   0  0  0  0  0  0  0  0  0  0  0  0
    5.5426   -0.0000    0.0000 H   0  0  0  0  0  0  0  0  0  0  0  0
  1  2  1  0  0  0  0
  1  3  1  0  0  0  0
  1  4  1  0  0  0  0
  1  5  1  0  0  0  0
  5  6  1  0  0  0  0
  6  7  1  0  0  0  0
  6  8  1  0  0  0  0
  6  9  1  0  0  0  0
  9 10  1  0  0  0  0
  9 11  1  0  0  0  0
  9 12  1  0  0  0  0
 12 13  1  0  0  0  0
  5 14  1  0  0  0  0
 14 15  1  0  0  0  0
 14 16  1  0  0  0  0
 14 17  1  0  0  0  0
 17 18  1  0  0  0  0
 17 19  1  0  0  0  0
 17 20  1  0  0  0  0
 20 21  1  0  0  0  0
M  END
> <ChemID>
201763

> <source_casrn>
105-59-9

> <CAS>
105-59-9

> <SMILES>
CN(CCO)CCO

> <NAME>


> <preferred_name>
N-Methyldiethanolamine

> <iupac>
2,2'-(methylimino)diethanol

> <MPID>
101445

> <dsstox_substance_id>
DTXSID8025591

> <Canonical_QSARr>
CN(CCO)CCO

> <InChI_Code_QSARr>
InChI=1S/C5H13NO2/c1-6(2-4-7)3-5-8/h7-8H,2-5H2,1H3

> <InChI Key_QSARr>
CRVGTESFCCXCTH-UHFFFAOYSA-N

> <Salt_Solvent>


> <Ready_Biodeg>
0.0

$$$$
201766
  -INDIGO-08031722522D

 19 19  0  0  0  0  0  0  0  0999 V2000
    2.7713   -0.0000    0.0000 C   0  0  0  0  0  0  0  0  0  0  0  0
    4.1569    0.8000    0.0000 H   0  0  0  0  0  0  0  0  0  0  0  0
    4.1569   -0.8000    0.0000 H   0  0  0  0  0  0  0  0  0  0  0  0
    2.7713    1.6000    0.0000 H   0  0  0  0  0  0  0  0  0  0  0  0
    1.3856   -0.8000    0.0000 N   0  0  0  0  0  0  0  0  0  0  0  0
    1.3856   -2.4000    0.0000 C   0  0  0  0  0  0  0  0  0  0  0  0
    2.9614   -2.1222    0.0000 H   0  0  0  0  0  0  0  0  0  0  0  0
    1.9329   -3.9035    0.0000 H   0  0  0  0  0  0  0  0  0  0  0  0
    0.0001   -3.2000    0.0000 S   0  0  0  0  0  0  0  0  0  0  0  0
   -1.3856   -2.4000    0.0000 C   0  0  0  0  0  0  0  0  0  0  0  0
   -2.7712   -3.2000    0.0000 S   0  0  0  0  0  0  0  0  0  0  0  0
   -1.3856   -0.8000    0.0000 N   0  0  0  0  0  0  0  0  0  0  0  0
   -2.7712   -0.0000    0.0000 C   0  0  0  0  0  0  0  0  0  0  0  0
   -4.1569    0.8000    0.0000 H   0  0  0  0  0  0  0  0  0  0  0  0
   -4.1569   -0.8000    0.0000 H   0  0  0  0  0  0  0  0  0  0  0  0
   -2.7712    1.6000    0.0000 H   0  0  0  0  0  0  0  0  0  0  0  0
    0.0001   -0.0000    0.0000 C   0  0  0  0  0  0  0  0  0  0  0  0
   -1.0284    1.2257    0.0000 H   0  0  0  0  0  0  0  0  0  0  0  0
    1.0284    1.2257    0.0000 H   0  0  0  0  0  0  0  0  0  0  0  0
  1  2  1  0  0  0  0
  1  3  1  0  0  0  0
  1  4  1  0  0  0  0
  1  5  1  0  0  0  0
  5  6  1  0  0  0  0
  6  7  1  0  0  0  0
  6  8  1  0  0  0  0
  6  9  1  0  0  0  0
  9 10  1  0  0  0  0
 10 11  2  0  0  0  0
 10 12  1  0  0  0  0
 12 13  1  0  0  0  0
 13 14  1  0  0  0  0
 13 15  1  0  0  0  0
 13 16  1  0  0  0  0
 12 17  1  0  0  0  0
 17  5  1  0  0  0  0
 17 18  1  0  0  0  0
 17 19  1  0  0  0  0
M  END
> <ChemID>
201766

> <source_casrn>
533-74-4

> <CAS>
533-74-4

> <SMILES>
CN1CSC(=S)N(C)C1

> <NAME>


> <preferred_name>
Dazomet

> <iupac>
3,5-dimethyl-1,3,5-thiadiazinane-2-thione

> <MPID>
101446

> <dsstox_substance_id>
DTXSID7024902

> <Canonical_QSARr>
CN1CSC(=S)N(C)C1

> <InChI_Code_QSARr>
InChI=1S/C5H10N2S2/c1-6-3-7(2)5(8)9-4-6/h3-4H2,1-2H3

> <InChI Key_QSARr>
QAYICIQNSGETAS-UHFFFAOYSA-N

> <Salt_Solvent>


> <Ready_Biodeg>
0.0

$$$$
201767
  -INDIGO-08031722522D

 12 12  0  0  0  0  0  0  0  0999 V2000
    1.5912    0.1672    0.0000 C   0  0  0  0  0  0  0  0  0  0  0  0
    3.1825    0.3345    0.0000 H   0  0  0  0  0  0  0  0  0  0  0  0
    2.2420    1.6289    0.0000 H   0  0  0  0  0  0  0  0  0  0  0  0
    2.5316   -1.1272    0.0000 H   0  0  0  0  0  0  0  0  0  0  0  0
    0.0001    0.0000    0.0000 N   0  0  0  0  0  0  0  0  0  0  0  0
   -1.0706    1.1890    0.0000 S   0  0  0  0  0  0  0  0  0  0  0  0
   -2.5323    0.5383    0.0000 C   0  0  0  0  0  0  0  0  0  0  0  0
   -3.9179    1.3382    0.0000 Cl  0  0  0  0  0  0  0  0  0  0  0  0
   -2.3650   -1.0530    0.0000 C   0  0  0  0  0  0  0  0  0  0  0  0
   -3.5541   -2.1236    0.0000 H   0  0  0  0  0  0  0  0  0  0  0  0
   -0.8000   -1.3856    0.0000 C   0  0  0  0  0  0  0  0  0  0  0  0
   -0.1492   -2.8473    0.0000 O   0  0  0  0  0  0  0  0  0  0  0  0
  1  2  1  0  0  0  0
  1  3  1  0  0  0  0
  1  4  1  0  0  0  0
  1  5  1  0  0  0  0
  5  6  1  0  0  0  0
  6  7  1  0  0  0  0
  7  8  1  0  0  0  0
  7  9  2  0  0  0  0
  9 10  1  0  0  0  0
  9 11  1  0  0  0  0
 11  5  1  0  0  0  0
 11 12  2  0  0  0  0
M  END
> <ChemID>
201767

> <source_casrn>
26172-55-4

> <CAS>
26172-55-4

> <SMILES>
CN1SC(=CC1=O)Cl

> <NAME>


> <preferred_name>
5-Chloro-2-methyl-3(2H)-isothiazolone

> <iupac>
5-chloro-2-methyl-1,2-thiazol-3(2H)-one

> <MPID>
101447

> <dsstox_substance_id>
DTXSID9034286

> <Canonical_QSARr>
CN1SC(Cl)=CC1=O

> <InChI_Code_QSARr>
InChI=1S/C4H4ClNOS/c1-6-4(7)2-3(5)8-6/h2H,1H3

> <InChI Key_QSARr>
DHNRXBZYEKSXIM-UHFFFAOYSA-N

> <Salt_Solvent>


> <Ready_Biodeg>
0.0

$$$$
201768
  -INDIGO-08031722522D

  7  6  0  0  0  0  0  0  0  0999 V2000
   -0.0000    0.0000    0.0000 C   0  0  0  0  0  0  0  0  0  0  0  0
    1.3856    0.8000    0.0000 H   0  0  0  0  0  0  0  0  0  0  0  0
   -0.0000    1.6000    0.0000 H   0  0  0  0  0  0  0  0  0  0  0  0
    1.3856   -0.8000    0.0000 H   0  0  0  0  0  0  0  0  0  0  0  0
   -1.3856   -0.8000    0.0000 N   0  0  0  0  0  0  0  0  0  0  0  0
   -2.7713    0.0000    0.0000 C   0  0  0  0  0  0  0  0  0  0  0  0
   -4.1569    0.8000    0.0000 S   0  0  0  0  0  0  0  0  0  0  0  0
  1  2  1  0  0  0  0
  1  3  1  0  0  0  0
  1  4  1  0  0  0  0
  1  5  1  0  0  0  0
  5  6  2  0  0  0  0
  6  7  2  0  0  0  0
M  END
> <ChemID>
201768

> <source_casrn>
556-61-6

> <CAS>
556-61-6

> <SMILES>
CN=C=S

> <NAME>


> <preferred_name>
Methyl isothiocyanate

> <iupac>
isothiocyanatomethane

> <MPID>
101448

> <dsstox_substance_id>
DTXSID2027204

> <Canonical_QSARr>
CN=C=S

> <InChI_Code_QSARr>
InChI=1S/C2H3NS/c1-3-2-4/h1H3

> <InChI Key_QSARr>
LGDSHSYDSCRFAB-UHFFFAOYSA-N

> <Salt_Solvent>


> <Ready_Biodeg>
0.0

$$$$
201771
  -INDIGO-08031722522D

 14 13  0  0  0  0  0  0  0  0999 V2000
    2.7713    0.0000    0.0000 C   0  0  0  0  0  0  0  0  0  0  0  0
    4.1569   -0.8000    0.0000 H   0  0  0  0  0  0  0  0  0  0  0  0
    4.1569    0.8000    0.0000 H   0  0  0  0  0  0  0  0  0  0  0  0
    2.7713   -1.6000    0.0000 H   0  0  0  0  0  0  0  0  0  0  0  0
    1.3856    0.8000    0.0000 N   0  0  0  0  0  0  0  0  0  0  0  0
    1.3856    2.4000    0.0000 H   0  0  0  0  0  0  0  0  0  0  0  0
    0.0001    0.0000    0.0000 C   0  0  0  0  0  0  0  0  0  0  0  0
    0.0001   -1.6000    0.0000 O   0  0  0  0  0  0  0  0  0  0  0  0
   -1.3856    0.8000    0.0000 N   0  0  0  0  0  0  0  0  0  0  0  0
   -1.3856    2.4000    0.0000 H   0  0  0  0  0  0  0  0  0  0  0  0
   -2.7713    0.0000    0.0000 C   0  0  0  0  0  0  0  0  0  0  0  0
   -4.1569   -0.8000    0.0000 H   0  0  0  0  0  0  0  0  0  0  0  0
   -4.1569    0.8000    0.0000 H   0  0  0  0  0  0  0  0  0  0  0  0
   -2.7713   -1.6000    0.0000 H   0  0  0  0  0  0  0  0  0  0  0  0
  1  2  1  0  0  0  0
  1  3  1  0  0  0  0
  1  4  1  0  0  0  0
  1  5  1  0  0  0  0
  5  6  1  0  0  0  0
  5  7  1  0  0  0  0
  7  8  2  0  0  0  0
  7  9  1  0  0  0  0
  9 10  1  0  0  0  0
  9 11  1  0  0  0  0
 11 12  1  0  0  0  0
 11 13  1  0  0  0  0
 11 14  1  0  0  0  0
M  END
> <ChemID>
201771

> <source_casrn>
96-31-1

> <CAS>
96-31-1

> <SMILES>
CNC(=O)NC

> <NAME>


> <preferred_name>
N,N'-Dimethylurea

> <iupac>
1,3-dimethylurea

> <MPID>
101449

> <dsstox_substance_id>
DTXSID5025156

> <Canonical_QSARr>
CNC(=O)NC

> <InChI_Code_QSARr>
InChI=1S/C3H8N2O/c1-4-3(6)5-2/h1-2H3,(H2,4,5,6)

> <InChI Key_QSARr>
MGJKQDOBUOMPEZ-UHFFFAOYSA-N

> <Salt_Solvent>


> <Ready_Biodeg>
0.0

$$$$
201775
  -INDIGO-08031722522D

 10  9  0  0  0  0  0  0  0  0999 V2000
    0.0000    0.0000    0.0000 C   0  0  0  0  0  0  0  0  0  0  0  0
    1.3856    0.8000    0.0000 H   0  0  0  0  0  0  0  0  0  0  0  0
    0.0000    1.6000    0.0000 H   0  0  0  0  0  0  0  0  0  0  0  0
    1.3856   -0.8000    0.0000 H   0  0  0  0  0  0  0  0  0  0  0  0
   -1.3856   -0.8000    0.0000 N   0  0  0  0  0  0  0  0  0  0  0  0
   -1.3856   -2.4000    0.0000 H   0  0  0  0  0  0  0  0  0  0  0  0
   -2.7713    0.0000    0.0000 C   0  0  0  0  0  0  0  0  0  0  0  0
   -4.1569   -0.8000    0.0000 S   0  0  0  0  0  0  0  0  0  0  0  0
   -5.5426    0.0000    0.0000 H   0  0  0  0  0  0  0  0  0  0  0  0
   -2.7713    1.6000    0.0000 S   0  0  0  0  0  0  0  0  0  0  0  0
  1  2  1  0  0  0  0
  1  3  1  0  0  0  0
  1  4  1  0  0  0  0
  1  5  1  0  0  0  0
  5  6  1  0  0  0  0
  5  7  1  0  0  0  0
  7  8  1  0  0  0  0
  8  9  1  0  0  0  0
  7 10  2  0  0  0  0
M  END
> <ChemID>
201775

> <source_casrn>
39680-90-5

> <CAS>
144-54-7

> <SMILES>
CNC(S)=S

> <NAME>


> <preferred_name>
Ammonium methyldithiocarbamate

> <iupac>
azanium methylaminomethanedithioate

> <MPID>
101450

> <dsstox_substance_id>
DTXSID5043970

> <Canonical_QSARr>
CNC(S)=S

> <InChI_Code_QSARr>
InChI=1S/C2H5NS2/c1-3-2(4)5/h1H3,(H2,3,4,5)

> <InChI Key_QSARr>
HYVVJDQGXFXBRZ-UHFFFAOYSA-N

> <Salt_Solvent>


> <Ready_Biodeg>
0.0

$$$$
201776
  -INDIGO-08031722522D

 18 17  0  0  0  0  0  0  0  0999 V2000
    4.1569    0.8000    0.0000 C   0  0  0  0  0  0  0  0  0  0  0  0
    5.5426    1.6000    0.0000 H   0  0  0  0  0  0  0  0  0  0  0  0
    5.5426    0.0000    0.0000 H   0  0  0  0  0  0  0  0  0  0  0  0
    4.1569    2.4000    0.0000 H   0  0  0  0  0  0  0  0  0  0  0  0
    2.7713    0.0000    0.0000 N   0  0  0  0  0  0  0  0  0  0  0  0
    2.7713   -1.6000    0.0000 H   0  0  0  0  0  0  0  0  0  0  0  0
    1.3857    0.8000    0.0000 C   0  0  0  0  0  0  0  0  0  0  0  0
    0.7734    2.2782    0.0000 H   0  0  0  0  0  0  0  0  0  0  0  0
    1.9980    2.2782    0.0000 H   0  0  0  0  0  0  0  0  0  0  0  0
   -0.0001    0.0000    0.0000 C   0  0  0  0  0  0  0  0  0  0  0  0
    0.6122   -1.4782    0.0000 H   0  0  0  0  0  0  0  0  0  0  0  0
   -0.6124   -1.4782    0.0000 H   0  0  0  0  0  0  0  0  0  0  0  0
   -1.3857    0.8000    0.0000 C   0  0  0  0  0  0  0  0  0  0  0  0
   -1.9980    2.2782    0.0000 H   0  0  0  0  0  0  0  0  0  0  0  0
   -0.7734    2.2782    0.0000 H   0  0  0  0  0  0  0  0  0  0  0  0
   -2.7713    0.0000    0.0000 N   0  0  0  0  0  0  0  0  0  0  0  0
   -4.1569    0.8000    0.0000 H   0  0  0  0  0  0  0  0  0  0  0  0
   -2.7713   -1.6000    0.0000 H   0  0  0  0  0  0  0  0  0  0  0  0
  1  2  1  0  0  0  0
  1  3  1  0  0  0  0
  1  4  1  0  0  0  0
  1  5  1  0  0  0  0
  5  6  1  0  0  0  0
  5  7  1  0  0  0  0
  7  8  1  0  0  0  0
  7  9  1  0  0  0  0
  7 10  1  0  0  0  0
 10 11  1  0  0  0  0
 10 12  1  0  0  0  0
 10 13  1  0  0  0  0
 13 14  1  0  0  0  0
 13 15  1  0  0  0  0
 13 16  1  0  0  0  0
 16 17  1  0  0  0  0
 16 18  1  0  0  0  0
M  END
> <ChemID>
201776

> <source_casrn>
6291-84-5

> <CAS>
6291-84-5

> <SMILES>
CNCCCN

> <NAME>


> <preferred_name>
N-Methyl-1,3-propanediamine

> <iupac>
N-methylpropane-1,3-diamine

> <MPID>
101451

> <dsstox_substance_id>
DTXSID5064201

> <Canonical_QSARr>
CNCCCN

> <InChI_Code_QSARr>
InChI=1S/C4H12N2/c1-6-4-2-3-5/h6H,2-5H2,1H3

> <InChI Key_QSARr>
QHJABUZHRJTCAR-UHFFFAOYSA-N

> <Salt_Solvent>


> <Ready_Biodeg>
1.0

$$$$
201778
  -INDIGO-08031722522D

 17 16  0  0  0  0  0  0  0  0999 V2000
    4.1569    0.8000    0.0000 C   0  0  0  0  0  0  0  0  0  0  0  0
    5.5426    1.6000    0.0000 H   0  0  0  0  0  0  0  0  0  0  0  0
    5.5426    0.0000    0.0000 H   0  0  0  0  0  0  0  0  0  0  0  0
    4.1569    2.4000    0.0000 H   0  0  0  0  0  0  0  0  0  0  0  0
    2.7713    0.0000    0.0000 N   0  0  0  0  0  0  0  0  0  0  0  0
    2.7713   -1.6000    0.0000 H   0  0  0  0  0  0  0  0  0  0  0  0
    1.3857    0.8000    0.0000 C   0  0  0  0  0  0  0  0  0  0  0  0
    0.7734    2.2782    0.0000 H   0  0  0  0  0  0  0  0  0  0  0  0
    1.9980    2.2782    0.0000 H   0  0  0  0  0  0  0  0  0  0  0  0
   -0.0001    0.0000    0.0000 C   0  0  0  0  0  0  0  0  0  0  0  0
    0.6122   -1.4782    0.0000 H   0  0  0  0  0  0  0  0  0  0  0  0
   -0.6124   -1.4782    0.0000 H   0  0  0  0  0  0  0  0  0  0  0  0
   -1.3857    0.8000    0.0000 S   0  0  0  0  0  0  0  0  0  0  0  0
   -2.7713    1.6000    0.0000 O   0  0  0  0  0  0  0  0  0  0  0  0
   -4.1569    0.8000    0.0000 H   0  0  0  0  0  0  0  0  0  0  0  0
   -2.1856   -0.5856    0.0000 O   0  0  0  0  0  0  0  0  0  0  0  0
   -0.5856    2.1856    0.0000 O   0  0  0  0  0  0  0  0  0  0  0  0
  1  2  1  0  0  0  0
  1  3  1  0  0  0  0
  1  4  1  0  0  0  0
  1  5  1  0  0  0  0
  5  6  1  0  0  0  0
  5  7  1  0  0  0  0
  7  8  1  0  0  0  0
  7  9  1  0  0  0  0
  7 10  1  0  0  0  0
 10 11  1  0  0  0  0
 10 12  1  0  0  0  0
 10 13  1  0  0  0  0
 13 14  1  0  0  0  0
 14 15  1  0  0  0  0
 13 16  2  0  0  0  0
 13 17  2  0  0  0  0
M  END
> <ChemID>
201778

> <source_casrn>
107-68-6

> <CAS>
107-68-6

> <SMILES>
CNCC[S](O)(=O)=O

> <NAME>


> <preferred_name>
N-Methyltaurine

> <iupac>
2-(methylamino)ethanesulfonic acid

> <MPID>
101453

> <dsstox_substance_id>
DTXSID4025664

> <Canonical_QSARr>
CNCCS(O)(=O)=O

> <InChI_Code_QSARr>
InChI=1S/C3H9NO3S/c1-4-2-3-8(5,6)7/h4H,2-3H2,1H3,(H,5,6,7)

> <InChI Key_QSARr>
SUZRRICLUFMAQD-UHFFFAOYSA-N

> <Salt_Solvent>


> <Ready_Biodeg>
1.0

$$$$
201786
  -INDIGO-08031722522D

 20 19  0  0  0  0  0  0  0  0999 V2000
    4.1569   -0.8000    0.0000 C   0  0  0  0  0  0  0  0  0  0  0  0
    5.5426   -1.6000    0.0000 H   0  0  0  0  0  0  0  0  0  0  0  0
    5.5426    0.0000    0.0000 H   0  0  0  0  0  0  0  0  0  0  0  0
    4.1569   -2.4000    0.0000 H   0  0  0  0  0  0  0  0  0  0  0  0
    2.7713    0.0000    0.0000 O   0  0  0  0  0  0  0  0  0  0  0  0
    1.3856   -0.8000    0.0000 C   0  0  0  0  0  0  0  0  0  0  0  0
    1.3856   -2.4000    0.0000 O   0  0  0  0  0  0  0  0  0  0  0  0
   -0.0001    0.0000    0.0000 C   0  0  0  0  0  0  0  0  0  0  0  0
    0.6123    1.4782    0.0000 H   0  0  0  0  0  0  0  0  0  0  0  0
   -0.6122    1.4782    0.0000 H   0  0  0  0  0  0  0  0  0  0  0  0
   -1.3856   -0.8000    0.0000 C   0  0  0  0  0  0  0  0  0  0  0  0
   -1.9979   -2.2782    0.0000 H   0  0  0  0  0  0  0  0  0  0  0  0
   -0.7734   -2.2782    0.0000 H   0  0  0  0  0  0  0  0  0  0  0  0
   -2.7713    0.0000    0.0000 C   0  0  0  0  0  0  0  0  0  0  0  0
   -2.7713    1.6000    0.0000 O   0  0  0  0  0  0  0  0  0  0  0  0
   -4.1570   -0.8000    0.0000 O   0  0  0  0  0  0  0  0  0  0  0  0
   -5.5425    0.0000    0.0000 C   0  0  0  0  0  0  0  0  0  0  0  0
   -6.9282    0.8000    0.0000 H   0  0  0  0  0  0  0  0  0  0  0  0
   -6.9282   -0.8000    0.0000 H   0  0  0  0  0  0  0  0  0  0  0  0
   -5.5425    1.6000    0.0000 H   0  0  0  0  0  0  0  0  0  0  0  0
  1  2  1  0  0  0  0
  1  3  1  0  0  0  0
  1  4  1  0  0  0  0
  1  5  1  0  0  0  0
  5  6  1  0  0  0  0
  6  7  2  0  0  0  0
  6  8  1  0  0  0  0
  8  9  1  0  0  0  0
  8 10  1  0  0  0  0
  8 11  1  0  0  0  0
 11 12  1  0  0  0  0
 11 13  1  0  0  0  0
 11 14  1  0  0  0  0
 14 15  2  0  0  0  0
 14 16  1  0  0  0  0
 16 17  1  0  0  0  0
 17 18  1  0  0  0  0
 17 19  1  0  0  0  0
 17 20  1  0  0  0  0
M  END
> <ChemID>
201786

> <source_casrn>
106-65-0

> <CAS>
106-65-0

> <SMILES>
COC(=O)CCC(=O)OC

> <NAME>


> <preferred_name>
Dimethyl succinate

> <iupac>
dimethyl butanedioate

> <MPID>
101455

> <dsstox_substance_id>
DTXSID5025152

> <Canonical_QSARr>
COC(=O)CCC(=O)OC

> <InChI_Code_QSARr>
InChI=1S/C6H10O4/c1-9-5(7)3-4-6(8)10-2/h3-4H2,1-2H3

> <InChI Key_QSARr>
MUXOBHXGJLMRAB-UHFFFAOYSA-N

> <Salt_Solvent>


> <Ready_Biodeg>
1.0

$$$$
201787
  -INDIGO-08031722522D

 23 22  0  0  0  0  0  0  0  0999 V2000
    5.5427   -0.0000    0.0000 C   0  0  0  0  0  0  0  0  0  0  0  0
    6.9282   -0.8000    0.0000 H   0  0  0  0  0  0  0  0  0  0  0  0
    6.9282    0.8000    0.0000 H   0  0  0  0  0  0  0  0  0  0  0  0
    5.5427   -1.6000    0.0000 H   0  0  0  0  0  0  0  0  0  0  0  0
    4.1569    0.8000    0.0000 O   0  0  0  0  0  0  0  0  0  0  0  0
    2.7714   -0.0000    0.0000 C   0  0  0  0  0  0  0  0  0  0  0  0
    2.7714   -1.6000    0.0000 O   0  0  0  0  0  0  0  0  0  0  0  0
    1.3856    0.8000    0.0000 C   0  0  0  0  0  0  0  0  0  0  0  0
    0.7733    2.2782    0.0000 H   0  0  0  0  0  0  0  0  0  0  0  0
    1.9980    2.2782    0.0000 H   0  0  0  0  0  0  0  0  0  0  0  0
    0.0001   -0.0000    0.0000 C   0  0  0  0  0  0  0  0  0  0  0  0
    0.6122   -1.4782    0.0000 H   0  0  0  0  0  0  0  0  0  0  0  0
   -0.6122   -1.4782    0.0000 H   0  0  0  0  0  0  0  0  0  0  0  0
   -1.3856    0.8000    0.0000 C   0  0  0  0  0  0  0  0  0  0  0  0
   -1.9980    2.2782    0.0000 H   0  0  0  0  0  0  0  0  0  0  0  0
   -0.7733    2.2782    0.0000 H   0  0  0  0  0  0  0  0  0  0  0  0
   -2.7712   -0.0000    0.0000 C   0  0  0  0  0  0  0  0  0  0  0  0
   -2.7712   -1.6000    0.0000 O   0  0  0  0  0  0  0  0  0  0  0  0
   -4.1569    0.8000    0.0000 O   0  0  0  0  0  0  0  0  0  0  0  0
   -5.5425   -0.0000    0.0000 C   0  0  0  0  0  0  0  0  0  0  0  0
   -6.9282   -0.8000    0.0000 H   0  0  0  0  0  0  0  0  0  0  0  0
   -6.9282    0.8000    0.0000 H   0  0  0  0  0  0  0  0  0  0  0  0
   -5.5425   -1.6000    0.0000 H   0  0  0  0  0  0  0  0  0  0  0  0
  1  2  1  0  0  0  0
  1  3  1  0  0  0  0
  1  4  1  0  0  0  0
  1  5  1  0  0  0  0
  5  6  1  0  0  0  0
  6  7  2  0  0  0  0
  6  8  1  0  0  0  0
  8  9  1  0  0  0  0
  8 10  1  0  0  0  0
  8 11  1  0  0  0  0
 11 12  1  0  0  0  0
 11 13  1  0  0  0  0
 11 14  1  0  0  0  0
 14 15  1  0  0  0  0
 14 16  1  0  0  0  0
 14 17  1  0  0  0  0
 17 18  2  0  0  0  0
 17 19  1  0  0  0  0
 19 20  1  0  0  0  0
 20 21  1  0  0  0  0
 20 22  1  0  0  0  0
 20 23  1  0  0  0  0
M  END
> <ChemID>
201787

> <source_casrn>
1119-40-0

> <CAS>
1119-40-0

> <SMILES>
COC(=O)CCCC(=O)OC

> <NAME>


> <preferred_name>
Dimethyl glutarate

> <iupac>
C7H12O4

> <MPID>
101456

> <dsstox_substance_id>
DTXSID3025122

> <Canonical_QSARr>
COC(=O)CCCC(=O)OC

> <InChI_Code_QSARr>
InChI=1S/C7H12O4/c1-10-6(8)4-3-5-7(9)11-2/h3-5H2,1-2H3

> <InChI Key_QSARr>
XTDYIOOONNVFMA-UHFFFAOYSA-N

> <Salt_Solvent>


> <Ready_Biodeg>
1.0

$$$$
201790
  -INDIGO-08031722522D

 30 31  0  0  0  0  0  0  0  0999 V2000
    6.9283    0.8000    0.0000 C   0  0  0  0  0  0  0  0  0  0  0  0
    8.3138    1.6000    0.0000 H   0  0  0  0  0  0  0  0  0  0  0  0
    8.3138   -0.0000    0.0000 H   0  0  0  0  0  0  0  0  0  0  0  0
    6.9283    2.4000    0.0000 H   0  0  0  0  0  0  0  0  0  0  0  0
    5.5427   -0.0000    0.0000 O   0  0  0  0  0  0  0  0  0  0  0  0
    4.1569    0.8000    0.0000 C   0  0  0  0  0  0  0  0  0  0  0  0
    4.1569    2.4000    0.0000 O   0  0  0  0  0  0  0  0  0  0  0  0
    2.7713   -0.0000    0.0000 C   0  0  0  0  0  0  0  0  0  0  0  0
    2.7713   -1.6000    0.0000 C   0  0  0  0  0  0  0  0  0  0  0  0
    4.1569   -2.4000    0.0000 H   0  0  0  0  0  0  0  0  0  0  0  0
    1.3857   -2.4000    0.0000 C   0  0  0  0  0  0  0  0  0  0  0  0
    1.3857   -4.0000    0.0000 H   0  0  0  0  0  0  0  0  0  0  0  0
    0.0001   -1.6000    0.0000 C   0  0  0  0  0  0  0  0  0  0  0  0
   -1.3857   -2.4000    0.0000 C   0  0  0  0  0  0  0  0  0  0  0  0
   -1.3857   -4.0000    0.0000 H   0  0  0  0  0  0  0  0  0  0  0  0
   -2.7713   -1.6000    0.0000 C   0  0  0  0  0  0  0  0  0  0  0  0
   -2.7713   -0.0000    0.0000 C   0  0  0  0  0  0  0  0  0  0  0  0
   -4.1569    0.8000    0.0000 H   0  0  0  0  0  0  0  0  0  0  0  0
   -1.3857    0.8000    0.0000 C   0  0  0  0  0  0  0  0  0  0  0  0
   -1.3857    2.4000    0.0000 H   0  0  0  0  0  0  0  0  0  0  0  0
    0.0001   -0.0000    0.0000 C   0  0  0  0  0  0  0  0  0  0  0  0
    1.3857    0.8000    0.0000 C   0  0  0  0  0  0  0  0  0  0  0  0
    1.3857    2.4000    0.0000 H   0  0  0  0  0  0  0  0  0  0  0  0
   -4.1569   -2.4000    0.0000 C   0  0  0  0  0  0  0  0  0  0  0  0
   -4.1569   -4.0000    0.0000 O   0  0  0  0  0  0  0  0  0  0  0  0
   -5.5424   -1.6000    0.0000 O   0  0  0  0  0  0  0  0  0  0  0  0
   -6.9283   -2.4000    0.0000 C   0  0  0  0  0  0  0  0  0  0  0  0
   -8.3138   -3.2000    0.0000 H   0  0  0  0  0  0  0  0  0  0  0  0
   -8.3138   -1.6000    0.0000 H   0  0  0  0  0  0  0  0  0  0  0  0
   -6.9283   -4.0000    0.0000 H   0  0  0  0  0  0  0  0  0  0  0  0
  1  2  1  0  0  0  0
  1  3  1  0  0  0  0
  1  4  1  0  0  0  0
  1  5  1  0  0  0  0
  5  6  1  0  0  0  0
  6  7  2  0  0  0  0
  6  8  1  0  0  0  0
  8  9  1  0  0  0  0
  9 10  1  0  0  0  0
  9 11  2  0  0  0  0
 11 12  1  0  0  0  0
 11 13  1  0  0  0  0
 13 14  1  0  0  0  0
 14 15  1  0  0  0  0
 14 16  2  0  0  0  0
 16 17  1  0  0  0  0
 17 18  1  0  0  0  0
 17 19  2  0  0  0  0
 19 20  1  0  0  0  0
 19 21  1  0  0  0  0
 21 13  2  0  0  0  0
 21 22  1  0  0  0  0
 22  8  2  0  0  0  0
 22 23  1  0  0  0  0
 16 24  1  0  0  0  0
 24 25  2  0  0  0  0
 24 26  1  0  0  0  0
 26 27  1  0  0  0  0
 27 28  1  0  0  0  0
 27 29  1  0  0  0  0
 27 30  1  0  0  0  0
M  END
> <ChemID>
201790

> <source_casrn>
840-65-3

> <CAS>
840-65-3

> <SMILES>
COC(=O)c1ccc2cc(ccc2c1)C(=O)OC

> <NAME>


> <preferred_name>
Dimethyl 2,6-naphthalenedicarboxylate

> <iupac>
dimethyl naphthalene-2,6-dicarboxylate

> <MPID>
101457

> <dsstox_substance_id>
DTXSID6029202

> <Canonical_QSARr>
COC(=O)c1cc2ccc(cc2cc1)C(=O)OC

> <InChI_Code_QSARr>
InChI=1S/C14H12O4/c1-17-13(15)11-5-3-10-8-12(14(16)18-2)6-4-9(10)7-11/h3-8H,1-2H3

> <InChI Key_QSARr>
GYUVMLBYMPKZAZ-UHFFFAOYSA-N

> <Salt_Solvent>


> <Ready_Biodeg>
0.0

$$$$
201794
  -INDIGO-08031722522D

 23 22  0  0  0  0  0  0  0  0999 V2000
    0.0000   -2.7713    0.0000 C   0  0  0  0  0  0  0  0  0  0  0  0
    0.8000   -4.1569    0.0000 H   0  0  0  0  0  0  0  0  0  0  0  0
   -0.8000   -4.1569    0.0000 H   0  0  0  0  0  0  0  0  0  0  0  0
    1.6000   -2.7713    0.0000 H   0  0  0  0  0  0  0  0  0  0  0  0
    0.8000   -1.3857    0.0000 O   0  0  0  0  0  0  0  0  0  0  0  0
    0.0000   -0.0000    0.0000 C   0  0  0  0  0  0  0  0  0  0  0  0
   -1.3856   -0.8001    0.0000 C   0  0  0  0  0  0  0  0  0  0  0  0
   -2.7713   -1.6000    0.0000 H   0  0  0  0  0  0  0  0  0  0  0  0
   -2.7713   -0.0000    0.0000 H   0  0  0  0  0  0  0  0  0  0  0  0
   -1.3856   -2.4000    0.0000 H   0  0  0  0  0  0  0  0  0  0  0  0
   -0.8000    1.3856    0.0000 C   0  0  0  0  0  0  0  0  0  0  0  0
   -1.6000    2.7713    0.0000 H   0  0  0  0  0  0  0  0  0  0  0  0
   -0.2527    2.8891    0.0000 H   0  0  0  0  0  0  0  0  0  0  0  0
   -2.4000    1.3856    0.0000 H   0  0  0  0  0  0  0  0  0  0  0  0
    1.3857    0.8000    0.0000 C   0  0  0  0  0  0  0  0  0  0  0  0
    0.7733    2.2782    0.0000 H   0  0  0  0  0  0  0  0  0  0  0  0
    1.9979    2.2782    0.0000 H   0  0  0  0  0  0  0  0  0  0  0  0
    2.7713   -0.0000    0.0000 C   0  0  0  0  0  0  0  0  0  0  0  0
    4.1570    0.8000    0.0000 C   0  0  0  0  0  0  0  0  0  0  0  0
    5.5426    1.6000    0.0000 H   0  0  0  0  0  0  0  0  0  0  0  0
    5.5426   -0.0000    0.0000 H   0  0  0  0  0  0  0  0  0  0  0  0
    4.1570    2.4000    0.0000 H   0  0  0  0  0  0  0  0  0  0  0  0
    2.7713   -1.6000    0.0000 O   0  0  0  0  0  0  0  0  0  0  0  0
  1  2  1  0  0  0  0
  1  3  1  0  0  0  0
  1  4  1  0  0  0  0
  1  5  1  0  0  0  0
  5  6  1  0  0  0  0
  6  7  1  0  0  0  0
  7  8  1  0  0  0  0
  7  9  1  0  0  0  0
  7 10  1  0  0  0  0
  6 11  1  0  0  0  0
 11 12  1  0  0  0  0
 11 13  1  0  0  0  0
 11 14  1  0  0  0  0
  6 15  1  0  0  0  0
 15 16  1  0  0  0  0
 15 17  1  0  0  0  0
 15 18  1  0  0  0  0
 18 19  1  0  0  0  0
 19 20  1  0  0  0  0
 19 21  1  0  0  0  0
 19 22  1  0  0  0  0
 18 23  2  0  0  0  0
M  END
> <ChemID>
201794

> <source_casrn>
107-70-0

> <CAS>
107-70-0

> <SMILES>
COC(C)(C)CC(C)=O

> <NAME>


> <preferred_name>
4-Methoxy-4-methyl-2-pentanone

> <iupac>
4-methoxy-4-methylpentan-2-one

> <MPID>
101458

> <dsstox_substance_id>
DTXSID2025557

> <Canonical_QSARr>
COC(C)(C)CC(C)=O

> <InChI_Code_QSARr>
InChI=1S/C7H14O2/c1-6(8)5-7(2,3)9-4/h5H2,1-4H3

> <InChI Key_QSARr>
KOKPBCHLPVDQTK-UHFFFAOYSA-N

> <Salt_Solvent>


> <Ready_Biodeg>
0.0

$$$$
201795
  -INDIGO-08031722522D

 27 26  0  0  0  0  0  0  0  0999 V2000
    0.0000   -2.7713    0.0000 C   0  0  0  0  0  0  0  0  0  0  0  0
    0.7999   -4.1569    0.0000 H   0  0  0  0  0  0  0  0  0  0  0  0
   -0.8000   -4.1569    0.0000 H   0  0  0  0  0  0  0  0  0  0  0  0
    1.6000   -2.7713    0.0000 H   0  0  0  0  0  0  0  0  0  0  0  0
    0.7999   -1.3857    0.0000 O   0  0  0  0  0  0  0  0  0  0  0  0
    0.0000   -0.0000    0.0000 C   0  0  0  0  0  0  0  0  0  0  0  0
   -1.3856   -0.8001    0.0000 C   0  0  0  0  0  0  0  0  0  0  0  0
   -2.7713   -1.6000    0.0000 H   0  0  0  0  0  0  0  0  0  0  0  0
   -2.7713   -0.0000    0.0000 H   0  0  0  0  0  0  0  0  0  0  0  0
   -1.3856   -2.4000    0.0000 H   0  0  0  0  0  0  0  0  0  0  0  0
   -0.8000    1.3856    0.0000 C   0  0  0  0  0  0  0  0  0  0  0  0
   -1.5999    2.7713    0.0000 H   0  0  0  0  0  0  0  0  0  0  0  0
   -0.2528    2.8891    0.0000 H   0  0  0  0  0  0  0  0  0  0  0  0
   -2.4000    1.3856    0.0000 H   0  0  0  0  0  0  0  0  0  0  0  0
    1.3857    0.8000    0.0000 C   0  0  0  0  0  0  0  0  0  0  0  0
    0.7734    2.2782    0.0000 H   0  0  0  0  0  0  0  0  0  0  0  0
    1.9979    2.2782    0.0000 H   0  0  0  0  0  0  0  0  0  0  0  0
    2.7712   -0.0000    0.0000 C   0  0  0  0  0  0  0  0  0  0  0  0
    3.3835   -1.4782    0.0000 H   0  0  0  0  0  0  0  0  0  0  0  0
    2.1590   -1.4782    0.0000 H   0  0  0  0  0  0  0  0  0  0  0  0
    4.1569    0.8000    0.0000 O   0  0  0  0  0  0  0  0  0  0  0  0
    5.5425   -0.0000    0.0000 C   0  0  0  0  0  0  0  0  0  0  0  0
    6.9282    0.8000    0.0000 C   0  0  0  0  0  0  0  0  0  0  0  0
    8.3138    1.6000    0.0000 H   0  0  0  0  0  0  0  0  0  0  0  0
    8.3138   -0.0000    0.0000 H   0  0  0  0  0  0  0  0  0  0  0  0
    6.9282    2.4000    0.0000 H   0  0  0  0  0  0  0  0  0  0  0  0
    5.5425   -1.6000    0.0000 O   0  0  0  0  0  0  0  0  0  0  0  0
  1  2  1  0  0  0  0
  1  3  1  0  0  0  0
  1  4  1  0  0  0  0
  1  5  1  0  0  0  0
  5  6  1  0  0  0  0
  6  7  1  0  0  0  0
  7  8  1  0  0  0  0
  7  9  1  0  0  0  0
  7 10  1  0  0  0  0
  6 11  1  0  0  0  0
 11 12  1  0  0  0  0
 11 13  1  0  0  0  0
 11 14  1  0  0  0  0
  6 15  1  0  0  0  0
 15 16  1  0  0  0  0
 15 17  1  0  0  0  0
 15 18  1  0  0  0  0
 18 19  1  0  0  0  0
 18 20  1  0  0  0  0
 18 21  1  0  0  0  0
 21 22  1  0  0  0  0
 22 23  1  0  0  0  0
 23 24  1  0  0  0  0
 23 25  1  0  0  0  0
 23 26  1  0  0  0  0
 22 27  2  0  0  0  0
M  END
> <ChemID>
201795

> <source_casrn>
103429-90-9

> <CAS>
103429-90-9

> <SMILES>
COC(C)(C)CCOC(C)=O

> <NAME>


> <preferred_name>
1-Butanol, 3-methoxy-3-methyl-, acetate

> <iupac>
(3-methoxy-3-methylbutyl) acetate

> <MPID>
101459

> <dsstox_substance_id>
DTXSID30145852

> <Canonical_QSARr>
COC(C)(C)CCOC(C)=O

> <InChI_Code_QSARr>
InChI=1S/C8H16O3/c1-7(9)11-6-5-8(2,3)10-4/h5-6H2,1-4H3

> <InChI Key_QSARr>
RYNQKSJRFHJZTK-UHFFFAOYSA-N

> <Salt_Solvent>


> <Ready_Biodeg>
1.0

$$$$
201796
  -INDIGO-08031722522D

 11 10  0  0  0  0  0  0  0  0999 V2000
    4.1569   -0.8000    0.0000 C   0  0  0  0  0  0  0  0  0  0  0  0
    5.5426   -1.6000    0.0000 H   0  0  0  0  0  0  0  0  0  0  0  0
    5.5426    0.0000    0.0000 H   0  0  0  0  0  0  0  0  0  0  0  0
    4.1569   -2.4000    0.0000 H   0  0  0  0  0  0  0  0  0  0  0  0
    2.7713    0.0000    0.0000 O   0  0  0  0  0  0  0  0  0  0  0  0
    1.3856   -0.8000    0.0000 C   0  0  0  0  0  0  0  0  0  0  0  0
    0.0000    0.0000    0.0000 C   0  0  0  0  0  0  0  0  0  0  0  0
   -1.3856    0.8000    0.0000 H   0  0  0  0  0  0  0  0  0  0  0  0
    0.0000    1.6000    0.0000 H   0  0  0  0  0  0  0  0  0  0  0  0
   -1.3856   -0.8000    0.0000 H   0  0  0  0  0  0  0  0  0  0  0  0
    1.3856   -2.4000    0.0000 O   0  0  0  0  0  0  0  0  0  0  0  0
  1  2  1  0  0  0  0
  1  3  1  0  0  0  0
  1  4  1  0  0  0  0
  1  5  1  0  0  0  0
  5  6  1  0  0  0  0
  6  7  1  0  0  0  0
  7  8  1  0  0  0  0
  7  9  1  0  0  0  0
  7 10  1  0  0  0  0
  6 11  2  0  0  0  0
M  END
> <ChemID>
201796

> <source_casrn>
79-20-9

> <CAS>
79-20-9

> <SMILES>
COC(C)=O

> <NAME>


> <preferred_name>
Methyl acetate

> <iupac>
methyl acetate

> <MPID>
101460

> <dsstox_substance_id>
DTXSID4021767

> <Canonical_QSARr>
COC(C)=O

> <InChI_Code_QSARr>
InChI=1S/C3H6O2/c1-3(4)5-2/h1-2H3

> <InChI Key_QSARr>
KXKVLQRXCPHEJC-UHFFFAOYSA-N

> <Salt_Solvent>


> <Ready_Biodeg>
1.0

$$$$
201800
  -INDIGO-08031722522D

 17 16  0  0  0  0  0  0  0  0999 V2000
    4.1569    0.8000    0.0000 C   0  0  0  0  0  0  0  0  0  0  0  0
    5.5426    1.6000    0.0000 H   0  0  0  0  0  0  0  0  0  0  0  0
    5.5426    0.0000    0.0000 H   0  0  0  0  0  0  0  0  0  0  0  0
    4.1569    2.4000    0.0000 H   0  0  0  0  0  0  0  0  0  0  0  0
    2.7713    0.0000    0.0000 O   0  0  0  0  0  0  0  0  0  0  0  0
    1.3857    0.8000    0.0000 C   0  0  0  0  0  0  0  0  0  0  0  0
    0.7734    2.2782    0.0000 H   0  0  0  0  0  0  0  0  0  0  0  0
    1.9980    2.2782    0.0000 H   0  0  0  0  0  0  0  0  0  0  0  0
   -0.0001    0.0000    0.0000 C   0  0  0  0  0  0  0  0  0  0  0  0
    0.6122   -1.4782    0.0000 H   0  0  0  0  0  0  0  0  0  0  0  0
   -0.6124   -1.4782    0.0000 H   0  0  0  0  0  0  0  0  0  0  0  0
   -1.3857    0.8000    0.0000 C   0  0  0  0  0  0  0  0  0  0  0  0
   -1.9980    2.2782    0.0000 H   0  0  0  0  0  0  0  0  0  0  0  0
   -0.7734    2.2782    0.0000 H   0  0  0  0  0  0  0  0  0  0  0  0
   -2.7713    0.0000    0.0000 N   0  0  0  0  0  0  0  0  0  0  0  0
   -4.1569    0.8000    0.0000 H   0  0  0  0  0  0  0  0  0  0  0  0
   -2.7713   -1.6000    0.0000 H   0  0  0  0  0  0  0  0  0  0  0  0
  1  2  1  0  0  0  0
  1  3  1  0  0  0  0
  1  4  1  0  0  0  0
  1  5  1  0  0  0  0
  5  6  1  0  0  0  0
  6  7  1  0  0  0  0
  6  8  1  0  0  0  0
  6  9  1  0  0  0  0
  9 10  1  0  0  0  0
  9 11  1  0  0  0  0
  9 12  1  0  0  0  0
 12 13  1  0  0  0  0
 12 14  1  0  0  0  0
 12 15  1  0  0  0  0
 15 16  1  0  0  0  0
 15 17  1  0  0  0  0
M  END
> <ChemID>
201800

> <source_casrn>
5332-73-0

> <CAS>
5332-73-0

> <SMILES>
COCCCN

> <NAME>


> <preferred_name>
3-Methoxypropylamine

> <iupac>
3-methoxypropan-1-amine

> <MPID>
101461

> <dsstox_substance_id>
DTXSID7027596

> <Canonical_QSARr>
COCCCN

> <InChI_Code_QSARr>
InChI=1S/C4H11NO/c1-6-4-2-3-5/h2-5H2,1H3

> <InChI Key_QSARr>
FAXDZWQIWUSWJH-UHFFFAOYSA-N

> <Salt_Solvent>


> <Ready_Biodeg>
0.0

$$$$
201802
  -INDIGO-08031722522D

 19 18  0  0  0  0  0  0  0  0999 V2000
    2.7712    0.0000    0.0000 C   0  0  0  0  0  0  0  0  0  0  0  0
    4.1569   -0.8000    0.0000 H   0  0  0  0  0  0  0  0  0  0  0  0
    4.1569    0.8000    0.0000 H   0  0  0  0  0  0  0  0  0  0  0  0
    2.7712   -1.6000    0.0000 H   0  0  0  0  0  0  0  0  0  0  0  0
    1.3857    0.8000    0.0000 O   0  0  0  0  0  0  0  0  0  0  0  0
    0.0000    0.0000    0.0000 C   0  0  0  0  0  0  0  0  0  0  0  0
   -0.6124   -1.4782    0.0000 H   0  0  0  0  0  0  0  0  0  0  0  0
    0.6124   -1.4782    0.0000 H   0  0  0  0  0  0  0  0  0  0  0  0
   -1.3857    0.8000    0.0000 C   0  0  0  0  0  0  0  0  0  0  0  0
   -0.7733    2.2782    0.0000 H   0  0  0  0  0  0  0  0  0  0  0  0
   -1.9979    2.2782    0.0000 H   0  0  0  0  0  0  0  0  0  0  0  0
   -2.7712    0.0000    0.0000 O   0  0  0  0  0  0  0  0  0  0  0  0
   -4.1569    0.8000    0.0000 C   0  0  0  0  0  0  0  0  0  0  0  0
   -4.1569    2.4000    0.0000 O   0  0  0  0  0  0  0  0  0  0  0  0
   -5.5426    0.0000    0.0000 C   0  0  0  0  0  0  0  0  0  0  0  0
   -5.5426   -1.6000    0.0000 H   0  0  0  0  0  0  0  0  0  0  0  0
   -6.9281    0.8000    0.0000 C   0  0  0  0  0  0  0  0  0  0  0  0
   -8.3138    0.0000    0.0000 H   0  0  0  0  0  0  0  0  0  0  0  0
   -6.9281    2.4000    0.0000 H   0  0  0  0  0  0  0  0  0  0  0  0
  1  2  1  0  0  0  0
  1  3  1  0  0  0  0
  1  4  1  0  0  0  0
  1  5  1  0  0  0  0
  5  6  1  0  0  0  0
  6  7  1  0  0  0  0
  6  8  1  0  0  0  0
  6  9  1  0  0  0  0
  9 10  1  0  0  0  0
  9 11  1  0  0  0  0
  9 12  1  0  0  0  0
 12 13  1  0  0  0  0
 13 14  2  0  0  0  0
 13 15  1  0  0  0  0
 15 16  1  0  0  0  0
 15 17  2  0  0  0  0
 17 18  1  0  0  0  0
 17 19  1  0  0  0  0
M  END
> <ChemID>
201802

> <source_casrn>
3121-61-7

> <CAS>
3121-61-7

> <SMILES>
COCCOC(=O)C=C

> <NAME>


> <preferred_name>
2-Methoxyethyl acrylate

> <iupac>
2-methoxyethyl prop-2-enoate

> <MPID>
101462

> <dsstox_substance_id>
DTXSID7025554

> <Canonical_QSARr>
COCCOC(=O)C=C

> <InChI_Code_QSARr>
InChI=1S/C6H10O3/c1-3-6(7)9-5-4-8-2/h3H,1,4-5H2,2H3

> <InChI Key_QSARr>
HFCUBKYHMMPGBY-UHFFFAOYSA-N

> <Salt_Solvent>


> <Ready_Biodeg>
1.0

$$$$
201804
  -INDIGO-08031722522D

 23 22  0  0  0  0  0  0  0  0999 V2000
    4.1570    0.8000    0.0000 C   0  0  0  0  0  0  0  0  0  0  0  0
    5.5426    1.6000    0.0000 H   0  0  0  0  0  0  0  0  0  0  0  0
    5.5426    0.0000    0.0000 H   0  0  0  0  0  0  0  0  0  0  0  0
    4.1570    2.4000    0.0000 H   0  0  0  0  0  0  0  0  0  0  0  0
    2.7713    0.0000    0.0000 O   0  0  0  0  0  0  0  0  0  0  0  0
    1.3857    0.8000    0.0000 C   0  0  0  0  0  0  0  0  0  0  0  0
    0.7734    2.2782    0.0000 H   0  0  0  0  0  0  0  0  0  0  0  0
    1.9979    2.2782    0.0000 H   0  0  0  0  0  0  0  0  0  0  0  0
    0.0000    0.0000    0.0000 C   0  0  0  0  0  0  0  0  0  0  0  0
    0.6123   -1.4782    0.0000 H   0  0  0  0  0  0  0  0  0  0  0  0
   -0.6123   -1.4782    0.0000 H   0  0  0  0  0  0  0  0  0  0  0  0
   -1.3857    0.8000    0.0000 O   0  0  0  0  0  0  0  0  0  0  0  0
   -2.7713    0.0000    0.0000 C   0  0  0  0  0  0  0  0  0  0  0  0
   -2.1590   -1.4782    0.0000 H   0  0  0  0  0  0  0  0  0  0  0  0
   -3.3836   -1.4782    0.0000 H   0  0  0  0  0  0  0  0  0  0  0  0
   -4.1570    0.8000    0.0000 C   0  0  0  0  0  0  0  0  0  0  0  0
   -4.7691    2.2782    0.0000 H   0  0  0  0  0  0  0  0  0  0  0  0
   -3.5447    2.2782    0.0000 H   0  0  0  0  0  0  0  0  0  0  0  0
   -5.5426    0.0000    0.0000 O   0  0  0  0  0  0  0  0  0  0  0  0
   -6.9283    0.8000    0.0000 C   0  0  0  0  0  0  0  0  0  0  0  0
   -8.3138    1.6000    0.0000 H   0  0  0  0  0  0  0  0  0  0  0  0
   -8.3138    0.0000    0.0000 H   0  0  0  0  0  0  0  0  0  0  0  0
   -6.9283    2.4000    0.0000 H   0  0  0  0  0  0  0  0  0  0  0  0
  1  2  1  0  0  0  0
  1  3  1  0  0  0  0
  1  4  1  0  0  0  0
  1  5  1  0  0  0  0
  5  6  1  0  0  0  0
  6  7  1  0  0  0  0
  6  8  1  0  0  0  0
  6  9  1  0  0  0  0
  9 10  1  0  0  0  0
  9 11  1  0  0  0  0
  9 12  1  0  0  0  0
 12 13  1  0  0  0  0
 13 14  1  0  0  0  0
 13 15  1  0  0  0  0
 13 16  1  0  0  0  0
 16 17  1  0  0  0  0
 16 18  1  0  0  0  0
 16 19  1  0  0  0  0
 19 20  1  0  0  0  0
 20 21  1  0  0  0  0
 20 22  1  0  0  0  0
 20 23  1  0  0  0  0
M  END
> <ChemID>
201804

> <source_casrn>
111-96-6

> <CAS>
111-96-6

> <SMILES>
COCCOCCOC

> <NAME>


> <preferred_name>
Bis(2-methoxyethyl) ether

> <iupac>
1-methoxy-2-(2-methoxyethoxy)ethane

> <MPID>
101463

> <dsstox_substance_id>
DTXSID1024621

> <Canonical_QSARr>
COCCOCCOC

> <InChI_Code_QSARr>
InChI=1S/C6H14O3/c1-7-3-5-9-6-4-8-2/h3-6H2,1-2H3

> <InChI Key_QSARr>
SBZXBUIDTXKZTM-UHFFFAOYSA-N

> <Salt_Solvent>


> <Ready_Biodeg>
0.0

$$$$
201806
  -INDIGO-08031722522D

 57 57  0  0  0  0  0  0  0  0999 V2000
    1.3856    4.0001    0.0000 C   0  0  0  0  0  0  0  0  0  0  0  0
    1.3856    5.6000    0.0000 H   0  0  0  0  0  0  0  0  0  0  0  0
    2.7714    4.8000    0.0000 H   0  0  0  0  0  0  0  0  0  0  0  0
    0.0000    4.8000    0.0000 H   0  0  0  0  0  0  0  0  0  0  0  0
    1.3856    2.4000    0.0000 O   0  0  0  0  0  0  0  0  0  0  0  0
    0.0000    1.6000    0.0000 C   0  0  0  0  0  0  0  0  0  0  0  0
   -1.5863    1.8088    0.0000 H   0  0  0  0  0  0  0  0  0  0  0  0
   -0.9740    2.8694    0.0000 H   0  0  0  0  0  0  0  0  0  0  0  0
    0.0000    0.0001    0.0000 N   0  0  0  0  0  0  0  0  0  0  0  0
    1.3856   -0.8001    0.0000 C   0  0  0  0  0  0  0  0  0  0  0  0
    1.9978   -2.2782    0.0000 H   0  0  0  0  0  0  0  0  0  0  0  0
    0.7733   -2.2782    0.0000 H   0  0  0  0  0  0  0  0  0  0  0  0
    2.7714    0.0001    0.0000 O   0  0  0  0  0  0  0  0  0  0  0  0
    4.1570   -0.8001    0.0000 C   0  0  0  0  0  0  0  0  0  0  0  0
    5.5426   -1.6000    0.0000 H   0  0  0  0  0  0  0  0  0  0  0  0
    5.5426    0.0001    0.0000 H   0  0  0  0  0  0  0  0  0  0  0  0
    4.1570   -2.4000    0.0000 H   0  0  0  0  0  0  0  0  0  0  0  0
   -1.3856   -0.8001    0.0000 C   0  0  0  0  0  0  0  0  0  0  0  0
   -2.7714    0.0001    0.0000 N   0  0  0  0  0  0  0  0  0  0  0  0
   -4.1570   -0.8001    0.0000 C   0  0  0  0  0  0  0  0  0  0  0  0
   -5.5426    0.0001    0.0000 N   0  0  0  0  0  0  0  0  0  0  0  0
   -6.9281   -0.8001    0.0000 C   0  0  0  0  0  0  0  0  0  0  0  0
   -6.3159   -2.2782    0.0000 H   0  0  0  0  0  0  0  0  0  0  0  0
   -7.5404   -2.2782    0.0000 H   0  0  0  0  0  0  0  0  0  0  0  0
   -8.3140    0.0001    0.0000 O   0  0  0  0  0  0  0  0  0  0  0  0
   -9.6995   -0.8001    0.0000 C   0  0  0  0  0  0  0  0  0  0  0  0
  -11.0851   -1.6000    0.0000 H   0  0  0  0  0  0  0  0  0  0  0  0
  -11.0851    0.0001    0.0000 H   0  0  0  0  0  0  0  0  0  0  0  0
   -9.6995   -2.4000    0.0000 H   0  0  0  0  0  0  0  0  0  0  0  0
   -5.5426    1.6000    0.0000 C   0  0  0  0  0  0  0  0  0  0  0  0
   -4.5685    2.8694    0.0000 H   0  0  0  0  0  0  0  0  0  0  0  0
   -3.9563    1.8088    0.0000 H   0  0  0  0  0  0  0  0  0  0  0  0
   -6.9281    2.4000    0.0000 O   0  0  0  0  0  0  0  0  0  0  0  0
   -6.9281    4.0001    0.0000 C   0  0  0  0  0  0  0  0  0  0  0  0
   -6.9281    5.6000    0.0000 H   0  0  0  0  0  0  0  0  0  0  0  0
   -8.3137    4.8000    0.0000 H   0  0  0  0  0  0  0  0  0  0  0  0
   -5.5426    4.8000    0.0000 H   0  0  0  0  0  0  0  0  0  0  0  0
   -4.1570   -2.4000    0.0000 N   0  0  0  0  0  0  0  0  0  0  0  0
   -2.7714   -3.1999    0.0000 C   0  0  0  0  0  0  0  0  0  0  0  0
   -2.7714   -4.8001    0.0000 N   0  0  0  0  0  0  0  0  0  0  0  0
   -1.3856   -5.6000    0.0000 C   0  0  0  0  0  0  0  0  0  0  0  0
   -0.4115   -4.3306    0.0000 H   0  0  0  0  0  0  0  0  0  0  0  0
    0.2007   -5.3913    0.0000 H   0  0  0  0  0  0  0  0  0  0  0  0
   -1.3856   -7.1999    0.0000 O   0  0  0  0  0  0  0  0  0  0  0  0
    0.0000   -8.0001    0.0000 C   0  0  0  0  0  0  0  0  0  0  0  0
    1.3856   -8.8000    0.0000 H   0  0  0  0  0  0  0  0  0  0  0  0
    0.0000   -9.6000    0.0000 H   0  0  0  0  0  0  0  0  0  0  0  0
    1.3856   -7.1999    0.0000 H   0  0  0  0  0  0  0  0  0  0  0  0
   -4.1570   -5.6000    0.0000 C   0  0  0  0  0  0  0  0  0  0  0  0
   -5.7433   -5.3913    0.0000 H   0  0  0  0  0  0  0  0  0  0  0  0
   -5.1310   -4.3306    0.0000 H   0  0  0  0  0  0  0  0  0  0  0  0
   -4.1570   -7.1999    0.0000 O   0  0  0  0  0  0  0  0  0  0  0  0
   -5.5426   -8.0001    0.0000 C   0  0  0  0  0  0  0  0  0  0  0  0
   -6.9281   -8.8000    0.0000 H   0  0  0  0  0  0  0  0  0  0  0  0
   -5.5426   -9.6000    0.0000 H   0  0  0  0  0  0  0  0  0  0  0  0
   -6.9281   -7.1999    0.0000 H   0  0  0  0  0  0  0  0  0  0  0  0
   -1.3856   -2.4000    0.0000 N   0  0  0  0  0  0  0  0  0  0  0  0
  1  2  1  0  0  0  0
  1  3  1  0  0  0  0
  1  4  1  0  0  0  0
  1  5  1  0  0  0  0
  5  6  1  0  0  0  0
  6  7  1  0  0  0  0
  6  8  1  0  0  0  0
  6  9  1  0  0  0  0
  9 10  1  0  0  0  0
 10 11  1  0  0  0  0
 10 12  1  0  0  0  0
 10 13  1  0  0  0  0
 13 14  1  0  0  0  0
 14 15  1  0  0  0  0
 14 16  1  0  0  0  0
 14 17  1  0  0  0  0
  9 18  1  0  0  0  0
 18 19  1  0  0  0  0
 19 20  2  0  0  0  0
 20 21  1  0  0  0  0
 21 22  1  0  0  0  0
 22 23  1  0  0  0  0
 22 24  1  0  0  0  0
 22 25  1  0  0  0  0
 25 26  1  0  0  0  0
 26 27  1  0  0  0  0
 26 28  1  0  0  0  0
 26 29  1  0  0  0  0
 21 30  1  0  0  0  0
 30 31  1  0  0  0  0
 30 32  1  0  0  0  0
 30 33  1  0  0  0  0
 33 34  1  0  0  0  0
 34 35  1  0  0  0  0
 34 36  1  0  0  0  0
 34 37  1  0  0  0  0
 20 38  1  0  0  0  0
 38 39  2  0  0  0  0
 39 40  1  0  0  0  0
 40 41  1  0  0  0  0
 41 42  1  0  0  0  0
 41 43  1  0  0  0  0
 41 44  1  0  0  0  0
 44 45  1  0  0  0  0
 45 46  1  0  0  0  0
 45 47  1  0  0  0  0
 45 48  1  0  0  0  0
 40 49  1  0  0  0  0
 49 50  1  0  0  0  0
 49 51  1  0  0  0  0
 49 52  1  0  0  0  0
 52 53  1  0  0  0  0
 53 54  1  0  0  0  0
 53 55  1  0  0  0  0
 53 56  1  0  0  0  0
 39 57  1  0  0  0  0
 57 18  2  0  0  0  0
M  END
> <ChemID>
201806

> <source_casrn>
3089-11-0

> <CAS>
3089-11-0

> <SMILES>
COCN(COC)c1nc(nc(n1)N(COC)COC)N(COC)COC

> <NAME>


> <preferred_name>
N,N,N',N',N'',N''-Hexakis(methoxymethyl)-1,3,5-triazine-2,4,6-triamine

> <iupac>
N,N,N',N',N'',N''-hexakis(methoxymethyl)-1,3,5-triazine-2,4,6-triamine

> <MPID>
101465

> <dsstox_substance_id>
DTXSID9027520

> <Canonical_QSARr>
COCN(COC)c1[n]c([n]c([n]1)N(COC)COC)N(COC)COC

> <InChI_Code_QSARr>
InChI=1S/C15H30N6O6/c1-22-7-19(8-23-2)13-16-14(20(9-24-3)10-25-4)18-15(17-13)21(11-26-5)12-27-6/h7-12H2,1-6H3

> <InChI Key_QSARr>
BNCADMBVWNPPIZ-UHFFFAOYSA-N

> <Salt_Solvent>


> <Ready_Biodeg>
0.0

$$$$
201810
  -INDIGO-08031722522D

 13 12  0  0  0  0  0  0  0  0999 V2000
    2.7713    0.0000    0.0000 C   0  0  0  0  0  0  0  0  0  0  0  0
    4.1569   -0.8000    0.0000 H   0  0  0  0  0  0  0  0  0  0  0  0
    4.1569    0.8000    0.0000 H   0  0  0  0  0  0  0  0  0  0  0  0
    2.7713   -1.6000    0.0000 H   0  0  0  0  0  0  0  0  0  0  0  0
    1.3856    0.8000    0.0000 O   0  0  0  0  0  0  0  0  0  0  0  0
    0.0001    0.0000    0.0000 P   0  0  0  0  0  0  0  0  0  0  0  0
    0.6123   -1.4782    0.0000 H   0  0  0  0  0  0  0  0  0  0  0  0
   -0.6123   -1.4782    0.0000 O   0  0  0  0  0  0  0  0  0  0  0  0
   -1.3856    0.8000    0.0000 O   0  0  0  0  0  0  0  0  0  0  0  0
   -2.7713    0.0000    0.0000 C   0  0  0  0  0  0  0  0  0  0  0  0
   -4.1569   -0.8000    0.0000 H   0  0  0  0  0  0  0  0  0  0  0  0
   -4.1569    0.8000    0.0000 H   0  0  0  0  0  0  0  0  0  0  0  0
   -2.7713   -1.6000    0.0000 H   0  0  0  0  0  0  0  0  0  0  0  0
  1  2  1  0  0  0  0
  1  3  1  0  0  0  0
  1  4  1  0  0  0  0
  1  5  1  0  0  0  0
  5  6  1  0  0  0  0
  6  7  1  0  0  0  0
  6  8  2  0  0  0  0
  6  9  1  0  0  0  0
  9 10  1  0  0  0  0
 10 11  1  0  0  0  0
 10 12  1  0  0  0  0
 10 13  1  0  0  0  0
M  END
> <ChemID>
201810

> <source_casrn>
868-85-9

> <CAS>
868-85-9

> <SMILES>
CO[PH](=O)OC

> <NAME>


> <preferred_name>
Dimethyl hydrogen phosphite

> <iupac>
dimethyl phosphonate

> <MPID>
101466

> <dsstox_substance_id>
DTXSID5020493

> <Canonical_QSARr>
COP(=O)OC

> <InChI_Code_QSARr>
InChI=1S/C2H7O3P/c1-4-6(3)5-2/h6H,1-2H3

> <InChI Key_QSARr>
HZCDANOFLILNSA-UHFFFAOYSA-N

> <Salt_Solvent>


> <Ready_Biodeg>
0.0

$$$$
201811
  -INDIGO-08031722522D

 25 25  0  0  0  0  0  0  0  0999 V2000
   -1.3857   -2.4000    0.0000 C   0  0  0  0  0  0  0  0  0  0  0  0
   -1.3857   -4.0000    0.0000 H   0  0  0  0  0  0  0  0  0  0  0  0
   -2.7712   -3.2000    0.0000 H   0  0  0  0  0  0  0  0  0  0  0  0
    0.0000   -3.2000    0.0000 H   0  0  0  0  0  0  0  0  0  0  0  0
   -1.3857   -0.8000    0.0000 O   0  0  0  0  0  0  0  0  0  0  0  0
    0.0000   -0.0000    0.0000 P   0  0  0  0  0  0  0  0  0  0  0  0
    0.0000    1.6000    0.0000 S   0  0  0  0  0  0  0  0  0  0  0  0
   -1.3857    0.8000    0.0000 O   0  0  0  0  0  0  0  0  0  0  0  0
   -2.7712   -0.0000    0.0000 C   0  0  0  0  0  0  0  0  0  0  0  0
   -4.1569    0.8000    0.0000 H   0  0  0  0  0  0  0  0  0  0  0  0
   -4.1569   -0.8000    0.0000 H   0  0  0  0  0  0  0  0  0  0  0  0
   -2.7712    1.6000    0.0000 H   0  0  0  0  0  0  0  0  0  0  0  0
    1.3857    0.8000    0.0000 O   0  0  0  0  0  0  0  0  0  0  0  0
    2.7712   -0.0000    0.0000 C   0  0  0  0  0  0  0  0  0  0  0  0
    2.7712   -1.6000    0.0000 C   0  0  0  0  0  0  0  0  0  0  0  0
    1.3857   -2.4000    0.0000 H   0  0  0  0  0  0  0  0  0  0  0  0
    4.1569   -2.4000    0.0000 C   0  0  0  0  0  0  0  0  0  0  0  0
    4.1569   -4.0000    0.0000 H   0  0  0  0  0  0  0  0  0  0  0  0
    5.5426   -1.6000    0.0000 C   0  0  0  0  0  0  0  0  0  0  0  0
    6.9281   -2.4000    0.0000 C   0  0  0  0  0  0  0  0  0  0  0  0
    8.3138   -3.2000    0.0000 N   0  0  0  0  0  0  0  0  0  0  0  0
    5.5426   -0.0000    0.0000 C   0  0  0  0  0  0  0  0  0  0  0  0
    6.9281    0.8000    0.0000 H   0  0  0  0  0  0  0  0  0  0  0  0
    4.1569    0.8000    0.0000 C   0  0  0  0  0  0  0  0  0  0  0  0
    4.1569    2.4000    0.0000 H   0  0  0  0  0  0  0  0  0  0  0  0
  1  2  1  0  0  0  0
  1  3  1  0  0  0  0
  1  4  1  0  0  0  0
  1  5  1  0  0  0  0
  5  6  1  0  0  0  0
  6  7  2  0  0  0  0
  6  8  1  0  0  0  0
  8  9  1  0  0  0  0
  9 10  1  0  0  0  0
  9 11  1  0  0  0  0
  9 12  1  0  0  0  0
  6 13  1  0  0  0  0
 13 14  1  0  0  0  0
 14 15  1  0  0  0  0
 15 16  1  0  0  0  0
 15 17  2  0  0  0  0
 17 18  1  0  0  0  0
 17 19  1  0  0  0  0
 19 20  1  0  0  0  0
 20 21  3  0  0  0  0
 19 22  2  0  0  0  0
 22 23  1  0  0  0  0
 22 24  1  0  0  0  0
 24 14  2  0  0  0  0
 24 25  1  0  0  0  0
M  END
> <ChemID>
201811

> <source_casrn>
2636-26-2

> <CAS>
2636-26-2

> <SMILES>
CO[P](=S)(OC)Oc1ccc(cc1)C#N

> <NAME>


> <preferred_name>
Cyanophos

> <iupac>
O-(4-cyanophenyl) O,O-dimethyl phosphorothioate

> <MPID>
101467

> <dsstox_substance_id>
DTXSID0041806

> <Canonical_QSARr>
COP(=S)(Oc1ccc(cc1)C#N)OC

> <InChI_Code_QSARr>
InChI=1S/C9H10NO3PS/c1-11-14(15,12-2)13-9-5-3-8(7-10)4-6-9/h3-6H,1-2H3

> <InChI Key_QSARr>
SCKHCCSZFPSHGR-UHFFFAOYSA-N

> <Salt_Solvent>


> <Ready_Biodeg>
0.0

$$$$
201812
  -INDIGO-08031722522D

 22 23  0  0  0  0  0  0  0  0999 V2000
    5.9293   -0.4812    0.0000 C   0  0  0  0  0  0  0  0  0  0  0  0
    7.4327    0.0660    0.0000 H   0  0  0  0  0  0  0  0  0  0  0  0
    7.1548   -1.5097    0.0000 H   0  0  0  0  0  0  0  0  0  0  0  0
    6.2070    1.0944    0.0000 H   0  0  0  0  0  0  0  0  0  0  0  0
    4.4257   -1.0284    0.0000 O   0  0  0  0  0  0  0  0  0  0  0  0
    3.2000   -0.0000    0.0000 P   0  0  0  0  0  0  0  0  0  0  0  0
    4.4257    1.0285    0.0000 S   0  0  0  0  0  0  0  0  0  0  0  0
    2.3999    1.3856    0.0000 O   0  0  0  0  0  0  0  0  0  0  0  0
    0.8000    1.3856    0.0000 C   0  0  0  0  0  0  0  0  0  0  0  0
    1.0778    2.9613    0.0000 H   0  0  0  0  0  0  0  0  0  0  0  0
   -0.7036    1.9328    0.0000 H   0  0  0  0  0  0  0  0  0  0  0  0
    0.0000   -0.0000    0.0000 C   0  0  0  0  0  0  0  0  0  0  0  0
   -1.6001   -0.0000    0.0000 C   0  0  0  0  0  0  0  0  0  0  0  0
   -2.3999    1.3856    0.0000 H   0  0  0  0  0  0  0  0  0  0  0  0
   -2.3999   -1.3857    0.0000 C   0  0  0  0  0  0  0  0  0  0  0  0
   -4.0000   -1.3857    0.0000 H   0  0  0  0  0  0  0  0  0  0  0  0
   -1.6001   -2.7713    0.0000 C   0  0  0  0  0  0  0  0  0  0  0  0
   -2.3999   -4.1569    0.0000 H   0  0  0  0  0  0  0  0  0  0  0  0
    0.0000   -2.7713    0.0000 C   0  0  0  0  0  0  0  0  0  0  0  0
    0.8000   -4.1569    0.0000 H   0  0  0  0  0  0  0  0  0  0  0  0
    0.8000   -1.3857    0.0000 C   0  0  0  0  0  0  0  0  0  0  0  0
    2.3999   -1.3857    0.0000 O   0  0  0  0  0  0  0  0  0  0  0  0
  1  2  1  0  0  0  0
  1  3  1  0  0  0  0
  1  4  1  0  0  0  0
  1  5  1  0  0  0  0
  5  6  1  0  0  0  0
  6  7  2  0  0  0  0
  6  8  1  0  0  0  0
  8  9  1  0  0  0  0
  9 10  1  0  0  0  0
  9 11  1  0  0  0  0
  9 12  1  0  0  0  0
 12 13  1  0  0  0  0
 13 14  1  0  0  0  0
 13 15  2  0  0  0  0
 15 16  1  0  0  0  0
 15 17  1  0  0  0  0
 17 18  1  0  0  0  0
 17 19  2  0  0  0  0
 19 20  1  0  0  0  0
 19 21  1  0  0  0  0
 21 12  2  0  0  0  0
 21 22  1  0  0  0  0
 22  6  1  0  0  0  0
M  END
> <ChemID>
201812

> <source_casrn>
3811-49-2

> <CAS>
3811-49-2

> <SMILES>
CO[P]1(=S)OCc2ccccc2O1

> <NAME>


> <preferred_name>
Dioxabenzofos

> <iupac>
2-methoxy-4H-1,3,2-benzodioxaphosphinine 2-sulfide

> <MPID>
101468

> <dsstox_substance_id>
DTXSID7041885

> <Canonical_QSARr>
COP1(=S)OCc2ccccc2O1

> <InChI_Code_QSARr>
InChI=1S/C8H9O3PS/c1-9-12(13)10-6-7-4-2-3-5-8(7)11-12/h2-5H,6H2,1H3

> <InChI Key_QSARr>
OUNSASXJZHBGAI-UHFFFAOYSA-N

> <Salt_Solvent>


> <Ready_Biodeg>
0.0

$$$$
201820
  -INDIGO-08031722522D

 18 18  0  0  0  0  0  0  0  0999 V2000
    2.4001    1.3856    0.0000 C   0  0  0  0  0  0  0  0  0  0  0  0
    4.0000    1.3856    0.0000 H   0  0  0  0  0  0  0  0  0  0  0  0
    3.2000    2.7713    0.0000 H   0  0  0  0  0  0  0  0  0  0  0  0
    3.2000   -0.0000    0.0000 H   0  0  0  0  0  0  0  0  0  0  0  0
    1.6000   -0.0000    0.0000 O   0  0  0  0  0  0  0  0  0  0  0  0
    0.0000   -0.0000    0.0000 C   0  0  0  0  0  0  0  0  0  0  0  0
   -0.7999    1.3856    0.0000 C   0  0  0  0  0  0  0  0  0  0  0  0
    0.0000    2.7713    0.0000 H   0  0  0  0  0  0  0  0  0  0  0  0
   -2.4000    1.3856    0.0000 C   0  0  0  0  0  0  0  0  0  0  0  0
   -3.2000    2.7713    0.0000 H   0  0  0  0  0  0  0  0  0  0  0  0
   -3.2000   -0.0000    0.0000 C   0  0  0  0  0  0  0  0  0  0  0  0
   -4.8000   -0.0000    0.0000 C   0  0  0  0  0  0  0  0  0  0  0  0
   -5.6000   -1.3856    0.0000 H   0  0  0  0  0  0  0  0  0  0  0  0
   -5.6000    1.3856    0.0000 O   0  0  0  0  0  0  0  0  0  0  0  0
   -2.4000   -1.3856    0.0000 C   0  0  0  0  0  0  0  0  0  0  0  0
   -3.2000   -2.7713    0.0000 H   0  0  0  0  0  0  0  0  0  0  0  0
   -0.8001   -1.3856    0.0000 C   0  0  0  0  0  0  0  0  0  0  0  0
    0.0000   -2.7713    0.0000 H   0  0  0  0  0  0  0  0  0  0  0  0
  1  2  1  0  0  0  0
  1  3  1  0  0  0  0
  1  4  1  0  0  0  0
  1  5  1  0  0  0  0
  5  6  1  0  0  0  0
  6  7  1  0  0  0  0
  7  8  1  0  0  0  0
  7  9  2  0  0  0  0
  9 10  1  0  0  0  0
  9 11  1  0  0  0  0
 11 12  1  0  0  0  0
 12 13  1  0  0  0  0
 12 14  2  0  0  0  0
 11 15  2  0  0  0  0
 15 16  1  0  0  0  0
 15 17  1  0  0  0  0
 17  6  2  0  0  0  0
 17 18  1  0  0  0  0
M  END
> <ChemID>
201820

> <source_casrn>
123-11-5

> <CAS>
123-11-5

> <SMILES>
COc1ccc(C=O)cc1

> <NAME>


> <preferred_name>
4-Methoxybenzaldehyde

> <iupac>
4-methoxybenzaldehyde

> <MPID>
101471

> <dsstox_substance_id>
DTXSID2026997

> <Canonical_QSARr>
COc1ccc(C=O)cc1

> <InChI_Code_QSARr>
InChI=1S/C8H8O2/c1-10-8-4-2-7(6-9)3-5-8/h2-6H,1H3

> <InChI Key_QSARr>
ZRSNZINYAWTAHE-UHFFFAOYSA-N

> <Salt_Solvent>


> <Ready_Biodeg>
1.0

$$$$
201827
  -INDIGO-08031722522D

 20 20  0  0  0  0  0  0  0  0999 V2000
    2.4000   -1.3856    0.0000 C   0  0  0  0  0  0  0  0  0  0  0  0
    4.0000   -1.3856    0.0000 H   0  0  0  0  0  0  0  0  0  0  0  0
    3.2000   -2.7713    0.0000 H   0  0  0  0  0  0  0  0  0  0  0  0
    3.2000   -0.0000    0.0000 H   0  0  0  0  0  0  0  0  0  0  0  0
    1.6000   -0.0000    0.0000 O   0  0  0  0  0  0  0  0  0  0  0  0
    0.0001    0.0000    0.0000 C   0  0  0  0  0  0  0  0  0  0  0  0
   -0.7999    1.3856    0.0000 C   0  0  0  0  0  0  0  0  0  0  0  0
    0.0001    2.7713    0.0000 H   0  0  0  0  0  0  0  0  0  0  0  0
   -2.4001    1.3856    0.0000 C   0  0  0  0  0  0  0  0  0  0  0  0
   -3.2001    2.7713    0.0000 H   0  0  0  0  0  0  0  0  0  0  0  0
   -3.2001    0.0000    0.0000 C   0  0  0  0  0  0  0  0  0  0  0  0
   -4.8000   -0.0000    0.0000 O   0  0  0  0  0  0  0  0  0  0  0  0
   -5.6000    1.3856    0.0000 C   0  0  0  0  0  0  0  0  0  0  0  0
   -7.2000    1.3856    0.0000 H   0  0  0  0  0  0  0  0  0  0  0  0
   -6.4000    2.7713    0.0000 H   0  0  0  0  0  0  0  0  0  0  0  0
   -6.4000   -0.0000    0.0000 H   0  0  0  0  0  0  0  0  0  0  0  0
   -2.4001   -1.3856    0.0000 C   0  0  0  0  0  0  0  0  0  0  0  0
   -3.2001   -2.7713    0.0000 Cl  0  0  0  0  0  0  0  0  0  0  0  0
   -0.7999   -1.3856    0.0000 C   0  0  0  0  0  0  0  0  0  0  0  0
    0.0001   -2.7713    0.0000 H   0  0  0  0  0  0  0  0  0  0  0  0
  1  2  1  0  0  0  0
  1  3  1  0  0  0  0
  1  4  1  0  0  0  0
  1  5  1  0  0  0  0
  5  6  1  0  0  0  0
  6  7  1  0  0  0  0
  7  8  1  0  0  0  0
  7  9  2  0  0  0  0
  9 10  1  0  0  0  0
  9 11  1  0  0  0  0
 11 12  1  0  0  0  0
 12 13  1  0  0  0  0
 13 14  1  0  0  0  0
 13 15  1  0  0  0  0
 13 16  1  0  0  0  0
 11 17  2  0  0  0  0
 17 18  1  0  0  0  0
 17 19  1  0  0  0  0
 19  6  2  0  0  0  0
 19 20  1  0  0  0  0
M  END
> <ChemID>
201827

> <source_casrn>
2100-42-7

> <CAS>
2100-42-7

> <SMILES>
COc1ccc(OC)c(Cl)c1

> <NAME>


> <preferred_name>
2-Chloro-1,4-dimethoxybenzene

> <iupac>
2-chloro-1,4-dimethoxybenzene

> <MPID>
101474

> <dsstox_substance_id>
DTXSID3041403

> <Canonical_QSARr>
COc1ccc(cc1Cl)OC

> <InChI_Code_QSARr>
InChI=1S/C8H9ClO2/c1-10-6-3-4-8(11-2)7(9)5-6/h3-5H,1-2H3

> <InChI Key_QSARr>
QMXZSRVFIWACJH-UHFFFAOYSA-N

> <Salt_Solvent>


> <Ready_Biodeg>
0.0

$$$$
201828
  -INDIGO-08031722522D

 18 18  0  0  0  0  0  0  0  0999 V2000
    2.7713   -0.0000    0.0000 C   0  0  0  0  0  0  0  0  0  0  0  0
    4.1569    0.8000    0.0000 H   0  0  0  0  0  0  0  0  0  0  0  0
    4.1569   -0.8000    0.0000 H   0  0  0  0  0  0  0  0  0  0  0  0
    2.7713    1.6000    0.0000 H   0  0  0  0  0  0  0  0  0  0  0  0
    1.3857    0.8000    0.0000 O   0  0  0  0  0  0  0  0  0  0  0  0
    0.0001   -0.0000    0.0000 C   0  0  0  0  0  0  0  0  0  0  0  0
    0.0001   -1.6000    0.0000 C   0  0  0  0  0  0  0  0  0  0  0  0
    1.3857   -2.4000    0.0000 H   0  0  0  0  0  0  0  0  0  0  0  0
   -1.3857   -2.4000    0.0000 C   0  0  0  0  0  0  0  0  0  0  0  0
   -1.3857   -4.0000    0.0000 H   0  0  0  0  0  0  0  0  0  0  0  0
   -2.7713   -1.6000    0.0000 C   0  0  0  0  0  0  0  0  0  0  0  0
   -4.1569   -2.4000    0.0000 H   0  0  0  0  0  0  0  0  0  0  0  0
   -2.7713   -0.0000    0.0000 C   0  0  0  0  0  0  0  0  0  0  0  0
   -4.1569    0.8000    0.0000 C   0  0  0  0  0  0  0  0  0  0  0  0
   -5.5426   -0.0000    0.0000 H   0  0  0  0  0  0  0  0  0  0  0  0
   -4.1569    2.4000    0.0000 O   0  0  0  0  0  0  0  0  0  0  0  0
   -1.3857    0.8000    0.0000 C   0  0  0  0  0  0  0  0  0  0  0  0
   -1.3857    2.4000    0.0000 H   0  0  0  0  0  0  0  0  0  0  0  0
  1  2  1  0  0  0  0
  1  3  1  0  0  0  0
  1  4  1  0  0  0  0
  1  5  1  0  0  0  0
  5  6  1  0  0  0  0
  6  7  1  0  0  0  0
  7  8  1  0  0  0  0
  7  9  2  0  0  0  0
  9 10  1  0  0  0  0
  9 11  1  0  0  0  0
 11 12  1  0  0  0  0
 11 13  2  0  0  0  0
 13 14  1  0  0  0  0
 14 15  1  0  0  0  0
 14 16  2  0  0  0  0
 13 17  1  0  0  0  0
 17  6  2  0  0  0  0
 17 18  1  0  0  0  0
M  END
> <ChemID>
201828

> <source_casrn>
591-31-1

> <CAS>
591-31-1

> <SMILES>
COc1cccc(C=O)c1

> <NAME>


> <preferred_name>
3-Methoxybenzaldehyde

> <iupac>
3-methoxybenzaldehyde

> <MPID>
101475

> <dsstox_substance_id>
DTXSID5044447

> <Canonical_QSARr>
COc1cccc(C=O)c1

> <InChI_Code_QSARr>
InChI=1S/C8H8O2/c1-10-8-4-2-3-7(5-8)6-9/h2-6H,1H3

> <InChI Key_QSARr>
WMPDAIZRQDCGFH-UHFFFAOYSA-N

> <Salt_Solvent>


> <Ready_Biodeg>
1.0

$$$$
201838
  -INDIGO-08031722522D

  9  8  0  0  0  0  0  0  0  0999 V2000
    1.6000    0.0000    0.0000 C   0  0  0  0  0  0  0  0  0  0  0  0
    3.2000    0.0000    0.0000 H   0  0  0  0  0  0  0  0  0  0  0  0
    2.4000   -1.3856    0.0000 H   0  0  0  0  0  0  0  0  0  0  0  0
    2.4000    1.3856    0.0000 H   0  0  0  0  0  0  0  0  0  0  0  0
   -0.0000    0.0000    0.0000 S   0  0  0  0  0  0  0  0  0  0  0  0
   -1.6000   -0.0000    0.0000 O   0  0  0  0  0  0  0  0  0  0  0  0
   -2.4000    1.3856    0.0000 H   0  0  0  0  0  0  0  0  0  0  0  0
   -0.0000    1.6000    0.0000 O   0  0  0  0  0  0  0  0  0  0  0  0
   -0.0000   -1.6000    0.0000 O   0  0  0  0  0  0  0  0  0  0  0  0
  1  2  1  0  0  0  0
  1  3  1  0  0  0  0
  1  4  1  0  0  0  0
  1  5  1  0  0  0  0
  5  6  1  0  0  0  0
  6  7  1  0  0  0  0
  5  8  2  0  0  0  0
  5  9  2  0  0  0  0
M  END
> <ChemID>
201838

> <source_casrn>
75-75-2

> <CAS>
75-75-2

> <SMILES>
C[S](O)(=O)=O

> <NAME>


> <preferred_name>
Methanesulfonic acid

> <iupac>
CH4O3S

> <MPID>
101476

> <dsstox_substance_id>
DTXSID4026422

> <Canonical_QSARr>
CS(O)(=O)=O

> <InChI_Code_QSARr>
InChI=1S/CH4O3S/c1-5(2,3)4/h1H3,(H,2,3,4)

> <InChI Key_QSARr>
AFVFQIVMOAPDHO-UHFFFAOYSA-N

> <Salt_Solvent>


> <Ready_Biodeg>
1.0

$$$$
201839
  -INDIGO-08031722522D

 10  9  0  0  0  0  0  0  0  0999 V2000
    0.0000    0.0000    0.0000 C   0  0  0  0  0  0  0  0  0  0  0  0
    1.3856    0.8000    0.0000 H   0  0  0  0  0  0  0  0  0  0  0  0
    0.0000    1.6000    0.0000 H   0  0  0  0  0  0  0  0  0  0  0  0
    1.3856   -0.8000    0.0000 H   0  0  0  0  0  0  0  0  0  0  0  0
   -1.3856   -0.8000    0.0000 S   0  0  0  0  0  0  0  0  0  0  0  0
   -2.7713    0.0000    0.0000 S   0  0  0  0  0  0  0  0  0  0  0  0
   -4.1569   -0.8000    0.0000 C   0  0  0  0  0  0  0  0  0  0  0  0
   -5.5426   -1.6000    0.0000 H   0  0  0  0  0  0  0  0  0  0  0  0
   -5.5426    0.0000    0.0000 H   0  0  0  0  0  0  0  0  0  0  0  0
   -4.1569   -2.4000    0.0000 H   0  0  0  0  0  0  0  0  0  0  0  0
  1  2  1  0  0  0  0
  1  3  1  0  0  0  0
  1  4  1  0  0  0  0
  1  5  1  0  0  0  0
  5  6  1  0  0  0  0
  6  7  1  0  0  0  0
  7  8  1  0  0  0  0
  7  9  1  0  0  0  0
  7 10  1  0  0  0  0
M  END
> <ChemID>
201839

> <source_casrn>
624-92-0

> <CAS>
624-92-0

> <SMILES>
CSSC

> <NAME>


> <preferred_name>
Methyl disulfide

> <iupac>
dimethyl disulfide

> <MPID>
101477

> <dsstox_substance_id>
DTXSID4025117

> <Canonical_QSARr>
CSSC

> <InChI_Code_QSARr>
InChI=1S/C2H6S2/c1-3-4-2/h1-2H3

> <InChI Key_QSARr>
WQOXQRCZOLPYPM-UHFFFAOYSA-N

> <Salt_Solvent>


> <Ready_Biodeg>
0.0

$$$$
201840
  -INDIGO-08031722522D

 17 17  0  0  0  0  0  0  0  0999 V2000
    2.7713   -0.0000    0.0000 C   0  0  0  0  0  0  0  0  0  0  0  0
    4.1569    0.8000    0.0000 H   0  0  0  0  0  0  0  0  0  0  0  0
    4.1569   -0.8000    0.0000 H   0  0  0  0  0  0  0  0  0  0  0  0
    2.7713    1.6000    0.0000 H   0  0  0  0  0  0  0  0  0  0  0  0
    1.3857    0.8000    0.0000 S   0  0  0  0  0  0  0  0  0  0  0  0
    0.0001   -0.0000    0.0000 C   0  0  0  0  0  0  0  0  0  0  0  0
    0.0001   -1.6000    0.0000 C   0  0  0  0  0  0  0  0  0  0  0  0
    1.3857   -2.4000    0.0000 H   0  0  0  0  0  0  0  0  0  0  0  0
   -1.3857   -2.4000    0.0000 C   0  0  0  0  0  0  0  0  0  0  0  0
   -1.3857   -4.0000    0.0000 H   0  0  0  0  0  0  0  0  0  0  0  0
   -2.7713   -1.6000    0.0000 C   0  0  0  0  0  0  0  0  0  0  0  0
   -4.1569   -2.4000    0.0000 O   0  0  0  0  0  0  0  0  0  0  0  0
   -5.5426   -1.6000    0.0000 H   0  0  0  0  0  0  0  0  0  0  0  0
   -2.7713   -0.0000    0.0000 C   0  0  0  0  0  0  0  0  0  0  0  0
   -4.1569    0.8000    0.0000 H   0  0  0  0  0  0  0  0  0  0  0  0
   -1.3857    0.8000    0.0000 C   0  0  0  0  0  0  0  0  0  0  0  0
   -1.3857    2.4000    0.0000 H   0  0  0  0  0  0  0  0  0  0  0  0
  1  2  1  0  0  0  0
  1  3  1  0  0  0  0
  1  4  1  0  0  0  0
  1  5  1  0  0  0  0
  5  6  1  0  0  0  0
  6  7  1  0  0  0  0
  7  8  1  0  0  0  0
  7  9  2  0  0  0  0
  9 10  1  0  0  0  0
  9 11  1  0  0  0  0
 11 12  1  0  0  0  0
 12 13  1  0  0  0  0
 11 14  2  0  0  0  0
 14 15  1  0  0  0  0
 14 16  1  0  0  0  0
 16  6  2  0  0  0  0
 16 17  1  0  0  0  0
M  END
> <ChemID>
201840

> <source_casrn>
1073-72-9

> <CAS>
1073-72-9

> <SMILES>
CSc1ccc(O)cc1

> <NAME>


> <preferred_name>
4-(Methylthio)phenol

> <iupac>
4-(methylsulfanyl)phenol

> <MPID>
101478

> <dsstox_substance_id>
DTXSID3051547

> <Canonical_QSARr>
CSc1ccc(O)cc1

> <InChI_Code_QSARr>
InChI=1S/C7H8OS/c1-9-7-4-2-6(8)3-5-7/h2-5,8H,1H3

> <InChI Key_QSARr>
QASBCTGZKABPKX-UHFFFAOYSA-N

> <Salt_Solvent>


> <Ready_Biodeg>
0.0

$$$$
201842
  -INDIGO-08031722522D

 47 46  0  0  0  0  0  0  0  0999 V2000
    5.6001    4.1570    0.0000 C   0  0  0  0  0  0  0  0  0  0  0  0
    7.2000    4.1570    0.0000 H   0  0  0  0  0  0  0  0  0  0  0  0
    6.3999    5.5426    0.0000 H   0  0  0  0  0  0  0  0  0  0  0  0
    6.3999    2.7712    0.0000 H   0  0  0  0  0  0  0  0  0  0  0  0
    4.8000    2.7712    0.0000 C   0  0  0  0  0  0  0  0  0  0  0  0
    5.0089    1.1849    0.0000 H   0  0  0  0  0  0  0  0  0  0  0  0
    6.0694    1.7972    0.0000 H   0  0  0  0  0  0  0  0  0  0  0  0
    3.2000    2.7712    0.0000 C   0  0  0  0  0  0  0  0  0  0  0  0
    2.4000    4.1570    0.0000 C   0  0  0  0  0  0  0  0  0  0  0  0
    1.6001    5.5426    0.0000 H   0  0  0  0  0  0  0  0  0  0  0  0
    3.2000    5.5426    0.0000 H   0  0  0  0  0  0  0  0  0  0  0  0
    0.8000    4.1570    0.0000 H   0  0  0  0  0  0  0  0  0  0  0  0
    2.4000    1.3856    0.0000 N   0  0  0  0  0  0  0  0  0  0  0  0
    0.8000    1.3856    0.0000 O   0  0  0  0  0  0  0  0  0  0  0  0
   -0.0001    0.0000    0.0000 Si  0  0  0  0  0  0  0  0  0  0  0  0
    0.8000   -1.3856    0.0000 C   0  0  0  0  0  0  0  0  0  0  0  0
    1.6001   -2.7714    0.0000 H   0  0  0  0  0  0  0  0  0  0  0  0
    2.4000   -1.3856    0.0000 H   0  0  0  0  0  0  0  0  0  0  0  0
   -0.0001   -2.7714    0.0000 H   0  0  0  0  0  0  0  0  0  0  0  0
   -0.7999    1.3856    0.0000 O   0  0  0  0  0  0  0  0  0  0  0  0
   -2.4001    1.3856    0.0000 N   0  0  0  0  0  0  0  0  0  0  0  0
   -3.1999    2.7712    0.0000 C   0  0  0  0  0  0  0  0  0  0  0  0
   -2.4001    4.1570    0.0000 C   0  0  0  0  0  0  0  0  0  0  0  0
   -3.1999    5.5426    0.0000 H   0  0  0  0  0  0  0  0  0  0  0  0
   -1.6000    5.5426    0.0000 H   0  0  0  0  0  0  0  0  0  0  0  0
   -0.7999    4.1570    0.0000 H   0  0  0  0  0  0  0  0  0  0  0  0
   -4.8001    2.7712    0.0000 C   0  0  0  0  0  0  0  0  0  0  0  0
   -6.0693    1.7972    0.0000 H   0  0  0  0  0  0  0  0  0  0  0  0
   -5.0088    1.1849    0.0000 H   0  0  0  0  0  0  0  0  0  0  0  0
   -5.5999    4.1570    0.0000 C   0  0  0  0  0  0  0  0  0  0  0  0
   -6.4000    5.5426    0.0000 H   0  0  0  0  0  0  0  0  0  0  0  0
   -7.2001    4.1570    0.0000 H   0  0  0  0  0  0  0  0  0  0  0  0
   -4.8001    5.5426    0.0000 H   0  0  0  0  0  0  0  0  0  0  0  0
   -1.5757   -0.2779    0.0000 O   0  0  0  0  0  0  0  0  0  0  0  0
   -2.1230   -1.7813    0.0000 N   0  0  0  0  0  0  0  0  0  0  0  0
   -3.6986   -2.0592    0.0000 C   0  0  0  0  0  0  0  0  0  0  0  0
   -4.7270   -0.8336    0.0000 C   0  0  0  0  0  0  0  0  0  0  0  0
   -6.3027   -1.1113    0.0000 H   0  0  0  0  0  0  0  0  0  0  0  0
   -5.7556    0.3922    0.0000 H   0  0  0  0  0  0  0  0  0  0  0  0
   -5.2743   -2.3370    0.0000 H   0  0  0  0  0  0  0  0  0  0  0  0
   -4.2459   -3.5627    0.0000 C   0  0  0  0  0  0  0  0  0  0  0  0
   -3.7648   -5.0887    0.0000 H   0  0  0  0  0  0  0  0  0  0  0  0
   -2.8266   -4.3015    0.0000 H   0  0  0  0  0  0  0  0  0  0  0  0
   -5.8216   -3.8405    0.0000 C   0  0  0  0  0  0  0  0  0  0  0  0
   -6.3688   -5.3440    0.0000 H   0  0  0  0  0  0  0  0  0  0  0  0
   -7.3972   -4.1184    0.0000 H   0  0  0  0  0  0  0  0  0  0  0  0
   -4.7932   -5.0661    0.0000 H   0  0  0  0  0  0  0  0  0  0  0  0
  1  2  1  0  0  0  0
  1  3  1  0  0  0  0
  1  4  1  0  0  0  0
  1  5  1  0  0  0  0
  5  6  1  0  0  0  0
  5  7  1  0  0  0  0
  5  8  1  0  0  0  0
  8  9  1  0  0  0  0
  9 10  1  0  0  0  0
  9 11  1  0  0  0  0
  9 12  1  0  0  0  0
  8 13  2  0  0  0  0
 13 14  1  0  0  0  0
 14 15  1  0  0  0  0
 15 16  1  0  0  0  0
 16 17  1  0  0  0  0
 16 18  1  0  0  0  0
 16 19  1  0  0  0  0
 15 20  1  0  0  0  0
 20 21  1  0  0  0  0
 21 22  2  0  0  0  0
 22 23  1  0  0  0  0
 23 24  1  0  0  0  0
 23 25  1  0  0  0  0
 23 26  1  0  0  0  0
 22 27  1  0  0  0  0
 27 28  1  0  0  0  0
 27 29  1  0  0  0  0
 27 30  1  0  0  0  0
 30 31  1  0  0  0  0
 30 32  1  0  0  0  0
 30 33  1  0  0  0  0
 15 34  1  0  0  0  0
 34 35  1  0  0  0  0
 35 36  2  0  0  0  0
 36 37  1  0  0  0  0
 37 38  1  0  0  0  0
 37 39  1  0  0  0  0
 37 40  1  0  0  0  0
 36 41  1  0  0  0  0
 41 42  1  0  0  0  0
 41 43  1  0  0  0  0
 41 44  1  0  0  0  0
 44 45  1  0  0  0  0
 44 46  1  0  0  0  0
 44 47  1  0  0  0  0
M  END
> <ChemID>
201842

> <source_casrn>
22984-54-9

> <CAS>
NOCAS_860290

> <SMILES>
CCC(C)=NO[Si](C)(ON=C(C)CC)ON=C(C)CC

> <NAME>


> <preferred_name>
2-Butanone, O,O',O''-(methylsilylidyne)trioxime

> <iupac>
(2E,2'E,2''E)-N,N',N''-[(methylsilanetriyl)tris(oxy)]tributan-2-imine

> <MPID>
101480

> <dsstox_substance_id>
DTXSID30860290

> <Canonical_QSARr>
C[Si](ON=C(C)CC)(ON=C(C)CC)ON=C(C)CC

> <InChI_Code_QSARr>
InChI=1S/C13H27N3O3Si/c1-8-11(4)14-17-20(7,18-15-12(5)9-2)19-16-13(6)10-3/h8-10H2,1-7H3/b14-11+,15-12+,16-13+

> <InChI Key_QSARr>
OGZPYBBKQGPQNU-DABLZPOSSA-N

> <Salt_Solvent>


> <Ready_Biodeg>
0.0

$$$$
201843
  -INDIGO-08031722522D

 12 12  0  0  0  0  0  0  0  0999 V2000
    1.5912    0.1672    0.0000 C   0  0  0  0  0  0  0  0  0  0  0  0
    3.1825    0.3345    0.0000 H   0  0  0  0  0  0  0  0  0  0  0  0
    2.5316   -1.1271    0.0000 H   0  0  0  0  0  0  0  0  0  0  0  0
    2.2420    1.6289    0.0000 H   0  0  0  0  0  0  0  0  0  0  0  0
    0.0001    0.0000    0.0000 C   0  0  0  0  0  0  0  0  0  0  0  0
   -1.0706    1.1891    0.0000 N   0  0  0  0  0  0  0  0  0  0  0  0
   -0.7380    2.7541    0.0000 H   0  0  0  0  0  0  0  0  0  0  0  0
   -2.5323    0.5383    0.0000 C   0  0  0  0  0  0  0  0  0  0  0  0
   -3.9179    1.3382    0.0000 H   0  0  0  0  0  0  0  0  0  0  0  0
   -2.3650   -1.0530    0.0000 C   0  0  0  0  0  0  0  0  0  0  0  0
   -3.5541   -2.1236    0.0000 H   0  0  0  0  0  0  0  0  0  0  0  0
   -0.8000   -1.3856    0.0000 N   0  0  0  0  0  0  0  0  0  0  0  0
  1  2  1  0  0  0  0
  1  3  1  0  0  0  0
  1  4  1  0  0  0  0
  1  5  1  0  0  0  0
  5  6  1  0  0  0  0
  6  7  1  0  0  0  0
  6  8  1  0  0  0  0
  8  9  1  0  0  0  0
  8 10  2  0  0  0  0
 10 11  1  0  0  0  0
 10 12  1  0  0  0  0
 12  5  2  0  0  0  0
M  END
> <ChemID>
201843

> <source_casrn>
693-98-1

> <CAS>
693-98-1

> <SMILES>
Cc1[nH]ccn1

> <NAME>


> <preferred_name>
2-Methylimidazole

> <iupac>
2-methyl-1H-imidazole

> <MPID>
101481

> <dsstox_substance_id>
DTXSID4022107

> <Canonical_QSARr>
Cc1[nH]cc[n]1

> <InChI_Code_QSARr>
InChI=1S/C4H6N2/c1-4-5-2-3-6-4/h2-3H,1H3,(H,5,6)

> <InChI Key_QSARr>
LXBGSDVWAMZHDD-UHFFFAOYSA-N

> <Salt_Solvent>


> <Ready_Biodeg>
0.0

$$$$
201847
  -INDIGO-08031722522D

 15 15  0  0  0  0  0  0  0  0999 V2000
    1.6000   -0.0000    0.0000 C   0  0  0  0  0  0  0  0  0  0  0  0
    3.2000   -0.0000    0.0000 H   0  0  0  0  0  0  0  0  0  0  0  0
    2.4001   -1.3856    0.0000 H   0  0  0  0  0  0  0  0  0  0  0  0
    2.4001    1.3856    0.0000 H   0  0  0  0  0  0  0  0  0  0  0  0
    0.0000   -0.0000    0.0000 C   0  0  0  0  0  0  0  0  0  0  0  0
   -0.7999    1.3856    0.0000 C   0  0  0  0  0  0  0  0  0  0  0  0
    0.0000    2.7713    0.0000 Cl  0  0  0  0  0  0  0  0  0  0  0  0
   -2.4001    1.3856    0.0000 C   0  0  0  0  0  0  0  0  0  0  0  0
   -3.2000    2.7713    0.0000 H   0  0  0  0  0  0  0  0  0  0  0  0
   -3.2000   -0.0000    0.0000 C   0  0  0  0  0  0  0  0  0  0  0  0
   -4.8000   -0.0000    0.0000 H   0  0  0  0  0  0  0  0  0  0  0  0
   -2.4001   -1.3856    0.0000 C   0  0  0  0  0  0  0  0  0  0  0  0
   -3.2000   -2.7713    0.0000 H   0  0  0  0  0  0  0  0  0  0  0  0
   -0.8001   -1.3856    0.0000 C   0  0  0  0  0  0  0  0  0  0  0  0
    0.0000   -2.7713    0.0000 Cl  0  0  0  0  0  0  0  0  0  0  0  0
  1  2  1  0  0  0  0
  1  3  1  0  0  0  0
  1  4  1  0  0  0  0
  1  5  1  0  0  0  0
  5  6  1  0  0  0  0
  6  7  1  0  0  0  0
  6  8  2  0  0  0  0
  8  9  1  0  0  0  0
  8 10  1  0  0  0  0
 10 11  1  0  0  0  0
 10 12  2  0  0  0  0
 12 13  1  0  0  0  0
 12 14  1  0  0  0  0
 14  5  2  0  0  0  0
 14 15  1  0  0  0  0
M  END
> <ChemID>
201847

> <source_casrn>
118-69-4

> <CAS>
118-69-4

> <SMILES>
Cc1c(Cl)cccc1Cl

> <NAME>


> <preferred_name>
2,6-Dichlorotoluene

> <iupac>
1,3-dichloro-2-methylbenzene

> <MPID>
101482

> <dsstox_substance_id>
DTXSID3040697

> <Canonical_QSARr>
Cc1c(Cl)cccc1Cl

> <InChI_Code_QSARr>
InChI=1S/C7H6Cl2/c1-5-6(8)3-2-4-7(5)9/h2-4H,1H3

> <InChI Key_QSARr>
DMEDNTFWIHCBRK-UHFFFAOYSA-N

> <Salt_Solvent>


> <Ready_Biodeg>
0.0

$$$$
201848
  -INDIGO-08031722522D

 14 14  0  0  0  0  0  0  0  0999 V2000
    1.3856    0.8000    0.0000 C   0  0  0  0  0  0  0  0  0  0  0  0
    2.7713    1.6000    0.0000 H   0  0  0  0  0  0  0  0  0  0  0  0
    2.7713   -0.0000    0.0000 H   0  0  0  0  0  0  0  0  0  0  0  0
    1.3856    2.4000    0.0000 H   0  0  0  0  0  0  0  0  0  0  0  0
    0.0000   -0.0000    0.0000 C   0  0  0  0  0  0  0  0  0  0  0  0
   -1.3856    0.8000    0.0000 C   0  0  0  0  0  0  0  0  0  0  0  0
   -1.3856    2.4000    0.0000 H   0  0  0  0  0  0  0  0  0  0  0  0
   -2.7713    0.0000    0.0000 C   0  0  0  0  0  0  0  0  0  0  0  0
   -4.1569    0.8000    0.0000 H   0  0  0  0  0  0  0  0  0  0  0  0
   -2.7713   -1.6000    0.0000 C   0  0  0  0  0  0  0  0  0  0  0  0
   -4.1569   -2.4000    0.0000 H   0  0  0  0  0  0  0  0  0  0  0  0
   -1.3856   -2.4000    0.0000 N   0  0  0  0  0  0  0  0  0  0  0  0
    0.0000   -1.6000    0.0000 C   0  0  0  0  0  0  0  0  0  0  0  0
    1.3856   -2.4000    0.0000 H   0  0  0  0  0  0  0  0  0  0  0  0
  1  2  1  0  0  0  0
  1  3  1  0  0  0  0
  1  4  1  0  0  0  0
  1  5  1  0  0  0  0
  5  6  1  0  0  0  0
  6  7  1  0  0  0  0
  6  8  2  0  0  0  0
  8  9  1  0  0  0  0
  8 10  1  0  0  0  0
 10 11  1  0  0  0  0
 10 12  2  0  0  0  0
 12 13  1  0  0  0  0
 13  5  2  0  0  0  0
 13 14  1  0  0  0  0
M  END
> <ChemID>
201848

> <source_casrn>
108-99-6

> <CAS>
108-99-6

> <SMILES>
Cc1cccnc1

> <NAME>


> <preferred_name>
3-Methylpyridine

> <iupac>
3-methylpyridine

> <MPID>
101483

> <dsstox_substance_id>
DTXSID9021897

> <Canonical_QSARr>
Cc1c[n]ccc1

> <InChI_Code_QSARr>
InChI=1S/C6H7N/c1-6-3-2-4-7-5-6/h2-5H,1H3

> <InChI Key_QSARr>
ITQTTZVARXURQS-UHFFFAOYSA-N

> <Salt_Solvent>


> <Ready_Biodeg>
0.0

$$$$
201850
  -INDIGO-08031722522D

 34 35  0  0  0  0  0  0  0  0999 V2000
    0.2778    1.5757    0.0000 C   0  0  0  0  0  0  0  0  0  0  0  0
    0.5556    3.1514    0.0000 H   0  0  0  0  0  0  0  0  0  0  0  0
   -0.9478    2.6041    0.0000 H   0  0  0  0  0  0  0  0  0  0  0  0
   -1.2257    1.0284    0.0000 H   0  0  0  0  0  0  0  0  0  0  0  0
    0.0001   -0.0001    0.0000 C   0  0  0  0  0  0  0  0  0  0  0  0
    0.0001   -1.6000    0.0000 H   0  0  0  0  0  0  0  0  0  0  0  0
   -1.5756   -0.2779    0.0000 C   0  0  0  0  0  0  0  0  0  0  0  0
   -2.6041    0.9478    0.0000 C   0  0  0  0  0  0  0  0  0  0  0  0
   -2.0569    2.4514    0.0000 H   0  0  0  0  0  0  0  0  0  0  0  0
   -4.1799    0.6700    0.0000 C   0  0  0  0  0  0  0  0  0  0  0  0
   -5.2084    1.8956    0.0000 H   0  0  0  0  0  0  0  0  0  0  0  0
   -4.7271   -0.8335    0.0000 C   0  0  0  0  0  0  0  0  0  0  0  0
   -6.3028   -1.1114    0.0000 H   0  0  0  0  0  0  0  0  0  0  0  0
   -3.6986   -2.0591    0.0000 C   0  0  0  0  0  0  0  0  0  0  0  0
   -4.2458   -3.5627    0.0000 H   0  0  0  0  0  0  0  0  0  0  0  0
   -2.1230   -1.7813    0.0000 C   0  0  0  0  0  0  0  0  0  0  0  0
   -1.0945   -3.0071    0.0000 H   0  0  0  0  0  0  0  0  0  0  0  0
    1.5999    0.0001    0.0000 C   0  0  0  0  0  0  0  0  0  0  0  0
    2.4001    1.3856    0.0000 C   0  0  0  0  0  0  0  0  0  0  0  0
    1.5999    2.7713    0.0000 H   0  0  0  0  0  0  0  0  0  0  0  0
    4.0000    1.3856    0.0000 C   0  0  0  0  0  0  0  0  0  0  0  0
    4.7999    2.7713    0.0000 C   0  0  0  0  0  0  0  0  0  0  0  0
    5.6001    4.1569    0.0000 H   0  0  0  0  0  0  0  0  0  0  0  0
    6.4000    2.7713    0.0000 H   0  0  0  0  0  0  0  0  0  0  0  0
    4.0000    4.1569    0.0000 H   0  0  0  0  0  0  0  0  0  0  0  0
    4.7999    0.0001    0.0000 C   0  0  0  0  0  0  0  0  0  0  0  0
    6.4000    0.0001    0.0000 H   0  0  0  0  0  0  0  0  0  0  0  0
    4.0000   -1.3856    0.0000 C   0  0  0  0  0  0  0  0  0  0  0  0
    4.7999   -2.7712    0.0000 H   0  0  0  0  0  0  0  0  0  0  0  0
    2.4001   -1.3856    0.0000 C   0  0  0  0  0  0  0  0  0  0  0  0
    1.5999   -2.7712    0.0000 C   0  0  0  0  0  0  0  0  0  0  0  0
    0.8000   -4.1569    0.0000 H   0  0  0  0  0  0  0  0  0  0  0  0
    2.4001   -4.1569    0.0000 H   0  0  0  0  0  0  0  0  0  0  0  0
    0.0001   -2.7712    0.0000 H   0  0  0  0  0  0  0  0  0  0  0  0
  1  2  1  0  0  0  0
  1  3  1  0  0  0  0
  1  4  1  0  0  0  0
  1  5  1  0  0  0  0
  5  6  1  0  0  0  0
  5  7  1  0  0  0  0
  7  8  1  0  0  0  0
  8  9  1  0  0  0  0
  8 10  2  0  0  0  0
 10 11  1  0  0  0  0
 10 12  1  0  0  0  0
 12 13  1  0  0  0  0
 12 14  2  0  0  0  0
 14 15  1  0  0  0  0
 14 16  1  0  0  0  0
 16  7  2  0  0  0  0
 16 17  1  0  0  0  0
  5 18  1  0  0  0  0
 18 19  1  0  0  0  0
 19 20  1  0  0  0  0
 19 21  2  0  0  0  0
 21 22  1  0  0  0  0
 22 23  1  0  0  0  0
 22 24  1  0  0  0  0
 22 25  1  0  0  0  0
 21 26  1  0  0  0  0
 26 27  1  0  0  0  0
 26 28  2  0  0  0  0
 28 29  1  0  0  0  0
 28 30  1  0  0  0  0
 30 18  2  0  0  0  0
 30 31  1  0  0  0  0
 31 32  1  0  0  0  0
 31 33  1  0  0  0  0
 31 34  1  0  0  0  0
M  END
> <ChemID>
201850

> <source_casrn>


> <CAS>
6165-51-1

> <SMILES>
CC(c1ccccc1)c2cc(C)ccc2C

> <NAME>


> <preferred_name>


> <iupac>


> <MPID>
101485

> <dsstox_substance_id>


> <Canonical_QSARr>
Cc1cc(C(C)c2ccccc2)c(C)cc1

> <InChI_Code_QSARr>
InChI=1S/C16H18/c1-12-9-10-13(2)16(11-12)14(3)15-7-5-4-6-8-15/h4-11,14H,1-3H3

> <InChI Key_QSARr>
FRAOOIFTSMORED-UHFFFAOYSA-N

> <Salt_Solvent>


> <Ready_Biodeg>
0.0

$$$$
201855
  -INDIGO-08031722522D

 56 58  0  0  0  0  0  0  0  0999 V2000
   -1.0284   -1.2256    0.0000 C   0  0  0  0  0  0  0  0  0  0  0  0
   -0.4813   -2.7292    0.0000 H   0  0  0  0  0  0  0  0  0  0  0  0
   -2.0570   -2.4513    0.0000 H   0  0  0  0  0  0  0  0  0  0  0  0
    0.5473   -1.5034    0.0000 H   0  0  0  0  0  0  0  0  0  0  0  0
   -0.0000   -0.0000    0.0000 C   0  0  0  0  0  0  0  0  0  0  0  0
    1.5756   -0.2779    0.0000 C   0  0  0  0  0  0  0  0  0  0  0  0
    2.1230   -1.7813    0.0000 H   0  0  0  0  0  0  0  0  0  0  0  0
    2.6042    0.9479    0.0000 C   0  0  0  0  0  0  0  0  0  0  0  0
    4.1799    0.6700    0.0000 C   0  0  0  0  0  0  0  0  0  0  0  0
    4.7270   -0.8336    0.0000 H   0  0  0  0  0  0  0  0  0  0  0  0
    5.7555    0.3922    0.0000 H   0  0  0  0  0  0  0  0  0  0  0  0
    3.1513   -0.5557    0.0000 H   0  0  0  0  0  0  0  0  0  0  0  0
    2.0569    2.4513    0.0000 C   0  0  0  0  0  0  0  0  0  0  0  0
    3.0855    3.6770    0.0000 H   0  0  0  0  0  0  0  0  0  0  0  0
    0.4812    2.7291    0.0000 C   0  0  0  0  0  0  0  0  0  0  0  0
   -0.0661    4.2327    0.0000 O   0  0  0  0  0  0  0  0  0  0  0  0
   -1.4516    5.0327    0.0000 P   0  0  0  0  0  0  0  0  0  0  0  0
   -1.4516    6.6326    0.0000 O   0  0  0  0  0  0  0  0  0  0  0  0
   -0.0659    5.8327    0.0000 O   0  0  0  0  0  0  0  0  0  0  0  0
   -0.0659    7.4326    0.0000 C   0  0  0  0  0  0  0  0  0  0  0  0
    1.3196    8.2326    0.0000 C   0  0  0  0  0  0  0  0  0  0  0  0
    2.7053    7.4326    0.0000 H   0  0  0  0  0  0  0  0  0  0  0  0
    1.3196    9.8328    0.0000 C   0  0  0  0  0  0  0  0  0  0  0  0
    2.7053   10.6327    0.0000 C   0  0  0  0  0  0  0  0  0  0  0  0
    4.0908   11.4327    0.0000 H   0  0  0  0  0  0  0  0  0  0  0  0
    4.0908    9.8328    0.0000 H   0  0  0  0  0  0  0  0  0  0  0  0
    2.7053   12.2327    0.0000 H   0  0  0  0  0  0  0  0  0  0  0  0
   -0.0659   10.6327    0.0000 C   0  0  0  0  0  0  0  0  0  0  0  0
   -0.0659   12.2327    0.0000 H   0  0  0  0  0  0  0  0  0  0  0  0
   -1.4516    9.8328    0.0000 C   0  0  0  0  0  0  0  0  0  0  0  0
   -2.8373   10.6327    0.0000 C   0  0  0  0  0  0  0  0  0  0  0  0
   -2.8373   12.2327    0.0000 H   0  0  0  0  0  0  0  0  0  0  0  0
   -1.4516   11.4327    0.0000 H   0  0  0  0  0  0  0  0  0  0  0  0
   -4.2228   11.4327    0.0000 H   0  0  0  0  0  0  0  0  0  0  0  0
   -1.4516    8.2326    0.0000 C   0  0  0  0  0  0  0  0  0  0  0  0
   -2.8373    7.4326    0.0000 H   0  0  0  0  0  0  0  0  0  0  0  0
   -2.8373    5.8327    0.0000 O   0  0  0  0  0  0  0  0  0  0  0  0
   -4.2228    5.0327    0.0000 C   0  0  0  0  0  0  0  0  0  0  0  0
   -5.6085    5.8327    0.0000 C   0  0  0  0  0  0  0  0  0  0  0  0
   -5.6085    7.4326    0.0000 H   0  0  0  0  0  0  0  0  0  0  0  0
   -6.9943    5.0327    0.0000 C   0  0  0  0  0  0  0  0  0  0  0  0
   -8.3798    5.8327    0.0000 C   0  0  0  0  0  0  0  0  0  0  0  0
   -9.7655    6.6326    0.0000 H   0  0  0  0  0  0  0  0  0  0  0  0
   -8.3798    7.4326    0.0000 H   0  0  0  0  0  0  0  0  0  0  0  0
   -9.7655    5.0327    0.0000 H   0  0  0  0  0  0  0  0  0  0  0  0
   -6.9943    3.4327    0.0000 C   0  0  0  0  0  0  0  0  0  0  0  0
   -8.3798    2.6328    0.0000 H   0  0  0  0  0  0  0  0  0  0  0  0
   -5.6085    2.6328    0.0000 C   0  0  0  0  0  0  0  0  0  0  0  0
   -5.6085    1.0326    0.0000 C   0  0  0  0  0  0  0  0  0  0  0  0
   -5.6085   -0.5674    0.0000 H   0  0  0  0  0  0  0  0  0  0  0  0
   -4.2228    0.2326    0.0000 H   0  0  0  0  0  0  0  0  0  0  0  0
   -6.9943    0.2326    0.0000 H   0  0  0  0  0  0  0  0  0  0  0  0
   -4.2228    3.4327    0.0000 C   0  0  0  0  0  0  0  0  0  0  0  0
   -2.8373    2.6328    0.0000 H   0  0  0  0  0  0  0  0  0  0  0  0
   -0.5471    1.5036    0.0000 C   0  0  0  0  0  0  0  0  0  0  0  0
   -2.1230    1.7814    0.0000 H   0  0  0  0  0  0  0  0  0  0  0  0
  1  2  1  0  0  0  0
  1  3  1  0  0  0  0
  1  4  1  0  0  0  0
  1  5  1  0  0  0  0
  5  6  1  0  0  0  0
  6  7  1  0  0  0  0
  6  8  2  0  0  0  0
  8  9  1  0  0  0  0
  9 10  1  0  0  0  0
  9 11  1  0  0  0  0
  9 12  1  0  0  0  0
  8 13  1  0  0  0  0
 13 14  1  0  0  0  0
 13 15  2  0  0  0  0
 15 16  1  0  0  0  0
 16 17  1  0  0  0  0
 17 18  2  0  0  0  0
 17 19  1  0  0  0  0
 19 20  1  0  0  0  0
 20 21  1  0  0  0  0
 21 22  1  0  0  0  0
 21 23  2  0  0  0  0
 23 24  1  0  0  0  0
 24 25  1  0  0  0  0
 24 26  1  0  0  0  0
 24 27  1  0  0  0  0
 23 28  1  0  0  0  0
 28 29  1  0  0  0  0
 28 30  2  0  0  0  0
 30 31  1  0  0  0  0
 31 32  1  0  0  0  0
 31 33  1  0  0  0  0
 31 34  1  0  0  0  0
 30 35  1  0  0  0  0
 35 20  2  0  0  0  0
 35 36  1  0  0  0  0
 17 37  1  0  0  0  0
 37 38  1  0  0  0  0
 38 39  1  0  0  0  0
 39 40  1  0  0  0  0
 39 41  2  0  0  0  0
 41 42  1  0  0  0  0
 42 43  1  0  0  0  0
 42 44  1  0  0  0  0
 42 45  1  0  0  0  0
 41 46  1  0  0  0  0
 46 47  1  0  0  0  0
 46 48  2  0  0  0  0
 48 49  1  0  0  0  0
 49 50  1  0  0  0  0
 49 51  1  0  0  0  0
 49 52  1  0  0  0  0
 48 53  1  0  0  0  0
 53 38  2  0  0  0  0
 53 54  1  0  0  0  0
 15 55  1  0  0  0  0
 55  5  2  0  0  0  0
 55 56  1  0  0  0  0
M  END
> <ChemID>
201855

> <source_casrn>
25155-23-1

> <CAS>
25653-16-1

> <SMILES>
Cc1cc(C)cc(O[P](=O)(Oc2cc(C)cc(C)c2)Oc3cc(C)cc(C)c3)c1

> <NAME>


> <preferred_name>


> <iupac>


> <MPID>
101486

> <dsstox_substance_id>
DTXSID10274134

> <Canonical_QSARr>
Cc1cc(C)cc(c1)OP(=O)(Oc1cc(C)cc(C)c1)Oc1cc(C)cc(C)c1

> <InChI_Code_QSARr>
InChI=1S/C24H27O4P/c1-16-7-17(2)11-22(10-16)26-29(25,27-23-12-18(3)8-19(4)13-23)28-24-14-20(5)9-21(6)15-24/h7-15H,1-6H3

> <InChI Key_QSARr>
LLPMAOBOEQFPRE-UHFFFAOYSA-N

> <Salt_Solvent>


> <Ready_Biodeg>
0.0

$$$$
201859
  -INDIGO-08031722522D

 22 22  0  0  0  0  0  0  0  0999 V2000
    0.7999    1.3856    0.0000 C   0  0  0  0  0  0  0  0  0  0  0  0
    1.6001    2.7713    0.0000 H   0  0  0  0  0  0  0  0  0  0  0  0
   -0.0001    2.7713    0.0000 H   0  0  0  0  0  0  0  0  0  0  0  0
    2.4001    1.3856    0.0000 H   0  0  0  0  0  0  0  0  0  0  0  0
   -0.0001    0.0000    0.0000 C   0  0  0  0  0  0  0  0  0  0  0  0
   -1.6000    0.0000    0.0000 C   0  0  0  0  0  0  0  0  0  0  0  0
   -2.4000    1.3856    0.0000 H   0  0  0  0  0  0  0  0  0  0  0  0
   -2.4000   -1.3856    0.0000 C   0  0  0  0  0  0  0  0  0  0  0  0
   -4.0000   -1.3856    0.0000 Cl  0  0  0  0  0  0  0  0  0  0  0  0
   -1.6000   -2.7713    0.0000 C   0  0  0  0  0  0  0  0  0  0  0  0
   -2.4000   -4.1569    0.0000 H   0  0  0  0  0  0  0  0  0  0  0  0
   -0.0001   -2.7713    0.0000 C   0  0  0  0  0  0  0  0  0  0  0  0
    0.7999   -4.1569    0.0000 H   0  0  0  0  0  0  0  0  0  0  0  0
    0.7999   -1.3856    0.0000 C   0  0  0  0  0  0  0  0  0  0  0  0
    2.4001   -1.3856    0.0000 O   0  0  0  0  0  0  0  0  0  0  0  0
    3.2001   -2.7713    0.0000 C   0  0  0  0  0  0  0  0  0  0  0  0
    2.9912   -4.3576    0.0000 H   0  0  0  0  0  0  0  0  0  0  0  0
    1.9306   -3.7453    0.0000 H   0  0  0  0  0  0  0  0  0  0  0  0
    4.8000   -2.7713    0.0000 C   0  0  0  0  0  0  0  0  0  0  0  0
    5.6000   -4.1569    0.0000 O   0  0  0  0  0  0  0  0  0  0  0  0
    7.2000   -4.1569    0.0000 H   0  0  0  0  0  0  0  0  0  0  0  0
    5.6000   -1.3856    0.0000 O   0  0  0  0  0  0  0  0  0  0  0  0
  1  2  1  0  0  0  0
  1  3  1  0  0  0  0
  1  4  1  0  0  0  0
  1  5  1  0  0  0  0
  5  6  1  0  0  0  0
  6  7  1  0  0  0  0
  6  8  2  0  0  0  0
  8  9  1  0  0  0  0
  8 10  1  0  0  0  0
 10 11  1  0  0  0  0
 10 12  2  0  0  0  0
 12 13  1  0  0  0  0
 12 14  1  0  0  0  0
 14  5  2  0  0  0  0
 14 15  1  0  0  0  0
 15 16  1  0  0  0  0
 16 17  1  0  0  0  0
 16 18  1  0  0  0  0
 16 19  1  0  0  0  0
 19 20  1  0  0  0  0
 20 21  1  0  0  0  0
 19 22  2  0  0  0  0
M  END
> <ChemID>
201859

> <source_casrn>
94-74-6

> <CAS>
94-74-6

> <SMILES>
Cc1cc(Cl)ccc1OCC(O)=O

> <NAME>


> <preferred_name>
MCPA

> <iupac>
(4-chloro-2-methylphenoxy)acetic acid

> <MPID>
101488

> <dsstox_substance_id>
DTXSID4024195

> <Canonical_QSARr>
Cc1cc(Cl)ccc1OCC(O)=O

> <InChI_Code_QSARr>
InChI=1S/C9H9ClO3/c1-6-4-7(10)2-3-8(6)13-5-9(11)12/h2-4H,5H2,1H3,(H,11,12)

> <InChI Key_QSARr>
WHKUVVPPKQRRBV-UHFFFAOYSA-N

> <Salt_Solvent>


> <Ready_Biodeg>
0.0

$$$$
201864
  -INDIGO-08031722522D

 19 19  0  0  0  0  0  0  0  0999 V2000
    4.1570   -2.4000    0.0000 C   0  0  0  0  0  0  0  0  0  0  0  0
    5.5426   -3.2000    0.0000 H   0  0  0  0  0  0  0  0  0  0  0  0
    5.5426   -1.6000    0.0000 H   0  0  0  0  0  0  0  0  0  0  0  0
    4.1570   -4.0000    0.0000 H   0  0  0  0  0  0  0  0  0  0  0  0
    2.7713   -1.6000    0.0000 C   0  0  0  0  0  0  0  0  0  0  0  0
    2.7713   -0.0000    0.0000 C   0  0  0  0  0  0  0  0  0  0  0  0
    4.1570    0.8000    0.0000 H   0  0  0  0  0  0  0  0  0  0  0  0
    1.3857    0.8000    0.0000 C   0  0  0  0  0  0  0  0  0  0  0  0
    1.3857    2.4000    0.0000 H   0  0  0  0  0  0  0  0  0  0  0  0
    0.0000   -0.0000    0.0000 C   0  0  0  0  0  0  0  0  0  0  0  0
   -1.3856    0.8000    0.0000 C   0  0  0  0  0  0  0  0  0  0  0  0
   -2.7713    1.6000    0.0000 H   0  0  0  0  0  0  0  0  0  0  0  0
   -1.3856    2.4000    0.0000 H   0  0  0  0  0  0  0  0  0  0  0  0
   -2.7713   -0.0000    0.0000 H   0  0  0  0  0  0  0  0  0  0  0  0
    0.0000   -1.6000    0.0000 C   0  0  0  0  0  0  0  0  0  0  0  0
   -1.3856   -2.4000    0.0000 O   0  0  0  0  0  0  0  0  0  0  0  0
   -1.3856   -4.0000    0.0000 H   0  0  0  0  0  0  0  0  0  0  0  0
    1.3857   -2.4000    0.0000 C   0  0  0  0  0  0  0  0  0  0  0  0
    1.3857   -4.0000    0.0000 H   0  0  0  0  0  0  0  0  0  0  0  0
  1  2  1  0  0  0  0
  1  3  1  0  0  0  0
  1  4  1  0  0  0  0
  1  5  1  0  0  0  0
  5  6  1  0  0  0  0
  6  7  1  0  0  0  0
  6  8  2  0  0  0  0
  8  9  1  0  0  0  0
  8 10  1  0  0  0  0
 10 11  1  0  0  0  0
 11 12  1  0  0  0  0
 11 13  1  0  0  0  0
 11 14  1  0  0  0  0
 10 15  2  0  0  0  0
 15 16  1  0  0  0  0
 16 17  1  0  0  0  0
 15 18  1  0  0  0  0
 18  5  2  0  0  0  0
 18 19  1  0  0  0  0
M  END
> <ChemID>
201864

> <source_casrn>
95-87-4

> <CAS>
95-87-4

> <SMILES>
Cc1ccc(C)c(O)c1

> <NAME>


> <preferred_name>
2,5-Dimethylphenol

> <iupac>
2,5-dimethylphenol

> <MPID>
101489

> <dsstox_substance_id>
DTXSID6025145

> <Canonical_QSARr>
Cc1cc(O)c(C)cc1

> <InChI_Code_QSARr>
InChI=1S/C8H10O/c1-6-3-4-7(2)8(9)5-6/h3-5,9H,1-2H3

> <InChI Key_QSARr>
NKTOLZVEWDHZMU-UHFFFAOYSA-N

> <Salt_Solvent>


> <Ready_Biodeg>
0.0

$$$$
201866
  -INDIGO-08031722522D

 20 20  0  0  0  0  0  0  0  0999 V2000
    3.2001    2.7713    0.0000 C   0  0  0  0  0  0  0  0  0  0  0  0
    4.8000    2.7713    0.0000 H   0  0  0  0  0  0  0  0  0  0  0  0
    4.0000    4.1569    0.0000 H   0  0  0  0  0  0  0  0  0  0  0  0
    4.0000    1.3856    0.0000 H   0  0  0  0  0  0  0  0  0  0  0  0
    2.4000    1.3856    0.0000 S   0  0  0  0  0  0  0  0  0  0  0  0
    0.8000    1.3856    0.0000 C   0  0  0  0  0  0  0  0  0  0  0  0
    0.0001    2.7713    0.0000 C   0  0  0  0  0  0  0  0  0  0  0  0
    0.8000    4.1569    0.0000 H   0  0  0  0  0  0  0  0  0  0  0  0
   -1.6000    2.7713    0.0000 C   0  0  0  0  0  0  0  0  0  0  0  0
   -2.4000    4.1569    0.0000 H   0  0  0  0  0  0  0  0  0  0  0  0
   -2.4000    1.3856    0.0000 C   0  0  0  0  0  0  0  0  0  0  0  0
   -4.0000    1.3856    0.0000 O   0  0  0  0  0  0  0  0  0  0  0  0
   -4.8000    2.7713    0.0000 H   0  0  0  0  0  0  0  0  0  0  0  0
   -1.6000    0.0000    0.0000 C   0  0  0  0  0  0  0  0  0  0  0  0
   -2.4000   -1.3856    0.0000 H   0  0  0  0  0  0  0  0  0  0  0  0
    0.0001    0.0000    0.0000 C   0  0  0  0  0  0  0  0  0  0  0  0
    0.8000   -1.3856    0.0000 C   0  0  0  0  0  0  0  0  0  0  0  0
    1.6000   -2.7713    0.0000 H   0  0  0  0  0  0  0  0  0  0  0  0
    0.0001   -2.7713    0.0000 H   0  0  0  0  0  0  0  0  0  0  0  0
    2.4000   -1.3856    0.0000 H   0  0  0  0  0  0  0  0  0  0  0  0
  1  2  1  0  0  0  0
  1  3  1  0  0  0  0
  1  4  1  0  0  0  0
  1  5  1  0  0  0  0
  5  6  1  0  0  0  0
  6  7  1  0  0  0  0
  7  8  1  0  0  0  0
  7  9  2  0  0  0  0
  9 10  1  0  0  0  0
  9 11  1  0  0  0  0
 11 12  1  0  0  0  0
 12 13  1  0  0  0  0
 11 14  2  0  0  0  0
 14 15  1  0  0  0  0
 14 16  1  0  0  0  0
 16  6  2  0  0  0  0
 16 17  1  0  0  0  0
 17 18  1  0  0  0  0
 17 19  1  0  0  0  0
 17 20  1  0  0  0  0
M  END
> <ChemID>
201866

> <source_casrn>
3120-74-9

> <CAS>
3120-74-9

> <SMILES>
CSc1ccc(O)cc1C

> <NAME>


> <preferred_name>
3-Methyl-4-(methylthio)phenol

> <iupac>
3-methyl-4-(methylsulfanyl)phenol

> <MPID>
101490

> <dsstox_substance_id>
DTXSID0051996

> <Canonical_QSARr>
Cc1cc(O)ccc1SC

> <InChI_Code_QSARr>
InChI=1S/C8H10OS/c1-6-5-7(9)3-4-8(6)10-2/h3-5,9H,1-2H3

> <InChI Key_QSARr>
VKALYYFVKBXHTF-UHFFFAOYSA-N

> <Salt_Solvent>


> <Ready_Biodeg>
0.0

$$$$
201870
  -INDIGO-08031722522D

 31 31  0  0  0  0  0  0  0  0999 V2000
    4.7999    2.7713    0.0000 C   0  0  0  0  0  0  0  0  0  0  0  0
    5.6000    4.1569    0.0000 H   0  0  0  0  0  0  0  0  0  0  0  0
    6.4000    2.7713    0.0000 H   0  0  0  0  0  0  0  0  0  0  0  0
    4.0000    4.1569    0.0000 H   0  0  0  0  0  0  0  0  0  0  0  0
    4.0000    1.3856    0.0000 C   0  0  0  0  0  0  0  0  0  0  0  0
    4.8001   -0.0001    0.0000 C   0  0  0  0  0  0  0  0  0  0  0  0
    6.4000   -0.0001    0.0000 H   0  0  0  0  0  0  0  0  0  0  0  0
    4.0000   -1.3856    0.0000 C   0  0  0  0  0  0  0  0  0  0  0  0
    4.8001   -2.7712    0.0000 C   0  0  0  0  0  0  0  0  0  0  0  0
    5.6000   -4.1569    0.0000 H   0  0  0  0  0  0  0  0  0  0  0  0
    6.4000   -2.7712    0.0000 H   0  0  0  0  0  0  0  0  0  0  0  0
    4.0000   -4.1569    0.0000 H   0  0  0  0  0  0  0  0  0  0  0  0
    2.4000   -1.3856    0.0000 C   0  0  0  0  0  0  0  0  0  0  0  0
    1.5999   -2.7712    0.0000 O   0  0  0  0  0  0  0  0  0  0  0  0
    2.4000   -4.1569    0.0000 H   0  0  0  0  0  0  0  0  0  0  0  0
    1.5999    0.0001    0.0000 C   0  0  0  0  0  0  0  0  0  0  0  0
    0.0000    0.0001    0.0000 C   0  0  0  0  0  0  0  0  0  0  0  0
   -1.6001    0.0001    0.0000 C   0  0  0  0  0  0  0  0  0  0  0  0
   -3.2000    0.0001    0.0000 H   0  0  0  0  0  0  0  0  0  0  0  0
   -2.6284    1.2257    0.0000 H   0  0  0  0  0  0  0  0  0  0  0  0
   -2.6284   -1.2257    0.0000 H   0  0  0  0  0  0  0  0  0  0  0  0
    0.0000    1.6000    0.0000 C   0  0  0  0  0  0  0  0  0  0  0  0
    0.2779    3.1757    0.0000 H   0  0  0  0  0  0  0  0  0  0  0  0
   -1.2257    2.6285    0.0000 H   0  0  0  0  0  0  0  0  0  0  0  0
   -1.5035    1.0528    0.0000 H   0  0  0  0  0  0  0  0  0  0  0  0
    0.0000   -1.6000    0.0000 C   0  0  0  0  0  0  0  0  0  0  0  0
    0.2779   -3.1757    0.0000 H   0  0  0  0  0  0  0  0  0  0  0  0
   -1.2257   -2.6285    0.0000 H   0  0  0  0  0  0  0  0  0  0  0  0
   -1.5035   -1.0528    0.0000 H   0  0  0  0  0  0  0  0  0  0  0  0
    2.4000    1.3856    0.0000 C   0  0  0  0  0  0  0  0  0  0  0  0
    1.5999    2.7713    0.0000 H   0  0  0  0  0  0  0  0  0  0  0  0
  1  2  1  0  0  0  0
  1  3  1  0  0  0  0
  1  4  1  0  0  0  0
  1  5  1  0  0  0  0
  5  6  1  0  0  0  0
  6  7  1  0  0  0  0
  6  8  2  0  0  0  0
  8  9  1  0  0  0  0
  9 10  1  0  0  0  0
  9 11  1  0  0  0  0
  9 12  1  0  0  0  0
  8 13  1  0  0  0  0
 13 14  1  0  0  0  0
 14 15  1  0  0  0  0
 13 16  2  0  0  0  0
 16 17  1  0  0  0  0
 17 18  1  0  0  0  0
 18 19  1  0  0  0  0
 18 20  1  0  0  0  0
 18 21  1  0  0  0  0
 17 22  1  0  0  0  0
 22 23  1  0  0  0  0
 22 24  1  0  0  0  0
 22 25  1  0  0  0  0
 17 26  1  0  0  0  0
 26 27  1  0  0  0  0
 26 28  1  0  0  0  0
 26 29  1  0  0  0  0
 16 30  1  0  0  0  0
 30  5  2  0  0  0  0
 30 31  1  0  0  0  0
M  END
> <ChemID>
201870

> <source_casrn>
1879-09-0

> <CAS>
1879-09-0

> <SMILES>
Cc1cc(C)c(O)c(c1)C(C)(C)C

> <NAME>


> <preferred_name>
6-tert-Butyl-2,4-dimethylphenol

> <iupac>
2-tert-butyl-4,6-dimethylphenol

> <MPID>
101491

> <dsstox_substance_id>
DTXSID6041551

> <Canonical_QSARr>
Cc1cc(c(O)c(C)c1)C(C)(C)C

> <InChI_Code_QSARr>
InChI=1S/C12H18O/c1-8-6-9(2)11(13)10(7-8)12(3,4)5/h6-7,13H,1-5H3

> <InChI Key_QSARr>
OPLCSTZDXXUYDU-UHFFFAOYSA-N

> <Salt_Solvent>


> <Ready_Biodeg>
0.0

$$$$
201871
  -INDIGO-08031722522D

 40 42  0  0  0  0  0  0  0  0999 V2000
    0.0000    5.5425    0.0000 C   0  0  0  0  0  0  0  0  0  0  0  0
    0.8000    6.9282    0.0000 H   0  0  0  0  0  0  0  0  0  0  0  0
    1.5999    5.5425    0.0000 H   0  0  0  0  0  0  0  0  0  0  0  0
   -0.8000    6.9282    0.0000 H   0  0  0  0  0  0  0  0  0  0  0  0
   -0.8000    4.1570    0.0000 C   0  0  0  0  0  0  0  0  0  0  0  0
   -2.4001    4.1570    0.0000 C   0  0  0  0  0  0  0  0  0  0  0  0
   -3.2001    5.5425    0.0000 H   0  0  0  0  0  0  0  0  0  0  0  0
   -3.2001    2.7713    0.0000 C   0  0  0  0  0  0  0  0  0  0  0  0
   -4.8000    2.7713    0.0000 N   0  0  0  0  0  0  0  0  0  0  0  0
   -5.7405    1.4769    0.0000 N   0  0  0  0  0  0  0  0  0  0  0  0
   -7.2621    1.9712    0.0000 C   0  0  0  0  0  0  0  0  0  0  0  0
   -8.6478    1.1713    0.0000 C   0  0  0  0  0  0  0  0  0  0  0  0
   -8.6478   -0.4288    0.0000 H   0  0  0  0  0  0  0  0  0  0  0  0
  -10.0333    1.9712    0.0000 C   0  0  0  0  0  0  0  0  0  0  0  0
  -11.4191    1.1713    0.0000 H   0  0  0  0  0  0  0  0  0  0  0  0
  -10.0333    3.5713    0.0000 C   0  0  0  0  0  0  0  0  0  0  0  0
  -11.4191    4.3712    0.0000 Cl  0  0  0  0  0  0  0  0  0  0  0  0
   -8.6478    4.3712    0.0000 C   0  0  0  0  0  0  0  0  0  0  0  0
   -8.6478    5.9713    0.0000 H   0  0  0  0  0  0  0  0  0  0  0  0
   -7.2621    3.5713    0.0000 C   0  0  0  0  0  0  0  0  0  0  0  0
   -5.7405    4.0658    0.0000 N   0  0  0  0  0  0  0  0  0  0  0  0
   -2.4001    1.3856    0.0000 C   0  0  0  0  0  0  0  0  0  0  0  0
   -3.2001   -0.0000    0.0000 O   0  0  0  0  0  0  0  0  0  0  0  0
   -4.8000   -0.0000    0.0000 H   0  0  0  0  0  0  0  0  0  0  0  0
   -0.8000    1.3856    0.0000 C   0  0  0  0  0  0  0  0  0  0  0  0
    0.0000   -0.0000    0.0000 C   0  0  0  0  0  0  0  0  0  0  0  0
    0.8000   -1.3856    0.0000 C   0  0  0  0  0  0  0  0  0  0  0  0
    1.5999   -2.7713    0.0000 H   0  0  0  0  0  0  0  0  0  0  0  0
    2.3756   -1.6635    0.0000 H   0  0  0  0  0  0  0  0  0  0  0  0
    0.2528   -2.8891    0.0000 H   0  0  0  0  0  0  0  0  0  0  0  0
    1.3857    0.8001    0.0000 C   0  0  0  0  0  0  0  0  0  0  0  0
    2.6112    1.8285    0.0000 H   0  0  0  0  0  0  0  0  0  0  0  0
    2.8891    0.2528    0.0000 H   0  0  0  0  0  0  0  0  0  0  0  0
    1.6634   -0.7757    0.0000 H   0  0  0  0  0  0  0  0  0  0  0  0
   -1.3857   -0.8000    0.0000 C   0  0  0  0  0  0  0  0  0  0  0  0
   -2.8892   -1.3472    0.0000 H   0  0  0  0  0  0  0  0  0  0  0  0
   -1.6635   -2.3756    0.0000 H   0  0  0  0  0  0  0  0  0  0  0  0
   -0.1600   -1.8284    0.0000 H   0  0  0  0  0  0  0  0  0  0  0  0
    0.0000    2.7713    0.0000 C   0  0  0  0  0  0  0  0  0  0  0  0
    1.5999    2.7713    0.0000 H   0  0  0  0  0  0  0  0  0  0  0  0
  1  2  1  0  0  0  0
  1  3  1  0  0  0  0
  1  4  1  0  0  0  0
  1  5  1  0  0  0  0
  5  6  1  0  0  0  0
  6  7  1  0  0  0  0
  6  8  2  0  0  0  0
  8  9  1  0  0  0  0
  9 10  1  0  0  0  0
 10 11  2  0  0  0  0
 11 12  1  0  0  0  0
 12 13  1  0  0  0  0
 12 14  2  0  0  0  0
 14 15  1  0  0  0  0
 14 16  1  0  0  0  0
 16 17  1  0  0  0  0
 16 18  2  0  0  0  0
 18 19  1  0  0  0  0
 18 20  1  0  0  0  0
 20 11  1  0  0  0  0
 20 21  2  0  0  0  0
 21  9  1  0  0  0  0
  8 22  1  0  0  0  0
 22 23  1  0  0  0  0
 23 24  1  0  0  0  0
 22 25  2  0  0  0  0
 25 26  1  0  0  0  0
 26 27  1  0  0  0  0
 27 28  1  0  0  0  0
 27 29  1  0  0  0  0
 27 30  1  0  0  0  0
 26 31  1  0  0  0  0
 31 32  1  0  0  0  0
 31 33  1  0  0  0  0
 31 34  1  0  0  0  0
 26 35  1  0  0  0  0
 35 36  1  0  0  0  0
 35 37  1  0  0  0  0
 35 38  1  0  0  0  0
 25 39  1  0  0  0  0
 39  5  2  0  0  0  0
 39 40  1  0  0  0  0
M  END
> <ChemID>
201871

> <source_casrn>
3896-11-5

> <CAS>
3896-11-5

> <SMILES>
Cc1cc(n2nc3ccc(Cl)cc3n2)c(O)c(c1)C(C)(C)C

> <NAME>


> <preferred_name>
Bumetrizole

> <iupac>
2-tert-butyl-6-(5-chloro-2H-benzotriazol-2-yl)-4-methylphenol

> <MPID>
101492

> <dsstox_substance_id>
DTXSID9036438

> <Canonical_QSARr>
Cc1cc(c(O)c(c1)-[n]1[n]c2cc(Cl)ccc2[n]1)C(C)(C)C

> <InChI_Code_QSARr>
InChI=1S/C17H18ClN3O/c1-10-7-12(17(2,3)4)16(22)15(8-10)21-19-13-6-5-11(18)9-14(13)20-21/h5-9,22H,1-4H3

> <InChI Key_QSARr>
OCWYEMOEOGEQAN-UHFFFAOYSA-N

> <Salt_Solvent>


> <Ready_Biodeg>
0.0

$$$$
201872
  -INDIGO-08031722522D

 28 31  0  0  0  0  0  0  0  0999 V2000
    6.1856   -3.5712    0.0000 C   0  0  0  0  0  0  0  0  0  0  0  0
    6.9857   -4.9569    0.0000 H   0  0  0  0  0  0  0  0  0  0  0  0
    7.7856   -3.5712    0.0000 H   0  0  0  0  0  0  0  0  0  0  0  0
    5.3857   -4.9569    0.0000 H   0  0  0  0  0  0  0  0  0  0  0  0
    5.3857   -2.1856    0.0000 C   0  0  0  0  0  0  0  0  0  0  0  0
    6.1856   -0.7999    0.0000 C   0  0  0  0  0  0  0  0  0  0  0  0
    7.7856   -0.7999    0.0000 H   0  0  0  0  0  0  0  0  0  0  0  0
    5.3857    0.5856    0.0000 C   0  0  0  0  0  0  0  0  0  0  0  0
    6.1856    1.9713    0.0000 H   0  0  0  0  0  0  0  0  0  0  0  0
    3.7856    0.5856    0.0000 C   0  0  0  0  0  0  0  0  0  0  0  0
    2.9857    1.9713    0.0000 O   0  0  0  0  0  0  0  0  0  0  0  0
    3.7856    3.3569    0.0000 H   0  0  0  0  0  0  0  0  0  0  0  0
    2.9857   -0.8001    0.0000 C   0  0  0  0  0  0  0  0  0  0  0  0
    1.3856   -0.8001    0.0000 N   0  0  0  0  0  0  0  0  0  0  0  0
    0.0000   -1.6000    0.0000 N   0  0  0  0  0  0  0  0  0  0  0  0
    0.0000    0.0001    0.0000 N   0  0  0  0  0  0  0  0  0  0  0  0
   -1.6000    0.0001    0.0000 C   0  0  0  0  0  0  0  0  0  0  0  0
   -2.9856    0.8000    0.0000 C   0  0  0  0  0  0  0  0  0  0  0  0
   -2.9856    2.4000    0.0000 H   0  0  0  0  0  0  0  0  0  0  0  0
   -4.3714    0.0001    0.0000 C   0  0  0  0  0  0  0  0  0  0  0  0
   -5.7569    0.8000    0.0000 H   0  0  0  0  0  0  0  0  0  0  0  0
   -4.3714   -1.6000    0.0000 C   0  0  0  0  0  0  0  0  0  0  0  0
   -5.7569   -2.4000    0.0000 H   0  0  0  0  0  0  0  0  0  0  0  0
   -2.9856   -2.4000    0.0000 C   0  0  0  0  0  0  0  0  0  0  0  0
   -2.9856   -4.0000    0.0000 H   0  0  0  0  0  0  0  0  0  0  0  0
   -1.6000   -1.6000    0.0000 C   0  0  0  0  0  0  0  0  0  0  0  0
    3.7856   -2.1856    0.0000 C   0  0  0  0  0  0  0  0  0  0  0  0
    2.9857   -3.5713    0.0000 H   0  0  0  0  0  0  0  0  0  0  0  0
  1  2  1  0  0  0  0
  1  3  1  0  0  0  0
  1  4  1  0  0  0  0
  1  5  1  0  0  0  0
  5  6  1  0  0  0  0
  6  7  1  0  0  0  0
  6  8  2  0  0  0  0
  8  9  1  0  0  0  0
  8 10  1  0  0  0  0
 10 11  1  0  0  0  0
 11 12  1  0  0  0  0
 10 13  2  0  0  0  0
 13 14  1  0  0  0  0
 14 15  1  0  0  0  0
 15 16  1  0  0  0  0
 16 14  1  0  0  0  0
 16 17  1  0  0  0  0
 17 18  1  0  0  0  0
 18 19  1  0  0  0  0
 18 20  2  0  0  0  0
 20 21  1  0  0  0  0
 20 22  1  0  0  0  0
 22 23  1  0  0  0  0
 22 24  2  0  0  0  0
 24 25  1  0  0  0  0
 24 26  1  0  0  0  0
 26 17  2  0  0  0  0
 26 15  1  0  0  0  0
 13 27  1  0  0  0  0
 27  5  2  0  0  0  0
 27 28  1  0  0  0  0
M  END
> <ChemID>
201872

> <source_casrn>
2440-22-4

> <CAS>
2440-22-4

> <SMILES>
Cc1ccc(O)c(c1)n2n3n2c4ccccc34

> <NAME>


> <preferred_name>
2-(2H-Benzotriazol-2-yl)-4-methylphenol

> <iupac>
2-(2H-benzotriazol-2-yl)-4-methylphenol

> <MPID>
101493

> <dsstox_substance_id>
DTXSID1027479

> <Canonical_QSARr>
Cc1cc(c(O)cc1)-[n]1[n]2c3ccccc3[n]21

> <InChI_Code_QSARr>
InChI=1S/C13H11N3O/c1-9-6-7-13(17)12(8-9)16-14-10-4-2-3-5-11(10)15(14)16/h2-8,17H,1H3

> <InChI Key_QSARr>
YXJVVCASIQTSCQ-UHFFFAOYSA-N

> <Salt_Solvent>


> <Ready_Biodeg>
0.0

$$$$
201874
  -INDIGO-08031722522D

 36 38  0  0  0  0  0  0  0  0999 V2000
    9.6994    2.4001    0.0000 C   0  0  0  0  0  0  0  0  0  0  0  0
   11.0851    3.2000    0.0000 H   0  0  0  0  0  0  0  0  0  0  0  0
   11.0851    1.6000    0.0000 H   0  0  0  0  0  0  0  0  0  0  0  0
    9.6994    4.0000    0.0000 H   0  0  0  0  0  0  0  0  0  0  0  0
    8.3139    1.6000    0.0000 C   0  0  0  0  0  0  0  0  0  0  0  0
    8.3139   -0.0000    0.0000 C   0  0  0  0  0  0  0  0  0  0  0  0
    9.6994   -0.8000    0.0000 H   0  0  0  0  0  0  0  0  0  0  0  0
    6.9282   -0.8000    0.0000 C   0  0  0  0  0  0  0  0  0  0  0  0
    6.9282   -2.4000    0.0000 H   0  0  0  0  0  0  0  0  0  0  0  0
    5.5425   -0.0000    0.0000 C   0  0  0  0  0  0  0  0  0  0  0  0
    4.1568   -0.8000    0.0000 N   0  0  0  0  0  0  0  0  0  0  0  0
    2.7714   -0.0000    0.0000 N   0  0  0  0  0  0  0  0  0  0  0  0
    1.3857   -0.8000    0.0000 C   0  0  0  0  0  0  0  0  0  0  0  0
    1.3857   -2.4000    0.0000 C   0  0  0  0  0  0  0  0  0  0  0  0
    2.7714   -3.2001    0.0000 O   0  0  0  0  0  0  0  0  0  0  0  0
    2.7714   -4.8000    0.0000 H   0  0  0  0  0  0  0  0  0  0  0  0
   -0.0000   -3.2001    0.0000 C   0  0  0  0  0  0  0  0  0  0  0  0
   -0.0000   -4.8000    0.0000 H   0  0  0  0  0  0  0  0  0  0  0  0
   -1.3857   -2.4000    0.0000 C   0  0  0  0  0  0  0  0  0  0  0  0
   -2.7712   -3.2001    0.0000 H   0  0  0  0  0  0  0  0  0  0  0  0
   -1.3857   -0.8000    0.0000 C   0  0  0  0  0  0  0  0  0  0  0  0
   -2.7712   -0.0000    0.0000 C   0  0  0  0  0  0  0  0  0  0  0  0
   -4.1569   -0.8000    0.0000 H   0  0  0  0  0  0  0  0  0  0  0  0
   -2.7712    1.6000    0.0000 C   0  0  0  0  0  0  0  0  0  0  0  0
   -4.1569    2.4001    0.0000 H   0  0  0  0  0  0  0  0  0  0  0  0
   -1.3857    2.4001    0.0000 C   0  0  0  0  0  0  0  0  0  0  0  0
   -1.3857    4.0000    0.0000 H   0  0  0  0  0  0  0  0  0  0  0  0
   -0.0000    1.6000    0.0000 C   0  0  0  0  0  0  0  0  0  0  0  0
    1.3857    2.4001    0.0000 H   0  0  0  0  0  0  0  0  0  0  0  0
   -0.0000   -0.0000    0.0000 C   0  0  0  0  0  0  0  0  0  0  0  0
    5.5425    1.6000    0.0000 C   0  0  0  0  0  0  0  0  0  0  0  0
    4.1568    2.4001    0.0000 N   0  0  0  0  0  0  0  0  0  0  0  0
    4.1568    4.0000    0.0000 O   0  0  0  0  0  0  0  0  0  0  0  0
    2.7714    1.6000    0.0000 O   0  0  0  0  0  0  0  0  0  0  0  0
    6.9282    2.4001    0.0000 C   0  0  0  0  0  0  0  0  0  0  0  0
    6.9282    4.0000    0.0000 H   0  0  0  0  0  0  0  0  0  0  0  0
  1  2  1  0  0  0  0
  1  3  1  0  0  0  0
  1  4  1  0  0  0  0
  1  5  1  0  0  0  0
  5  6  1  0  0  0  0
  6  7  1  0  0  0  0
  6  8  2  0  0  0  0
  8  9  1  0  0  0  0
  8 10  1  0  0  0  0
 10 11  1  0  0  0  0
 11 12  2  0  0  0  0
 12 13  1  0  0  0  0
 13 14  2  0  0  0  0
 14 15  1  0  0  0  0
 15 16  1  0  0  0  0
 14 17  1  0  0  0  0
 17 18  1  0  0  0  0
 17 19  2  0  0  0  0
 19 20  1  0  0  0  0
 19 21  1  0  0  0  0
 21 22  1  0  0  0  0
 22 23  1  0  0  0  0
 22 24  2  0  0  0  0
 24 25  1  0  0  0  0
 24 26  1  0  0  0  0
 26 27  1  0  0  0  0
 26 28  2  0  0  0  0
 28 29  1  0  0  0  0
 28 30  1  0  0  0  0
 30 13  1  0  0  0  0
 30 21  2  0  0  0  0
 10 31  2  0  0  0  0
 31 32  1  0  0  0  0
 32 33  1  0  0  0  0
 32 34  2  0  0  0  0
 31 35  1  0  0  0  0
 35  5  2  0  0  0  0
 35 36  1  0  0  0  0
M  CHG  2  32   1  33  -1
M  END
> <ChemID>
201874

> <source_casrn>
2425-85-6

> <CAS>
2425-85-6

> <SMILES>
Cc1ccc(N=Nc2c(O)ccc3ccccc23)c(c1)[N+]([O-])=O

> <NAME>


> <preferred_name>
C.I. Pigment Red 3

> <iupac>
1-[(E)-(4-methyl-2-nitrophenyl)diazenyl]naphthalen-2-ol

> <MPID>
101494

> <dsstox_substance_id>
DTXSID8021226

> <Canonical_QSARr>
Cc1cc(c(cc1)N=Nc1c(O)ccc2ccccc21)[N+]([O-])=O

> <InChI_Code_QSARr>
InChI=1S/C17H13N3O3/c1-11-6-8-14(15(10-11)20(22)23)18-19-17-13-5-3-2-4-12(13)7-9-16(17)21/h2-10,21H,1H3/b19-18+

> <InChI Key_QSARr>
ZLFVRXUOSPRRKQ-VHEBQXMUSA-N

> <Salt_Solvent>


> <Ready_Biodeg>
0.0

$$$$
201876
  -INDIGO-08031722522D

 52 55  0  0  0  0  0  0  0  0999 V2000
   -4.1797    3.4413    0.0000 C   0  0  0  0  0  0  0  0  0  0  0  0
   -3.3799    4.8269    0.0000 H   0  0  0  0  0  0  0  0  0  0  0  0
   -2.5797    3.4413    0.0000 H   0  0  0  0  0  0  0  0  0  0  0  0
   -4.9799    4.8269    0.0000 H   0  0  0  0  0  0  0  0  0  0  0  0
   -4.9799    2.0557    0.0000 C   0  0  0  0  0  0  0  0  0  0  0  0
   -6.5800    2.0557    0.0000 C   0  0  0  0  0  0  0  0  0  0  0  0
   -7.3798    3.4413    0.0000 H   0  0  0  0  0  0  0  0  0  0  0  0
   -7.3798    0.6699    0.0000 C   0  0  0  0  0  0  0  0  0  0  0  0
   -8.9799    0.6701    0.0000 C   0  0  0  0  0  0  0  0  0  0  0  0
   -9.7797    2.0557    0.0000 C   0  0  0  0  0  0  0  0  0  0  0  0
   -8.9799    3.4413    0.0000 H   0  0  0  0  0  0  0  0  0  0  0  0
  -11.3798    2.0557    0.0000 C   0  0  0  0  0  0  0  0  0  0  0  0
  -11.9271    3.5591    0.0000 C   0  0  0  0  0  0  0  0  0  0  0  0
  -12.4742    5.0627    0.0000 H   0  0  0  0  0  0  0  0  0  0  0  0
  -13.5029    3.8370    0.0000 H   0  0  0  0  0  0  0  0  0  0  0  0
  -10.8987    4.7848    0.0000 H   0  0  0  0  0  0  0  0  0  0  0  0
  -12.1800    0.6701    0.0000 C   0  0  0  0  0  0  0  0  0  0  0  0
  -13.7554    0.3922    0.0000 O   0  0  0  0  0  0  0  0  0  0  0  0
  -14.7839    1.6178    0.0000 C   0  0  0  0  0  0  0  0  0  0  0  0
  -14.8537    3.2163    0.0000 H   0  0  0  0  0  0  0  0  0  0  0  0
  -13.7031    2.7975    0.0000 H   0  0  0  0  0  0  0  0  0  0  0  0
  -16.3597    1.3399    0.0000 C   0  0  0  0  0  0  0  0  0  0  0  0
  -16.9070    2.8435    0.0000 H   0  0  0  0  0  0  0  0  0  0  0  0
  -17.7454    0.5400    0.0000 C   0  0  0  0  0  0  0  0  0  0  0  0
  -18.7738    1.7657    0.0000 H   0  0  0  0  0  0  0  0  0  0  0  0
  -18.7738   -0.6856    0.0000 H   0  0  0  0  0  0  0  0  0  0  0  0
  -16.3597   -0.2600    0.0000 O   0  0  0  0  0  0  0  0  0  0  0  0
  -11.3798   -0.7157    0.0000 C   0  0  0  0  0  0  0  0  0  0  0  0
  -12.1800   -2.1013    0.0000 C   0  0  0  0  0  0  0  0  0  0  0  0
  -12.9798   -3.4870    0.0000 H   0  0  0  0  0  0  0  0  0  0  0  0
  -11.3798   -3.4870    0.0000 H   0  0  0  0  0  0  0  0  0  0  0  0
  -13.7800   -2.1013    0.0000 H   0  0  0  0  0  0  0  0  0  0  0  0
   -9.7797   -0.7157    0.0000 C   0  0  0  0  0  0  0  0  0  0  0  0
   -8.9799   -2.1013    0.0000 H   0  0  0  0  0  0  0  0  0  0  0  0
   -6.5800   -0.7157    0.0000 C   0  0  0  0  0  0  0  0  0  0  0  0
   -7.3798   -2.1013    0.0000 H   0  0  0  0  0  0  0  0  0  0  0  0
   -4.9799   -0.7157    0.0000 C   0  0  0  0  0  0  0  0  0  0  0  0
   -4.4326   -2.2191    0.0000 C   0  0  0  0  0  0  0  0  0  0  0  0
   -3.8855   -3.7227    0.0000 H   0  0  0  0  0  0  0  0  0  0  0  0
   -5.4610   -3.4448    0.0000 H   0  0  0  0  0  0  0  0  0  0  0  0
   -2.8568   -2.4970    0.0000 H   0  0  0  0  0  0  0  0  0  0  0  0
   -4.1797    0.6699    0.0000 C   0  0  0  0  0  0  0  0  0  0  0  0
   -2.6043    0.9478    0.0000 O   0  0  0  0  0  0  0  0  0  0  0  0
   -1.5758   -0.2778    0.0000 C   0  0  0  0  0  0  0  0  0  0  0  0
   -1.5060   -1.8763    0.0000 H   0  0  0  0  0  0  0  0  0  0  0  0
   -2.6566   -1.4575    0.0000 H   0  0  0  0  0  0  0  0  0  0  0  0
   -0.0000    0.0001    0.0000 C   0  0  0  0  0  0  0  0  0  0  0  0
    0.5473   -1.5035    0.0000 H   0  0  0  0  0  0  0  0  0  0  0  0
    1.3857    0.8000    0.0000 C   0  0  0  0  0  0  0  0  0  0  0  0
    2.4141   -0.4257    0.0000 H   0  0  0  0  0  0  0  0  0  0  0  0
    2.4141    2.0256    0.0000 H   0  0  0  0  0  0  0  0  0  0  0  0
   -0.0000    1.6000    0.0000 O   0  0  0  0  0  0  0  0  0  0  0  0
  1  2  1  0  0  0  0
  1  3  1  0  0  0  0
  1  4  1  0  0  0  0
  1  5  1  0  0  0  0
  5  6  1  0  0  0  0
  6  7  1  0  0  0  0
  6  8  2  0  0  0  0
  8  9  1  0  0  0  0
  9 10  1  0  0  0  0
 10 11  1  0  0  0  0
 10 12  2  0  0  0  0
 12 13  1  0  0  0  0
 13 14  1  0  0  0  0
 13 15  1  0  0  0  0
 13 16  1  0  0  0  0
 12 17  1  0  0  0  0
 17 18  1  0  0  0  0
 18 19  1  0  0  0  0
 19 20  1  0  0  0  0
 19 21  1  0  0  0  0
 19 22  1  0  0  0  0
 22 23  1  0  0  0  0
 22 24  1  0  0  0  0
 24 25  1  0  0  0  0
 24 26  1  0  0  0  0
 24 27  1  0  0  0  0
 27 22  1  0  0  0  0
 17 28  2  0  0  0  0
 28 29  1  0  0  0  0
 29 30  1  0  0  0  0
 29 31  1  0  0  0  0
 29 32  1  0  0  0  0
 28 33  1  0  0  0  0
 33  9  2  0  0  0  0
 33 34  1  0  0  0  0
  8 35  1  0  0  0  0
 35 36  1  0  0  0  0
 35 37  2  0  0  0  0
 37 38  1  0  0  0  0
 38 39  1  0  0  0  0
 38 40  1  0  0  0  0
 38 41  1  0  0  0  0
 37 42  1  0  0  0  0
 42  5  2  0  0  0  0
 42 43  1  0  0  0  0
 43 44  1  0  0  0  0
 44 45  1  0  0  0  0
 44 46  1  0  0  0  0
 44 47  1  0  0  0  0
 47 48  1  0  0  0  0
 47 49  1  0  0  0  0
 49 50  1  0  0  0  0
 49 51  1  0  0  0  0
 49 52  1  0  0  0  0
 52 47  1  0  0  0  0
M  END
> <ChemID>
201876

> <source_casrn>


> <CAS>
85954-11-6

> <SMILES>
Cc1cc(cc(C)c1OCC2CO2)c3cc(C)c(OCC4CO4)c(C)c3

> <NAME>


> <preferred_name>


> <iupac>


> <MPID>
101495

> <dsstox_substance_id>


> <Canonical_QSARr>
Cc1cc(cc(C)c1OCC1CO1)-c1cc(C)c(OCC2CO2)c(C)c1

> <InChI_Code_QSARr>
InChI=1S/C22H26O4/c1-13-5-17(6-14(2)21(13)25-11-19-9-23-19)18-7-15(3)22(16(4)8-18)26-12-20-10-24-20/h5-8,19-20H,9-12H2,1-4H3

> <InChI Key_QSARr>
HRSLYNJTMYIRHM-UHFFFAOYSA-N

> <Salt_Solvent>


> <Ready_Biodeg>
0.0

$$$$
201880
  -INDIGO-08031722522D

 26 27  0  0  0  0  0  0  0  0999 V2000
    1.3857    0.8000    0.0000 C   0  0  0  0  0  0  0  0  0  0  0  0
    2.7713    1.6000    0.0000 H   0  0  0  0  0  0  0  0  0  0  0  0
    2.7713    0.0000    0.0000 H   0  0  0  0  0  0  0  0  0  0  0  0
    1.3857    2.4000    0.0000 H   0  0  0  0  0  0  0  0  0  0  0  0
   -0.0001    0.0000    0.0000 C   0  0  0  0  0  0  0  0  0  0  0  0
   -0.0001   -1.6000    0.0000 C   0  0  0  0  0  0  0  0  0  0  0  0
    1.3857   -2.4000    0.0000 H   0  0  0  0  0  0  0  0  0  0  0  0
   -1.3857   -2.4000    0.0000 C   0  0  0  0  0  0  0  0  0  0  0  0
   -1.3857   -4.0000    0.0000 H   0  0  0  0  0  0  0  0  0  0  0  0
   -2.7713   -1.6000    0.0000 C   0  0  0  0  0  0  0  0  0  0  0  0
   -4.1568   -2.4000    0.0000 H   0  0  0  0  0  0  0  0  0  0  0  0
   -2.7713    0.0000    0.0000 C   0  0  0  0  0  0  0  0  0  0  0  0
   -4.1568    0.8000    0.0000 O   0  0  0  0  0  0  0  0  0  0  0  0
   -5.7326    0.5222    0.0000 C   0  0  0  0  0  0  0  0  0  0  0  0
   -6.2799   -0.9813    0.0000 C   0  0  0  0  0  0  0  0  0  0  0  0
   -5.2513   -2.2071    0.0000 H   0  0  0  0  0  0  0  0  0  0  0  0
   -7.8555   -1.2591    0.0000 C   0  0  0  0  0  0  0  0  0  0  0  0
   -8.4028   -2.7627    0.0000 H   0  0  0  0  0  0  0  0  0  0  0  0
   -8.8839   -0.0335    0.0000 C   0  0  0  0  0  0  0  0  0  0  0  0
  -10.4597   -0.3113    0.0000 H   0  0  0  0  0  0  0  0  0  0  0  0
   -8.3368    1.4700    0.0000 C   0  0  0  0  0  0  0  0  0  0  0  0
   -9.3652    2.6957    0.0000 H   0  0  0  0  0  0  0  0  0  0  0  0
   -6.7610    1.7479    0.0000 C   0  0  0  0  0  0  0  0  0  0  0  0
   -6.2139    3.2513    0.0000 H   0  0  0  0  0  0  0  0  0  0  0  0
   -1.3857    0.8000    0.0000 C   0  0  0  0  0  0  0  0  0  0  0  0
   -1.3857    2.4000    0.0000 H   0  0  0  0  0  0  0  0  0  0  0  0
  1  2  1  0  0  0  0
  1  3  1  0  0  0  0
  1  4  1  0  0  0  0
  1  5  1  0  0  0  0
  5  6  1  0  0  0  0
  6  7  1  0  0  0  0
  6  8  2  0  0  0  0
  8  9  1  0  0  0  0
  8 10  1  0  0  0  0
 10 11  1  0  0  0  0
 10 12  2  0  0  0  0
 12 13  1  0  0  0  0
 13 14  1  0  0  0  0
 14 15  1  0  0  0  0
 15 16  1  0  0  0  0
 15 17  2  0  0  0  0
 17 18  1  0  0  0  0
 17 19  1  0  0  0  0
 19 20  1  0  0  0  0
 19 21  2  0  0  0  0
 21 22  1  0  0  0  0
 21 23  1  0  0  0  0
 23 14  2  0  0  0  0
 23 24  1  0  0  0  0
 12 25  1  0  0  0  0
 25  5  2  0  0  0  0
 25 26  1  0  0  0  0
M  END
> <ChemID>
201880

> <source_casrn>
3586-14-9

> <CAS>
3586-14-9

> <SMILES>
Cc1cccc(Oc2ccccc2)c1

> <NAME>


> <preferred_name>
1-Methyl-3-phenoxybenzene

> <iupac>
1-methyl-3-phenoxybenzene

> <MPID>
101496

> <dsstox_substance_id>
DTXSID8027537

> <Canonical_QSARr>
Cc1cc(ccc1)Oc1ccccc1

> <InChI_Code_QSARr>
InChI=1S/C13H12O/c1-11-6-5-9-13(10-11)14-12-7-3-2-4-8-12/h2-10H,1H3

> <InChI Key_QSARr>
UDONPJKEOAWFGI-UHFFFAOYSA-N

> <Salt_Solvent>


> <Ready_Biodeg>
0.0

$$$$
201884
  -INDIGO-08031722522D

 71 77  0  0  0  0  0  0  0  0999 V2000
    6.9473    1.5034    0.0000 C   0  0  0  0  0  0  0  0  0  0  0  0
    7.4943    3.0071    0.0000 H   0  0  0  0  0  0  0  0  0  0  0  0
    5.9189    2.7291    0.0000 H   0  0  0  0  0  0  0  0  0  0  0  0
    8.5228    1.7813    0.0000 H   0  0  0  0  0  0  0  0  0  0  0  0
    6.4000   -0.0001    0.0000 N   0  0  0  0  0  0  0  0  0  0  0  0
    7.1999   -1.3857    0.0000 C   0  0  0  0  0  0  0  0  0  0  0  0
    5.6244   -1.6635    0.0000 H   0  0  0  0  0  0  0  0  0  0  0  0
    7.1999   -2.9856    0.0000 C   0  0  0  0  0  0  0  0  0  0  0  0
    5.6244   -2.7079    0.0000 H   0  0  0  0  0  0  0  0  0  0  0  0
    6.6529   -4.4891    0.0000 H   0  0  0  0  0  0  0  0  0  0  0  0
    8.5857   -3.7857    0.0000 C   0  0  0  0  0  0  0  0  0  0  0  0
    7.5572   -5.0112    0.0000 H   0  0  0  0  0  0  0  0  0  0  0  0
    9.6142   -5.0112    0.0000 H   0  0  0  0  0  0  0  0  0  0  0  0
    9.9712   -2.9856    0.0000 C   0  0  0  0  0  0  0  0  0  0  0  0
   10.5185   -4.4891    0.0000 H   0  0  0  0  0  0  0  0  0  0  0  0
   11.5470   -2.7077    0.0000 H   0  0  0  0  0  0  0  0  0  0  0  0
    9.9712   -1.3857    0.0000 C   0  0  0  0  0  0  0  0  0  0  0  0
   11.5470   -1.6635    0.0000 H   0  0  0  0  0  0  0  0  0  0  0  0
   10.5185    0.1179    0.0000 H   0  0  0  0  0  0  0  0  0  0  0  0
    8.5857   -0.5857    0.0000 C   0  0  0  0  0  0  0  0  0  0  0  0
    9.6142    0.6401    0.0000 H   0  0  0  0  0  0  0  0  0  0  0  0
    7.5572    0.6401    0.0000 H   0  0  0  0  0  0  0  0  0  0  0  0
    4.7999   -0.0001    0.0000 C   0  0  0  0  0  0  0  0  0  0  0  0
    4.0000    1.3856    0.0000 C   0  0  0  0  0  0  0  0  0  0  0  0
    4.7999    2.7713    0.0000 H   0  0  0  0  0  0  0  0  0  0  0  0
    2.3999    1.3856    0.0000 C   0  0  0  0  0  0  0  0  0  0  0  0
    1.6001    2.7713    0.0000 H   0  0  0  0  0  0  0  0  0  0  0  0
    1.6001   -0.0001    0.0000 C   0  0  0  0  0  0  0  0  0  0  0  0
    2.3999   -1.3857    0.0000 C   0  0  0  0  0  0  0  0  0  0  0  0
    1.6001   -2.7712    0.0000 O   0  0  0  0  0  0  0  0  0  0  0  0
   -0.0000   -2.7712    0.0000 C   0  0  0  0  0  0  0  0  0  0  0  0
   -0.7999   -4.1569    0.0000 C   0  0  0  0  0  0  0  0  0  0  0  0
   -0.0000   -5.5425    0.0000 H   0  0  0  0  0  0  0  0  0  0  0  0
   -2.4000   -4.1569    0.0000 C   0  0  0  0  0  0  0  0  0  0  0  0
   -3.1999   -5.5425    0.0000 C   0  0  0  0  0  0  0  0  0  0  0  0
   -4.0001   -6.9282    0.0000 H   0  0  0  0  0  0  0  0  0  0  0  0
   -2.4000   -6.9282    0.0000 H   0  0  0  0  0  0  0  0  0  0  0  0
   -4.8000   -5.5425    0.0000 H   0  0  0  0  0  0  0  0  0  0  0  0
   -3.1999   -2.7712    0.0000 C   0  0  0  0  0  0  0  0  0  0  0  0
   -4.8000   -2.7712    0.0000 N   0  0  0  0  0  0  0  0  0  0  0  0
   -5.5998   -4.1569    0.0000 H   0  0  0  0  0  0  0  0  0  0  0  0
   -6.0257   -1.7427    0.0000 C   0  0  0  0  0  0  0  0  0  0  0  0
   -5.7479   -0.1672    0.0000 C   0  0  0  0  0  0  0  0  0  0  0  0
   -4.2443    0.3801    0.0000 H   0  0  0  0  0  0  0  0  0  0  0  0
   -6.9737    0.8613    0.0000 C   0  0  0  0  0  0  0  0  0  0  0  0
   -6.6958    2.4370    0.0000 H   0  0  0  0  0  0  0  0  0  0  0  0
   -8.4769    0.3140    0.0000 C   0  0  0  0  0  0  0  0  0  0  0  0
   -9.7027    1.3425    0.0000 H   0  0  0  0  0  0  0  0  0  0  0  0
   -8.7548   -1.2615    0.0000 C   0  0  0  0  0  0  0  0  0  0  0  0
  -10.2584   -1.8088    0.0000 H   0  0  0  0  0  0  0  0  0  0  0  0
   -7.5293   -2.2900    0.0000 C   0  0  0  0  0  0  0  0  0  0  0  0
   -7.8072   -3.8658    0.0000 H   0  0  0  0  0  0  0  0  0  0  0  0
   -2.4000   -1.3857    0.0000 C   0  0  0  0  0  0  0  0  0  0  0  0
   -3.1999   -0.0001    0.0000 H   0  0  0  0  0  0  0  0  0  0  0  0
   -0.7999   -1.3857    0.0000 C   0  0  0  0  0  0  0  0  0  0  0  0
   -0.0000   -0.0001    0.0000 C   0  0  0  0  0  0  0  0  0  0  0  0
   -1.5911    0.1673    0.0000 O   0  0  0  0  0  0  0  0  0  0  0  0
   -1.9239    1.7322    0.0000 C   0  0  0  0  0  0  0  0  0  0  0  0
   -3.3855    2.3831    0.0000 O   0  0  0  0  0  0  0  0  0  0  0  0
   -0.5384    2.5323    0.0000 C   0  0  0  0  0  0  0  0  0  0  0  0
   -0.2056    4.0972    0.0000 C   0  0  0  0  0  0  0  0  0  0  0  0
   -1.3945    5.1678    0.0000 H   0  0  0  0  0  0  0  0  0  0  0  0
    1.3163    4.5918    0.0000 C   0  0  0  0  0  0  0  0  0  0  0  0
    1.6486    6.1568    0.0000 H   0  0  0  0  0  0  0  0  0  0  0  0
    2.5051    3.5212    0.0000 C   0  0  0  0  0  0  0  0  0  0  0  0
    4.0267    4.0156    0.0000 H   0  0  0  0  0  0  0  0  0  0  0  0
    2.1724    1.9561    0.0000 C   0  0  0  0  0  0  0  0  0  0  0  0
    3.1576    0.6954    0.0000 H   0  0  0  0  0  0  0  0  0  0  0  0
    0.6508    1.4617    0.0000 C   0  0  0  0  0  0  0  0  0  0  0  0
    4.0000   -1.3857    0.0000 C   0  0  0  0  0  0  0  0  0  0  0  0
    4.5474   -2.8892    0.0000 H   0  0  0  0  0  0  0  0  0  0  0  0
  1  2  1  0  0  0  0
  1  3  1  0  0  0  0
  1  4  1  0  0  0  0
  1  5  1  0  0  0  0
  5  6  1  0  0  0  0
  6  7  1  0  0  0  0
  6  8  1  0  0  0  0
  8  9  1  0  0  0  0
  8 10  1  0  0  0  0
  8 11  1  0  0  0  0
 11 12  1  0  0  0  0
 11 13  1  0  0  0  0
 11 14  1  0  0  0  0
 14 15  1  0  0  0  0
 14 16  1  0  0  0  0
 14 17  1  0  0  0  0
 17 18  1  0  0  0  0
 17 19  1  0  0  0  0
 17 20  1  0  0  0  0
 20  6  1  0  0  0  0
 20 21  1  0  0  0  0
 20 22  1  0  0  0  0
  5 23  1  0  0  0  0
 23 24  1  0  0  0  0
 24 25  1  0  0  0  0
 24 26  2  0  0  0  0
 26 27  1  0  0  0  0
 26 28  1  0  0  0  0
 28 29  2  0  0  0  0
 29 30  1  0  0  0  0
 30 31  1  0  0  0  0
 31 32  1  0  0  0  0
 32 33  1  0  0  0  0
 32 34  2  0  0  0  0
 34 35  1  0  0  0  0
 35 36  1  0  0  0  0
 35 37  1  0  0  0  0
 35 38  1  0  0  0  0
 34 39  1  0  0  0  0
 39 40  1  0  0  0  0
 40 41  1  0  0  0  0
 40 42  1  0  0  0  0
 42 43  1  0  0  0  0
 43 44  1  0  0  0  0
 43 45  2  0  0  0  0
 45 46  1  0  0  0  0
 45 47  1  0  0  0  0
 47 48  1  0  0  0  0
 47 49  2  0  0  0  0
 49 50  1  0  0  0  0
 49 51  1  0  0  0  0
 51 42  2  0  0  0  0
 51 52  1  0  0  0  0
 39 53  2  0  0  0  0
 53 54  1  0  0  0  0
 53 55  1  0  0  0  0
 55 31  2  0  0  0  0
 55 56  1  0  0  0  0
 56 28  1  0  0  0  0
 56 57  1  0  0  0  0
 57 58  1  0  0  0  0
 58 59  2  0  0  0  0
 58 60  1  0  0  0  0
 60 61  1  0  0  0  0
 61 62  1  0  0  0  0
 61 63  2  0  0  0  0
 63 64  1  0  0  0  0
 63 65  1  0  0  0  0
 65 66  1  0  0  0  0
 65 67  2  0  0  0  0
 67 68  1  0  0  0  0
 67 69  1  0  0  0  0
 69 56  1  0  0  0  0
 69 60  2  0  0  0  0
 29 70  1  0  0  0  0
 70 23  2  0  0  0  0
 70 71  1  0  0  0  0
M  END
> <ChemID>
201884

> <source_casrn>


> <CAS>
55250-84-5

> <SMILES>
CN(C1CCCCC1)c2ccc3c(Oc4cc(C)c(Nc5ccccc5)cc4C36OC(=O)c7ccccc67)c2

> <NAME>


> <preferred_name>


> <iupac>


> <MPID>
101497

> <dsstox_substance_id>


> <Canonical_QSARr>
Cc1cc2Oc3cc(ccc3C3(OC(=O)c4ccccc34)c2cc1Nc1ccccc1)N(C)C1CCCCC1

> <InChI_Code_QSARr>
InChI=1S/C34H32N2O3/c1-22-19-31-29(21-30(22)35-23-11-5-3-6-12-23)34(27-16-10-9-15-26(27)33(37)39-34)28-18-17-25(20-32(28)38-31)36(2)24-13-7-4-8-14-24/h3,5-6,9-12,15-21,24,35H,4,7-8,13-14H2,1-2H3

> <InChI Key_QSARr>
CEGHCPGGKKWOKF-UHFFFAOYSA-N

> <Salt_Solvent>


> <Ready_Biodeg>
0.0

$$$$
201886
  -INDIGO-08031722522D

 25 25  0  0  0  0  0  0  0  0999 V2000
    0.0000    1.6000    0.0000 C   0  0  0  0  0  0  0  0  0  0  0  0
    0.0000    3.2000    0.0000 H   0  0  0  0  0  0  0  0  0  0  0  0
    1.3856    2.4000    0.0000 H   0  0  0  0  0  0  0  0  0  0  0  0
    1.3856    0.8000    0.0000 H   0  0  0  0  0  0  0  0  0  0  0  0
    0.0000    0.0000    0.0000 C   0  0  0  0  0  0  0  0  0  0  0  0
    0.0000   -1.6000    0.0000 H   0  0  0  0  0  0  0  0  0  0  0  0
    1.5757   -0.2778    0.0000 C   0  0  0  0  0  0  0  0  0  0  0  0
    3.1514   -0.5556    0.0000 H   0  0  0  0  0  0  0  0  0  0  0  0
    2.1229   -1.7814    0.0000 H   0  0  0  0  0  0  0  0  0  0  0  0
    2.6042    0.9479    0.0000 H   0  0  0  0  0  0  0  0  0  0  0  0
   -1.6000    0.0000    0.0000 C   0  0  0  0  0  0  0  0  0  0  0  0
   -2.4001    1.3857    0.0000 C   0  0  0  0  0  0  0  0  0  0  0  0
   -1.6000    2.7713    0.0000 H   0  0  0  0  0  0  0  0  0  0  0  0
   -4.0001    1.3857    0.0000 C   0  0  0  0  0  0  0  0  0  0  0  0
   -4.8000    2.7713    0.0000 H   0  0  0  0  0  0  0  0  0  0  0  0
   -4.8000    0.0000    0.0000 C   0  0  0  0  0  0  0  0  0  0  0  0
   -6.4000    0.0000    0.0000 C   0  0  0  0  0  0  0  0  0  0  0  0
   -8.0000    0.0000    0.0000 H   0  0  0  0  0  0  0  0  0  0  0  0
   -7.2001    1.3857    0.0000 H   0  0  0  0  0  0  0  0  0  0  0  0
   -7.2001   -1.3857    0.0000 H   0  0  0  0  0  0  0  0  0  0  0  0
   -4.0001   -1.3857    0.0000 C   0  0  0  0  0  0  0  0  0  0  0  0
   -4.8000   -2.7713    0.0000 H   0  0  0  0  0  0  0  0  0  0  0  0
   -2.4001   -1.3857    0.0000 C   0  0  0  0  0  0  0  0  0  0  0  0
   -1.6000   -2.7713    0.0000 O   0  0  0  0  0  0  0  0  0  0  0  0
   -2.4001   -4.1569    0.0000 H   0  0  0  0  0  0  0  0  0  0  0  0
  1  2  1  0  0  0  0
  1  3  1  0  0  0  0
  1  4  1  0  0  0  0
  1  5  1  0  0  0  0
  5  6  1  0  0  0  0
  5  7  1  0  0  0  0
  7  8  1  0  0  0  0
  7  9  1  0  0  0  0
  7 10  1  0  0  0  0
  5 11  1  0  0  0  0
 11 12  1  0  0  0  0
 12 13  1  0  0  0  0
 12 14  2  0  0  0  0
 14 15  1  0  0  0  0
 14 16  1  0  0  0  0
 16 17  1  0  0  0  0
 17 18  1  0  0  0  0
 17 19  1  0  0  0  0
 17 20  1  0  0  0  0
 16 21  2  0  0  0  0
 21 22  1  0  0  0  0
 21 23  1  0  0  0  0
 23 11  2  0  0  0  0
 23 24  1  0  0  0  0
 24 25  1  0  0  0  0
M  END
> <ChemID>
201886

> <source_casrn>
89-83-8

> <CAS>
89-83-8

> <SMILES>
CC(C)c1ccc(C)cc1O

> <NAME>


> <preferred_name>
Thymol

> <iupac>
5-methyl-2-(propan-2-yl)phenol

> <MPID>
101499

> <dsstox_substance_id>
DTXSID6034972

> <Canonical_QSARr>
Cc1ccc(C(C)C)c(O)c1

> <InChI_Code_QSARr>
InChI=1S/C10H14O/c1-7(2)9-5-4-8(3)6-10(9)11/h4-7,11H,1-3H3

> <InChI Key_QSARr>
MGSRCZKZVOBKFT-UHFFFAOYSA-N

> <Salt_Solvent>


> <Ready_Biodeg>
0.0

$$$$
201887
  -INDIGO-08031722522D

 22 22  0  0  0  0  0  0  0  0999 V2000
    2.4001    1.3856    0.0000 C   0  0  0  0  0  0  0  0  0  0  0  0
    4.0000    1.3856    0.0000 H   0  0  0  0  0  0  0  0  0  0  0  0
    3.2000    2.7713    0.0000 H   0  0  0  0  0  0  0  0  0  0  0  0
    3.2000    0.0000    0.0000 H   0  0  0  0  0  0  0  0  0  0  0  0
    0.8000    1.3856    0.0000 C   0  0  0  0  0  0  0  0  0  0  0  0
    0.0000    2.7713    0.0000 C   0  0  0  0  0  0  0  0  0  0  0  0
    0.8000    4.1569    0.0000 H   0  0  0  0  0  0  0  0  0  0  0  0
   -1.6000    2.7713    0.0000 C   0  0  0  0  0  0  0  0  0  0  0  0
   -2.4000    4.1569    0.0000 H   0  0  0  0  0  0  0  0  0  0  0  0
   -2.4000    1.3856    0.0000 C   0  0  0  0  0  0  0  0  0  0  0  0
   -3.9999    1.3856    0.0000 C   0  0  0  0  0  0  0  0  0  0  0  0
   -5.6000    1.3856    0.0000 H   0  0  0  0  0  0  0  0  0  0  0  0
   -4.8000    2.7713    0.0000 H   0  0  0  0  0  0  0  0  0  0  0  0
   -4.8000    0.0000    0.0000 H   0  0  0  0  0  0  0  0  0  0  0  0
   -1.6000    0.0000    0.0000 C   0  0  0  0  0  0  0  0  0  0  0  0
   -2.4000   -1.3856    0.0000 O   0  0  0  0  0  0  0  0  0  0  0  0
   -4.0001   -1.3856    0.0000 H   0  0  0  0  0  0  0  0  0  0  0  0
    0.0000    0.0000    0.0000 C   0  0  0  0  0  0  0  0  0  0  0  0
    0.8000   -1.3856    0.0000 C   0  0  0  0  0  0  0  0  0  0  0  0
    1.6000   -2.7713    0.0000 H   0  0  0  0  0  0  0  0  0  0  0  0
    0.0000   -2.7713    0.0000 H   0  0  0  0  0  0  0  0  0  0  0  0
    2.4001   -1.3856    0.0000 H   0  0  0  0  0  0  0  0  0  0  0  0
  1  2  1  0  0  0  0
  1  3  1  0  0  0  0
  1  4  1  0  0  0  0
  1  5  1  0  0  0  0
  5  6  1  0  0  0  0
  6  7  1  0  0  0  0
  6  8  2  0  0  0  0
  8  9  1  0  0  0  0
  8 10  1  0  0  0  0
 10 11  1  0  0  0  0
 11 12  1  0  0  0  0
 11 13  1  0  0  0  0
 11 14  1  0  0  0  0
 10 15  2  0  0  0  0
 15 16  1  0  0  0  0
 16 17  1  0  0  0  0
 15 18  1  0  0  0  0
 18  5  2  0  0  0  0
 18 19  1  0  0  0  0
 19 20  1  0  0  0  0
 19 21  1  0  0  0  0
 19 22  1  0  0  0  0
M  END
> <ChemID>
201887

> <source_casrn>
2416-94-6

> <CAS>
2416-94-6

> <SMILES>
Cc1ccc(C)c(O)c1C

> <NAME>


> <preferred_name>
2,3,6-Trimethylphenol

> <iupac>
2,3,6-trimethylphenol

> <MPID>
101500

> <dsstox_substance_id>
DTXSID6022187

> <Canonical_QSARr>
Cc1ccc(C)c(O)c1C

> <InChI_Code_QSARr>
InChI=1S/C9H12O/c1-6-4-5-7(2)9(10)8(6)3/h4-5,10H,1-3H3

> <InChI Key_QSARr>
QQOMQLYQAXGHSU-UHFFFAOYSA-N

> <Salt_Solvent>


> <Ready_Biodeg>
0.0

$$$$
201888
  -INDIGO-08031722522D

 17 17  0  0  0  0  0  0  0  0999 V2000
    1.6001   -0.0000    0.0000 C   0  0  0  0  0  0  0  0  0  0  0  0
    3.2000   -0.0000    0.0000 H   0  0  0  0  0  0  0  0  0  0  0  0
    2.4000   -1.3856    0.0000 H   0  0  0  0  0  0  0  0  0  0  0  0
    2.4000    1.3856    0.0000 H   0  0  0  0  0  0  0  0  0  0  0  0
   -0.0000   -0.0000    0.0000 C   0  0  0  0  0  0  0  0  0  0  0  0
   -0.8000    1.3856    0.0000 C   0  0  0  0  0  0  0  0  0  0  0  0
   -0.0000    2.7713    0.0000 H   0  0  0  0  0  0  0  0  0  0  0  0
   -2.4000    1.3856    0.0000 C   0  0  0  0  0  0  0  0  0  0  0  0
   -3.2000    2.7713    0.0000 H   0  0  0  0  0  0  0  0  0  0  0  0
   -3.2000   -0.0000    0.0000 C   0  0  0  0  0  0  0  0  0  0  0  0
   -4.8000   -0.0000    0.0000 C   0  0  0  0  0  0  0  0  0  0  0  0
   -5.6000    1.3856    0.0000 H   0  0  0  0  0  0  0  0  0  0  0  0
   -5.6000   -1.3856    0.0000 O   0  0  0  0  0  0  0  0  0  0  0  0
   -2.4000   -1.3856    0.0000 C   0  0  0  0  0  0  0  0  0  0  0  0
   -3.2000   -2.7713    0.0000 H   0  0  0  0  0  0  0  0  0  0  0  0
   -0.8000   -1.3856    0.0000 C   0  0  0  0  0  0  0  0  0  0  0  0
   -0.0000   -2.7713    0.0000 H   0  0  0  0  0  0  0  0  0  0  0  0
  1  2  1  0  0  0  0
  1  3  1  0  0  0  0
  1  4  1  0  0  0  0
  1  5  1  0  0  0  0
  5  6  1  0  0  0  0
  6  7  1  0  0  0  0
  6  8  2  0  0  0  0
  8  9  1  0  0  0  0
  8 10  1  0  0  0  0
 10 11  1  0  0  0  0
 11 12  1  0  0  0  0
 11 13  2  0  0  0  0
 10 14  2  0  0  0  0
 14 15  1  0  0  0  0
 14 16  1  0  0  0  0
 16  5  2  0  0  0  0
 16 17  1  0  0  0  0
M  END
> <ChemID>
201888

> <source_casrn>
104-87-0

> <CAS>
104-87-0

> <SMILES>
Cc1ccc(C=O)cc1

> <NAME>


> <preferred_name>
4-Methylbenzaldehyde

> <iupac>
4-methylbenzaldehyde

> <MPID>
101501

> <dsstox_substance_id>
DTXSID9041520

> <Canonical_QSARr>
Cc1ccc(C=O)cc1

> <InChI_Code_QSARr>
InChI=1S/C8H8O/c1-7-2-4-8(6-9)5-3-7/h2-6H,1H3

> <InChI Key_QSARr>
FXLOVSHXALFLKQ-UHFFFAOYSA-N

> <Salt_Solvent>


> <Ready_Biodeg>
1.0

$$$$
201891
  -INDIGO-08031722522D

 15 15  0  0  0  0  0  0  0  0999 V2000
    1.6000   -0.0000    0.0000 C   0  0  0  0  0  0  0  0  0  0  0  0
    3.2000   -0.0000    0.0000 H   0  0  0  0  0  0  0  0  0  0  0  0
    2.4001   -1.3856    0.0000 H   0  0  0  0  0  0  0  0  0  0  0  0
    2.4001    1.3856    0.0000 H   0  0  0  0  0  0  0  0  0  0  0  0
    0.0000   -0.0000    0.0000 C   0  0  0  0  0  0  0  0  0  0  0  0
   -0.7999    1.3856    0.0000 C   0  0  0  0  0  0  0  0  0  0  0  0
    0.0000    2.7713    0.0000 H   0  0  0  0  0  0  0  0  0  0  0  0
   -2.4001    1.3856    0.0000 C   0  0  0  0  0  0  0  0  0  0  0  0
   -3.2000    2.7713    0.0000 H   0  0  0  0  0  0  0  0  0  0  0  0
   -3.2000   -0.0000    0.0000 C   0  0  0  0  0  0  0  0  0  0  0  0
   -4.8000   -0.0000    0.0000 Cl  0  0  0  0  0  0  0  0  0  0  0  0
   -2.4001   -1.3856    0.0000 C   0  0  0  0  0  0  0  0  0  0  0  0
   -3.2000   -2.7713    0.0000 H   0  0  0  0  0  0  0  0  0  0  0  0
   -0.8001   -1.3856    0.0000 C   0  0  0  0  0  0  0  0  0  0  0  0
    0.0000   -2.7713    0.0000 Cl  0  0  0  0  0  0  0  0  0  0  0  0
  1  2  1  0  0  0  0
  1  3  1  0  0  0  0
  1  4  1  0  0  0  0
  1  5  1  0  0  0  0
  5  6  1  0  0  0  0
  6  7  1  0  0  0  0
  6  8  2  0  0  0  0
  8  9  1  0  0  0  0
  8 10  1  0  0  0  0
 10 11  1  0  0  0  0
 10 12  2  0  0  0  0
 12 13  1  0  0  0  0
 12 14  1  0  0  0  0
 14  5  2  0  0  0  0
 14 15  1  0  0  0  0
M  END
> <ChemID>
201891

> <source_casrn>
95-73-8

> <CAS>
95-73-8

> <SMILES>
Cc1ccc(Cl)cc1Cl

> <NAME>


> <preferred_name>
2,4-Dichlorotoluene

> <iupac>
2,4-dichloro-1-methylbenzene

> <MPID>
101502

> <dsstox_substance_id>
DTXSID5040702

> <Canonical_QSARr>
Cc1ccc(Cl)cc1Cl

> <InChI_Code_QSARr>
InChI=1S/C7H6Cl2/c1-5-2-3-6(8)4-7(5)9/h2-4H,1H3

> <InChI Key_QSARr>
FUNUTBJJKQIVSY-UHFFFAOYSA-N

> <Salt_Solvent>


> <Ready_Biodeg>
0.0

$$$$
201894
  -INDIGO-08031722522D

 28 28  0  0  0  0  0  0  0  0999 V2000
    5.5425    0.0000    0.0000 C   0  0  0  0  0  0  0  0  0  0  0  0
    6.9282    0.8000    0.0000 H   0  0  0  0  0  0  0  0  0  0  0  0
    6.9282   -0.8000    0.0000 H   0  0  0  0  0  0  0  0  0  0  0  0
    5.5425    1.6001    0.0000 H   0  0  0  0  0  0  0  0  0  0  0  0
    4.1570   -0.8000    0.0000 C   0  0  0  0  0  0  0  0  0  0  0  0
    4.1570   -2.4000    0.0000 C   0  0  0  0  0  0  0  0  0  0  0  0
    5.5425   -3.2000    0.0000 H   0  0  0  0  0  0  0  0  0  0  0  0
    2.7713   -3.2000    0.0000 C   0  0  0  0  0  0  0  0  0  0  0  0
    2.7713   -4.8000    0.0000 H   0  0  0  0  0  0  0  0  0  0  0  0
    1.3856   -2.4000    0.0000 C   0  0  0  0  0  0  0  0  0  0  0  0
   -0.0000   -3.2000    0.0000 O   0  0  0  0  0  0  0  0  0  0  0  0
   -0.0000   -4.8000    0.0000 H   0  0  0  0  0  0  0  0  0  0  0  0
    1.3856   -0.8000    0.0000 C   0  0  0  0  0  0  0  0  0  0  0  0
   -0.0000    0.0000    0.0000 C   0  0  0  0  0  0  0  0  0  0  0  0
   -1.3856    0.8000    0.0000 C   0  0  0  0  0  0  0  0  0  0  0  0
   -2.7713    1.6001    0.0000 H   0  0  0  0  0  0  0  0  0  0  0  0
   -2.8891    0.2528    0.0000 H   0  0  0  0  0  0  0  0  0  0  0  0
   -1.6635    2.3757    0.0000 H   0  0  0  0  0  0  0  0  0  0  0  0
   -0.8000   -1.3856    0.0000 C   0  0  0  0  0  0  0  0  0  0  0  0
   -1.3472   -2.8892    0.0000 H   0  0  0  0  0  0  0  0  0  0  0  0
   -2.3756   -1.6634    0.0000 H   0  0  0  0  0  0  0  0  0  0  0  0
   -1.8284   -0.1600    0.0000 H   0  0  0  0  0  0  0  0  0  0  0  0
    0.8001    1.3857    0.0000 C   0  0  0  0  0  0  0  0  0  0  0  0
    1.8285    2.6113    0.0000 H   0  0  0  0  0  0  0  0  0  0  0  0
    0.2528    2.8891    0.0000 H   0  0  0  0  0  0  0  0  0  0  0  0
   -0.7757    1.6635    0.0000 H   0  0  0  0  0  0  0  0  0  0  0  0
    2.7713    0.0000    0.0000 C   0  0  0  0  0  0  0  0  0  0  0  0
    2.7713    1.6001    0.0000 H   0  0  0  0  0  0  0  0  0  0  0  0
  1  2  1  0  0  0  0
  1  3  1  0  0  0  0
  1  4  1  0  0  0  0
  1  5  1  0  0  0  0
  5  6  1  0  0  0  0
  6  7  1  0  0  0  0
  6  8  2  0  0  0  0
  8  9  1  0  0  0  0
  8 10  1  0  0  0  0
 10 11  1  0  0  0  0
 11 12  1  0  0  0  0
 10 13  2  0  0  0  0
 13 14  1  0  0  0  0
 14 15  1  0  0  0  0
 15 16  1  0  0  0  0
 15 17  1  0  0  0  0
 15 18  1  0  0  0  0
 14 19  1  0  0  0  0
 19 20  1  0  0  0  0
 19 21  1  0  0  0  0
 19 22  1  0  0  0  0
 14 23  1  0  0  0  0
 23 24  1  0  0  0  0
 23 25  1  0  0  0  0
 23 26  1  0  0  0  0
 13 27  1  0  0  0  0
 27  5  2  0  0  0  0
 27 28  1  0  0  0  0
M  END
> <ChemID>
201894

> <source_casrn>
2409-55-4

> <CAS>
2409-55-4

> <SMILES>
Cc1ccc(O)c(c1)C(C)(C)C

> <NAME>


> <preferred_name>
2-tert-Butyl-4-methylphenol

> <iupac>
2-tert-butyl-4-methylphenol

> <MPID>
101503

> <dsstox_substance_id>
DTXSID2020212

> <Canonical_QSARr>
Cc1ccc(O)c(c1)C(C)(C)C

> <InChI_Code_QSARr>
InChI=1S/C11H16O/c1-8-5-6-10(12)9(7-8)11(2,3)4/h5-7,12H,1-4H3

> <InChI Key_QSARr>
IKEHOXWJQXIQAG-UHFFFAOYSA-N

> <Salt_Solvent>


> <Ready_Biodeg>
0.0

$$$$
201898
  -INDIGO-08031722522D

 20 20  0  0  0  0  0  0  0  0999 V2000
    2.4000    1.3856    0.0000 C   0  0  0  0  0  0  0  0  0  0  0  0
    3.2000    2.7713    0.0000 H   0  0  0  0  0  0  0  0  0  0  0  0
    4.0000    1.3856    0.0000 H   0  0  0  0  0  0  0  0  0  0  0  0
    1.6001    2.7713    0.0000 H   0  0  0  0  0  0  0  0  0  0  0  0
    1.6001   -0.0000    0.0000 C   0  0  0  0  0  0  0  0  0  0  0  0
    2.4000   -1.3856    0.0000 O   0  0  0  0  0  0  0  0  0  0  0  0
   -0.0000   -0.0000    0.0000 C   0  0  0  0  0  0  0  0  0  0  0  0
   -0.8000    1.3856    0.0000 C   0  0  0  0  0  0  0  0  0  0  0  0
   -0.0000    2.7713    0.0000 H   0  0  0  0  0  0  0  0  0  0  0  0
   -2.4000    1.3856    0.0000 C   0  0  0  0  0  0  0  0  0  0  0  0
   -3.1999    2.7713    0.0000 H   0  0  0  0  0  0  0  0  0  0  0  0
   -3.1999   -0.0000    0.0000 C   0  0  0  0  0  0  0  0  0  0  0  0
   -4.8000   -0.0000    0.0000 C   0  0  0  0  0  0  0  0  0  0  0  0
   -6.4000   -0.0000    0.0000 H   0  0  0  0  0  0  0  0  0  0  0  0
   -5.6000   -1.3856    0.0000 H   0  0  0  0  0  0  0  0  0  0  0  0
   -5.6000    1.3856    0.0000 H   0  0  0  0  0  0  0  0  0  0  0  0
   -2.4000   -1.3856    0.0000 C   0  0  0  0  0  0  0  0  0  0  0  0
   -3.1999   -2.7713    0.0000 H   0  0  0  0  0  0  0  0  0  0  0  0
   -0.8000   -1.3856    0.0000 C   0  0  0  0  0  0  0  0  0  0  0  0
   -0.0000   -2.7713    0.0000 H   0  0  0  0  0  0  0  0  0  0  0  0
  1  2  1  0  0  0  0
  1  3  1  0  0  0  0
  1  4  1  0  0  0  0
  1  5  1  0  0  0  0
  5  6  2  0  0  0  0
  5  7  1  0  0  0  0
  7  8  1  0  0  0  0
  8  9  1  0  0  0  0
  8 10  2  0  0  0  0
 10 11  1  0  0  0  0
 10 12  1  0  0  0  0
 12 13  1  0  0  0  0
 13 14  1  0  0  0  0
 13 15  1  0  0  0  0
 13 16  1  0  0  0  0
 12 17  2  0  0  0  0
 17 18  1  0  0  0  0
 17 19  1  0  0  0  0
 19  7  2  0  0  0  0
 19 20  1  0  0  0  0
M  END
> <ChemID>
201898

> <source_casrn>
122-00-9

> <CAS>
122-00-9

> <SMILES>
CC(=O)c1ccc(C)cc1

> <NAME>


> <preferred_name>
p-Methylacetophenone

> <iupac>
1-(4-methylphenyl)ethanone

> <MPID>
101505

> <dsstox_substance_id>
DTXSID9044374

> <Canonical_QSARr>
Cc1ccc(cc1)C(C)=O

> <InChI_Code_QSARr>
InChI=1S/C9H10O/c1-7-3-5-9(6-4-7)8(2)10/h3-6H,1-2H3

> <InChI Key_QSARr>
GNKZMNRKLCTJAY-UHFFFAOYSA-N

> <Salt_Solvent>


> <Ready_Biodeg>
1.0

$$$$
201902
  -INDIGO-08031722522D

 20 20  0  0  0  0  0  0  0  0999 V2000
    4.8000   -0.0000    0.0000 C   0  0  0  0  0  0  0  0  0  0  0  0
    6.4000   -0.0000    0.0000 H   0  0  0  0  0  0  0  0  0  0  0  0
    5.6000   -1.3856    0.0000 H   0  0  0  0  0  0  0  0  0  0  0  0
    5.6000    1.3856    0.0000 H   0  0  0  0  0  0  0  0  0  0  0  0
    3.1999   -0.0000    0.0000 C   0  0  0  0  0  0  0  0  0  0  0  0
    2.4000    1.3856    0.0000 C   0  0  0  0  0  0  0  0  0  0  0  0
    3.1999    2.7713    0.0000 H   0  0  0  0  0  0  0  0  0  0  0  0
    0.8000    1.3856    0.0000 C   0  0  0  0  0  0  0  0  0  0  0  0
    0.0000    2.7713    0.0000 H   0  0  0  0  0  0  0  0  0  0  0  0
    0.0000   -0.0000    0.0000 C   0  0  0  0  0  0  0  0  0  0  0  0
   -1.6001   -0.0000    0.0000 S   0  0  0  0  0  0  0  0  0  0  0  0
   -3.2000   -0.0000    0.0000 N   0  0  0  0  0  0  0  0  0  0  0  0
   -4.0000   -1.3856    0.0000 H   0  0  0  0  0  0  0  0  0  0  0  0
   -4.0000    1.3856    0.0000 H   0  0  0  0  0  0  0  0  0  0  0  0
   -1.6001    1.6000    0.0000 O   0  0  0  0  0  0  0  0  0  0  0  0
   -1.6001   -1.6000    0.0000 O   0  0  0  0  0  0  0  0  0  0  0  0
    0.8000   -1.3856    0.0000 C   0  0  0  0  0  0  0  0  0  0  0  0
    0.0000   -2.7713    0.0000 H   0  0  0  0  0  0  0  0  0  0  0  0
    2.4000   -1.3856    0.0000 C   0  0  0  0  0  0  0  0  0  0  0  0
    3.1999   -2.7713    0.0000 H   0  0  0  0  0  0  0  0  0  0  0  0
  1  2  1  0  0  0  0
  1  3  1  0  0  0  0
  1  4  1  0  0  0  0
  1  5  1  0  0  0  0
  5  6  1  0  0  0  0
  6  7  1  0  0  0  0
  6  8  2  0  0  0  0
  8  9  1  0  0  0  0
  8 10  1  0  0  0  0
 10 11  1  0  0  0  0
 11 12  1  0  0  0  0
 12 13  1  0  0  0  0
 12 14  1  0  0  0  0
 11 15  2  0  0  0  0
 11 16  2  0  0  0  0
 10 17  2  0  0  0  0
 17 18  1  0  0  0  0
 17 19  1  0  0  0  0
 19  5  2  0  0  0  0
 19 20  1  0  0  0  0
M  END
> <ChemID>
201902

> <source_casrn>
70-55-3

> <CAS>
70-55-3

> <SMILES>
Cc1ccc(cc1)[S](N)(=O)=O

> <NAME>


> <preferred_name>
4-Toluenesulfonamide

> <iupac>
4-methylbenzenesulfonamide

> <MPID>
101506

> <dsstox_substance_id>
DTXSID8029105

> <Canonical_QSARr>
Cc1ccc(cc1)S(N)(=O)=O

> <InChI_Code_QSARr>
InChI=1S/C7H9NO2S/c1-6-2-4-7(5-3-6)11(8,9)10/h2-5H,1H3,(H2,8,9,10)

> <InChI Key_QSARr>
LMYRWZFENFIFIT-UHFFFAOYSA-N

> <Salt_Solvent>


> <Ready_Biodeg>
0.0

$$$$
201908
  -INDIGO-08031722522D

 21 21  0  0  0  0  0  0  0  0999 V2000
    1.3857    2.4000    0.0000 C   0  0  0  0  0  0  0  0  0  0  0  0
    2.7713    3.2000    0.0000 H   0  0  0  0  0  0  0  0  0  0  0  0
    1.3857    4.0000    0.0000 H   0  0  0  0  0  0  0  0  0  0  0  0
    2.7713    1.6000    0.0000 H   0  0  0  0  0  0  0  0  0  0  0  0
    0.0000    1.6000    0.0000 C   0  0  0  0  0  0  0  0  0  0  0  0
   -1.3857    2.4000    0.0000 C   0  0  0  0  0  0  0  0  0  0  0  0
   -1.3857    4.0000    0.0000 H   0  0  0  0  0  0  0  0  0  0  0  0
   -2.7713    1.6000    0.0000 C   0  0  0  0  0  0  0  0  0  0  0  0
   -4.1570    2.4000    0.0000 H   0  0  0  0  0  0  0  0  0  0  0  0
   -2.7713    0.0000    0.0000 C   0  0  0  0  0  0  0  0  0  0  0  0
   -4.1570   -0.8000    0.0000 N   0  0  0  0  0  0  0  0  0  0  0  0
   -5.5426    0.0000    0.0000 O   0  0  0  0  0  0  0  0  0  0  0  0
   -4.1569   -2.4000    0.0000 O   0  0  0  0  0  0  0  0  0  0  0  0
   -1.3857   -0.8000    0.0000 C   0  0  0  0  0  0  0  0  0  0  0  0
   -1.3857   -2.4000    0.0000 H   0  0  0  0  0  0  0  0  0  0  0  0
    0.0000    0.0000    0.0000 C   0  0  0  0  0  0  0  0  0  0  0  0
    1.3857   -0.8000    0.0000 S   0  0  0  0  0  0  0  0  0  0  0  0
    2.7713   -1.6000    0.0000 O   0  0  0  0  0  0  0  0  0  0  0  0
    2.7713   -3.2000    0.0000 H   0  0  0  0  0  0  0  0  0  0  0  0
    0.5856   -2.1856    0.0000 O   0  0  0  0  0  0  0  0  0  0  0  0
    2.1857    0.5856    0.0000 O   0  0  0  0  0  0  0  0  0  0  0  0
  1  2  1  0  0  0  0
  1  3  1  0  0  0  0
  1  4  1  0  0  0  0
  1  5  1  0  0  0  0
  5  6  1  0  0  0  0
  6  7  1  0  0  0  0
  6  8  2  0  0  0  0
  8  9  1  0  0  0  0
  8 10  1  0  0  0  0
 10 11  1  0  0  0  0
 11 12  1  0  0  0  0
 11 13  2  0  0  0  0
 10 14  2  0  0  0  0
 14 15  1  0  0  0  0
 14 16  1  0  0  0  0
 16  5  2  0  0  0  0
 16 17  1  0  0  0  0
 17 18  1  0  0  0  0
 18 19  1  0  0  0  0
 17 20  2  0  0  0  0
 17 21  2  0  0  0  0
M  CHG  2  11   1  12  -1
M  END
> <ChemID>
201908

> <source_casrn>
121-03-9

> <CAS>
121-03-9

> <SMILES>
Cc1ccc(cc1[S](O)(=O)=O)[N+]([O-])=O

> <NAME>


> <preferred_name>
2-Methyl-5-nitrobenzenesulfonic acid

> <iupac>
2-methyl-5-nitrobenzenesulfonic acid

> <MPID>
101508

> <dsstox_substance_id>
DTXSID4026975

> <Canonical_QSARr>
Cc1ccc(cc1S(O)(=O)=O)[N+]([O-])=O

> <InChI_Code_QSARr>
InChI=1S/C7H7NO5S/c1-5-2-3-6(8(9)10)4-7(5)14(11,12)13/h2-4H,1H3,(H,11,12,13)

> <InChI Key_QSARr>
ZDTXQHVBLWYPHS-UHFFFAOYSA-N

> <Salt_Solvent>


> <Ready_Biodeg>
0.0

$$$$
201910
  -INDIGO-08031722522D

 34 35  0  0  0  0  0  0  0  0999 V2000
    0.2778    1.5756    0.0000 C   0  0  0  0  0  0  0  0  0  0  0  0
    0.5556    3.1514    0.0000 H   0  0  0  0  0  0  0  0  0  0  0  0
   -0.9478    2.6042    0.0000 H   0  0  0  0  0  0  0  0  0  0  0  0
   -1.2257    1.0284    0.0000 H   0  0  0  0  0  0  0  0  0  0  0  0
    0.0001    0.0000    0.0000 C   0  0  0  0  0  0  0  0  0  0  0  0
    0.0001   -1.6000    0.0000 H   0  0  0  0  0  0  0  0  0  0  0  0
   -1.5756   -0.2779    0.0000 C   0  0  0  0  0  0  0  0  0  0  0  0
   -2.6041    0.9478    0.0000 C   0  0  0  0  0  0  0  0  0  0  0  0
   -2.0569    2.4514    0.0000 H   0  0  0  0  0  0  0  0  0  0  0  0
   -4.1799    0.6700    0.0000 C   0  0  0  0  0  0  0  0  0  0  0  0
   -5.2084    1.8957    0.0000 H   0  0  0  0  0  0  0  0  0  0  0  0
   -4.7271   -0.8335    0.0000 C   0  0  0  0  0  0  0  0  0  0  0  0
   -6.3028   -1.1114    0.0000 H   0  0  0  0  0  0  0  0  0  0  0  0
   -3.6986   -2.0592    0.0000 C   0  0  0  0  0  0  0  0  0  0  0  0
   -4.2458   -3.5626    0.0000 H   0  0  0  0  0  0  0  0  0  0  0  0
   -2.1230   -1.7814    0.0000 C   0  0  0  0  0  0  0  0  0  0  0  0
   -1.0945   -3.0071    0.0000 H   0  0  0  0  0  0  0  0  0  0  0  0
    1.5999    0.0000    0.0000 C   0  0  0  0  0  0  0  0  0  0  0  0
    2.4001    1.3856    0.0000 C   0  0  0  0  0  0  0  0  0  0  0  0
    1.5999    2.7713    0.0000 H   0  0  0  0  0  0  0  0  0  0  0  0
    4.0000    1.3856    0.0000 C   0  0  0  0  0  0  0  0  0  0  0  0
    4.7999    2.7713    0.0000 H   0  0  0  0  0  0  0  0  0  0  0  0
    4.7999    0.0000    0.0000 C   0  0  0  0  0  0  0  0  0  0  0  0
    6.4000    0.0000    0.0000 H   0  0  0  0  0  0  0  0  0  0  0  0
    4.0000   -1.3856    0.0000 C   0  0  0  0  0  0  0  0  0  0  0  0
    4.7999   -2.7713    0.0000 C   0  0  0  0  0  0  0  0  0  0  0  0
    5.6001   -4.1569    0.0000 H   0  0  0  0  0  0  0  0  0  0  0  0
    6.4000   -2.7713    0.0000 H   0  0  0  0  0  0  0  0  0  0  0  0
    4.0000   -4.1569    0.0000 H   0  0  0  0  0  0  0  0  0  0  0  0
    2.4001   -1.3856    0.0000 C   0  0  0  0  0  0  0  0  0  0  0  0
    1.5999   -2.7713    0.0000 C   0  0  0  0  0  0  0  0  0  0  0  0
    0.8000   -4.1569    0.0000 H   0  0  0  0  0  0  0  0  0  0  0  0
    2.4001   -4.1569    0.0000 H   0  0  0  0  0  0  0  0  0  0  0  0
    0.0001   -2.7713    0.0000 H   0  0  0  0  0  0  0  0  0  0  0  0
  1  2  1  0  0  0  0
  1  3  1  0  0  0  0
  1  4  1  0  0  0  0
  1  5  1  0  0  0  0
  5  6  1  0  0  0  0
  5  7  1  0  0  0  0
  7  8  1  0  0  0  0
  8  9  1  0  0  0  0
  8 10  2  0  0  0  0
 10 11  1  0  0  0  0
 10 12  1  0  0  0  0
 12 13  1  0  0  0  0
 12 14  2  0  0  0  0
 14 15  1  0  0  0  0
 14 16  1  0  0  0  0
 16  7  2  0  0  0  0
 16 17  1  0  0  0  0
  5 18  1  0  0  0  0
 18 19  1  0  0  0  0
 19 20  1  0  0  0  0
 19 21  2  0  0  0  0
 21 22  1  0  0  0  0
 21 23  1  0  0  0  0
 23 24  1  0  0  0  0
 23 25  2  0  0  0  0
 25 26  1  0  0  0  0
 26 27  1  0  0  0  0
 26 28  1  0  0  0  0
 26 29  1  0  0  0  0
 25 30  1  0  0  0  0
 30 18  2  0  0  0  0
 30 31  1  0  0  0  0
 31 32  1  0  0  0  0
 31 33  1  0  0  0  0
 31 34  1  0  0  0  0
M  END
> <ChemID>
201910

> <source_casrn>
40766-31-2

> <CAS>
NOCAS_866013

> <SMILES>
CC(c1ccccc1)c2cccc(C)c2C

> <NAME>


> <preferred_name>


> <iupac>


> <MPID>
101510

> <dsstox_substance_id>
DTXSID10866013

> <Canonical_QSARr>
Cc1cccc(C(C)c2ccccc2)c1C

> <InChI_Code_QSARr>
InChI=1S/C16H18/c1-12-8-7-11-16(13(12)2)14(3)15-9-5-4-6-10-15/h4-11,14H,1-3H3

> <InChI Key_QSARr>
GNPWYHFXSMINJQ-UHFFFAOYSA-N

> <Salt_Solvent>


> <Ready_Biodeg>
0.0

$$$$
201912
  -INDIGO-08031722522D

 19 19  0  0  0  0  0  0  0  0999 V2000
    0.8000    1.3856    0.0000 C   0  0  0  0  0  0  0  0  0  0  0  0
    1.6001    2.7713    0.0000 H   0  0  0  0  0  0  0  0  0  0  0  0
    2.4000    1.3856    0.0000 H   0  0  0  0  0  0  0  0  0  0  0  0
   -0.0001    2.7713    0.0000 H   0  0  0  0  0  0  0  0  0  0  0  0
    0.0001    0.0000    0.0000 C   0  0  0  0  0  0  0  0  0  0  0  0
    0.8000   -1.3856    0.0000 C   0  0  0  0  0  0  0  0  0  0  0  0
    2.4000   -1.3856    0.0000 H   0  0  0  0  0  0  0  0  0  0  0  0
    0.0001   -2.7713    0.0000 C   0  0  0  0  0  0  0  0  0  0  0  0
    0.8000   -4.1569    0.0000 H   0  0  0  0  0  0  0  0  0  0  0  0
   -1.5999   -2.7713    0.0000 C   0  0  0  0  0  0  0  0  0  0  0  0
   -2.4000   -4.1569    0.0000 H   0  0  0  0  0  0  0  0  0  0  0  0
   -2.4000   -1.3856    0.0000 C   0  0  0  0  0  0  0  0  0  0  0  0
   -4.0000   -1.3856    0.0000 C   0  0  0  0  0  0  0  0  0  0  0  0
   -5.6000   -1.3856    0.0000 H   0  0  0  0  0  0  0  0  0  0  0  0
   -4.8001   -2.7713    0.0000 H   0  0  0  0  0  0  0  0  0  0  0  0
   -4.8001    0.0000    0.0000 H   0  0  0  0  0  0  0  0  0  0  0  0
   -1.5999    0.0000    0.0000 C   0  0  0  0  0  0  0  0  0  0  0  0
   -2.4000    1.3856    0.0000 O   0  0  0  0  0  0  0  0  0  0  0  0
   -4.0000    1.3856    0.0000 H   0  0  0  0  0  0  0  0  0  0  0  0
  1  2  1  0  0  0  0
  1  3  1  0  0  0  0
  1  4  1  0  0  0  0
  1  5  1  0  0  0  0
  5  6  1  0  0  0  0
  6  7  1  0  0  0  0
  6  8  2  0  0  0  0
  8  9  1  0  0  0  0
  8 10  1  0  0  0  0
 10 11  1  0  0  0  0
 10 12  2  0  0  0  0
 12 13  1  0  0  0  0
 13 14  1  0  0  0  0
 13 15  1  0  0  0  0
 13 16  1  0  0  0  0
 12 17  1  0  0  0  0
 17  5  2  0  0  0  0
 17 18  1  0  0  0  0
 18 19  1  0  0  0  0
M  END
> <ChemID>
201912

> <source_casrn>
576-26-1

> <CAS>
576-26-1

> <SMILES>
Cc1cccc(C)c1O

> <NAME>


> <preferred_name>
2,6-Dimethylphenol

> <iupac>
2,6-dimethylphenol

> <MPID>
101511

> <dsstox_substance_id>
DTXSID9024063

> <Canonical_QSARr>
Cc1cccc(C)c1O

> <InChI_Code_QSARr>
InChI=1S/C8H10O/c1-6-4-3-5-7(2)8(6)9/h3-5,9H,1-2H3

> <InChI Key_QSARr>
NXXYKOUNUYWIHA-UHFFFAOYSA-N

> <Salt_Solvent>


> <Ready_Biodeg>
0.0

$$$$
201915
  -INDIGO-08031722522D

 20 20  0  0  0  0  0  0  0  0999 V2000
    2.4000    1.3856    0.0000 C   0  0  0  0  0  0  0  0  0  0  0  0
    3.2000    2.7713    0.0000 H   0  0  0  0  0  0  0  0  0  0  0  0
    4.0000    1.3856    0.0000 H   0  0  0  0  0  0  0  0  0  0  0  0
    1.6000    2.7713    0.0000 H   0  0  0  0  0  0  0  0  0  0  0  0
    1.6000    0.0000    0.0000 C   0  0  0  0  0  0  0  0  0  0  0  0
    2.4000   -1.3856    0.0000 C   0  0  0  0  0  0  0  0  0  0  0  0
    4.0000   -1.3856    0.0000 H   0  0  0  0  0  0  0  0  0  0  0  0
    1.6000   -2.7713    0.0000 C   0  0  0  0  0  0  0  0  0  0  0  0
    2.4000   -4.1569    0.0000 H   0  0  0  0  0  0  0  0  0  0  0  0
    0.0000   -2.7713    0.0000 C   0  0  0  0  0  0  0  0  0  0  0  0
   -0.8000   -4.1569    0.0000 H   0  0  0  0  0  0  0  0  0  0  0  0
   -0.8000   -1.3856    0.0000 C   0  0  0  0  0  0  0  0  0  0  0  0
   -2.4000   -1.3856    0.0000 N   0  0  0  0  0  0  0  0  0  0  0  0
   -3.2000   -2.7713    0.0000 O   0  0  0  0  0  0  0  0  0  0  0  0
   -3.2000    0.0000    0.0000 O   0  0  0  0  0  0  0  0  0  0  0  0
    0.0000    0.0000    0.0000 C   0  0  0  0  0  0  0  0  0  0  0  0
   -0.8000    1.3856    0.0000 C   0  0  0  0  0  0  0  0  0  0  0  0
   -1.6000    2.7713    0.0000 H   0  0  0  0  0  0  0  0  0  0  0  0
   -2.4000    1.3856    0.0000 H   0  0  0  0  0  0  0  0  0  0  0  0
    0.0000    2.7713    0.0000 H   0  0  0  0  0  0  0  0  0  0  0  0
  1  2  1  0  0  0  0
  1  3  1  0  0  0  0
  1  4  1  0  0  0  0
  1  5  1  0  0  0  0
  5  6  1  0  0  0  0
  6  7  1  0  0  0  0
  6  8  2  0  0  0  0
  8  9  1  0  0  0  0
  8 10  1  0  0  0  0
 10 11  1  0  0  0  0
 10 12  2  0  0  0  0
 12 13  1  0  0  0  0
 13 14  1  0  0  0  0
 13 15  2  0  0  0  0
 12 16  1  0  0  0  0
 16  5  2  0  0  0  0
 16 17  1  0  0  0  0
 17 18  1  0  0  0  0
 17 19  1  0  0  0  0
 17 20  1  0  0  0  0
M  CHG  2  13   1  14  -1
M  END
> <ChemID>
201915

> <source_casrn>
83-41-0

> <CAS>
83-41-0

> <SMILES>
Cc1cccc(c1C)[N+]([O-])=O

> <NAME>


> <preferred_name>
1,2-Dimethyl-3-nitrobenzene

> <iupac>
1,2-dimethyl-3-nitrobenzene

> <MPID>
101512

> <dsstox_substance_id>
DTXSID7025132

> <Canonical_QSARr>
Cc1cccc(c1C)[N+]([O-])=O

> <InChI_Code_QSARr>
InChI=1S/C8H9NO2/c1-6-4-3-5-8(7(6)2)9(10)11/h3-5H,1-2H3

> <InChI Key_QSARr>
FVHAWXWFPBPFOS-UHFFFAOYSA-N

> <Salt_Solvent>


> <Ready_Biodeg>
0.0

$$$$
201916
  -INDIGO-08031722522D

 28 28  0  0  0  0  0  0  0  0999 V2000
    4.7999    2.7713    0.0000 C   0  0  0  0  0  0  0  0  0  0  0  0
    5.6000    4.1569    0.0000 H   0  0  0  0  0  0  0  0  0  0  0  0
    6.4000    2.7713    0.0000 H   0  0  0  0  0  0  0  0  0  0  0  0
    4.0000    4.1569    0.0000 H   0  0  0  0  0  0  0  0  0  0  0  0
    4.0000    1.3857    0.0000 C   0  0  0  0  0  0  0  0  0  0  0  0
    4.8001    0.0000    0.0000 C   0  0  0  0  0  0  0  0  0  0  0  0
    6.4000    0.0000    0.0000 H   0  0  0  0  0  0  0  0  0  0  0  0
    4.0000   -1.3856    0.0000 C   0  0  0  0  0  0  0  0  0  0  0  0
    4.8001   -2.7713    0.0000 H   0  0  0  0  0  0  0  0  0  0  0  0
    2.4000   -1.3856    0.0000 C   0  0  0  0  0  0  0  0  0  0  0  0
    1.5999   -2.7713    0.0000 H   0  0  0  0  0  0  0  0  0  0  0  0
    1.5999    0.0000    0.0000 C   0  0  0  0  0  0  0  0  0  0  0  0
    0.0000    0.0000    0.0000 C   0  0  0  0  0  0  0  0  0  0  0  0
   -1.6001    0.0000    0.0000 C   0  0  0  0  0  0  0  0  0  0  0  0
   -3.2000    0.0000    0.0000 H   0  0  0  0  0  0  0  0  0  0  0  0
   -2.6284   -1.2257    0.0000 H   0  0  0  0  0  0  0  0  0  0  0  0
   -2.6284    1.2257    0.0000 H   0  0  0  0  0  0  0  0  0  0  0  0
    0.0000   -1.6000    0.0000 C   0  0  0  0  0  0  0  0  0  0  0  0
    0.2779   -3.1757    0.0000 H   0  0  0  0  0  0  0  0  0  0  0  0
   -1.2257   -2.6284    0.0000 H   0  0  0  0  0  0  0  0  0  0  0  0
   -1.5035   -1.0527    0.0000 H   0  0  0  0  0  0  0  0  0  0  0  0
    0.0000    1.6000    0.0000 C   0  0  0  0  0  0  0  0  0  0  0  0
    0.2779    3.1757    0.0000 H   0  0  0  0  0  0  0  0  0  0  0  0
   -1.2257    2.6284    0.0000 H   0  0  0  0  0  0  0  0  0  0  0  0
   -1.5035    1.0528    0.0000 H   0  0  0  0  0  0  0  0  0  0  0  0
    2.4000    1.3857    0.0000 C   0  0  0  0  0  0  0  0  0  0  0  0
    1.5999    2.7713    0.0000 O   0  0  0  0  0  0  0  0  0  0  0  0
    2.4000    4.1569    0.0000 H   0  0  0  0  0  0  0  0  0  0  0  0
  1  2  1  0  0  0  0
  1  3  1  0  0  0  0
  1  4  1  0  0  0  0
  1  5  1  0  0  0  0
  5  6  1  0  0  0  0
  6  7  1  0  0  0  0
  6  8  2  0  0  0  0
  8  9  1  0  0  0  0
  8 10  1  0  0  0  0
 10 11  1  0  0  0  0
 10 12  2  0  0  0  0
 12 13  1  0  0  0  0
 13 14  1  0  0  0  0
 14 15  1  0  0  0  0
 14 16  1  0  0  0  0
 14 17  1  0  0  0  0
 13 18  1  0  0  0  0
 18 19  1  0  0  0  0
 18 20  1  0  0  0  0
 18 21  1  0  0  0  0
 13 22  1  0  0  0  0
 22 23  1  0  0  0  0
 22 24  1  0  0  0  0
 22 25  1  0  0  0  0
 12 26  1  0  0  0  0
 26  5  2  0  0  0  0
 26 27  1  0  0  0  0
 27 28  1  0  0  0  0
M  END
> <ChemID>
201916

> <source_casrn>
2219-82-1

> <CAS>
2219-82-1

> <SMILES>
Cc1cccc(c1O)C(C)(C)C

> <NAME>


> <preferred_name>
2-tert-Butyl-6-methylphenol

> <iupac>
C11H16O

> <MPID>
101513

> <dsstox_substance_id>
DTXSID4047468

> <Canonical_QSARr>
Cc1cccc(c1O)C(C)(C)C

> <InChI_Code_QSARr>
InChI=1S/C11H16O/c1-8-6-5-7-9(10(8)12)11(2,3)4/h5-7,12H,1-4H3

> <InChI Key_QSARr>
BKZXZGWHTRCFPX-UHFFFAOYSA-N

> <Salt_Solvent>


> <Ready_Biodeg>
0.0

$$$$
201924
  -INDIGO-08031722522D

 32 32  0  0  0  0  0  0  0  0999 V2000
   -1.3856    2.4001    0.0000 C   0  0  0  0  0  0  0  0  0  0  0  0
   -1.3856    4.0000    0.0000 H   0  0  0  0  0  0  0  0  0  0  0  0
   -2.7713    3.2000    0.0000 H   0  0  0  0  0  0  0  0  0  0  0  0
   -0.0001    3.2000    0.0000 H   0  0  0  0  0  0  0  0  0  0  0  0
   -0.0001    1.6000    0.0000 C   0  0  0  0  0  0  0  0  0  0  0  0
    1.5864    1.8088    0.0000 H   0  0  0  0  0  0  0  0  0  0  0  0
    0.9740    2.8694    0.0000 H   0  0  0  0  0  0  0  0  0  0  0  0
   -0.0001   -0.0000    0.0000 N   0  0  0  0  0  0  0  0  0  0  0  0
   -1.3856   -0.8000    0.0000 C   0  0  0  0  0  0  0  0  0  0  0  0
   -1.3856   -2.4000    0.0000 O   0  0  0  0  0  0  0  0  0  0  0  0
   -2.7713   -0.0000    0.0000 C   0  0  0  0  0  0  0  0  0  0  0  0
   -2.7713    1.6000    0.0000 H   0  0  0  0  0  0  0  0  0  0  0  0
   -4.1570   -0.8000    0.0000 C   0  0  0  0  0  0  0  0  0  0  0  0
   -4.1570   -2.4000    0.0000 H   0  0  0  0  0  0  0  0  0  0  0  0
   -5.5425   -0.0000    0.0000 C   0  0  0  0  0  0  0  0  0  0  0  0
   -6.9282    0.8000    0.0000 H   0  0  0  0  0  0  0  0  0  0  0  0
   -6.9282   -0.8000    0.0000 H   0  0  0  0  0  0  0  0  0  0  0  0
   -5.5425    1.6000    0.0000 H   0  0  0  0  0  0  0  0  0  0  0  0
    1.3856   -0.8000    0.0000 C   0  0  0  0  0  0  0  0  0  0  0  0
    1.3856   -2.4000    0.0000 C   0  0  0  0  0  0  0  0  0  0  0  0
   -0.0001   -3.2001    0.0000 H   0  0  0  0  0  0  0  0  0  0  0  0
    2.7713   -3.2001    0.0000 C   0  0  0  0  0  0  0  0  0  0  0  0
    2.7713   -4.8000    0.0000 H   0  0  0  0  0  0  0  0  0  0  0  0
    4.1569   -2.4000    0.0000 C   0  0  0  0  0  0  0  0  0  0  0  0
    5.5426   -3.2001    0.0000 H   0  0  0  0  0  0  0  0  0  0  0  0
    4.1569   -0.8000    0.0000 C   0  0  0  0  0  0  0  0  0  0  0  0
    5.5426   -0.0000    0.0000 H   0  0  0  0  0  0  0  0  0  0  0  0
    2.7713   -0.0000    0.0000 C   0  0  0  0  0  0  0  0  0  0  0  0
    3.3184    1.5035    0.0000 C   0  0  0  0  0  0  0  0  0  0  0  0
    3.8657    3.0070    0.0000 H   0  0  0  0  0  0  0  0  0  0  0  0
    4.8942    1.7813    0.0000 H   0  0  0  0  0  0  0  0  0  0  0  0
    2.2901    2.7292    0.0000 H   0  0  0  0  0  0  0  0  0  0  0  0
  1  2  1  0  0  0  0
  1  3  1  0  0  0  0
  1  4  1  0  0  0  0
  1  5  1  0  0  0  0
  5  6  1  0  0  0  0
  5  7  1  0  0  0  0
  5  8  1  0  0  0  0
  8  9  1  0  0  0  0
  9 10  2  0  0  0  0
  9 11  1  0  0  0  0
 11 12  1  0  0  0  0
 11 13  2  0  0  0  0
 13 14  1  0  0  0  0
 13 15  1  0  0  0  0
 15 16  1  0  0  0  0
 15 17  1  0  0  0  0
 15 18  1  0  0  0  0
  8 19  1  0  0  0  0
 19 20  1  0  0  0  0
 20 21  1  0  0  0  0
 20 22  2  0  0  0  0
 22 23  1  0  0  0  0
 22 24  1  0  0  0  0
 24 25  1  0  0  0  0
 24 26  2  0  0  0  0
 26 27  1  0  0  0  0
 26 28  1  0  0  0  0
 28 19  2  0  0  0  0
 28 29  1  0  0  0  0
 29 30  1  0  0  0  0
 29 31  1  0  0  0  0
 29 32  1  0  0  0  0
M  END
> <ChemID>
201924

> <source_casrn>
483-63-6

> <CAS>
483-63-6

> <SMILES>
CCN(C(=O)\C=C\C)c1ccccc1C

> <NAME>


> <preferred_name>
Crotamiton

> <iupac>
N-ethyl-N-(2-methylphenyl)but-2-enamide

> <MPID>
101515

> <dsstox_substance_id>
DTXSID6040664

> <Canonical_QSARr>
Cc1ccccc1N(CC)C(=O)C=CC

> <InChI_Code_QSARr>
InChI=1S/C13H17NO/c1-4-8-13(15)14(5-2)12-10-7-6-9-11(12)3/h4,6-10H,5H2,1-3H3/b8-4+

> <InChI Key_QSARr>
DNTGGZPQPQTDQF-XBXARRHUSA-N

> <Salt_Solvent>


> <Ready_Biodeg>
0.0

$$$$
201927
  -INDIGO-08031722522D

 35 36  0  0  0  0  0  0  0  0999 V2000
    2.3999    1.3857    0.0000 C   0  0  0  0  0  0  0  0  0  0  0  0
    3.2000    2.7713    0.0000 H   0  0  0  0  0  0  0  0  0  0  0  0
    4.0000    1.3857    0.0000 H   0  0  0  0  0  0  0  0  0  0  0  0
    1.6001    2.7713    0.0000 H   0  0  0  0  0  0  0  0  0  0  0  0
    1.6001    0.0000    0.0000 C   0  0  0  0  0  0  0  0  0  0  0  0
    2.3999   -1.3856    0.0000 C   0  0  0  0  0  0  0  0  0  0  0  0
    4.0000   -1.3856    0.0000 H   0  0  0  0  0  0  0  0  0  0  0  0
    1.6001   -2.7712    0.0000 C   0  0  0  0  0  0  0  0  0  0  0  0
    2.3999   -4.1569    0.0000 H   0  0  0  0  0  0  0  0  0  0  0  0
   -0.0000   -2.7712    0.0000 C   0  0  0  0  0  0  0  0  0  0  0  0
   -0.8001   -4.1569    0.0000 H   0  0  0  0  0  0  0  0  0  0  0  0
   -0.8001   -1.3856    0.0000 C   0  0  0  0  0  0  0  0  0  0  0  0
   -2.4000   -1.3856    0.0000 H   0  0  0  0  0  0  0  0  0  0  0  0
   -0.0000    0.0000    0.0000 C   0  0  0  0  0  0  0  0  0  0  0  0
   -0.8001    1.3857    0.0000 N   0  0  0  0  0  0  0  0  0  0  0  0
   -0.0000    2.7713    0.0000 H   0  0  0  0  0  0  0  0  0  0  0  0
   -2.4000    1.3857    0.0000 C   0  0  0  0  0  0  0  0  0  0  0  0
   -2.9472    2.8891    0.0000 N   0  0  0  0  0  0  0  0  0  0  0  0
   -1.9187    4.1148    0.0000 H   0  0  0  0  0  0  0  0  0  0  0  0
   -4.5230    3.1669    0.0000 H   0  0  0  0  0  0  0  0  0  0  0  0
   -3.2000    0.0000    0.0000 N   0  0  0  0  0  0  0  0  0  0  0  0
   -4.7756   -0.2778    0.0000 C   0  0  0  0  0  0  0  0  0  0  0  0
   -5.8042    0.9478    0.0000 C   0  0  0  0  0  0  0  0  0  0  0  0
   -5.2569    2.4513    0.0000 H   0  0  0  0  0  0  0  0  0  0  0  0
   -7.3797    0.6699    0.0000 C   0  0  0  0  0  0  0  0  0  0  0  0
   -8.4083    1.8957    0.0000 H   0  0  0  0  0  0  0  0  0  0  0  0
   -7.9270   -0.8335    0.0000 C   0  0  0  0  0  0  0  0  0  0  0  0
   -9.5028   -1.1113    0.0000 H   0  0  0  0  0  0  0  0  0  0  0  0
   -6.8986   -2.0592    0.0000 C   0  0  0  0  0  0  0  0  0  0  0  0
   -7.4459   -3.5626    0.0000 H   0  0  0  0  0  0  0  0  0  0  0  0
   -5.3229   -1.7814    0.0000 C   0  0  0  0  0  0  0  0  0  0  0  0
   -4.2945   -3.0070    0.0000 C   0  0  0  0  0  0  0  0  0  0  0  0
   -3.2660   -4.2327    0.0000 H   0  0  0  0  0  0  0  0  0  0  0  0
   -4.8418   -4.5105    0.0000 H   0  0  0  0  0  0  0  0  0  0  0  0
   -2.7187   -2.7291    0.0000 H   0  0  0  0  0  0  0  0  0  0  0  0
  1  2  1  0  0  0  0
  1  3  1  0  0  0  0
  1  4  1  0  0  0  0
  1  5  1  0  0  0  0
  5  6  1  0  0  0  0
  6  7  1  0  0  0  0
  6  8  2  0  0  0  0
  8  9  1  0  0  0  0
  8 10  1  0  0  0  0
 10 11  1  0  0  0  0
 10 12  2  0  0  0  0
 12 13  1  0  0  0  0
 12 14  1  0  0  0  0
 14  5  2  0  0  0  0
 14 15  1  0  0  0  0
 15 16  1  0  0  0  0
 15 17  1  0  0  0  0
 17 18  1  0  0  0  0
 18 19  1  0  0  0  0
 18 20  1  0  0  0  0
 17 21  2  0  0  0  0
 21 22  1  0  0  0  0
 22 23  1  0  0  0  0
 23 24  1  0  0  0  0
 23 25  2  0  0  0  0
 25 26  1  0  0  0  0
 25 27  1  0  0  0  0
 27 28  1  0  0  0  0
 27 29  2  0  0  0  0
 29 30  1  0  0  0  0
 29 31  1  0  0  0  0
 31 22  2  0  0  0  0
 31 32  1  0  0  0  0
 32 33  1  0  0  0  0
 32 34  1  0  0  0  0
 32 35  1  0  0  0  0
M  END
> <ChemID>
201927

> <source_casrn>
97-39-2

> <CAS>
97-39-2

> <SMILES>
Cc1ccccc1NC(N)=Nc2ccccc2C

> <NAME>


> <preferred_name>
1,3-Bis(2-methylphenyl)guanidine

> <iupac>
1,3-bis(2-methylphenyl)guanidine

> <MPID>
101517

> <dsstox_substance_id>
DTXSID2026606

> <Canonical_QSARr>
Cc1ccccc1NC(N)=Nc1ccccc1C

> <InChI_Code_QSARr>
InChI=1S/C15H17N3/c1-11-7-3-5-9-13(11)17-15(16)18-14-10-6-4-8-12(14)2/h3-10H,1-2H3,(H3,16,17,18)

> <InChI Key_QSARr>
OPNUROKCUBTKLF-UHFFFAOYSA-N

> <Salt_Solvent>


> <Ready_Biodeg>
0.0

$$$$
201936
  -INDIGO-08031722522D

 10  9  0  0  0  0  0  0  0  0999 V2000
    1.3856   -2.4000    0.0000 Cl  0  0  0  0  0  0  0  0  0  0  0  0
    1.3856   -0.8000    0.0000 C   0  0  0  0  0  0  0  0  0  0  0  0
    2.7713    0.0000    0.0000 Cl  0  0  0  0  0  0  0  0  0  0  0  0
    0.0000    0.0000    0.0000 C   0  0  0  0  0  0  0  0  0  0  0  0
    0.0000    1.6000    0.0000 Cl  0  0  0  0  0  0  0  0  0  0  0  0
   -1.3856   -0.8000    0.0000 C   0  0  0  0  0  0  0  0  0  0  0  0
   -1.3856   -2.4000    0.0000 Cl  0  0  0  0  0  0  0  0  0  0  0  0
   -2.7713    0.0000    0.0000 C   0  0  0  0  0  0  0  0  0  0  0  0
   -4.1569   -0.8000    0.0000 Cl  0  0  0  0  0  0  0  0  0  0  0  0
   -2.7713    1.6000    0.0000 Cl  0  0  0  0  0  0  0  0  0  0  0  0
  1  2  1  0  0  0  0
  2  3  1  0  0  0  0
  2  4  2  0  0  0  0
  4  5  1  0  0  0  0
  4  6  1  0  0  0  0
  6  7  1  0  0  0  0
  6  8  2  0  0  0  0
  8  9  1  0  0  0  0
  8 10  1  0  0  0  0
M  END
> <ChemID>
201936

> <source_casrn>
87-68-3

> <CAS>
87-68-3

> <SMILES>
ClC(Cl)=C(Cl)C(Cl)=C(Cl)Cl

> <NAME>


> <preferred_name>
Hexachloro-1,3-butadiene

> <iupac>
1,1,2,3,4,4-hexachlorobuta-1,3-diene

> <MPID>
101518

> <dsstox_substance_id>
DTXSID7020683

> <Canonical_QSARr>
ClC(Cl)=C(Cl)C(Cl)=C(Cl)Cl

> <InChI_Code_QSARr>
InChI=1S/C4Cl6/c5-1(3(7)8)2(6)4(9)10

> <InChI Key_QSARr>
RWNKSTSCBHKHTB-UHFFFAOYSA-N

> <Salt_Solvent>


> <Ready_Biodeg>
0.0

$$$$
201952
  -INDIGO-08031722522D

 11 10  0  0  0  0  0  0  0  0999 V2000
    1.3856    2.4000    0.0000 Cl  0  0  0  0  0  0  0  0  0  0  0  0
    1.3856    0.8000    0.0000 C   0  0  0  0  0  0  0  0  0  0  0  0
    2.7713    1.6000    0.0000 H   0  0  0  0  0  0  0  0  0  0  0  0
    2.7713    0.0000    0.0000 H   0  0  0  0  0  0  0  0  0  0  0  0
    0.0000    0.0000    0.0000 C   0  0  0  0  0  0  0  0  0  0  0  0
    0.6123   -1.4782    0.0000 H   0  0  0  0  0  0  0  0  0  0  0  0
   -0.6123   -1.4782    0.0000 H   0  0  0  0  0  0  0  0  0  0  0  0
   -1.3856    0.8000    0.0000 C   0  0  0  0  0  0  0  0  0  0  0  0
   -2.7713    1.6000    0.0000 H   0  0  0  0  0  0  0  0  0  0  0  0
   -2.7713    0.0000    0.0000 H   0  0  0  0  0  0  0  0  0  0  0  0
   -1.3856    2.4000    0.0000 Br  0  0  0  0  0  0  0  0  0  0  0  0
  1  2  1  0  0  0  0
  2  3  1  0  0  0  0
  2  4  1  0  0  0  0
  2  5  1  0  0  0  0
  5  6  1  0  0  0  0
  5  7  1  0  0  0  0
  5  8  1  0  0  0  0
  8  9  1  0  0  0  0
  8 10  1  0  0  0  0
  8 11  1  0  0  0  0
M  END
> <ChemID>
201952

> <source_casrn>
109-70-6

> <CAS>
109-70-6

> <SMILES>
ClCCCBr

> <NAME>


> <preferred_name>
1-Bromo-3-chloropropane

> <iupac>
1-bromo-3-chloropropane

> <MPID>
101519

> <dsstox_substance_id>
DTXSID1051565

> <Canonical_QSARr>
ClCCCBr

> <InChI_Code_QSARr>
InChI=1S/C3H6BrCl/c4-2-1-3-5/h1-3H2

> <InChI Key_QSARr>
MFESCIUQSIBMSM-UHFFFAOYSA-N

> <Salt_Solvent>


> <Ready_Biodeg>
0.0

$$$$
201954
  -INDIGO-08031722522D

 14 13  0  0  0  0  0  0  0  0999 V2000
    1.3856   -2.4000    0.0000 Cl  0  0  0  0  0  0  0  0  0  0  0  0
    1.3856   -0.8000    0.0000 C   0  0  0  0  0  0  0  0  0  0  0  0
    2.7713   -1.6000    0.0000 H   0  0  0  0  0  0  0  0  0  0  0  0
    2.7713    0.0000    0.0000 H   0  0  0  0  0  0  0  0  0  0  0  0
    0.0000    0.0000    0.0000 C   0  0  0  0  0  0  0  0  0  0  0  0
    0.6123    1.4782    0.0000 H   0  0  0  0  0  0  0  0  0  0  0  0
   -0.6123    1.4782    0.0000 H   0  0  0  0  0  0  0  0  0  0  0  0
   -1.3856   -0.8000    0.0000 C   0  0  0  0  0  0  0  0  0  0  0  0
   -1.9980   -2.2782    0.0000 H   0  0  0  0  0  0  0  0  0  0  0  0
   -0.7733   -2.2782    0.0000 H   0  0  0  0  0  0  0  0  0  0  0  0
   -2.7713    0.0000    0.0000 C   0  0  0  0  0  0  0  0  0  0  0  0
   -4.1569    0.8000    0.0000 H   0  0  0  0  0  0  0  0  0  0  0  0
   -4.1569   -0.8000    0.0000 H   0  0  0  0  0  0  0  0  0  0  0  0
   -2.7713    1.6000    0.0000 Cl  0  0  0  0  0  0  0  0  0  0  0  0
  1  2  1  0  0  0  0
  2  3  1  0  0  0  0
  2  4  1  0  0  0  0
  2  5  1  0  0  0  0
  5  6  1  0  0  0  0
  5  7  1  0  0  0  0
  5  8  1  0  0  0  0
  8  9  1  0  0  0  0
  8 10  1  0  0  0  0
  8 11  1  0  0  0  0
 11 12  1  0  0  0  0
 11 13  1  0  0  0  0
 11 14  1  0  0  0  0
M  END
> <ChemID>
201954

> <source_casrn>
110-56-5

> <CAS>
110-56-5

> <SMILES>
ClCCCCCl

> <NAME>


> <preferred_name>
1,4-Dichlorobutane

> <iupac>
1,4-dichlorobutane

> <MPID>
101521

> <dsstox_substance_id>
DTXSID5021918

> <Canonical_QSARr>
ClCCCCCl

> <InChI_Code_QSARr>
InChI=1S/C4H8Cl2/c5-3-1-2-4-6/h1-4H2

> <InChI Key_QSARr>
KJDRSWPQXHESDQ-UHFFFAOYSA-N

> <Salt_Solvent>


> <Ready_Biodeg>
0.0

$$$$
201956
  -INDIGO-08031722522D

 32 33  0  0  0  0  0  0  0  0999 V2000
   -3.0853    3.6770    0.0000 Cl  0  0  0  0  0  0  0  0  0  0  0  0
   -1.5098    3.9549    0.0000 C   0  0  0  0  0  0  0  0  0  0  0  0
   -2.5381    5.1805    0.0000 H   0  0  0  0  0  0  0  0  0  0  0  0
   -0.9625    5.4584    0.0000 H   0  0  0  0  0  0  0  0  0  0  0  0
   -0.4813    2.7292    0.0000 C   0  0  0  0  0  0  0  0  0  0  0  0
    0.8682    3.5889    0.0000 H   0  0  0  0  0  0  0  0  0  0  0  0
    0.9970    2.1169    0.0000 H   0  0  0  0  0  0  0  0  0  0  0  0
   -1.0285    1.2257    0.0000 O   0  0  0  0  0  0  0  0  0  0  0  0
    0.0000    0.0001    0.0000 C   0  0  0  0  0  0  0  0  0  0  0  0
    0.8000   -1.3857    0.0000 H   0  0  0  0  0  0  0  0  0  0  0  0
   -1.3857   -0.8000    0.0000 C   0  0  0  0  0  0  0  0  0  0  0  0
   -2.7714    0.0001    0.0000 C   0  0  0  0  0  0  0  0  0  0  0  0
   -3.0491    1.5757    0.0000 H   0  0  0  0  0  0  0  0  0  0  0  0
   -4.1569   -0.8000    0.0000 C   0  0  0  0  0  0  0  0  0  0  0  0
   -5.5426    0.0001    0.0000 H   0  0  0  0  0  0  0  0  0  0  0  0
   -4.1569   -2.4000    0.0000 C   0  0  0  0  0  0  0  0  0  0  0  0
   -5.5426   -3.2001    0.0000 H   0  0  0  0  0  0  0  0  0  0  0  0
   -2.7714   -3.1999    0.0000 C   0  0  0  0  0  0  0  0  0  0  0  0
   -2.7714   -4.8000    0.0000 H   0  0  0  0  0  0  0  0  0  0  0  0
   -1.3857   -2.4000    0.0000 C   0  0  0  0  0  0  0  0  0  0  0  0
   -0.1600   -3.4285    0.0000 H   0  0  0  0  0  0  0  0  0  0  0  0
    1.6000    0.0001    0.0000 C   0  0  0  0  0  0  0  0  0  0  0  0
    2.4000    1.3857    0.0000 C   0  0  0  0  0  0  0  0  0  0  0  0
    1.8528    2.8892    0.0000 H   0  0  0  0  0  0  0  0  0  0  0  0
    4.0000    1.3857    0.0000 C   0  0  0  0  0  0  0  0  0  0  0  0
    4.8000    2.7713    0.0000 H   0  0  0  0  0  0  0  0  0  0  0  0
    4.8000    0.0001    0.0000 C   0  0  0  0  0  0  0  0  0  0  0  0
    6.4000    0.0001    0.0000 H   0  0  0  0  0  0  0  0  0  0  0  0
    4.0000   -1.3857    0.0000 C   0  0  0  0  0  0  0  0  0  0  0  0
    4.8000   -2.7713    0.0000 H   0  0  0  0  0  0  0  0  0  0  0  0
    2.4000   -1.3857    0.0000 C   0  0  0  0  0  0  0  0  0  0  0  0
    1.6000   -2.7713    0.0000 H   0  0  0  0  0  0  0  0  0  0  0  0
  1  2  1  0  0  0  0
  2  3  1  0  0  0  0
  2  4  1  0  0  0  0
  2  5  1  0  0  0  0
  5  6  1  0  0  0  0
  5  7  1  0  0  0  0
  5  8  1  0  0  0  0
  8  9  1  0  0  0  0
  9 10  1  0  0  0  0
  9 11  1  0  0  0  0
 11 12  1  0  0  0  0
 12 13  1  0  0  0  0
 12 14  2  0  0  0  0
 14 15  1  0  0  0  0
 14 16  1  0  0  0  0
 16 17  1  0  0  0  0
 16 18  2  0  0  0  0
 18 19  1  0  0  0  0
 18 20  1  0  0  0  0
 20 11  2  0  0  0  0
 20 21  1  0  0  0  0
  9 22  1  0  0  0  0
 22 23  1  0  0  0  0
 23 24  1  0  0  0  0
 23 25  2  0  0  0  0
 25 26  1  0  0  0  0
 25 27  1  0  0  0  0
 27 28  1  0  0  0  0
 27 29  2  0  0  0  0
 29 30  1  0  0  0  0
 29 31  1  0  0  0  0
 31 22  2  0  0  0  0
 31 32  1  0  0  0  0
M  END
> <ChemID>
201956

> <source_casrn>
32669-06-0

> <CAS>
32669-06-0

> <SMILES>
ClCCOC(c1ccccc1)c2ccccc2

> <NAME>


> <preferred_name>
Benzhydryl 2-chloroethyl ether

> <iupac>
(2-chloroethoxy-phenylmethyl)benzene

> <MPID>
101522

> <dsstox_substance_id>
DTXSID30186341

> <Canonical_QSARr>
ClCCOC(c1ccccc1)c1ccccc1

> <InChI_Code_QSARr>
InChI=1S/C15H15ClO/c16-11-12-17-15(13-7-3-1-4-8-13)14-9-5-2-6-10-14/h1-10,15H,11-12H2

> <InChI Key_QSARr>
ZNVASENTCOLNJT-UHFFFAOYSA-N

> <Salt_Solvent>


> <Ready_Biodeg>
0.0

$$$$
201958
  -INDIGO-08031722522D

 22 21  0  0  0  0  0  0  0  0999 V2000
    4.1569   -2.4000    0.0000 Cl  0  0  0  0  0  0  0  0  0  0  0  0
    4.1569   -0.8000    0.0000 C   0  0  0  0  0  0  0  0  0  0  0  0
    5.5426   -1.6000    0.0000 H   0  0  0  0  0  0  0  0  0  0  0  0
    5.5426    0.0000    0.0000 H   0  0  0  0  0  0  0  0  0  0  0  0
    2.7713    0.0000    0.0000 C   0  0  0  0  0  0  0  0  0  0  0  0
    3.3835    1.4782    0.0000 H   0  0  0  0  0  0  0  0  0  0  0  0
    2.1590    1.4782    0.0000 H   0  0  0  0  0  0  0  0  0  0  0  0
    1.3856   -0.8000    0.0000 O   0  0  0  0  0  0  0  0  0  0  0  0
   -0.0001    0.0000    0.0000 C   0  0  0  0  0  0  0  0  0  0  0  0
    0.6123    1.4782    0.0000 H   0  0  0  0  0  0  0  0  0  0  0  0
   -0.6122    1.4782    0.0000 H   0  0  0  0  0  0  0  0  0  0  0  0
   -1.3856   -0.8000    0.0000 C   0  0  0  0  0  0  0  0  0  0  0  0
   -1.9979   -2.2782    0.0000 H   0  0  0  0  0  0  0  0  0  0  0  0
   -0.7734   -2.2782    0.0000 H   0  0  0  0  0  0  0  0  0  0  0  0
   -2.7713    0.0000    0.0000 O   0  0  0  0  0  0  0  0  0  0  0  0
   -4.1570   -0.8000    0.0000 C   0  0  0  0  0  0  0  0  0  0  0  0
   -4.7692   -2.2782    0.0000 H   0  0  0  0  0  0  0  0  0  0  0  0
   -3.5446   -2.2782    0.0000 H   0  0  0  0  0  0  0  0  0  0  0  0
   -5.5425    0.0000    0.0000 C   0  0  0  0  0  0  0  0  0  0  0  0
   -6.9282    0.8000    0.0000 H   0  0  0  0  0  0  0  0  0  0  0  0
   -6.9282   -0.8000    0.0000 H   0  0  0  0  0  0  0  0  0  0  0  0
   -5.5425    1.6000    0.0000 Cl  0  0  0  0  0  0  0  0  0  0  0  0
  1  2  1  0  0  0  0
  2  3  1  0  0  0  0
  2  4  1  0  0  0  0
  2  5  1  0  0  0  0
  5  6  1  0  0  0  0
  5  7  1  0  0  0  0
  5  8  1  0  0  0  0
  8  9  1  0  0  0  0
  9 10  1  0  0  0  0
  9 11  1  0  0  0  0
  9 12  1  0  0  0  0
 12 13  1  0  0  0  0
 12 14  1  0  0  0  0
 12 15  1  0  0  0  0
 15 16  1  0  0  0  0
 16 17  1  0  0  0  0
 16 18  1  0  0  0  0
 16 19  1  0  0  0  0
 19 20  1  0  0  0  0
 19 21  1  0  0  0  0
 19 22  1  0  0  0  0
M  END
> <ChemID>
201958

> <source_casrn>
112-26-5

> <CAS>
112-26-5

> <SMILES>
ClCCOCCOCCCl

> <NAME>


> <preferred_name>
1,2-Bis(2-chloroethoxy)ethane

> <iupac>
1-chloro-2-[2-(2-chloroethoxy)ethoxy]ethane

> <MPID>
101523

> <dsstox_substance_id>
DTXSID8047000

> <Canonical_QSARr>
ClCCOCCOCCCl

> <InChI_Code_QSARr>
InChI=1S/C6H12Cl2O2/c7-1-3-9-5-6-10-4-2-8/h1-6H2

> <InChI Key_QSARr>
AGYUOJIYYGGHKV-UHFFFAOYSA-N

> <Salt_Solvent>


> <Ready_Biodeg>
0.0

$$$$
201959
  -INDIGO-08031722522D

 18 18  0  0  0  0  0  0  0  0999 V2000
    1.6000   -0.0000    0.0000 Cl  0  0  0  0  0  0  0  0  0  0  0  0
    0.8001   -1.3856    0.0000 C   0  0  0  0  0  0  0  0  0  0  0  0
    2.4000   -1.3856    0.0000 H   0  0  0  0  0  0  0  0  0  0  0  0
    1.6000   -2.7713    0.0000 H   0  0  0  0  0  0  0  0  0  0  0  0
    0.0000   -0.0000    0.0000 C   0  0  0  0  0  0  0  0  0  0  0  0
    0.2088    1.5863    0.0000 H   0  0  0  0  0  0  0  0  0  0  0  0
    1.2694    0.9740    0.0000 H   0  0  0  0  0  0  0  0  0  0  0  0
   -1.6000    0.0000    0.0000 C   0  0  0  0  0  0  0  0  0  0  0  0
   -2.4000    1.3856    0.0000 C   0  0  0  0  0  0  0  0  0  0  0  0
   -1.6000    2.7713    0.0000 H   0  0  0  0  0  0  0  0  0  0  0  0
   -4.0000    1.3856    0.0000 C   0  0  0  0  0  0  0  0  0  0  0  0
   -4.8001    2.7713    0.0000 H   0  0  0  0  0  0  0  0  0  0  0  0
   -4.8001    0.0000    0.0000 C   0  0  0  0  0  0  0  0  0  0  0  0
   -6.4000    0.0000    0.0000 H   0  0  0  0  0  0  0  0  0  0  0  0
   -4.0000   -1.3856    0.0000 C   0  0  0  0  0  0  0  0  0  0  0  0
   -4.8001   -2.7713    0.0000 H   0  0  0  0  0  0  0  0  0  0  0  0
   -2.4000   -1.3856    0.0000 C   0  0  0  0  0  0  0  0  0  0  0  0
   -1.6000   -2.7713    0.0000 H   0  0  0  0  0  0  0  0  0  0  0  0
  1  2  1  0  0  0  0
  2  3  1  0  0  0  0
  2  4  1  0  0  0  0
  2  5  1  0  0  0  0
  5  6  1  0  0  0  0
  5  7  1  0  0  0  0
  5  8  1  0  0  0  0
  8  9  1  0  0  0  0
  9 10  1  0  0  0  0
  9 11  2  0  0  0  0
 11 12  1  0  0  0  0
 11 13  1  0  0  0  0
 13 14  1  0  0  0  0
 13 15  2  0  0  0  0
 15 16  1  0  0  0  0
 15 17  1  0  0  0  0
 17  8  2  0  0  0  0
 17 18  1  0  0  0  0
M  END
> <ChemID>
201959

> <source_casrn>
622-24-2

> <CAS>
622-24-2

> <SMILES>
ClCCc1ccccc1

> <NAME>


> <preferred_name>
Benzene, (2-chloroethyl)-

> <iupac>
2-chloroethylbenzene

> <MPID>
101524

> <dsstox_substance_id>
DTXSID3060748

> <Canonical_QSARr>
ClCCc1ccccc1

> <InChI_Code_QSARr>
InChI=1S/C8H9Cl/c9-7-6-8-4-2-1-3-5-8/h1-5H,6-7H2

> <InChI Key_QSARr>
MNNZINNZIQVULG-UHFFFAOYSA-N

> <Salt_Solvent>


> <Ready_Biodeg>
0.0

$$$$
201964
  -INDIGO-08031722522D

 25 26  0  0  0  0  0  0  0  0999 V2000
   -0.3462    1.5621    0.0000 Cl  0  0  0  0  0  0  0  0  0  0  0  0
   -0.0001    0.0000    0.0000 Si  0  0  0  0  0  0  0  0  0  0  0  0
    0.8597    1.3494    0.0000 Cl  0  0  0  0  0  0  0  0  0  0  0  0
   -1.5757   -0.2778    0.0000 C   0  0  0  0  0  0  0  0  0  0  0  0
   -2.1230   -1.7813    0.0000 C   0  0  0  0  0  0  0  0  0  0  0  0
   -1.0945   -3.0071    0.0000 H   0  0  0  0  0  0  0  0  0  0  0  0
   -3.6986   -2.0591    0.0000 C   0  0  0  0  0  0  0  0  0  0  0  0
   -4.2459   -3.5627    0.0000 H   0  0  0  0  0  0  0  0  0  0  0  0
   -4.7270   -0.8335    0.0000 C   0  0  0  0  0  0  0  0  0  0  0  0
   -6.3028   -1.1113    0.0000 H   0  0  0  0  0  0  0  0  0  0  0  0
   -4.1799    0.6700    0.0000 C   0  0  0  0  0  0  0  0  0  0  0  0
   -5.2083    1.8957    0.0000 H   0  0  0  0  0  0  0  0  0  0  0  0
   -2.6041    0.9479    0.0000 C   0  0  0  0  0  0  0  0  0  0  0  0
   -2.0570    2.4513    0.0000 H   0  0  0  0  0  0  0  0  0  0  0  0
    1.3857   -0.8000    0.0000 C   0  0  0  0  0  0  0  0  0  0  0  0
    1.3857   -2.4000    0.0000 C   0  0  0  0  0  0  0  0  0  0  0  0
   -0.0001   -3.2000    0.0000 H   0  0  0  0  0  0  0  0  0  0  0  0
    2.7713   -3.2000    0.0000 C   0  0  0  0  0  0  0  0  0  0  0  0
    2.7713   -4.8000    0.0000 H   0  0  0  0  0  0  0  0  0  0  0  0
    4.1569   -2.4000    0.0000 C   0  0  0  0  0  0  0  0  0  0  0  0
    5.5426   -3.2000    0.0000 H   0  0  0  0  0  0  0  0  0  0  0  0
    4.1569   -0.8000    0.0000 C   0  0  0  0  0  0  0  0  0  0  0  0
    5.5426    0.0000    0.0000 H   0  0  0  0  0  0  0  0  0  0  0  0
    2.7713    0.0000    0.0000 C   0  0  0  0  0  0  0  0  0  0  0  0
    2.7713    1.6000    0.0000 H   0  0  0  0  0  0  0  0  0  0  0  0
  1  2  1  0  0  0  0
  2  3  1  0  0  0  0
  2  4  1  0  0  0  0
  4  5  1  0  0  0  0
  5  6  1  0  0  0  0
  5  7  2  0  0  0  0
  7  8  1  0  0  0  0
  7  9  1  0  0  0  0
  9 10  1  0  0  0  0
  9 11  2  0  0  0  0
 11 12  1  0  0  0  0
 11 13  1  0  0  0  0
 13  4  2  0  0  0  0
 13 14  1  0  0  0  0
  2 15  1  0  0  0  0
 15 16  1  0  0  0  0
 16 17  1  0  0  0  0
 16 18  2  0  0  0  0
 18 19  1  0  0  0  0
 18 20  1  0  0  0  0
 20 21  1  0  0  0  0
 20 22  2  0  0  0  0
 22 23  1  0  0  0  0
 22 24  1  0  0  0  0
 24 15  2  0  0  0  0
 24 25  1  0  0  0  0
M  END
> <ChemID>
201964

> <source_casrn>
80-10-4

> <CAS>
80-10-4

> <SMILES>
Cl[Si](Cl)(c1ccccc1)c2ccccc2

> <NAME>


> <preferred_name>
Dichlorodiphenylsilane

> <iupac>
dichloro(diphenyl)silane

> <MPID>
101525

> <dsstox_substance_id>
DTXSID2026494

> <Canonical_QSARr>
Cl[Si](Cl)(c1ccccc1)c1ccccc1

> <InChI_Code_QSARr>
InChI=1S/C12H10Cl2Si/c13-15(14,11-7-3-1-4-8-11)12-9-5-2-6-10-12/h1-10H

> <InChI Key_QSARr>
OSXYHAQZDCICNX-UHFFFAOYSA-N

> <Salt_Solvent>


> <Ready_Biodeg>
0.0

$$$$
201966
  -INDIGO-08031722522D

 22 23  0  0  0  0  0  0  0  0999 V2000
   -4.8000   -0.0000    0.0000 Cl  0  0  0  0  0  0  0  0  0  0  0  0
   -3.2000   -0.0000    0.0000 C   0  0  0  0  0  0  0  0  0  0  0  0
   -2.4000    1.3856    0.0000 C   0  0  0  0  0  0  0  0  0  0  0  0
   -3.2000    2.7713    0.0000 Cl  0  0  0  0  0  0  0  0  0  0  0  0
   -0.8001    1.3856    0.0000 C   0  0  0  0  0  0  0  0  0  0  0  0
   -0.0001    2.7713    0.0000 Cl  0  0  0  0  0  0  0  0  0  0  0  0
   -0.0001   -0.0000    0.0000 C   0  0  0  0  0  0  0  0  0  0  0  0
    1.6001    0.0000    0.0000 C   0  0  0  0  0  0  0  0  0  0  0  0
    2.4001    1.3856    0.0000 C   0  0  0  0  0  0  0  0  0  0  0  0
    1.6001    2.7713    0.0000 Cl  0  0  0  0  0  0  0  0  0  0  0  0
    4.0000    1.3856    0.0000 C   0  0  0  0  0  0  0  0  0  0  0  0
    4.8000    2.7713    0.0000 Cl  0  0  0  0  0  0  0  0  0  0  0  0
    4.8000    0.0000    0.0000 C   0  0  0  0  0  0  0  0  0  0  0  0
    6.4000    0.0000    0.0000 Cl  0  0  0  0  0  0  0  0  0  0  0  0
    4.0000   -1.3856    0.0000 C   0  0  0  0  0  0  0  0  0  0  0  0
    4.8000   -2.7713    0.0000 Cl  0  0  0  0  0  0  0  0  0  0  0  0
    2.4001   -1.3856    0.0000 C   0  0  0  0  0  0  0  0  0  0  0  0
    1.6001   -2.7713    0.0000 Cl  0  0  0  0  0  0  0  0  0  0  0  0
   -0.8001   -1.3856    0.0000 C   0  0  0  0  0  0  0  0  0  0  0  0
   -0.0001   -2.7713    0.0000 Cl  0  0  0  0  0  0  0  0  0  0  0  0
   -2.4000   -1.3856    0.0000 C   0  0  0  0  0  0  0  0  0  0  0  0
   -3.2000   -2.7713    0.0000 Cl  0  0  0  0  0  0  0  0  0  0  0  0
  1  2  1  0  0  0  0
  2  3  1  0  0  0  0
  3  4  1  0  0  0  0
  3  5  2  0  0  0  0
  5  6  1  0  0  0  0
  5  7  1  0  0  0  0
  7  8  1  0  0  0  0
  8  9  1  0  0  0  0
  9 10  1  0  0  0  0
  9 11  2  0  0  0  0
 11 12  1  0  0  0  0
 11 13  1  0  0  0  0
 13 14  1  0  0  0  0
 13 15  2  0  0  0  0
 15 16  1  0  0  0  0
 15 17  1  0  0  0  0
 17  8  2  0  0  0  0
 17 18  1  0  0  0  0
  7 19  2  0  0  0  0
 19 20  1  0  0  0  0
 19 21  1  0  0  0  0
 21  2  2  0  0  0  0
 21 22  1  0  0  0  0
M  END
> <ChemID>
201966

> <source_casrn>
2051-24-3

> <CAS>
2051-24-3

> <SMILES>
Clc1c(Cl)c(Cl)c(c(Cl)c1Cl)c2c(Cl)c(Cl)c(Cl)c(Cl)c2Cl

> <NAME>


> <preferred_name>
Decachlorobiphenyl

> <iupac>
decachlorobiphenyl

> <MPID>
101526

> <dsstox_substance_id>
DTXSID4047541

> <Canonical_QSARr>
Clc1c(-c2c(Cl)c(Cl)c(Cl)c(Cl)c2Cl)c(Cl)c(Cl)c(Cl)c1Cl

> <InChI_Code_QSARr>
InChI=1S/C12Cl10/c13-3-1(4(14)8(18)11(21)7(3)17)2-5(15)9(19)12(22)10(20)6(2)16

> <InChI Key_QSARr>
ONXPZLFXDMAPRO-UHFFFAOYSA-N

> <Salt_Solvent>


> <Ready_Biodeg>
0.0

$$$$
201975
  -INDIGO-08031722522D

 22 22  0  0  0  0  0  0  0  0999 V2000
   -4.1569    2.4000    0.0000 Cl  0  0  0  0  0  0  0  0  0  0  0  0
   -2.7712    1.6000    0.0000 C   0  0  0  0  0  0  0  0  0  0  0  0
   -1.3856    2.4000    0.0000 C   0  0  0  0  0  0  0  0  0  0  0  0
   -1.3856    4.0000    0.0000 H   0  0  0  0  0  0  0  0  0  0  0  0
    0.0001    1.6000    0.0000 C   0  0  0  0  0  0  0  0  0  0  0  0
    1.3856    2.4000    0.0000 H   0  0  0  0  0  0  0  0  0  0  0  0
    0.0001    0.0000    0.0000 C   0  0  0  0  0  0  0  0  0  0  0  0
    1.3856   -0.8000    0.0000 O   0  0  0  0  0  0  0  0  0  0  0  0
    2.7714    0.0000    0.0000 C   0  0  0  0  0  0  0  0  0  0  0  0
    3.3835    1.4782    0.0000 H   0  0  0  0  0  0  0  0  0  0  0  0
    2.1591    1.4782    0.0000 H   0  0  0  0  0  0  0  0  0  0  0  0
    4.1569   -0.8000    0.0000 O   0  0  0  0  0  0  0  0  0  0  0  0
    5.5425    0.0000    0.0000 C   0  0  0  0  0  0  0  0  0  0  0  0
    6.1548    1.4782    0.0000 H   0  0  0  0  0  0  0  0  0  0  0  0
    4.9304    1.4782    0.0000 H   0  0  0  0  0  0  0  0  0  0  0  0
    6.9282   -0.8000    0.0000 C   0  0  0  0  0  0  0  0  0  0  0  0
    8.3139   -1.6000    0.0000 C   0  0  0  0  0  0  0  0  0  0  0  0
    9.6995   -2.4000    0.0000 I   0  0  0  0  0  0  0  0  0  0  0  0
   -1.3856   -0.8000    0.0000 C   0  0  0  0  0  0  0  0  0  0  0  0
   -1.3856   -2.4000    0.0000 H   0  0  0  0  0  0  0  0  0  0  0  0
   -2.7712    0.0000    0.0000 C   0  0  0  0  0  0  0  0  0  0  0  0
   -4.1569   -0.8000    0.0000 H   0  0  0  0  0  0  0  0  0  0  0  0
  1  2  1  0  0  0  0
  2  3  1  0  0  0  0
  3  4  1  0  0  0  0
  3  5  2  0  0  0  0
  5  6  1  0  0  0  0
  5  7  1  0  0  0  0
  7  8  1  0  0  0  0
  8  9  1  0  0  0  0
  9 10  1  0  0  0  0
  9 11  1  0  0  0  0
  9 12  1  0  0  0  0
 12 13  1  0  0  0  0
 13 14  1  0  0  0  0
 13 15  1  0  0  0  0
 13 16  1  0  0  0  0
 16 17  3  0  0  0  0
 17 18  1  0  0  0  0
  7 19  2  0  0  0  0
 19 20  1  0  0  0  0
 19 21  1  0  0  0  0
 21  2  2  0  0  0  0
 21 22  1  0  0  0  0
M  END
> <ChemID>
201975

> <source_casrn>
29772-02-9

> <CAS>
29772-02-9

> <SMILES>
Clc1ccc(OCOCC#CI)cc1

> <NAME>


> <preferred_name>
1-Chloro-4-(((3-iodo-2-propynyl)oxy)methoxy)benzene

> <iupac>
1-chloro-4-(3-iodoprop-2-ynoxymethoxy)benzene

> <MPID>
101528

> <dsstox_substance_id>
DTXSID90183917

> <Canonical_QSARr>
Clc1ccc(cc1)OCOCC#CI

> <InChI_Code_QSARr>
InChI=1S/C10H8ClIO2/c11-9-2-4-10(5-3-9)14-8-13-7-1-6-12/h2-5H,7-8H2

> <InChI Key_QSARr>
KQLBUIOMHNFZMD-UHFFFAOYSA-N

> <Salt_Solvent>


> <Ready_Biodeg>
0.0

$$$$
201976
  -INDIGO-08031722522D

 11 11  0  0  0  0  0  0  0  0999 V2000
   -2.7713    3.2000    0.0000 Cl  0  0  0  0  0  0  0  0  0  0  0  0
   -1.3856    2.4000    0.0000 C   0  0  0  0  0  0  0  0  0  0  0  0
   -1.3856    0.8000    0.0000 C   0  0  0  0  0  0  0  0  0  0  0  0
   -2.7713    0.0000    0.0000 H   0  0  0  0  0  0  0  0  0  0  0  0
    0.0000    0.0000    0.0000 C   0  0  0  0  0  0  0  0  0  0  0  0
   -0.0000   -1.6000    0.0000 H   0  0  0  0  0  0  0  0  0  0  0  0
    1.3856    0.8000    0.0000 C   0  0  0  0  0  0  0  0  0  0  0  0
    2.7713    0.0000    0.0000 H   0  0  0  0  0  0  0  0  0  0  0  0
    1.3856    2.4000    0.0000 C   0  0  0  0  0  0  0  0  0  0  0  0
    2.7713    3.2000    0.0000 Cl  0  0  0  0  0  0  0  0  0  0  0  0
    0.0000    3.2000    0.0000 N   0  0  0  0  0  0  0  0  0  0  0  0
  1  2  1  0  0  0  0
  2  3  1  0  0  0  0
  3  4  1  0  0  0  0
  3  5  2  0  0  0  0
  5  6  1  0  0  0  0
  5  7  1  0  0  0  0
  7  8  1  0  0  0  0
  7  9  2  0  0  0  0
  9 10  1  0  0  0  0
  9 11  1  0  0  0  0
 11  2  2  0  0  0  0
M  END
> <ChemID>
201976

> <source_casrn>
2402-78-0

> <CAS>
2402-78-0

> <SMILES>
Clc1cccc(Cl)n1

> <NAME>


> <preferred_name>
2,6-Dichloropyridine

> <iupac>
2,6-dichloropyridine

> <MPID>
101529

> <dsstox_substance_id>
DTXSID2051895

> <Canonical_QSARr>
Clc1cccc(Cl)[n]1

> <InChI_Code_QSARr>
InChI=1S/C5H3Cl2N/c6-4-2-1-3-5(7)8-4/h1-3H

> <InChI Key_QSARr>
FILKGCRCWDMBKA-UHFFFAOYSA-N

> <Salt_Solvent>


> <Ready_Biodeg>
0.0

$$$$
201981
  -INDIGO-08031722522D

 17 18  0  0  0  0  0  0  0  0999 V2000
    1.6001    2.7713    0.0000 Cl  0  0  0  0  0  0  0  0  0  0  0  0
    2.3999    1.3856    0.0000 C   0  0  0  0  0  0  0  0  0  0  0  0
    4.0000    1.3856    0.0000 C   0  0  0  0  0  0  0  0  0  0  0  0
    4.8000    2.7713    0.0000 H   0  0  0  0  0  0  0  0  0  0  0  0
    4.8000    0.0000    0.0000 C   0  0  0  0  0  0  0  0  0  0  0  0
    6.4000    0.0000    0.0000 H   0  0  0  0  0  0  0  0  0  0  0  0
    4.0000   -1.3856    0.0000 C   0  0  0  0  0  0  0  0  0  0  0  0
    4.8000   -2.7713    0.0000 H   0  0  0  0  0  0  0  0  0  0  0  0
    2.3999   -1.3856    0.0000 C   0  0  0  0  0  0  0  0  0  0  0  0
    1.6001   -2.7713    0.0000 H   0  0  0  0  0  0  0  0  0  0  0  0
    1.6001    0.0000    0.0000 C   0  0  0  0  0  0  0  0  0  0  0  0
    0.0000    0.0000    0.0000 C   0  0  0  0  0  0  0  0  0  0  0  0
   -0.2779   -1.5757    0.0000 H   0  0  0  0  0  0  0  0  0  0  0  0
   -1.5035    0.5472    0.0000 C   0  0  0  0  0  0  0  0  0  0  0  0
   -2.3035   -0.8384    0.0000 H   0  0  0  0  0  0  0  0  0  0  0  0
   -2.7292    1.5757    0.0000 H   0  0  0  0  0  0  0  0  0  0  0  0
   -0.2779    1.5757    0.0000 O   0  0  0  0  0  0  0  0  0  0  0  0
  1  2  1  0  0  0  0
  2  3  1  0  0  0  0
  3  4  1  0  0  0  0
  3  5  2  0  0  0  0
  5  6  1  0  0  0  0
  5  7  1  0  0  0  0
  7  8  1  0  0  0  0
  7  9  2  0  0  0  0
  9 10  1  0  0  0  0
  9 11  1  0  0  0  0
 11  2  2  0  0  0  0
 11 12  1  0  0  0  0
 12 13  1  0  0  0  0
 12 14  1  0  0  0  0
 14 15  1  0  0  0  0
 14 16  1  0  0  0  0
 14 17  1  0  0  0  0
 17 12  1  0  0  0  0
M  END
> <ChemID>
201981

> <source_casrn>


> <CAS>
62717-50-4

> <SMILES>
Clc1ccccc1C2CO2

> <NAME>


> <preferred_name>


> <iupac>


> <MPID>
101531

> <dsstox_substance_id>


> <Canonical_QSARr>
Clc1ccccc1C1CO1

> <InChI_Code_QSARr>
InChI=1S/C8H7ClO/c9-7-4-2-1-3-6(7)8-5-10-8/h1-4,8H,5H2

> <InChI Key_QSARr>
RTPJBMWUVSTBPC-UHFFFAOYSA-N

> <Salt_Solvent>


> <Ready_Biodeg>
0.0

$$$$
201988
  -INDIGO-08031722522D

  8  7  0  0  0  0  0  0  0  0999 V2000
    0.8000    1.3856    0.0000 F   0  0  0  0  0  0  0  0  0  0  0  0
    0.0000    0.0000    0.0000 C   0  0  0  0  0  0  0  0  0  0  0  0
    1.6000   -0.0000    0.0000 F   0  0  0  0  0  0  0  0  0  0  0  0
    0.8000   -1.3856    0.0000 F   0  0  0  0  0  0  0  0  0  0  0  0
   -1.6000    0.0000    0.0000 C   0  0  0  0  0  0  0  0  0  0  0  0
   -3.2000    0.0000    0.0000 H   0  0  0  0  0  0  0  0  0  0  0  0
   -2.4000   -1.3856    0.0000 Cl  0  0  0  0  0  0  0  0  0  0  0  0
   -2.4000    1.3856    0.0000 Cl  0  0  0  0  0  0  0  0  0  0  0  0
  1  2  1  0  0  0  0
  2  3  1  0  0  0  0
  2  4  1  0  0  0  0
  2  5  1  0  0  0  0
  5  6  1  0  0  0  0
  5  7  1  0  0  0  0
  5  8  1  0  0  0  0
M  END
> <ChemID>
201988

> <source_casrn>
306-83-2

> <CAS>
306-83-2

> <SMILES>
FC(F)(F)C(Cl)Cl

> <NAME>


> <preferred_name>
2,2-Dichloro-1,1,1-trifluoroethane

> <iupac>
2,2-dichloro-1,1,1-trifluoroethane

> <MPID>
101534

> <dsstox_substance_id>
DTXSID7020712

> <Canonical_QSARr>
FC(F)(F)C(Cl)Cl

> <InChI_Code_QSARr>
InChI=1S/C2HCl2F3/c3-1(4)2(5,6)7/h1H

> <InChI Key_QSARr>
OHMHBGPWCHTMQE-UHFFFAOYSA-N

> <Salt_Solvent>


> <Ready_Biodeg>
0.0

$$$$
201991
  -INDIGO-08031722522D

 18 18  0  0  0  0  0  0  0  0999 V2000
    1.3857    2.4000    0.0000 F   0  0  0  0  0  0  0  0  0  0  0  0
    1.3857    0.8000    0.0000 C   0  0  0  0  0  0  0  0  0  0  0  0
    2.7713    1.6000    0.0000 F   0  0  0  0  0  0  0  0  0  0  0  0
    2.7713   -0.0000    0.0000 F   0  0  0  0  0  0  0  0  0  0  0  0
    0.0000   -0.0000    0.0000 C   0  0  0  0  0  0  0  0  0  0  0  0
    0.0000   -1.6000    0.0000 C   0  0  0  0  0  0  0  0  0  0  0  0
    1.3857   -2.4000    0.0000 H   0  0  0  0  0  0  0  0  0  0  0  0
   -1.3856   -2.4000    0.0000 C   0  0  0  0  0  0  0  0  0  0  0  0
   -1.3856   -4.0000    0.0000 H   0  0  0  0  0  0  0  0  0  0  0  0
   -2.7713   -1.6000    0.0000 C   0  0  0  0  0  0  0  0  0  0  0  0
   -4.1569   -2.4000    0.0000 H   0  0  0  0  0  0  0  0  0  0  0  0
   -2.7713   -0.0000    0.0000 C   0  0  0  0  0  0  0  0  0  0  0  0
   -4.1569    0.8000    0.0000 C   0  0  0  0  0  0  0  0  0  0  0  0
   -5.5426    1.6000    0.0000 F   0  0  0  0  0  0  0  0  0  0  0  0
   -5.5426   -0.0000    0.0000 F   0  0  0  0  0  0  0  0  0  0  0  0
   -4.1569    2.4000    0.0000 F   0  0  0  0  0  0  0  0  0  0  0  0
   -1.3856    0.8000    0.0000 C   0  0  0  0  0  0  0  0  0  0  0  0
   -1.3856    2.4000    0.0000 H   0  0  0  0  0  0  0  0  0  0  0  0
  1  2  1  0  0  0  0
  2  3  1  0  0  0  0
  2  4  1  0  0  0  0
  2  5  1  0  0  0  0
  5  6  1  0  0  0  0
  6  7  1  0  0  0  0
  6  8  2  0  0  0  0
  8  9  1  0  0  0  0
  8 10  1  0  0  0  0
 10 11  1  0  0  0  0
 10 12  2  0  0  0  0
 12 13  1  0  0  0  0
 13 14  1  0  0  0  0
 13 15  1  0  0  0  0
 13 16  1  0  0  0  0
 12 17  1  0  0  0  0
 17  5  2  0  0  0  0
 17 18  1  0  0  0  0
M  END
> <ChemID>
201991

> <source_casrn>
402-31-3

> <CAS>
402-31-3

> <SMILES>
FC(F)(F)c1cccc(c1)C(F)(F)F

> <NAME>


> <preferred_name>
Benzene, 1,3-bis(trifluoromethyl)-

> <iupac>
1,3-BIS(TRIFLUOROMETHYL)BENZENE

> <MPID>
101536

> <dsstox_substance_id>
DTXSID1059949

> <Canonical_QSARr>
FC(F)(F)c1cc(ccc1)C(F)(F)F

> <InChI_Code_QSARr>
InChI=1S/C8H4F6/c9-7(10,11)5-2-1-3-6(4-5)8(12,13)14/h1-4H

> <InChI Key_QSARr>
SJBBXFLOLUTGCW-UHFFFAOYSA-N

> <Salt_Solvent>


> <Ready_Biodeg>
0.0

$$$$
201992
  -INDIGO-08031722522D

 12 12  0  0  0  0  0  0  0  0999 V2000
    0.8000    1.3856    0.0000 F   0  0  0  0  0  0  0  0  0  0  0  0
   -0.0000   -0.0000    0.0000 C   0  0  0  0  0  0  0  0  0  0  0  0
    0.8000   -1.3857    0.0000 C   0  0  0  0  0  0  0  0  0  0  0  0
    2.4000   -1.3857    0.0000 H   0  0  0  0  0  0  0  0  0  0  0  0
   -0.0000   -2.7713    0.0000 C   0  0  0  0  0  0  0  0  0  0  0  0
    0.8000   -4.1569    0.0000 H   0  0  0  0  0  0  0  0  0  0  0  0
   -1.6000   -2.7713    0.0000 C   0  0  0  0  0  0  0  0  0  0  0  0
   -2.4000   -4.1569    0.0000 H   0  0  0  0  0  0  0  0  0  0  0  0
   -2.4000   -1.3856    0.0000 C   0  0  0  0  0  0  0  0  0  0  0  0
   -4.0000   -1.3856    0.0000 H   0  0  0  0  0  0  0  0  0  0  0  0
   -1.6000   -0.0000    0.0000 C   0  0  0  0  0  0  0  0  0  0  0  0
   -2.4000    1.3856    0.0000 F   0  0  0  0  0  0  0  0  0  0  0  0
  1  2  1  0  0  0  0
  2  3  1  0  0  0  0
  3  4  1  0  0  0  0
  3  5  2  0  0  0  0
  5  6  1  0  0  0  0
  5  7  1  0  0  0  0
  7  8  1  0  0  0  0
  7  9  2  0  0  0  0
  9 10  1  0  0  0  0
  9 11  1  0  0  0  0
 11  2  2  0  0  0  0
 11 12  1  0  0  0  0
M  END
> <ChemID>
201992

> <source_casrn>
367-11-3

> <CAS>
367-11-3

> <SMILES>
Fc1ccccc1F

> <NAME>


> <preferred_name>
Benzene, 1,2-difluoro-

> <iupac>
1,2-Difluorobenzene

> <MPID>
101537

> <dsstox_substance_id>
DTXSID2075390

> <Canonical_QSARr>
Fc1ccccc1F

> <InChI_Code_QSARr>
InChI=1S/C6H4F2/c7-5-3-1-2-4-6(5)8/h1-4H

> <InChI Key_QSARr>
GOYDNIKZWGIXJT-UHFFFAOYSA-N

> <Salt_Solvent>


> <Ready_Biodeg>
0.0

$$$$
201993
  -INDIGO-08031722522D

 24 26  0  0  0  0  0  0  0  0999 V2000
    1.3857    2.4000    0.0000 O   0  0  0  0  0  0  0  0  0  0  0  0
    1.3857    0.8000    0.0000 C   0  0  0  0  0  0  0  0  0  0  0  0
    2.7712   -0.0000    0.0000 C   0  0  0  0  0  0  0  0  0  0  0  0
    2.7712   -1.6000    0.0000 C   0  0  0  0  0  0  0  0  0  0  0  0
    4.1569   -2.4000    0.0000 S   0  0  0  0  0  0  0  0  0  0  0  0
    5.5426   -1.6000    0.0000 C   0  0  0  0  0  0  0  0  0  0  0  0
    5.5426   -0.0000    0.0000 C   0  0  0  0  0  0  0  0  0  0  0  0
    4.1569    0.8000    0.0000 S   0  0  0  0  0  0  0  0  0  0  0  0
    6.9281    0.8000    0.0000 C   0  0  0  0  0  0  0  0  0  0  0  0
    8.3138    1.6000    0.0000 N   0  0  0  0  0  0  0  0  0  0  0  0
    6.9281   -2.4000    0.0000 C   0  0  0  0  0  0  0  0  0  0  0  0
    8.3138   -3.2000    0.0000 N   0  0  0  0  0  0  0  0  0  0  0  0
    1.3857   -2.4000    0.0000 C   0  0  0  0  0  0  0  0  0  0  0  0
    1.3857   -4.0000    0.0000 O   0  0  0  0  0  0  0  0  0  0  0  0
    0.0000   -1.6000    0.0000 C   0  0  0  0  0  0  0  0  0  0  0  0
   -1.3857   -2.4000    0.0000 C   0  0  0  0  0  0  0  0  0  0  0  0
   -1.3857   -4.0000    0.0000 H   0  0  0  0  0  0  0  0  0  0  0  0
   -2.7712   -1.6000    0.0000 C   0  0  0  0  0  0  0  0  0  0  0  0
   -4.1569   -2.4000    0.0000 H   0  0  0  0  0  0  0  0  0  0  0  0
   -2.7712   -0.0000    0.0000 C   0  0  0  0  0  0  0  0  0  0  0  0
   -4.1569    0.8000    0.0000 H   0  0  0  0  0  0  0  0  0  0  0  0
   -1.3857    0.8000    0.0000 C   0  0  0  0  0  0  0  0  0  0  0  0
   -1.3857    2.4000    0.0000 H   0  0  0  0  0  0  0  0  0  0  0  0
    0.0000   -0.0000    0.0000 C   0  0  0  0  0  0  0  0  0  0  0  0
  1  2  2  0  0  0  0
  2  3  1  0  0  0  0
  3  4  2  0  0  0  0
  4  5  1  0  0  0  0
  5  6  1  0  0  0  0
  6  7  2  0  0  0  0
  7  8  1  0  0  0  0
  8  3  1  0  0  0  0
  7  9  1  0  0  0  0
  9 10  3  0  0  0  0
  6 11  1  0  0  0  0
 11 12  3  0  0  0  0
  4 13  1  0  0  0  0
 13 14  2  0  0  0  0
 13 15  1  0  0  0  0
 15 16  1  0  0  0  0
 16 17  1  0  0  0  0
 16 18  2  0  0  0  0
 18 19  1  0  0  0  0
 18 20  1  0  0  0  0
 20 21  1  0  0  0  0
 20 22  2  0  0  0  0
 22 23  1  0  0  0  0
 22 24  1  0  0  0  0
 24  2  1  0  0  0  0
 24 15  2  0  0  0  0
M  END
> <ChemID>
201993

> <source_casrn>
3347-22-6

> <CAS>
3347-22-6

> <SMILES>
O=C1C2=C(SC(=C(S2)C#N)C#N)C(=O)c3ccccc13

> <NAME>


> <preferred_name>
Dithianon

> <iupac>
5,10-dioxo-5,10-dihydronaphtho[2,3-b][1,4]dithiine-2,3-dicarbonitrile

> <MPID>
101538

> <dsstox_substance_id>
DTXSID8040270

> <Canonical_QSARr>
N#CC1SC2=C(SC=1C#N)C(=O)c1ccccc1C2=O

> <InChI_Code_QSARr>
InChI=1S/C14H4N2O2S2/c15-5-9-10(6-16)20-14-12(18)8-4-2-1-3-7(8)11(17)13(14)19-9/h1-4H

> <InChI Key_QSARr>
PYZSVQVRHDXQSL-UHFFFAOYSA-N

> <Salt_Solvent>


> <Ready_Biodeg>
0.0

$$$$
202000
  -INDIGO-08031722522D

 14 14  0  0  0  0  0  0  0  0999 V2000
   -4.1569    0.8000    0.0000 Cl  0  0  0  0  0  0  0  0  0  0  0  0
   -2.7713   -0.0000    0.0000 C   0  0  0  0  0  0  0  0  0  0  0  0
   -2.7713   -1.6000    0.0000 C   0  0  0  0  0  0  0  0  0  0  0  0
   -4.1569   -2.4000    0.0000 Cl  0  0  0  0  0  0  0  0  0  0  0  0
   -1.3856   -2.4000    0.0000 C   0  0  0  0  0  0  0  0  0  0  0  0
   -1.3856   -4.0000    0.0000 Cl  0  0  0  0  0  0  0  0  0  0  0  0
    0.0000   -1.6000    0.0000 C   0  0  0  0  0  0  0  0  0  0  0  0
    1.3856   -2.4000    0.0000 C   0  0  0  0  0  0  0  0  0  0  0  0
    2.7713   -3.2000    0.0000 N   0  0  0  0  0  0  0  0  0  0  0  0
    0.0000   -0.0000    0.0000 C   0  0  0  0  0  0  0  0  0  0  0  0
    1.3856    0.8000    0.0000 C   0  0  0  0  0  0  0  0  0  0  0  0
    2.7713    1.6000    0.0000 N   0  0  0  0  0  0  0  0  0  0  0  0
   -1.3856    0.8000    0.0000 C   0  0  0  0  0  0  0  0  0  0  0  0
   -1.3856    2.4000    0.0000 Cl  0  0  0  0  0  0  0  0  0  0  0  0
  1  2  1  0  0  0  0
  2  3  1  0  0  0  0
  3  4  1  0  0  0  0
  3  5  2  0  0  0  0
  5  6  1  0  0  0  0
  5  7  1  0  0  0  0
  7  8  1  0  0  0  0
  8  9  3  0  0  0  0
  7 10  2  0  0  0  0
 10 11  1  0  0  0  0
 11 12  3  0  0  0  0
 10 13  1  0  0  0  0
 13  2  2  0  0  0  0
 13 14  1  0  0  0  0
M  END
> <ChemID>
202000

> <source_casrn>
1953-99-7

> <CAS>
1953-99-7

> <SMILES>
Clc1c(Cl)c(Cl)c(C#N)c(C#N)c1Cl

> <NAME>


> <preferred_name>
1,2-Benzenedicarbonitrile, 3,4,5,6-tetrachloro- (9CI)

> <iupac>
3,4,5,6-Tetrachlorophthalonitrile

> <MPID>
101540

> <dsstox_substance_id>
DTXSID20173189

> <Canonical_QSARr>
N#Cc1c(C#N)c(Cl)c(Cl)c(Cl)c1Cl

> <InChI_Code_QSARr>
InChI=1S/C8Cl4N2/c9-5-3(1-13)4(2-14)6(10)8(12)7(5)11

> <InChI Key_QSARr>
OQHXZZGZASQSOB-UHFFFAOYSA-N

> <Salt_Solvent>


> <Ready_Biodeg>
0.0

$$$$
202007
  -INDIGO-08031722522D

 13 13  0  0  0  0  0  0  0  0999 V2000
    0.0000    2.7713    0.0000 Cl  0  0  0  0  0  0  0  0  0  0  0  0
    0.7999    1.3856    0.0000 C   0  0  0  0  0  0  0  0  0  0  0  0
    2.4001    1.3856    0.0000 C   0  0  0  0  0  0  0  0  0  0  0  0
    3.2000    2.7713    0.0000 H   0  0  0  0  0  0  0  0  0  0  0  0
    3.2000   -0.0000    0.0000 C   0  0  0  0  0  0  0  0  0  0  0  0
    4.8000    0.0000    0.0000 H   0  0  0  0  0  0  0  0  0  0  0  0
    2.4001   -1.3856    0.0000 C   0  0  0  0  0  0  0  0  0  0  0  0
    3.2000   -2.7713    0.0000 H   0  0  0  0  0  0  0  0  0  0  0  0
    0.7999   -1.3856    0.0000 C   0  0  0  0  0  0  0  0  0  0  0  0
    0.0000   -2.7713    0.0000 H   0  0  0  0  0  0  0  0  0  0  0  0
    0.0000   -0.0000    0.0000 C   0  0  0  0  0  0  0  0  0  0  0  0
   -1.6000    0.0000    0.0000 C   0  0  0  0  0  0  0  0  0  0  0  0
   -3.2000    0.0000    0.0000 N   0  0  0  0  0  0  0  0  0  0  0  0
  1  2  1  0  0  0  0
  2  3  1  0  0  0  0
  3  4  1  0  0  0  0
  3  5  2  0  0  0  0
  5  6  1  0  0  0  0
  5  7  1  0  0  0  0
  7  8  1  0  0  0  0
  7  9  2  0  0  0  0
  9 10  1  0  0  0  0
  9 11  1  0  0  0  0
 11  2  2  0  0  0  0
 11 12  1  0  0  0  0
 12 13  3  0  0  0  0
M  END
> <ChemID>
202007

> <source_casrn>
873-32-5

> <CAS>
873-32-5

> <SMILES>
Clc1ccccc1C#N

> <NAME>


> <preferred_name>
2-Chlorobenzonitrile

> <iupac>
2-chlorobenzonitrile

> <MPID>
101542

> <dsstox_substance_id>
DTXSID5052593

> <Canonical_QSARr>
N#Cc1ccccc1Cl

> <InChI_Code_QSARr>
InChI=1S/C7H4ClN/c8-7-4-2-1-3-6(7)5-9/h1-4H

> <InChI Key_QSARr>
NHWQMJMIYICNBP-UHFFFAOYSA-N

> <Salt_Solvent>


> <Ready_Biodeg>
0.0

$$$$
202008
  -INDIGO-08031722522D

 29 30  0  0  0  0  0  0  0  0999 V2000
   -0.8000    2.9857    0.0000 N   0  0  0  0  0  0  0  0  0  0  0  0
   -0.0001    4.3713    0.0000 H   0  0  0  0  0  0  0  0  0  0  0  0
   -2.3757    3.2635    0.0000 H   0  0  0  0  0  0  0  0  0  0  0  0
   -0.0001    1.6000    0.0000 C   0  0  0  0  0  0  0  0  0  0  0  0
    1.5036    2.1473    0.0000 N   0  0  0  0  0  0  0  0  0  0  0  0
    1.7813    3.7229    0.0000 H   0  0  0  0  0  0  0  0  0  0  0  0
   -0.0001   -0.0000    0.0000 N   0  0  0  0  0  0  0  0  0  0  0  0
   -1.5035   -0.5472    0.0000 C   0  0  0  0  0  0  0  0  0  0  0  0
   -2.0507   -2.0508    0.0000 C   0  0  0  0  0  0  0  0  0  0  0  0
   -1.0223   -3.2764    0.0000 H   0  0  0  0  0  0  0  0  0  0  0  0
   -3.6264   -2.3286    0.0000 C   0  0  0  0  0  0  0  0  0  0  0  0
   -4.1736   -3.8321    0.0000 H   0  0  0  0  0  0  0  0  0  0  0  0
   -4.6549   -1.1029    0.0000 C   0  0  0  0  0  0  0  0  0  0  0  0
   -6.2306   -1.3807    0.0000 H   0  0  0  0  0  0  0  0  0  0  0  0
   -4.1077    0.4006    0.0000 C   0  0  0  0  0  0  0  0  0  0  0  0
   -5.1362    1.6263    0.0000 H   0  0  0  0  0  0  0  0  0  0  0  0
   -2.5320    0.6784    0.0000 C   0  0  0  0  0  0  0  0  0  0  0  0
   -1.9848    2.1820    0.0000 H   0  0  0  0  0  0  0  0  0  0  0  0
    1.3857   -0.8000    0.0000 C   0  0  0  0  0  0  0  0  0  0  0  0
    1.3857   -2.3999    0.0000 C   0  0  0  0  0  0  0  0  0  0  0  0
   -0.0001   -3.2000    0.0000 H   0  0  0  0  0  0  0  0  0  0  0  0
    2.7713   -3.2000    0.0000 C   0  0  0  0  0  0  0  0  0  0  0  0
    2.7713   -4.8000    0.0000 H   0  0  0  0  0  0  0  0  0  0  0  0
    4.1569   -2.3999    0.0000 C   0  0  0  0  0  0  0  0  0  0  0  0
    5.5426   -3.2000    0.0000 H   0  0  0  0  0  0  0  0  0  0  0  0
    4.1569   -0.8000    0.0000 C   0  0  0  0  0  0  0  0  0  0  0  0
    5.5426   -0.0000    0.0000 H   0  0  0  0  0  0  0  0  0  0  0  0
    2.7713   -0.0000    0.0000 C   0  0  0  0  0  0  0  0  0  0  0  0
    2.7713    1.6000    0.0000 H   0  0  0  0  0  0  0  0  0  0  0  0
  1  2  1  0  0  0  0
  1  3  1  0  0  0  0
  1  4  1  0  0  0  0
  4  5  2  0  0  0  0
  5  6  1  0  0  0  0
  4  7  1  0  0  0  0
  7  8  1  0  0  0  0
  8  9  1  0  0  0  0
  9 10  1  0  0  0  0
  9 11  2  0  0  0  0
 11 12  1  0  0  0  0
 11 13  1  0  0  0  0
 13 14  1  0  0  0  0
 13 15  2  0  0  0  0
 15 16  1  0  0  0  0
 15 17  1  0  0  0  0
 17  8  2  0  0  0  0
 17 18  1  0  0  0  0
  7 19  1  0  0  0  0
 19 20  1  0  0  0  0
 20 21  1  0  0  0  0
 20 22  2  0  0  0  0
 22 23  1  0  0  0  0
 22 24  1  0  0  0  0
 24 25  1  0  0  0  0
 24 26  2  0  0  0  0
 26 27  1  0  0  0  0
 26 28  1  0  0  0  0
 28 19  2  0  0  0  0
 28 29  1  0  0  0  0
M  END
> <ChemID>
202008

> <source_casrn>
102-06-7

> <CAS>
102-06-7

> <SMILES>
NC(=N)N(c1ccccc1)c2ccccc2

> <NAME>


> <preferred_name>
1,3-Diphenylguanidine

> <iupac>
1,3-diphenylguanidine

> <MPID>
100404

> <dsstox_substance_id>
DTXSID3025178

> <Canonical_QSARr>
NC(=N)N(c1ccccc1)c1ccccc1

> <InChI_Code_QSARr>
InChI=1S/C13H13N3/c14-13(15)16(11-7-3-1-4-8-11)12-9-5-2-6-10-12/h1-10H,(H3,14,15)

> <InChI Key_QSARr>
MFHNAXHSHOCFEC-UHFFFAOYSA-N

> <Salt_Solvent>


> <Ready_Biodeg>
0.0

$$$$
202009
  -INDIGO-08031722522D

 11 10  0  0  0  0  0  0  0  0999 V2000
    1.3856    0.8000    0.0000 N   0  0  0  0  0  0  0  0  0  0  0  0
    2.7713   -0.0000    0.0000 H   0  0  0  0  0  0  0  0  0  0  0  0
    1.3856    2.4000    0.0000 H   0  0  0  0  0  0  0  0  0  0  0  0
    0.0000    0.0000    0.0000 C   0  0  0  0  0  0  0  0  0  0  0  0
    0.0000   -1.6000    0.0000 N   0  0  0  0  0  0  0  0  0  0  0  0
    1.3856   -2.4000    0.0000 H   0  0  0  0  0  0  0  0  0  0  0  0
   -1.3856    0.8000    0.0000 N   0  0  0  0  0  0  0  0  0  0  0  0
   -1.3856    2.4000    0.0000 H   0  0  0  0  0  0  0  0  0  0  0  0
   -2.7713    0.0000    0.0000 N   0  0  0  0  0  0  0  0  0  0  0  0
   -4.1569    0.8000    0.0000 O   0  0  0  0  0  0  0  0  0  0  0  0
   -2.7713   -1.6000    0.0000 O   0  0  0  0  0  0  0  0  0  0  0  0
  1  2  1  0  0  0  0
  1  3  1  0  0  0  0
  1  4  1  0  0  0  0
  4  5  2  0  0  0  0
  5  6  1  0  0  0  0
  4  7  1  0  0  0  0
  7  8  1  0  0  0  0
  7  9  1  0  0  0  0
  9 10  1  0  0  0  0
  9 11  2  0  0  0  0
M  CHG  2   9   1  10  -1
M  END
> <ChemID>
202009

> <source_casrn>
556-88-7

> <CAS>
556-88-7

> <SMILES>
NC(=N)N[N+]([O-])=O

> <NAME>


> <preferred_name>
Nitroguanidine

> <iupac>
1-nitroguanidinato

> <MPID>
101543

> <dsstox_substance_id>
DTXSID4024222

> <Canonical_QSARr>
NC(=N)N[N+]([O-])=O

> <InChI_Code_QSARr>
InChI=1S/CH4N4O2/c2-1(3)4-5(6)7/h(H4,2,3,4)

> <InChI Key_QSARr>
IDCPFAYURAQKDZ-UHFFFAOYSA-N

> <Salt_Solvent>


> <Ready_Biodeg>
0.0

$$$$
202011
  -INDIGO-08031722522D

 10  9  0  0  0  0  0  0  0  0999 V2000
    2.7713    0.0000    0.0000 N   0  0  0  0  0  0  0  0  0  0  0  0
    4.1569    0.8000    0.0000 H   0  0  0  0  0  0  0  0  0  0  0  0
    2.7713   -1.6000    0.0000 H   0  0  0  0  0  0  0  0  0  0  0  0
    1.3856    0.8000    0.0000 C   0  0  0  0  0  0  0  0  0  0  0  0
    1.3856    2.4000    0.0000 O   0  0  0  0  0  0  0  0  0  0  0  0
    0.0000    0.0000    0.0000 C   0  0  0  0  0  0  0  0  0  0  0  0
    0.6123   -1.4782    0.0000 Br  0  0  0  0  0  0  0  0  0  0  0  0
   -0.6123   -1.4782    0.0000 Br  0  0  0  0  0  0  0  0  0  0  0  0
   -1.3856    0.8000    0.0000 C   0  0  0  0  0  0  0  0  0  0  0  0
   -2.7713    1.6000    0.0000 N   0  0  0  0  0  0  0  0  0  0  0  0
  1  2  1  0  0  0  0
  1  3  1  0  0  0  0
  1  4  1  0  0  0  0
  4  5  2  0  0  0  0
  4  6  1  0  0  0  0
  6  7  1  0  0  0  0
  6  8  1  0  0  0  0
  6  9  1  0  0  0  0
  9 10  3  0  0  0  0
M  END
> <ChemID>
202011

> <source_casrn>
10222-01-2

> <CAS>
10222-01-2

> <SMILES>
NC(=O)C(Br)(Br)C#N

> <NAME>


> <preferred_name>
2,2-Dibromo-3-nitrilopropionamide

> <iupac>
2,2-dibromo-2-cyanoacetamide

> <MPID>
101545

> <dsstox_substance_id>
DTXSID5032361

> <Canonical_QSARr>
NC(=O)C(Br)(Br)C#N

> <InChI_Code_QSARr>
InChI=1S/C3H2Br2N2O/c4-3(5,1-6)2(7)8/h(H2,7,8)

> <InChI Key_QSARr>
UUIVKBHZENILKB-UHFFFAOYSA-N

> <Salt_Solvent>


> <Ready_Biodeg>
0.0

$$$$
202012
  -INDIGO-08031722522D

 20 19  0  0  0  0  0  0  0  0999 V2000
   -2.1856   -0.5857    0.0000 N   0  0  0  0  0  0  0  0  0  0  0  0
   -1.6385   -2.0891    0.0000 H   0  0  0  0  0  0  0  0  0  0  0  0
   -3.7856   -0.5857    0.0000 H   0  0  0  0  0  0  0  0  0  0  0  0
   -1.3856    0.8000    0.0000 C   0  0  0  0  0  0  0  0  0  0  0  0
   -0.5857    2.1857    0.0000 H   0  0  0  0  0  0  0  0  0  0  0  0
    0.0001    0.0000    0.0000 C   0  0  0  0  0  0  0  0  0  0  0  0
   -0.6122   -1.4782    0.0000 H   0  0  0  0  0  0  0  0  0  0  0  0
    0.6122   -1.4782    0.0000 H   0  0  0  0  0  0  0  0  0  0  0  0
    1.3856    0.8000    0.0000 C   0  0  0  0  0  0  0  0  0  0  0  0
    1.9979    2.2782    0.0000 H   0  0  0  0  0  0  0  0  0  0  0  0
    0.7734    2.2782    0.0000 H   0  0  0  0  0  0  0  0  0  0  0  0
    2.7712    0.0000    0.0000 C   0  0  0  0  0  0  0  0  0  0  0  0
    4.1569    0.8000    0.0000 N   0  0  0  0  0  0  0  0  0  0  0  0
    5.5426    0.0000    0.0000 H   0  0  0  0  0  0  0  0  0  0  0  0
    4.1569    2.4000    0.0000 H   0  0  0  0  0  0  0  0  0  0  0  0
    2.7712   -1.6000    0.0000 O   0  0  0  0  0  0  0  0  0  0  0  0
   -2.7712    1.6000    0.0000 C   0  0  0  0  0  0  0  0  0  0  0  0
   -4.1569    0.8000    0.0000 O   0  0  0  0  0  0  0  0  0  0  0  0
   -5.5426    1.6000    0.0000 H   0  0  0  0  0  0  0  0  0  0  0  0
   -2.7712    3.2000    0.0000 O   0  0  0  0  0  0  0  0  0  0  0  0
  1  2  1  0  0  0  0
  1  3  1  0  0  0  0
  1  4  1  0  0  0  0
  4  5  1  0  0  0  0
  4  6  1  0  0  0  0
  6  7  1  0  0  0  0
  6  8  1  0  0  0  0
  6  9  1  0  0  0  0
  9 10  1  0  0  0  0
  9 11  1  0  0  0  0
  9 12  1  0  0  0  0
 12 13  1  0  0  0  0
 13 14  1  0  0  0  0
 13 15  1  0  0  0  0
 12 16  2  0  0  0  0
  4 17  1  0  0  0  0
 17 18  1  0  0  0  0
 18 19  1  0  0  0  0
 17 20  2  0  0  0  0
M  END
> <ChemID>
202012

> <source_casrn>
56-85-9

> <CAS>
56-85-9

> <SMILES>
N[C@@H](CCC(N)=O)C(O)=O

> <NAME>


> <preferred_name>
L-Glutamine

> <iupac>
L-glutamine

> <MPID>
101546

> <dsstox_substance_id>
DTXSID1023100

> <Canonical_QSARr>
NC(=O)CCC(N)C(O)=O

> <InChI_Code_QSARr>
InChI=1S/C5H10N2O3/c6-3(5(9)10)1-2-4(7)8/h3H,1-2,6H2,(H2,7,8)(H,9,10)

> <InChI Key_QSARr>
ZDXPYRJPNDTMRX-UHFFFAOYSA-N

> <Salt_Solvent>


> <Ready_Biodeg>
1.0

$$$$
202013
  -INDIGO-08031722522D

  9  8  0  0  0  0  0  0  0  0999 V2000
    2.7713    0.0000    0.0000 N   0  0  0  0  0  0  0  0  0  0  0  0
    4.1569   -0.8000    0.0000 H   0  0  0  0  0  0  0  0  0  0  0  0
    2.7713    1.6000    0.0000 H   0  0  0  0  0  0  0  0  0  0  0  0
    1.3857   -0.8000    0.0000 C   0  0  0  0  0  0  0  0  0  0  0  0
    1.3857   -2.4000    0.0000 O   0  0  0  0  0  0  0  0  0  0  0  0
    0.0000    0.0000    0.0000 C   0  0  0  0  0  0  0  0  0  0  0  0
   -1.3856    0.8000    0.0000 H   0  0  0  0  0  0  0  0  0  0  0  0
    0.0000    1.6000    0.0000 H   0  0  0  0  0  0  0  0  0  0  0  0
   -1.3856   -0.8000    0.0000 I   0  0  0  0  0  0  0  0  0  0  0  0
  1  2  1  0  0  0  0
  1  3  1  0  0  0  0
  1  4  1  0  0  0  0
  4  5  2  0  0  0  0
  4  6  1  0  0  0  0
  6  7  1  0  0  0  0
  6  8  1  0  0  0  0
  6  9  1  0  0  0  0
M  END
> <ChemID>
202013

> <source_casrn>
144-48-9

> <CAS>
144-48-9

> <SMILES>
NC(=O)CI

> <NAME>


> <preferred_name>
Iodoacetamide

> <iupac>
2-iodoacetamide

> <MPID>
101547

> <dsstox_substance_id>
DTXSID9020742

> <Canonical_QSARr>
NC(=O)CI

> <InChI_Code_QSARr>
InChI=1S/C2H4INO/c3-1-2(4)5/h1H2,(H2,4,5)

> <InChI Key_QSARr>
PGLTVOMIXTUURA-UHFFFAOYSA-N

> <Salt_Solvent>


> <Ready_Biodeg>
0.0

$$$$
202015
  -INDIGO-08031722522D

 18 18  0  0  0  0  0  0  0  0999 V2000
    4.1569    0.8000    0.0000 N   0  0  0  0  0  0  0  0  0  0  0  0
    5.5426   -0.0000    0.0000 H   0  0  0  0  0  0  0  0  0  0  0  0
    4.1569    2.4000    0.0000 H   0  0  0  0  0  0  0  0  0  0  0  0
    2.7713   -0.0000    0.0000 C   0  0  0  0  0  0  0  0  0  0  0  0
    2.7713   -1.6000    0.0000 O   0  0  0  0  0  0  0  0  0  0  0  0
    1.3857    0.8000    0.0000 N   0  0  0  0  0  0  0  0  0  0  0  0
    1.3857    2.4000    0.0000 H   0  0  0  0  0  0  0  0  0  0  0  0
   -0.0001   -0.0000    0.0000 C   0  0  0  0  0  0  0  0  0  0  0  0
   -0.0001   -1.6000    0.0000 C   0  0  0  0  0  0  0  0  0  0  0  0
    1.3857   -2.4000    0.0000 H   0  0  0  0  0  0  0  0  0  0  0  0
   -1.3857   -2.4000    0.0000 C   0  0  0  0  0  0  0  0  0  0  0  0
   -1.3857   -4.0000    0.0000 H   0  0  0  0  0  0  0  0  0  0  0  0
   -2.7713   -1.6000    0.0000 C   0  0  0  0  0  0  0  0  0  0  0  0
   -4.1569   -2.4000    0.0000 H   0  0  0  0  0  0  0  0  0  0  0  0
   -2.7713   -0.0000    0.0000 C   0  0  0  0  0  0  0  0  0  0  0  0
   -4.1569    0.8000    0.0000 H   0  0  0  0  0  0  0  0  0  0  0  0
   -1.3857    0.8000    0.0000 C   0  0  0  0  0  0  0  0  0  0  0  0
   -1.3857    2.4000    0.0000 H   0  0  0  0  0  0  0  0  0  0  0  0
  1  2  1  0  0  0  0
  1  3  1  0  0  0  0
  1  4  1  0  0  0  0
  4  5  2  0  0  0  0
  4  6  1  0  0  0  0
  6  7  1  0  0  0  0
  6  8  1  0  0  0  0
  8  9  1  0  0  0  0
  9 10  1  0  0  0  0
  9 11  2  0  0  0  0
 11 12  1  0  0  0  0
 11 13  1  0  0  0  0
 13 14  1  0  0  0  0
 13 15  2  0  0  0  0
 15 16  1  0  0  0  0
 15 17  1  0  0  0  0
 17  8  2  0  0  0  0
 17 18  1  0  0  0  0
M  END
> <ChemID>
202015

> <source_casrn>
64-10-8

> <CAS>
64-10-8

> <SMILES>
NC(=O)Nc1ccccc1

> <NAME>


> <preferred_name>
1-Phenylurea

> <iupac>
C7H8N2O

> <MPID>
101549

> <dsstox_substance_id>
DTXSID8042507

> <Canonical_QSARr>
NC(=O)Nc1ccccc1

> <InChI_Code_QSARr>
InChI=1S/C7H8N2O/c8-7(10)9-6-4-2-1-3-5-6/h1-5H,(H3,8,9,10)

> <InChI Key_QSARr>
LUBJCRLGQSPQNN-UHFFFAOYSA-N

> <Salt_Solvent>


> <Ready_Biodeg>
0.0

$$$$
202017
  -INDIGO-08031722522D

 26 25  0  0  0  0  0  0  0  0999 V2000
   -0.0000    1.6000    0.0000 N   0  0  0  0  0  0  0  0  0  0  0  0
    1.3856    2.4000    0.0000 H   0  0  0  0  0  0  0  0  0  0  0  0
   -1.3857    2.4000    0.0000 H   0  0  0  0  0  0  0  0  0  0  0  0
   -0.0000    0.0000    0.0000 C   0  0  0  0  0  0  0  0  0  0  0  0
   -0.0000   -1.6000    0.0000 H   0  0  0  0  0  0  0  0  0  0  0  0
    1.6000    0.0000    0.0000 C   0  0  0  0  0  0  0  0  0  0  0  0
    1.8088   -1.5863    0.0000 H   0  0  0  0  0  0  0  0  0  0  0  0
    2.8694   -0.9740    0.0000 H   0  0  0  0  0  0  0  0  0  0  0  0
    2.4001    1.3857    0.0000 S   0  0  0  0  0  0  0  0  0  0  0  0
    3.9999    1.3857    0.0000 S   0  0  0  0  0  0  0  0  0  0  0  0
    4.8000    2.7713    0.0000 C   0  0  0  0  0  0  0  0  0  0  0  0
    4.5912    4.3576    0.0000 H   0  0  0  0  0  0  0  0  0  0  0  0
    3.5306    3.7453    0.0000 H   0  0  0  0  0  0  0  0  0  0  0  0
    6.4000    2.7713    0.0000 C   0  0  0  0  0  0  0  0  0  0  0  0
    6.4000    4.3713    0.0000 H   0  0  0  0  0  0  0  0  0  0  0  0
    6.4000    1.1713    0.0000 N   0  0  0  0  0  0  0  0  0  0  0  0
    5.0144    0.3713    0.0000 H   0  0  0  0  0  0  0  0  0  0  0  0
    7.7857    0.3713    0.0000 H   0  0  0  0  0  0  0  0  0  0  0  0
    8.0001    2.7713    0.0000 C   0  0  0  0  0  0  0  0  0  0  0  0
    8.7999    1.3857    0.0000 O   0  0  0  0  0  0  0  0  0  0  0  0
   10.4000    1.3857    0.0000 H   0  0  0  0  0  0  0  0  0  0  0  0
    8.7999    4.1569    0.0000 O   0  0  0  0  0  0  0  0  0  0  0  0
   -1.5999    0.0000    0.0000 C   0  0  0  0  0  0  0  0  0  0  0  0
   -2.3999   -1.3856    0.0000 O   0  0  0  0  0  0  0  0  0  0  0  0
   -4.0000   -1.3856    0.0000 H   0  0  0  0  0  0  0  0  0  0  0  0
   -2.3999    1.3857    0.0000 O   0  0  0  0  0  0  0  0  0  0  0  0
  1  2  1  0  0  0  0
  1  3  1  0  0  0  0
  1  4  1  0  0  0  0
  4  5  1  0  0  0  0
  4  6  1  0  0  0  0
  6  7  1  0  0  0  0
  6  8  1  0  0  0  0
  6  9  1  0  0  0  0
  9 10  1  0  0  0  0
 10 11  1  0  0  0  0
 11 12  1  0  0  0  0
 11 13  1  0  0  0  0
 11 14  1  0  0  0  0
 14 15  1  0  0  0  0
 14 16  1  0  0  0  0
 16 17  1  0  0  0  0
 16 18  1  0  0  0  0
 14 19  1  0  0  0  0
 19 20  1  0  0  0  0
 20 21  1  0  0  0  0
 19 22  2  0  0  0  0
  4 23  1  0  0  0  0
 23 24  1  0  0  0  0
 24 25  1  0  0  0  0
 23 26  2  0  0  0  0
M  END
> <ChemID>
202017

> <source_casrn>
56-89-3

> <CAS>
56-89-3

> <SMILES>
N[C@@H](CSSC[C@H](N)C(O)=O)C(O)=O

> <NAME>


> <preferred_name>
L-Cystine

> <iupac>
L-cystine

> <MPID>
101550

> <dsstox_substance_id>
DTXSID2046418

> <Canonical_QSARr>
NC(CSSCC(N)C(O)=O)C(O)=O

> <InChI_Code_QSARr>
InChI=1S/C6H12N2O4S2/c7-3(5(9)10)1-13-14-2-4(8)6(11)12/h3-4H,1-2,7-8H2,(H,9,10)(H,11,12)

> <InChI Key_QSARr>
LEVWYRKDKASIDU-UHFFFAOYSA-N

> <Salt_Solvent>


> <Ready_Biodeg>
1.0

$$$$
202023
  -INDIGO-08031722522D

 28 28  0  0  0  0  0  0  0  0999 V2000
    2.6042    0.9478    0.0000 N   0  0  0  0  0  0  0  0  0  0  0  0
    4.1798    0.6700    0.0000 H   0  0  0  0  0  0  0  0  0  0  0  0
    2.0569    2.4513    0.0000 H   0  0  0  0  0  0  0  0  0  0  0  0
    1.5757   -0.2779    0.0000 C   0  0  0  0  0  0  0  0  0  0  0  0
    1.5059   -1.8763    0.0000 H   0  0  0  0  0  0  0  0  0  0  0  0
    2.6567   -1.4575    0.0000 H   0  0  0  0  0  0  0  0  0  0  0  0
    0.0001    0.0000    0.0000 C   0  0  0  0  0  0  0  0  0  0  0  0
    0.5473    1.5035    0.0000 H   0  0  0  0  0  0  0  0  0  0  0  0
    0.0001   -1.6000    0.0000 C   0  0  0  0  0  0  0  0  0  0  0  0
    1.5036   -1.0528    0.0000 H   0  0  0  0  0  0  0  0  0  0  0  0
    0.5473   -3.1035    0.0000 H   0  0  0  0  0  0  0  0  0  0  0  0
   -1.3857   -2.4000    0.0000 C   0  0  0  0  0  0  0  0  0  0  0  0
   -0.3571   -3.6257    0.0000 H   0  0  0  0  0  0  0  0  0  0  0  0
   -2.4142   -3.6257    0.0000 H   0  0  0  0  0  0  0  0  0  0  0  0
   -2.7713   -1.6000    0.0000 C   0  0  0  0  0  0  0  0  0  0  0  0
   -3.3186   -3.1035    0.0000 H   0  0  0  0  0  0  0  0  0  0  0  0
   -4.2748   -1.0528    0.0000 H   0  0  0  0  0  0  0  0  0  0  0  0
   -2.7713    0.0000    0.0000 C   0  0  0  0  0  0  0  0  0  0  0  0
   -3.3186    1.5035    0.0000 H   0  0  0  0  0  0  0  0  0  0  0  0
   -4.3470   -0.2779    0.0000 C   0  0  0  0  0  0  0  0  0  0  0  0
   -5.4279   -1.4575    0.0000 H   0  0  0  0  0  0  0  0  0  0  0  0
   -4.2772   -1.8763    0.0000 H   0  0  0  0  0  0  0  0  0  0  0  0
   -5.3754    0.9478    0.0000 N   0  0  0  0  0  0  0  0  0  0  0  0
   -6.9511    0.6700    0.0000 H   0  0  0  0  0  0  0  0  0  0  0  0
   -4.8282    2.4513    0.0000 H   0  0  0  0  0  0  0  0  0  0  0  0
   -1.3857    0.8000    0.0000 C   0  0  0  0  0  0  0  0  0  0  0  0
   -2.4142    2.0257    0.0000 H   0  0  0  0  0  0  0  0  0  0  0  0
   -0.3571    2.0257    0.0000 H   0  0  0  0  0  0  0  0  0  0  0  0
  1  2  1  0  0  0  0
  1  3  1  0  0  0  0
  1  4  1  0  0  0  0
  4  5  1  0  0  0  0
  4  6  1  0  0  0  0
  4  7  1  0  0  0  0
  7  8  1  0  0  0  0
  7  9  1  0  0  0  0
  9 10  1  0  0  0  0
  9 11  1  0  0  0  0
  9 12  1  0  0  0  0
 12 13  1  0  0  0  0
 12 14  1  0  0  0  0
 12 15  1  0  0  0  0
 15 16  1  0  0  0  0
 15 17  1  0  0  0  0
 15 18  1  0  0  0  0
 18 19  1  0  0  0  0
 18 20  1  0  0  0  0
 20 21  1  0  0  0  0
 20 22  1  0  0  0  0
 20 23  1  0  0  0  0
 23 24  1  0  0  0  0
 23 25  1  0  0  0  0
 18 26  1  0  0  0  0
 26  7  1  0  0  0  0
 26 27  1  0  0  0  0
 26 28  1  0  0  0  0
M  END
> <ChemID>
202023

> <source_casrn>
2579-20-6

> <CAS>
2579-20-6

> <SMILES>
NCC1CCCC(CN)C1

> <NAME>


> <preferred_name>
1,3-Cyclohexanedimethanamine

> <iupac>
cyclohexane-1,3-diyldimethanamine

> <MPID>
101552

> <dsstox_substance_id>
DTXSID4041238

> <Canonical_QSARr>
NCC1CC(CCC1)CN

> <InChI_Code_QSARr>
InChI=1S/C8H18N2/c9-5-7-2-1-3-8(4-7)6-10/h7-8H,1-6,9-10H2

> <InChI Key_QSARr>
QLBRROYTTDFLDX-UHFFFAOYSA-N

> <Salt_Solvent>


> <Ready_Biodeg>
0.0

$$$$
202024
  -INDIGO-08031722522D

 26 26  0  0  0  0  0  0  0  0999 V2000
    2.6285    1.2256    0.0000 N   0  0  0  0  0  0  0  0  0  0  0  0
    4.2042    0.9479    0.0000 H   0  0  0  0  0  0  0  0  0  0  0  0
    2.0812    2.7292    0.0000 H   0  0  0  0  0  0  0  0  0  0  0  0
    1.5999    0.0000    0.0000 C   0  0  0  0  0  0  0  0  0  0  0  0
    1.8089   -1.5863    0.0000 H   0  0  0  0  0  0  0  0  0  0  0  0
    2.8694   -0.9741    0.0000 H   0  0  0  0  0  0  0  0  0  0  0  0
    0.0000    0.0000    0.0000 C   0  0  0  0  0  0  0  0  0  0  0  0
    0.5473   -1.5036    0.0000 H   0  0  0  0  0  0  0  0  0  0  0  0
    0.0000    1.6000    0.0000 C   0  0  0  0  0  0  0  0  0  0  0  0
    1.5035    1.0527    0.0000 H   0  0  0  0  0  0  0  0  0  0  0  0
    0.5473    3.1035    0.0000 H   0  0  0  0  0  0  0  0  0  0  0  0
   -1.3856    2.4000    0.0000 C   0  0  0  0  0  0  0  0  0  0  0  0
   -0.3572    3.6257    0.0000 H   0  0  0  0  0  0  0  0  0  0  0  0
   -2.4141    3.6257    0.0000 H   0  0  0  0  0  0  0  0  0  0  0  0
   -2.7713    1.6000    0.0000 C   0  0  0  0  0  0  0  0  0  0  0  0
   -3.3186    3.1035    0.0000 H   0  0  0  0  0  0  0  0  0  0  0  0
   -4.3470    1.8779    0.0000 C   0  0  0  0  0  0  0  0  0  0  0  0
   -4.8942    3.3813    0.0000 O   0  0  0  0  0  0  0  0  0  0  0  0
   -6.4699    3.6592    0.0000 H   0  0  0  0  0  0  0  0  0  0  0  0
   -5.3754    0.6522    0.0000 O   0  0  0  0  0  0  0  0  0  0  0  0
   -2.7713    0.0000    0.0000 C   0  0  0  0  0  0  0  0  0  0  0  0
   -4.3470    0.2778    0.0000 H   0  0  0  0  0  0  0  0  0  0  0  0
   -3.3186   -1.5036    0.0000 H   0  0  0  0  0  0  0  0  0  0  0  0
   -1.3856   -0.8000    0.0000 C   0  0  0  0  0  0  0  0  0  0  0  0
   -2.4141   -2.0257    0.0000 H   0  0  0  0  0  0  0  0  0  0  0  0
   -0.3572   -2.0257    0.0000 H   0  0  0  0  0  0  0  0  0  0  0  0
  1  2  1  0  0  0  0
  1  3  1  0  0  0  0
  1  4  1  0  0  0  0
  4  5  1  0  0  0  0
  4  6  1  0  0  0  0
  4  7  1  0  0  0  0
  7  8  1  0  0  0  0
  7  9  1  0  0  0  0
  9 10  1  0  0  0  0
  9 11  1  0  0  0  0
  9 12  1  0  0  0  0
 12 13  1  0  0  0  0
 12 14  1  0  0  0  0
 12 15  1  0  0  0  0
 15 16  1  0  0  0  0
 15 17  1  0  0  0  0
 17 18  1  0  0  0  0
 18 19  1  0  0  0  0
 17 20  2  0  0  0  0
 15 21  1  0  0  0  0
 21 22  1  0  0  0  0
 21 23  1  0  0  0  0
 21 24  1  0  0  0  0
 24  7  1  0  0  0  0
 24 25  1  0  0  0  0
 24 26  1  0  0  0  0
M  END
> <ChemID>
202024

> <source_casrn>
1197-18-8

> <CAS>
1197-18-8

> <SMILES>
NCC1CCC(CC1)C(O)=O

> <NAME>


> <preferred_name>
Tranexamic acid

> <iupac>
4-(aminomethyl)cyclohexanecarboxylic acid

> <MPID>
101553

> <dsstox_substance_id>
DTXSID3045350

> <Canonical_QSARr>
NCC1CCC(CC1)C(O)=O

> <InChI_Code_QSARr>
InChI=1S/C8H15NO2/c9-5-6-1-3-7(4-2-6)8(10)11/h6-7H,1-5,9H2,(H,10,11)

> <InChI Key_QSARr>
GYDJEQRTZSCIOI-UHFFFAOYSA-N

> <Salt_Solvent>


> <Ready_Biodeg>
0.0

$$$$
202025
  -INDIGO-08031722522D

 13 12  0  0  0  0  0  0  0  0999 V2000
    2.7713    0.0000    0.0000 N   0  0  0  0  0  0  0  0  0  0  0  0
    4.1569    0.8000    0.0000 H   0  0  0  0  0  0  0  0  0  0  0  0
    2.7713   -1.6000    0.0000 H   0  0  0  0  0  0  0  0  0  0  0  0
    1.3856    0.8000    0.0000 C   0  0  0  0  0  0  0  0  0  0  0  0
    0.7734    2.2782    0.0000 H   0  0  0  0  0  0  0  0  0  0  0  0
    1.9979    2.2782    0.0000 H   0  0  0  0  0  0  0  0  0  0  0  0
    0.0001    0.0000    0.0000 C   0  0  0  0  0  0  0  0  0  0  0  0
    0.6123   -1.4782    0.0000 H   0  0  0  0  0  0  0  0  0  0  0  0
   -0.6123   -1.4782    0.0000 H   0  0  0  0  0  0  0  0  0  0  0  0
   -1.3856    0.8000    0.0000 C   0  0  0  0  0  0  0  0  0  0  0  0
   -2.7713    0.0000    0.0000 O   0  0  0  0  0  0  0  0  0  0  0  0
   -4.1569    0.8000    0.0000 H   0  0  0  0  0  0  0  0  0  0  0  0
   -1.3856    2.4000    0.0000 O   0  0  0  0  0  0  0  0  0  0  0  0
  1  2  1  0  0  0  0
  1  3  1  0  0  0  0
  1  4  1  0  0  0  0
  4  5  1  0  0  0  0
  4  6  1  0  0  0  0
  4  7  1  0  0  0  0
  7  8  1  0  0  0  0
  7  9  1  0  0  0  0
  7 10  1  0  0  0  0
 10 11  1  0  0  0  0
 11 12  1  0  0  0  0
 10 13  2  0  0  0  0
M  END
> <ChemID>
202025

> <source_casrn>
107-95-9

> <CAS>
107-95-9

> <SMILES>
NCCC(O)=O

> <NAME>


> <preferred_name>
beta-Alanine

> <iupac>
beta-alanine

> <MPID>
101554

> <dsstox_substance_id>
DTXSID0030823

> <Canonical_QSARr>
NCCC(O)=O

> <InChI_Code_QSARr>
InChI=1S/C3H7NO2/c4-2-1-3(5)6/h1-2,4H2,(H,5,6)

> <InChI Key_QSARr>
UCMIRNVEIXFBKS-UHFFFAOYSA-N

> <Salt_Solvent>


> <Ready_Biodeg>
1.0

$$$$
202028
  -INDIGO-08031722522D

 24 24  0  0  0  0  0  0  0  0999 V2000
    2.7713   -1.6000    0.0000 N   0  0  0  0  0  0  0  0  0  0  0  0
    4.1569   -2.4000    0.0000 H   0  0  0  0  0  0  0  0  0  0  0  0
    1.3857   -2.4000    0.0000 H   0  0  0  0  0  0  0  0  0  0  0  0
    2.7713   -0.0000    0.0000 C   0  0  0  0  0  0  0  0  0  0  0  0
    3.7453    1.2694    0.0000 H   0  0  0  0  0  0  0  0  0  0  0  0
    4.3576    0.2088    0.0000 H   0  0  0  0  0  0  0  0  0  0  0  0
    1.3857    0.8000    0.0000 C   0  0  0  0  0  0  0  0  0  0  0  0
    1.9980    2.2782    0.0000 H   0  0  0  0  0  0  0  0  0  0  0  0
    0.7734    2.2782    0.0000 H   0  0  0  0  0  0  0  0  0  0  0  0
    0.0001   -0.0000    0.0000 N   0  0  0  0  0  0  0  0  0  0  0  0
    0.0001   -1.6000    0.0000 C   0  0  0  0  0  0  0  0  0  0  0  0
    1.5757   -1.3221    0.0000 H   0  0  0  0  0  0  0  0  0  0  0  0
    0.5473   -3.1035    0.0000 H   0  0  0  0  0  0  0  0  0  0  0  0
   -1.3857   -2.4000    0.0000 C   0  0  0  0  0  0  0  0  0  0  0  0
   -0.3572   -3.6257    0.0000 H   0  0  0  0  0  0  0  0  0  0  0  0
   -2.4141   -3.6257    0.0000 H   0  0  0  0  0  0  0  0  0  0  0  0
   -2.7713   -1.6000    0.0000 N   0  0  0  0  0  0  0  0  0  0  0  0
   -4.1569   -2.4000    0.0000 H   0  0  0  0  0  0  0  0  0  0  0  0
   -2.7713   -0.0000    0.0000 C   0  0  0  0  0  0  0  0  0  0  0  0
   -4.3470   -0.2778    0.0000 H   0  0  0  0  0  0  0  0  0  0  0  0
   -3.3185    1.5035    0.0000 H   0  0  0  0  0  0  0  0  0  0  0  0
   -1.3857    0.8000    0.0000 C   0  0  0  0  0  0  0  0  0  0  0  0
   -2.4141    2.0257    0.0000 H   0  0  0  0  0  0  0  0  0  0  0  0
   -0.3572    2.0257    0.0000 H   0  0  0  0  0  0  0  0  0  0  0  0
  1  2  1  0  0  0  0
  1  3  1  0  0  0  0
  1  4  1  0  0  0  0
  4  5  1  0  0  0  0
  4  6  1  0  0  0  0
  4  7  1  0  0  0  0
  7  8  1  0  0  0  0
  7  9  1  0  0  0  0
  7 10  1  0  0  0  0
 10 11  1  0  0  0  0
 11 12  1  0  0  0  0
 11 13  1  0  0  0  0
 11 14  1  0  0  0  0
 14 15  1  0  0  0  0
 14 16  1  0  0  0  0
 14 17  1  0  0  0  0
 17 18  1  0  0  0  0
 17 19  1  0  0  0  0
 19 20  1  0  0  0  0
 19 21  1  0  0  0  0
 19 22  1  0  0  0  0
 22 10  1  0  0  0  0
 22 23  1  0  0  0  0
 22 24  1  0  0  0  0
M  END
> <ChemID>
202028

> <source_casrn>
140-31-8

> <CAS>
140-31-8

> <SMILES>
NCCN1CCNCC1

> <NAME>


> <preferred_name>
1-(2-Aminoethyl)piperazine

> <iupac>
2-(piperazin-1-yl)ethanamine

> <MPID>
101556

> <dsstox_substance_id>
DTXSID2021997

> <Canonical_QSARr>
NCCN1CCNCC1

> <InChI_Code_QSARr>
InChI=1S/C6H15N3/c7-1-4-9-5-2-8-3-6-9/h8H,1-7H2

> <InChI Key_QSARr>
IMUDHTPIFIBORV-UHFFFAOYSA-N

> <Salt_Solvent>


> <Ready_Biodeg>
0.0

$$$$
202032
  -INDIGO-08031722522D

 25 25  0  0  0  0  0  0  0  0999 V2000
    5.5425   -0.0000    0.0000 N   0  0  0  0  0  0  0  0  0  0  0  0
    6.9282   -0.8000    0.0000 H   0  0  0  0  0  0  0  0  0  0  0  0
    5.5425    1.6000    0.0000 H   0  0  0  0  0  0  0  0  0  0  0  0
    4.1570   -0.8000    0.0000 C   0  0  0  0  0  0  0  0  0  0  0  0
    4.7692   -2.2782    0.0000 H   0  0  0  0  0  0  0  0  0  0  0  0
    3.5446   -2.2782    0.0000 H   0  0  0  0  0  0  0  0  0  0  0  0
    2.7713   -0.0000    0.0000 C   0  0  0  0  0  0  0  0  0  0  0  0
    2.1589    1.4782    0.0000 H   0  0  0  0  0  0  0  0  0  0  0  0
    3.3836    1.4782    0.0000 H   0  0  0  0  0  0  0  0  0  0  0  0
    1.3856   -0.8000    0.0000 N   0  0  0  0  0  0  0  0  0  0  0  0
    1.3856   -2.4000    0.0000 H   0  0  0  0  0  0  0  0  0  0  0  0
    0.0001   -0.0000    0.0000 C   0  0  0  0  0  0  0  0  0  0  0  0
   -0.6123    1.4782    0.0000 H   0  0  0  0  0  0  0  0  0  0  0  0
    0.6122    1.4782    0.0000 H   0  0  0  0  0  0  0  0  0  0  0  0
   -1.3856   -0.8000    0.0000 C   0  0  0  0  0  0  0  0  0  0  0  0
   -2.7713   -0.0000    0.0000 C   0  0  0  0  0  0  0  0  0  0  0  0
   -2.7713    1.6000    0.0000 H   0  0  0  0  0  0  0  0  0  0  0  0
   -4.1569   -0.8000    0.0000 C   0  0  0  0  0  0  0  0  0  0  0  0
   -5.5426   -0.0000    0.0000 H   0  0  0  0  0  0  0  0  0  0  0  0
   -4.1569   -2.4000    0.0000 C   0  0  0  0  0  0  0  0  0  0  0  0
   -5.5426   -3.2000    0.0000 H   0  0  0  0  0  0  0  0  0  0  0  0
   -2.7713   -3.2000    0.0000 C   0  0  0  0  0  0  0  0  0  0  0  0
   -2.7713   -4.8000    0.0000 H   0  0  0  0  0  0  0  0  0  0  0  0
   -1.3856   -2.4000    0.0000 C   0  0  0  0  0  0  0  0  0  0  0  0
    0.0001   -3.2000    0.0000 H   0  0  0  0  0  0  0  0  0  0  0  0
  1  2  1  0  0  0  0
  1  3  1  0  0  0  0
  1  4  1  0  0  0  0
  4  5  1  0  0  0  0
  4  6  1  0  0  0  0
  4  7  1  0  0  0  0
  7  8  1  0  0  0  0
  7  9  1  0  0  0  0
  7 10  1  0  0  0  0
 10 11  1  0  0  0  0
 10 12  1  0  0  0  0
 12 13  1  0  0  0  0
 12 14  1  0  0  0  0
 12 15  1  0  0  0  0
 15 16  1  0  0  0  0
 16 17  1  0  0  0  0
 16 18  2  0  0  0  0
 18 19  1  0  0  0  0
 18 20  1  0  0  0  0
 20 21  1  0  0  0  0
 20 22  2  0  0  0  0
 22 23  1  0  0  0  0
 22 24  1  0  0  0  0
 24 15  2  0  0  0  0
 24 25  1  0  0  0  0
M  END
> <ChemID>
202032

> <source_casrn>
4152-09-4

> <CAS>
4152-09-4

> <SMILES>
NCCNCc1ccccc1

> <NAME>


> <preferred_name>
1,2-Ethanediamine, N-(phenylmethyl)-

> <iupac>
N-(phenylmethyl)ethane-1,2-diamine

> <MPID>
101558

> <dsstox_substance_id>
DTXSID9063322

> <Canonical_QSARr>
NCCNCc1ccccc1

> <InChI_Code_QSARr>
InChI=1S/C9H14N2/c10-6-7-11-8-9-4-2-1-3-5-9/h1-5,11H,6-8,10H2

> <InChI Key_QSARr>
ACYBVNYNIZTUIL-UHFFFAOYSA-N

> <Salt_Solvent>


> <Ready_Biodeg>
0.0

$$$$
202036
  -INDIGO-08031722522D

 26 25  0  0  0  0  0  0  0  0999 V2000
    5.5425    0.0000    0.0000 N   0  0  0  0  0  0  0  0  0  0  0  0
    6.9282   -0.8000    0.0000 H   0  0  0  0  0  0  0  0  0  0  0  0
    5.5425    1.6000    0.0000 H   0  0  0  0  0  0  0  0  0  0  0  0
    4.1570   -0.8000    0.0000 N   0  0  0  0  0  0  0  0  0  0  0  0
    4.1570   -2.4000    0.0000 H   0  0  0  0  0  0  0  0  0  0  0  0
    2.7713    0.0000    0.0000 C   0  0  0  0  0  0  0  0  0  0  0  0
    2.7713    1.6000    0.0000 O   0  0  0  0  0  0  0  0  0  0  0  0
    1.3856   -0.8000    0.0000 C   0  0  0  0  0  0  0  0  0  0  0  0
    0.7732   -2.2782    0.0000 H   0  0  0  0  0  0  0  0  0  0  0  0
    1.9980   -2.2782    0.0000 H   0  0  0  0  0  0  0  0  0  0  0  0
   -0.0001    0.0000    0.0000 C   0  0  0  0  0  0  0  0  0  0  0  0
    0.6123    1.4782    0.0000 H   0  0  0  0  0  0  0  0  0  0  0  0
   -0.6122    1.4782    0.0000 H   0  0  0  0  0  0  0  0  0  0  0  0
   -1.3856   -0.8000    0.0000 C   0  0  0  0  0  0  0  0  0  0  0  0
   -1.9979   -2.2782    0.0000 H   0  0  0  0  0  0  0  0  0  0  0  0
   -0.7734   -2.2782    0.0000 H   0  0  0  0  0  0  0  0  0  0  0  0
   -2.7713    0.0000    0.0000 C   0  0  0  0  0  0  0  0  0  0  0  0
   -2.1589    1.4782    0.0000 H   0  0  0  0  0  0  0  0  0  0  0  0
   -3.3836    1.4782    0.0000 H   0  0  0  0  0  0  0  0  0  0  0  0
   -4.1570   -0.8000    0.0000 C   0  0  0  0  0  0  0  0  0  0  0  0
   -4.1570   -2.4000    0.0000 O   0  0  0  0  0  0  0  0  0  0  0  0
   -5.5427    0.0000    0.0000 N   0  0  0  0  0  0  0  0  0  0  0  0
   -5.5427    1.6000    0.0000 H   0  0  0  0  0  0  0  0  0  0  0  0
   -6.9281   -0.8000    0.0000 N   0  0  0  0  0  0  0  0  0  0  0  0
   -8.3138    0.0000    0.0000 H   0  0  0  0  0  0  0  0  0  0  0  0
   -6.9281   -2.4000    0.0000 H   0  0  0  0  0  0  0  0  0  0  0  0
  1  2  1  0  0  0  0
  1  3  1  0  0  0  0
  1  4  1  0  0  0  0
  4  5  1  0  0  0  0
  4  6  1  0  0  0  0
  6  7  2  0  0  0  0
  6  8  1  0  0  0  0
  8  9  1  0  0  0  0
  8 10  1  0  0  0  0
  8 11  1  0  0  0  0
 11 12  1  0  0  0  0
 11 13  1  0  0  0  0
 11 14  1  0  0  0  0
 14 15  1  0  0  0  0
 14 16  1  0  0  0  0
 14 17  1  0  0  0  0
 17 18  1  0  0  0  0
 17 19  1  0  0  0  0
 17 20  1  0  0  0  0
 20 21  2  0  0  0  0
 20 22  1  0  0  0  0
 22 23  1  0  0  0  0
 22 24  1  0  0  0  0
 24 25  1  0  0  0  0
 24 26  1  0  0  0  0
M  END
> <ChemID>
202036

> <source_casrn>
1071-93-8

> <CAS>
1071-93-8

> <SMILES>
NNC(=O)CCCCC(=O)NN

> <NAME>


> <preferred_name>
Hexanedihydrazide

> <iupac>
hexanedihydrazide

> <MPID>
101559

> <dsstox_substance_id>
DTXSID0044361

> <Canonical_QSARr>
NNC(=O)CCCCC(=O)NN

> <InChI_Code_QSARr>
InChI=1S/C6H14N4O2/c7-9-5(11)3-1-2-4-6(12)10-8/h1-4,7-8H2,(H,9,11)(H,10,12)

> <InChI Key_QSARr>
IBVAQQYNSHJXBV-UHFFFAOYSA-N

> <Salt_Solvent>


> <Ready_Biodeg>
0.0

$$$$
202039
  -INDIGO-08031722522D

 16 16  0  0  0  0  0  0  0  0999 V2000
    2.7713   -0.0000    0.0000 N   0  0  0  0  0  0  0  0  0  0  0  0
    4.1569    0.8000    0.0000 H   0  0  0  0  0  0  0  0  0  0  0  0
    2.7713   -1.6000    0.0000 H   0  0  0  0  0  0  0  0  0  0  0  0
    1.3856    0.8000    0.0000 N   0  0  0  0  0  0  0  0  0  0  0  0
    1.3856    2.4000    0.0000 H   0  0  0  0  0  0  0  0  0  0  0  0
    0.0001   -0.0000    0.0000 C   0  0  0  0  0  0  0  0  0  0  0  0
    0.0001   -1.6000    0.0000 C   0  0  0  0  0  0  0  0  0  0  0  0
    1.3856   -2.4000    0.0000 Cl  0  0  0  0  0  0  0  0  0  0  0  0
   -1.3856   -2.4000    0.0000 C   0  0  0  0  0  0  0  0  0  0  0  0
   -1.3856   -4.0000    0.0000 H   0  0  0  0  0  0  0  0  0  0  0  0
   -2.7712   -1.6000    0.0000 C   0  0  0  0  0  0  0  0  0  0  0  0
   -4.1569   -2.4000    0.0000 Cl  0  0  0  0  0  0  0  0  0  0  0  0
   -2.7712   -0.0000    0.0000 C   0  0  0  0  0  0  0  0  0  0  0  0
   -4.1569    0.8000    0.0000 H   0  0  0  0  0  0  0  0  0  0  0  0
   -1.3856    0.8000    0.0000 C   0  0  0  0  0  0  0  0  0  0  0  0
   -1.3856    2.4000    0.0000 Cl  0  0  0  0  0  0  0  0  0  0  0  0
  1  2  1  0  0  0  0
  1  3  1  0  0  0  0
  1  4  1  0  0  0  0
  4  5  1  0  0  0  0
  4  6  1  0  0  0  0
  6  7  1  0  0  0  0
  7  8  1  0  0  0  0
  7  9  2  0  0  0  0
  9 10  1  0  0  0  0
  9 11  1  0  0  0  0
 11 12  1  0  0  0  0
 11 13  2  0  0  0  0
 13 14  1  0  0  0  0
 13 15  1  0  0  0  0
 15  6  2  0  0  0  0
 15 16  1  0  0  0  0
M  END
> <ChemID>
202039

> <source_casrn>
5329-12-4

> <CAS>
5329-12-4

> <SMILES>
NNc1c(Cl)cc(Cl)cc1Cl

> <NAME>


> <preferred_name>
Hydrazine, (2,4,6-trichlorophenyl)-

> <iupac>
(2,4,6-Trichlorophenyl)hydrazine

> <MPID>
101560

> <dsstox_substance_id>
DTXSID5063780

> <Canonical_QSARr>
NNc1c(Cl)cc(Cl)cc1Cl

> <InChI_Code_QSARr>
InChI=1S/C6H5Cl3N2/c7-3-1-4(8)6(11-10)5(9)2-3/h1-2,11H,10H2

> <InChI Key_QSARr>
MULHANRBCQBHII-UHFFFAOYSA-N

> <Salt_Solvent>


> <Ready_Biodeg>
0.0

$$$$
202043
  -INDIGO-08031722522D

 23 24  0  0  0  0  0  0  0  0999 V2000
    4.8000   -2.7712    0.0000 N   0  0  0  0  0  0  0  0  0  0  0  0
    6.4000   -2.7712    0.0000 H   0  0  0  0  0  0  0  0  0  0  0  0
    4.0000   -4.1569    0.0000 H   0  0  0  0  0  0  0  0  0  0  0  0
    4.0000   -1.3856    0.0000 C   0  0  0  0  0  0  0  0  0  0  0  0
    4.8000    0.0001    0.0000 N   0  0  0  0  0  0  0  0  0  0  0  0
    4.0000    1.3856    0.0000 C   0  0  0  0  0  0  0  0  0  0  0  0
    4.8000    2.7713    0.0000 N   0  0  0  0  0  0  0  0  0  0  0  0
    6.4000    2.7713    0.0000 H   0  0  0  0  0  0  0  0  0  0  0  0
    4.0000    4.1569    0.0000 H   0  0  0  0  0  0  0  0  0  0  0  0
    2.4001    1.3856    0.0000 N   0  0  0  0  0  0  0  0  0  0  0  0
    1.6001    0.0001    0.0000 C   0  0  0  0  0  0  0  0  0  0  0  0
   -0.0001    0.0001    0.0000 C   0  0  0  0  0  0  0  0  0  0  0  0
   -0.8001    1.3856    0.0000 C   0  0  0  0  0  0  0  0  0  0  0  0
   -0.0001    2.7713    0.0000 H   0  0  0  0  0  0  0  0  0  0  0  0
   -2.4000    1.3856    0.0000 C   0  0  0  0  0  0  0  0  0  0  0  0
   -3.2000    2.7713    0.0000 H   0  0  0  0  0  0  0  0  0  0  0  0
   -3.2000    0.0001    0.0000 C   0  0  0  0  0  0  0  0  0  0  0  0
   -4.8000    0.0001    0.0000 H   0  0  0  0  0  0  0  0  0  0  0  0
   -2.4000   -1.3856    0.0000 C   0  0  0  0  0  0  0  0  0  0  0  0
   -3.2000   -2.7712    0.0000 H   0  0  0  0  0  0  0  0  0  0  0  0
   -0.8001   -1.3856    0.0000 C   0  0  0  0  0  0  0  0  0  0  0  0
   -0.0001   -2.7712    0.0000 H   0  0  0  0  0  0  0  0  0  0  0  0
    2.4001   -1.3856    0.0000 N   0  0  0  0  0  0  0  0  0  0  0  0
  1  2  1  0  0  0  0
  1  3  1  0  0  0  0
  1  4  1  0  0  0  0
  4  5  1  0  0  0  0
  5  6  2  0  0  0  0
  6  7  1  0  0  0  0
  7  8  1  0  0  0  0
  7  9  1  0  0  0  0
  6 10  1  0  0  0  0
 10 11  2  0  0  0  0
 11 12  1  0  0  0  0
 12 13  1  0  0  0  0
 13 14  1  0  0  0  0
 13 15  2  0  0  0  0
 15 16  1  0  0  0  0
 15 17  1  0  0  0  0
 17 18  1  0  0  0  0
 17 19  2  0  0  0  0
 19 20  1  0  0  0  0
 19 21  1  0  0  0  0
 21 12  2  0  0  0  0
 21 22  1  0  0  0  0
 11 23  1  0  0  0  0
 23  4  2  0  0  0  0
M  END
> <ChemID>
202043

> <source_casrn>
91-76-9

> <CAS>
91-76-9

> <SMILES>
Nc1nc(N)nc(n1)c2ccccc2

> <NAME>


> <preferred_name>
6-Phenyl-1,3,5-triazine-2,4-diamine

> <iupac>
6-phenyl-1,3,5-triazine-2,4-diamine

> <MPID>
101561

> <dsstox_substance_id>
DTXSID1020142

> <Canonical_QSARr>
Nc1[n]c([n]c(N)[n]1)-c1ccccc1

> <InChI_Code_QSARr>
InChI=1S/C9H9N5/c10-8-12-7(13-9(11)14-8)6-4-2-1-3-5-6/h1-5H,(H4,10,11,12,13,14)

> <InChI Key_QSARr>
GZVHEAJQGPRDLQ-UHFFFAOYSA-N

> <Salt_Solvent>


> <Ready_Biodeg>
0.0

$$$$
202044
  -INDIGO-08031722522D

 10 10  0  0  0  0  0  0  0  0999 V2000
    1.5912    0.1673    0.0000 N   0  0  0  0  0  0  0  0  0  0  0  0
    2.5317   -1.1272    0.0000 H   0  0  0  0  0  0  0  0  0  0  0  0
    2.2421    1.6289    0.0000 H   0  0  0  0  0  0  0  0  0  0  0  0
   -0.0000    0.0000    0.0000 C   0  0  0  0  0  0  0  0  0  0  0  0
   -1.0706    1.1890    0.0000 S   0  0  0  0  0  0  0  0  0  0  0  0
   -2.5322    0.5382    0.0000 C   0  0  0  0  0  0  0  0  0  0  0  0
   -3.9179    1.3383    0.0000 H   0  0  0  0  0  0  0  0  0  0  0  0
   -2.3650   -1.0530    0.0000 C   0  0  0  0  0  0  0  0  0  0  0  0
   -3.5541   -2.1236    0.0000 H   0  0  0  0  0  0  0  0  0  0  0  0
   -0.8000   -1.3856    0.0000 N   0  0  0  0  0  0  0  0  0  0  0  0
  1  2  1  0  0  0  0
  1  3  1  0  0  0  0
  1  4  1  0  0  0  0
  4  5  1  0  0  0  0
  5  6  1  0  0  0  0
  6  7  1  0  0  0  0
  6  8  2  0  0  0  0
  8  9  1  0  0  0  0
  8 10  1  0  0  0  0
 10  4  2  0  0  0  0
M  END
> <ChemID>
202044

> <source_casrn>
96-50-4

> <CAS>
96-50-4

> <SMILES>
Nc1sccn1

> <NAME>


> <preferred_name>
2-Aminothiazole

> <iupac>
1,3-thiazol-2-amine

> <MPID>
101562

> <dsstox_substance_id>
DTXSID5024508

> <Canonical_QSARr>
Nc1[n]cc[s]1

> <InChI_Code_QSARr>
InChI=1S/C3H4N2S/c4-3-5-1-2-6-3/h1-2H,(H2,4,5)

> <InChI Key_QSARr>
RAIPHJJURHTUIC-UHFFFAOYSA-N

> <Salt_Solvent>


> <Ready_Biodeg>
0.0

$$$$
202045
  -INDIGO-08031722522D

 27 29  0  0  0  0  0  0  0  0999 V2000
    1.3856    2.4001    0.0000 N   0  0  0  0  0  0  0  0  0  0  0  0
    2.7713    3.2000    0.0000 H   0  0  0  0  0  0  0  0  0  0  0  0
   -0.0001    3.2000    0.0000 H   0  0  0  0  0  0  0  0  0  0  0  0
    1.3856    0.7999    0.0000 C   0  0  0  0  0  0  0  0  0  0  0  0
    2.7713    0.0000    0.0000 C   0  0  0  0  0  0  0  0  0  0  0  0
    4.1569    0.7999    0.0000 Br  0  0  0  0  0  0  0  0  0  0  0  0
    2.7713   -1.6000    0.0000 C   0  0  0  0  0  0  0  0  0  0  0  0
    4.1569   -2.3999    0.0000 H   0  0  0  0  0  0  0  0  0  0  0  0
    1.3856   -2.3999    0.0000 C   0  0  0  0  0  0  0  0  0  0  0  0
    1.3856   -3.9999    0.0000 O   0  0  0  0  0  0  0  0  0  0  0  0
    2.7713   -4.8000    0.0000 H   0  0  0  0  0  0  0  0  0  0  0  0
   -0.0001   -1.6000    0.0000 C   0  0  0  0  0  0  0  0  0  0  0  0
   -1.3856   -2.4001    0.0000 C   0  0  0  0  0  0  0  0  0  0  0  0
   -1.3856   -4.0001    0.0000 O   0  0  0  0  0  0  0  0  0  0  0  0
   -2.7712   -1.6000    0.0000 C   0  0  0  0  0  0  0  0  0  0  0  0
   -4.1569   -2.3999    0.0000 C   0  0  0  0  0  0  0  0  0  0  0  0
   -4.1569   -3.9999    0.0000 H   0  0  0  0  0  0  0  0  0  0  0  0
   -5.5425   -1.6000    0.0000 C   0  0  0  0  0  0  0  0  0  0  0  0
   -6.9282   -2.3999    0.0000 H   0  0  0  0  0  0  0  0  0  0  0  0
   -5.5425    0.0000    0.0000 C   0  0  0  0  0  0  0  0  0  0  0  0
   -6.9282    0.7999    0.0000 H   0  0  0  0  0  0  0  0  0  0  0  0
   -4.1569    0.7999    0.0000 C   0  0  0  0  0  0  0  0  0  0  0  0
   -4.1569    2.4001    0.0000 H   0  0  0  0  0  0  0  0  0  0  0  0
   -2.7712    0.0000    0.0000 C   0  0  0  0  0  0  0  0  0  0  0  0
   -1.3856    0.8001    0.0000 C   0  0  0  0  0  0  0  0  0  0  0  0
   -1.3856    2.4001    0.0000 O   0  0  0  0  0  0  0  0  0  0  0  0
   -0.0001    0.0000    0.0000 C   0  0  0  0  0  0  0  0  0  0  0  0
  1  2  1  0  0  0  0
  1  3  1  0  0  0  0
  1  4  1  0  0  0  0
  4  5  1  0  0  0  0
  5  6  1  0  0  0  0
  5  7  2  0  0  0  0
  7  8  1  0  0  0  0
  7  9  1  0  0  0  0
  9 10  1  0  0  0  0
 10 11  1  0  0  0  0
  9 12  2  0  0  0  0
 12 13  1  0  0  0  0
 13 14  2  0  0  0  0
 13 15  1  0  0  0  0
 15 16  1  0  0  0  0
 16 17  1  0  0  0  0
 16 18  2  0  0  0  0
 18 19  1  0  0  0  0
 18 20  1  0  0  0  0
 20 21  1  0  0  0  0
 20 22  2  0  0  0  0
 22 23  1  0  0  0  0
 22 24  1  0  0  0  0
 24 15  2  0  0  0  0
 24 25  1  0  0  0  0
 25 26  2  0  0  0  0
 25 27  1  0  0  0  0
 27  4  2  0  0  0  0
 27 12  1  0  0  0  0
M  END
> <ChemID>
202045

> <source_casrn>
116-82-5

> <CAS>
116-82-5

> <SMILES>
Nc1c(Br)cc(O)c2C(=O)c3ccccc3C(=O)c12

> <NAME>


> <preferred_name>
9,10-Anthracenedione, 1-amino-2-bromo-4-hydroxy-

> <iupac>
1-amino-2-bromo-4-hydroxyanthracene-9,10-dione

> <MPID>
101563

> <dsstox_substance_id>
DTXSID2059439

> <Canonical_QSARr>
Nc1c(Br)cc(O)c2c1C(=O)c1ccccc1C2=O

> <InChI_Code_QSARr>
InChI=1S/C14H8BrNO3/c15-8-5-9(17)10-11(12(8)16)14(19)7-4-2-1-3-6(7)13(10)18/h1-5,17H,16H2

> <InChI Key_QSARr>
MSSQDESMUMSQEN-UHFFFAOYSA-N

> <Salt_Solvent>


> <Ready_Biodeg>
0.0

$$$$
202047
  -INDIGO-08031722522D

 18 18  0  0  0  0  0  0  0  0999 V2000
    1.3857    2.4000    0.0000 N   0  0  0  0  0  0  0  0  0  0  0  0
    1.3857    4.0000    0.0000 H   0  0  0  0  0  0  0  0  0  0  0  0
    2.7713    1.6000    0.0000 H   0  0  0  0  0  0  0  0  0  0  0  0
    0.0000    1.6000    0.0000 C   0  0  0  0  0  0  0  0  0  0  0  0
   -1.3857    2.4000    0.0000 C   0  0  0  0  0  0  0  0  0  0  0  0
   -1.3857    4.0000    0.0000 Cl  0  0  0  0  0  0  0  0  0  0  0  0
   -2.7713    1.6000    0.0000 C   0  0  0  0  0  0  0  0  0  0  0  0
   -4.1570    2.4000    0.0000 H   0  0  0  0  0  0  0  0  0  0  0  0
   -2.7713    0.0000    0.0000 C   0  0  0  0  0  0  0  0  0  0  0  0
   -4.1569   -0.8000    0.0000 N   0  0  0  0  0  0  0  0  0  0  0  0
   -5.5426    0.0000    0.0000 O   0  0  0  0  0  0  0  0  0  0  0  0
   -4.1569   -2.4000    0.0000 O   0  0  0  0  0  0  0  0  0  0  0  0
   -1.3856   -0.8000    0.0000 C   0  0  0  0  0  0  0  0  0  0  0  0
   -1.3856   -2.4000    0.0000 H   0  0  0  0  0  0  0  0  0  0  0  0
    0.0000    0.0000    0.0000 C   0  0  0  0  0  0  0  0  0  0  0  0
    1.3857   -0.8000    0.0000 N   0  0  0  0  0  0  0  0  0  0  0  0
    1.3857   -2.4000    0.0000 O   0  0  0  0  0  0  0  0  0  0  0  0
    2.7713    0.0000    0.0000 O   0  0  0  0  0  0  0  0  0  0  0  0
  1  2  1  0  0  0  0
  1  3  1  0  0  0  0
  1  4  1  0  0  0  0
  4  5  1  0  0  0  0
  5  6  1  0  0  0  0
  5  7  2  0  0  0  0
  7  8  1  0  0  0  0
  7  9  1  0  0  0  0
  9 10  1  0  0  0  0
 10 11  1  0  0  0  0
 10 12  2  0  0  0  0
  9 13  2  0  0  0  0
 13 14  1  0  0  0  0
 13 15  1  0  0  0  0
 15  4  2  0  0  0  0
 15 16  1  0  0  0  0
 16 17  1  0  0  0  0
 16 18  2  0  0  0  0
M  CHG  4  10   1  11  -1  16   1  17  -1
M  END
> <ChemID>
202047

> <source_casrn>
3531-19-9

> <CAS>
3531-19-9

> <SMILES>
Nc1c(Cl)cc(cc1[N+]([O-])=O)[N+]([O-])=O

> <NAME>


> <preferred_name>
2-Chloro-4,6-dinitroaniline

> <iupac>
2-Chloro-4,6-dinitroaniline

> <MPID>
101564

> <dsstox_substance_id>
DTXSID6063062

> <Canonical_QSARr>
Nc1c(Cl)cc(cc1[N+]([O-])=O)[N+]([O-])=O

> <InChI_Code_QSARr>
InChI=1S/C6H4ClN3O4/c7-4-1-3(9(11)12)2-5(6(4)8)10(13)14/h1-2H,8H2

> <InChI Key_QSARr>
LHRIICYSGQGXSX-UHFFFAOYSA-N

> <Salt_Solvent>


> <Ready_Biodeg>
0.0

$$$$
202048
  -INDIGO-08031722522D

 34 35  0  0  0  0  0  0  0  0999 V2000
    4.8000    0.0000    0.0000 N   0  0  0  0  0  0  0  0  0  0  0  0
    5.6000    1.3856    0.0000 H   0  0  0  0  0  0  0  0  0  0  0  0
    5.6000   -1.3857    0.0000 H   0  0  0  0  0  0  0  0  0  0  0  0
    3.2000    0.0000    0.0000 C   0  0  0  0  0  0  0  0  0  0  0  0
    2.4000    1.3856    0.0000 C   0  0  0  0  0  0  0  0  0  0  0  0
    3.2000    2.7713    0.0000 Cl  0  0  0  0  0  0  0  0  0  0  0  0
    0.7999    1.3856    0.0000 C   0  0  0  0  0  0  0  0  0  0  0  0
   -0.0001    2.7713    0.0000 H   0  0  0  0  0  0  0  0  0  0  0  0
   -0.0001    0.0000    0.0000 C   0  0  0  0  0  0  0  0  0  0  0  0
   -1.5999    0.0000    0.0000 C   0  0  0  0  0  0  0  0  0  0  0  0
   -2.3999    1.3857    0.0000 C   0  0  0  0  0  0  0  0  0  0  0  0
   -1.5999    2.7713    0.0000 H   0  0  0  0  0  0  0  0  0  0  0  0
   -4.0000    1.3857    0.0000 C   0  0  0  0  0  0  0  0  0  0  0  0
   -4.8000    2.7713    0.0000 Cl  0  0  0  0  0  0  0  0  0  0  0  0
   -4.8000    0.0000    0.0000 C   0  0  0  0  0  0  0  0  0  0  0  0
   -6.4000    0.0000    0.0000 N   0  0  0  0  0  0  0  0  0  0  0  0
   -7.2000    1.3856    0.0000 H   0  0  0  0  0  0  0  0  0  0  0  0
   -7.2000   -1.3856    0.0000 H   0  0  0  0  0  0  0  0  0  0  0  0
   -4.0000   -1.3856    0.0000 C   0  0  0  0  0  0  0  0  0  0  0  0
   -4.8000   -2.7713    0.0000 S   0  0  0  0  0  0  0  0  0  0  0  0
   -5.6000   -4.1569    0.0000 O   0  0  0  0  0  0  0  0  0  0  0  0
   -4.8000   -5.5426    0.0000 H   0  0  0  0  0  0  0  0  0  0  0  0
   -6.1857   -1.9713    0.0000 O   0  0  0  0  0  0  0  0  0  0  0  0
   -3.4144   -3.5713    0.0000 O   0  0  0  0  0  0  0  0  0  0  0  0
   -2.3999   -1.3856    0.0000 C   0  0  0  0  0  0  0  0  0  0  0  0
   -1.5999   -2.7713    0.0000 H   0  0  0  0  0  0  0  0  0  0  0  0
    0.7999   -1.3857    0.0000 C   0  0  0  0  0  0  0  0  0  0  0  0
   -0.0001   -2.7713    0.0000 H   0  0  0  0  0  0  0  0  0  0  0  0
    2.4000   -1.3857    0.0000 C   0  0  0  0  0  0  0  0  0  0  0  0
    3.2000   -2.7713    0.0000 S   0  0  0  0  0  0  0  0  0  0  0  0
    4.0000   -4.1570    0.0000 O   0  0  0  0  0  0  0  0  0  0  0  0
    3.2000   -5.5426    0.0000 H   0  0  0  0  0  0  0  0  0  0  0  0
    4.5857   -1.9713    0.0000 O   0  0  0  0  0  0  0  0  0  0  0  0
    1.8144   -3.5713    0.0000 O   0  0  0  0  0  0  0  0  0  0  0  0
  1  2  1  0  0  0  0
  1  3  1  0  0  0  0
  1  4  1  0  0  0  0
  4  5  1  0  0  0  0
  5  6  1  0  0  0  0
  5  7  2  0  0  0  0
  7  8  1  0  0  0  0
  7  9  1  0  0  0  0
  9 10  1  0  0  0  0
 10 11  1  0  0  0  0
 11 12  1  0  0  0  0
 11 13  2  0  0  0  0
 13 14  1  0  0  0  0
 13 15  1  0  0  0  0
 15 16  1  0  0  0  0
 16 17  1  0  0  0  0
 16 18  1  0  0  0  0
 15 19  2  0  0  0  0
 19 20  1  0  0  0  0
 20 21  1  0  0  0  0
 21 22  1  0  0  0  0
 20 23  2  0  0  0  0
 20 24  2  0  0  0  0
 19 25  1  0  0  0  0
 25 10  2  0  0  0  0
 25 26  1  0  0  0  0
  9 27  2  0  0  0  0
 27 28  1  0  0  0  0
 27 29  1  0  0  0  0
 29  4  2  0  0  0  0
 29 30  1  0  0  0  0
 30 31  1  0  0  0  0
 31 32  1  0  0  0  0
 30 33  2  0  0  0  0
 30 34  2  0  0  0  0
M  END
> <ChemID>
202048

> <source_casrn>


> <CAS>
123251-96-7

> <SMILES>
Nc1c(Cl)cc(cc1[S](O)(=O)=O)c2cc(Cl)c(N)c(c2)[S](O)(=O)=O

> <NAME>


> <preferred_name>


> <iupac>


> <MPID>
101565

> <dsstox_substance_id>


> <Canonical_QSARr>
Nc1c(cc(cc1Cl)-c1cc(Cl)c(N)c(c1)S(O)(=O)=O)S(O)(=O)=O

> <InChI_Code_QSARr>
InChI=1S/C12H10Cl2N2O6S2/c13-7-1-5(3-9(11(7)15)23(17,18)19)6-2-8(14)12(16)10(4-6)24(20,21)22/h1-4H,15-16H2,(H,17,18,19)(H,20,21,22)

> <InChI Key_QSARr>
PEIQLVWMYVLUAU-UHFFFAOYSA-N

> <Salt_Solvent>


> <Ready_Biodeg>
0.0

$$$$
202055
  -INDIGO-08031722522D

 38 39  0  0  0  0  0  0  0  0999 V2000
    2.7712   -3.2001    0.0000 N   0  0  0  0  0  0  0  0  0  0  0  0
    2.7712   -4.8000    0.0000 H   0  0  0  0  0  0  0  0  0  0  0  0
    4.1569   -2.4000    0.0000 H   0  0  0  0  0  0  0  0  0  0  0  0
    1.3857   -2.4000    0.0000 C   0  0  0  0  0  0  0  0  0  0  0  0
    0.0000   -3.2001    0.0000 C   0  0  0  0  0  0  0  0  0  0  0  0
    0.0000   -4.8000    0.0000 H   0  0  0  0  0  0  0  0  0  0  0  0
   -1.3857   -2.4000    0.0000 C   0  0  0  0  0  0  0  0  0  0  0  0
   -2.7714   -3.2001    0.0000 H   0  0  0  0  0  0  0  0  0  0  0  0
   -1.3857   -0.8000    0.0000 C   0  0  0  0  0  0  0  0  0  0  0  0
   -2.7714   -0.0000    0.0000 C   0  0  0  0  0  0  0  0  0  0  0  0
   -2.7714    1.6000    0.0000 H   0  0  0  0  0  0  0  0  0  0  0  0
   -4.1568   -0.8000    0.0000 C   0  0  0  0  0  0  0  0  0  0  0  0
   -4.1568   -2.4000    0.0000 H   0  0  0  0  0  0  0  0  0  0  0  0
   -5.5425   -0.0000    0.0000 C   0  0  0  0  0  0  0  0  0  0  0  0
   -5.5425    1.6000    0.0000 C   0  0  0  0  0  0  0  0  0  0  0  0
   -4.1568    2.4001    0.0000 H   0  0  0  0  0  0  0  0  0  0  0  0
   -6.9282    2.4001    0.0000 C   0  0  0  0  0  0  0  0  0  0  0  0
   -6.9282    4.0000    0.0000 H   0  0  0  0  0  0  0  0  0  0  0  0
   -8.3139    1.6000    0.0000 C   0  0  0  0  0  0  0  0  0  0  0  0
   -9.6994    2.4001    0.0000 N   0  0  0  0  0  0  0  0  0  0  0  0
   -9.6994    4.0000    0.0000 H   0  0  0  0  0  0  0  0  0  0  0  0
  -11.0851    1.6000    0.0000 H   0  0  0  0  0  0  0  0  0  0  0  0
   -8.3139   -0.0000    0.0000 C   0  0  0  0  0  0  0  0  0  0  0  0
   -9.6994   -0.8000    0.0000 H   0  0  0  0  0  0  0  0  0  0  0  0
   -6.9282   -0.8000    0.0000 C   0  0  0  0  0  0  0  0  0  0  0  0
   -6.9282   -2.4000    0.0000 S   0  0  0  0  0  0  0  0  0  0  0  0
   -6.9282   -4.0000    0.0000 O   0  0  0  0  0  0  0  0  0  0  0  0
   -8.3139   -4.8000    0.0000 H   0  0  0  0  0  0  0  0  0  0  0  0
   -8.5282   -2.4000    0.0000 O   0  0  0  0  0  0  0  0  0  0  0  0
   -5.3281   -2.4000    0.0000 O   0  0  0  0  0  0  0  0  0  0  0  0
    0.0000   -0.0000    0.0000 C   0  0  0  0  0  0  0  0  0  0  0  0
    0.0000    1.6000    0.0000 S   0  0  0  0  0  0  0  0  0  0  0  0
    1.6000    1.6000    0.0000 O   0  0  0  0  0  0  0  0  0  0  0  0
    2.4000    2.9857    0.0000 H   0  0  0  0  0  0  0  0  0  0  0  0
    0.0000    3.2000    0.0000 O   0  0  0  0  0  0  0  0  0  0  0  0
   -1.6001    1.6000    0.0000 O   0  0  0  0  0  0  0  0  0  0  0  0
    1.3857   -0.8000    0.0000 C   0  0  0  0  0  0  0  0  0  0  0  0
    2.7712   -0.0000    0.0000 H   0  0  0  0  0  0  0  0  0  0  0  0
  1  2  1  0  0  0  0
  1  3  1  0  0  0  0
  1  4  1  0  0  0  0
  4  5  1  0  0  0  0
  5  6  1  0  0  0  0
  5  7  2  0  0  0  0
  7  8  1  0  0  0  0
  7  9  1  0  0  0  0
  9 10  1  0  0  0  0
 10 11  1  0  0  0  0
 10 12  2  0  0  0  0
 12 13  1  0  0  0  0
 12 14  1  0  0  0  0
 14 15  1  0  0  0  0
 15 16  1  0  0  0  0
 15 17  2  0  0  0  0
 17 18  1  0  0  0  0
 17 19  1  0  0  0  0
 19 20  1  0  0  0  0
 20 21  1  0  0  0  0
 20 22  1  0  0  0  0
 19 23  2  0  0  0  0
 23 24  1  0  0  0  0
 23 25  1  0  0  0  0
 25 14  2  0  0  0  0
 25 26  1  0  0  0  0
 26 27  1  0  0  0  0
 27 28  1  0  0  0  0
 26 29  2  0  0  0  0
 26 30  2  0  0  0  0
  9 31  2  0  0  0  0
 31 32  1  0  0  0  0
 32 33  1  0  0  0  0
 33 34  1  0  0  0  0
 32 35  2  0  0  0  0
 32 36  2  0  0  0  0
 31 37  1  0  0  0  0
 37  4  2  0  0  0  0
 37 38  1  0  0  0  0
M  END
> <ChemID>
202055

> <source_casrn>
81-11-8

> <CAS>
28096-93-7

> <SMILES>
Nc1ccc(\C=C\c2ccc(N)cc2[S](O)(=O)=O)c(c1)[S](O)(=O)=O

> <NAME>


> <preferred_name>
4,4'-Diamino-2,2'-stilbenedisulfonic acid

> <iupac>
C14H14N2O6S2

> <MPID>
101566

> <dsstox_substance_id>
DTXSID60182371

> <Canonical_QSARr>
Nc1cc(c(cc1)C=Cc1ccc(N)cc1S(O)(=O)=O)S(O)(=O)=O

> <InChI_Code_QSARr>
InChI=1S/C14H14N2O6S2/c15-11-5-3-9(13(7-11)23(17,18)19)1-2-10-4-6-12(16)8-14(10)24(20,21)22/h1-8H,15-16H2,(H,17,18,19)(H,20,21,22)/b2-1+

> <InChI Key_QSARr>
REJHVSOVQBJEBF-OWOJBTEDSA-N

> <Salt_Solvent>


> <Ready_Biodeg>
0.0

$$$$
202056
  -INDIGO-08031722522D

 29 30  0  0  0  0  0  0  0  0999 V2000
    4.8000   -2.7713    0.0000 N   0  0  0  0  0  0  0  0  0  0  0  0
    6.4000   -2.7713    0.0000 H   0  0  0  0  0  0  0  0  0  0  0  0
    4.0000   -4.1569    0.0000 H   0  0  0  0  0  0  0  0  0  0  0  0
    4.0000   -1.3856    0.0000 C   0  0  0  0  0  0  0  0  0  0  0  0
    4.8000    0.0000    0.0000 C   0  0  0  0  0  0  0  0  0  0  0  0
    6.4000    0.0000    0.0000 H   0  0  0  0  0  0  0  0  0  0  0  0
    4.0000    1.3856    0.0000 C   0  0  0  0  0  0  0  0  0  0  0  0
    4.8000    2.7713    0.0000 H   0  0  0  0  0  0  0  0  0  0  0  0
    2.3999    1.3856    0.0000 C   0  0  0  0  0  0  0  0  0  0  0  0
    1.5999    2.7713    0.0000 H   0  0  0  0  0  0  0  0  0  0  0  0
    1.5999    0.0000    0.0000 C   0  0  0  0  0  0  0  0  0  0  0  0
   -0.0001    0.0000    0.0000 S   0  0  0  0  0  0  0  0  0  0  0  0
    0.0001    1.6000    0.0000 O   0  0  0  0  0  0  0  0  0  0  0  0
   -0.0001   -1.6000    0.0000 O   0  0  0  0  0  0  0  0  0  0  0  0
   -1.5999    0.0000    0.0000 C   0  0  0  0  0  0  0  0  0  0  0  0
   -2.3999    1.3856    0.0000 C   0  0  0  0  0  0  0  0  0  0  0  0
   -1.5999    2.7713    0.0000 H   0  0  0  0  0  0  0  0  0  0  0  0
   -4.0000    1.3856    0.0000 C   0  0  0  0  0  0  0  0  0  0  0  0
   -4.8000    2.7713    0.0000 H   0  0  0  0  0  0  0  0  0  0  0  0
   -4.8000    0.0000    0.0000 C   0  0  0  0  0  0  0  0  0  0  0  0
   -6.4000    0.0000    0.0000 H   0  0  0  0  0  0  0  0  0  0  0  0
   -4.0000   -1.3856    0.0000 C   0  0  0  0  0  0  0  0  0  0  0  0
   -4.8000   -2.7713    0.0000 N   0  0  0  0  0  0  0  0  0  0  0  0
   -6.4000   -2.7713    0.0000 H   0  0  0  0  0  0  0  0  0  0  0  0
   -4.0000   -4.1569    0.0000 H   0  0  0  0  0  0  0  0  0  0  0  0
   -2.3999   -1.3856    0.0000 C   0  0  0  0  0  0  0  0  0  0  0  0
   -1.5999   -2.7713    0.0000 H   0  0  0  0  0  0  0  0  0  0  0  0
    2.3999   -1.3856    0.0000 C   0  0  0  0  0  0  0  0  0  0  0  0
    1.5999   -2.7713    0.0000 H   0  0  0  0  0  0  0  0  0  0  0  0
  1  2  1  0  0  0  0
  1  3  1  0  0  0  0
  1  4  1  0  0  0  0
  4  5  1  0  0  0  0
  5  6  1  0  0  0  0
  5  7  2  0  0  0  0
  7  8  1  0  0  0  0
  7  9  1  0  0  0  0
  9 10  1  0  0  0  0
  9 11  2  0  0  0  0
 11 12  1  0  0  0  0
 12 13  2  0  0  0  0
 12 14  2  0  0  0  0
 12 15  1  0  0  0  0
 15 16  1  0  0  0  0
 16 17  1  0  0  0  0
 16 18  2  0  0  0  0
 18 19  1  0  0  0  0
 18 20  1  0  0  0  0
 20 21  1  0  0  0  0
 20 22  2  0  0  0  0
 22 23  1  0  0  0  0
 23 24  1  0  0  0  0
 23 25  1  0  0  0  0
 22 26  1  0  0  0  0
 26 15  2  0  0  0  0
 26 27  1  0  0  0  0
 11 28  1  0  0  0  0
 28  4  2  0  0  0  0
 28 29  1  0  0  0  0
M  END
> <ChemID>
202056

> <source_casrn>
599-61-1

> <CAS>
599-61-1

> <SMILES>
Nc1cccc(c1)[S](=O)(=O)c2cccc(N)c2

> <NAME>


> <preferred_name>
3,3'-Sulphonyldianiline

> <iupac>
3,3'-sulfonyldianiline

> <MPID>
101567

> <dsstox_substance_id>
DTXSID3044962

> <Canonical_QSARr>
Nc1cc(ccc1)S(=O)(=O)c1cc(N)ccc1

> <InChI_Code_QSARr>
InChI=1S/C12H12N2O2S/c13-9-3-1-5-11(7-9)17(15,16)12-6-2-4-10(14)8-12/h1-8H,13-14H2

> <InChI Key_QSARr>
LJGHYPLBDBRCRZ-UHFFFAOYSA-N

> <Salt_Solvent>


> <Ready_Biodeg>
0.0

$$$$
202063
  -INDIGO-08031722522D

 29 30  0  0  0  0  0  0  0  0999 V2000
    6.3027   -1.1113    0.0000 N   0  0  0  0  0  0  0  0  0  0  0  0
    7.3312    0.1143    0.0000 H   0  0  0  0  0  0  0  0  0  0  0  0
    6.8499   -2.6148    0.0000 H   0  0  0  0  0  0  0  0  0  0  0  0
    4.7272   -0.8335    0.0000 C   0  0  0  0  0  0  0  0  0  0  0  0
    4.1799    0.6700    0.0000 C   0  0  0  0  0  0  0  0  0  0  0  0
    5.2083    1.8957    0.0000 H   0  0  0  0  0  0  0  0  0  0  0  0
    2.6042    0.9479    0.0000 C   0  0  0  0  0  0  0  0  0  0  0  0
    2.0570    2.4513    0.0000 H   0  0  0  0  0  0  0  0  0  0  0  0
    1.5757   -0.2778    0.0000 C   0  0  0  0  0  0  0  0  0  0  0  0
   -0.0001    0.0000    0.0000 C   0  0  0  0  0  0  0  0  0  0  0  0
   -0.8598    1.3494    0.0000 H   0  0  0  0  0  0  0  0  0  0  0  0
    0.3463    1.5621    0.0000 H   0  0  0  0  0  0  0  0  0  0  0  0
   -1.3857   -0.8000    0.0000 C   0  0  0  0  0  0  0  0  0  0  0  0
   -1.3857   -2.4000    0.0000 C   0  0  0  0  0  0  0  0  0  0  0  0
   -0.0001   -3.2000    0.0000 H   0  0  0  0  0  0  0  0  0  0  0  0
   -2.7712   -3.2000    0.0000 C   0  0  0  0  0  0  0  0  0  0  0  0
   -2.7712   -4.8000    0.0000 H   0  0  0  0  0  0  0  0  0  0  0  0
   -4.1568   -2.4000    0.0000 C   0  0  0  0  0  0  0  0  0  0  0  0
   -5.5426   -3.2000    0.0000 N   0  0  0  0  0  0  0  0  0  0  0  0
   -5.5426   -4.8000    0.0000 H   0  0  0  0  0  0  0  0  0  0  0  0
   -6.9282   -2.4000    0.0000 H   0  0  0  0  0  0  0  0  0  0  0  0
   -4.1568   -0.8000    0.0000 C   0  0  0  0  0  0  0  0  0  0  0  0
   -5.5426    0.0000    0.0000 Cl  0  0  0  0  0  0  0  0  0  0  0  0
   -2.7712    0.0000    0.0000 C   0  0  0  0  0  0  0  0  0  0  0  0
   -2.7712    1.6000    0.0000 Cl  0  0  0  0  0  0  0  0  0  0  0  0
    2.1229   -1.7813    0.0000 C   0  0  0  0  0  0  0  0  0  0  0  0
    1.0944   -3.0071    0.0000 Cl  0  0  0  0  0  0  0  0  0  0  0  0
    3.6986   -2.0591    0.0000 C   0  0  0  0  0  0  0  0  0  0  0  0
    4.2459   -3.5627    0.0000 Cl  0  0  0  0  0  0  0  0  0  0  0  0
  1  2  1  0  0  0  0
  1  3  1  0  0  0  0
  1  4  1  0  0  0  0
  4  5  1  0  0  0  0
  5  6  1  0  0  0  0
  5  7  2  0  0  0  0
  7  8  1  0  0  0  0
  7  9  1  0  0  0  0
  9 10  1  0  0  0  0
 10 11  1  0  0  0  0
 10 12  1  0  0  0  0
 10 13  1  0  0  0  0
 13 14  1  0  0  0  0
 14 15  1  0  0  0  0
 14 16  2  0  0  0  0
 16 17  1  0  0  0  0
 16 18  1  0  0  0  0
 18 19  1  0  0  0  0
 19 20  1  0  0  0  0
 19 21  1  0  0  0  0
 18 22  2  0  0  0  0
 22 23  1  0  0  0  0
 22 24  1  0  0  0  0
 24 13  2  0  0  0  0
 24 25  1  0  0  0  0
  9 26  2  0  0  0  0
 26 27  1  0  0  0  0
 26 28  1  0  0  0  0
 28  4  2  0  0  0  0
 28 29  1  0  0  0  0
M  END
> <ChemID>
202063

> <source_casrn>
42240-73-3

> <CAS>
42240-73-3

> <SMILES>
Nc1ccc(Cc2ccc(N)c(Cl)c2Cl)c(Cl)c1Cl

> <NAME>


> <preferred_name>
Benzenamine, 4,4'-methylenebis(2,3-dichloro-

> <iupac>
4-[(4-amino-2,3-dichlorophenyl)methyl]-2,3-dichloroaniline

> <MPID>
101568

> <dsstox_substance_id>
DTXSID10195077

> <Canonical_QSARr>
Nc1ccc(Cc2ccc(N)c(Cl)c2Cl)c(Cl)c1Cl

> <InChI_Code_QSARr>
InChI=1S/C13H10Cl4N2/c14-10-6(1-3-8(18)12(10)16)5-7-2-4-9(19)13(17)11(7)15/h1-4H,5,18-19H2

> <InChI Key_QSARr>
PPUHQXZSLCCTAN-UHFFFAOYSA-N

> <Salt_Solvent>


> <Ready_Biodeg>
0.0

$$$$
202072
  -INDIGO-08031722522D

 19 19  0  0  0  0  0  0  0  0999 V2000
    4.8000   -0.0000    0.0000 N   0  0  0  0  0  0  0  0  0  0  0  0
    5.6000    1.3856    0.0000 H   0  0  0  0  0  0  0  0  0  0  0  0
    5.6000   -1.3856    0.0000 H   0  0  0  0  0  0  0  0  0  0  0  0
    3.2000   -0.0000    0.0000 C   0  0  0  0  0  0  0  0  0  0  0  0
    2.4000    1.3856    0.0000 C   0  0  0  0  0  0  0  0  0  0  0  0
    3.2000    2.7713    0.0000 H   0  0  0  0  0  0  0  0  0  0  0  0
    0.8001    1.3856    0.0000 C   0  0  0  0  0  0  0  0  0  0  0  0
   -0.0000    2.7713    0.0000 H   0  0  0  0  0  0  0  0  0  0  0  0
   -0.0000   -0.0000    0.0000 C   0  0  0  0  0  0  0  0  0  0  0  0
   -1.6000   -0.0000    0.0000 S   0  0  0  0  0  0  0  0  0  0  0  0
   -3.2000   -0.0000    0.0000 N   0  0  0  0  0  0  0  0  0  0  0  0
   -4.0000   -1.3856    0.0000 H   0  0  0  0  0  0  0  0  0  0  0  0
   -4.0000    1.3856    0.0000 H   0  0  0  0  0  0  0  0  0  0  0  0
   -1.6000    1.6000    0.0000 O   0  0  0  0  0  0  0  0  0  0  0  0
   -1.6000   -1.6000    0.0000 O   0  0  0  0  0  0  0  0  0  0  0  0
    0.8001   -1.3856    0.0000 C   0  0  0  0  0  0  0  0  0  0  0  0
   -0.0000   -2.7713    0.0000 H   0  0  0  0  0  0  0  0  0  0  0  0
    2.4000   -1.3856    0.0000 C   0  0  0  0  0  0  0  0  0  0  0  0
    3.2000   -2.7713    0.0000 H   0  0  0  0  0  0  0  0  0  0  0  0
  1  2  1  0  0  0  0
  1  3  1  0  0  0  0
  1  4  1  0  0  0  0
  4  5  1  0  0  0  0
  5  6  1  0  0  0  0
  5  7  2  0  0  0  0
  7  8  1  0  0  0  0
  7  9  1  0  0  0  0
  9 10  1  0  0  0  0
 10 11  1  0  0  0  0
 11 12  1  0  0  0  0
 11 13  1  0  0  0  0
 10 14  2  0  0  0  0
 10 15  2  0  0  0  0
  9 16  2  0  0  0  0
 16 17  1  0  0  0  0
 16 18  1  0  0  0  0
 18  4  2  0  0  0  0
 18 19  1  0  0  0  0
M  END
> <ChemID>
202072

> <source_casrn>
63-74-1

> <CAS>
63-74-1

> <SMILES>
Nc1ccc(cc1)[S](N)(=O)=O

> <NAME>


> <preferred_name>
Sulfanilamide

> <iupac>
4-aminobenzenesulfonamide

> <MPID>
101569

> <dsstox_substance_id>
DTXSID4023622

> <Canonical_QSARr>
Nc1ccc(cc1)S(N)(=O)=O

> <InChI_Code_QSARr>
InChI=1S/C6H8N2O2S/c7-5-1-3-6(4-2-5)11(8,9)10/h1-4H,7H2,(H2,8,9,10)

> <InChI Key_QSARr>
FDDDEECHVMSUSB-UHFFFAOYSA-N

> <Salt_Solvent>


> <Ready_Biodeg>
0.0

$$$$
202076
  -INDIGO-08031722522D

 16 16  0  0  0  0  0  0  0  0999 V2000
    1.6001   -0.0000    0.0000 N   0  0  0  0  0  0  0  0  0  0  0  0
    2.4000    1.3856    0.0000 H   0  0  0  0  0  0  0  0  0  0  0  0
    2.4000   -1.3856    0.0000 H   0  0  0  0  0  0  0  0  0  0  0  0
    0.0001   -0.0000    0.0000 C   0  0  0  0  0  0  0  0  0  0  0  0
   -0.8000    1.3856    0.0000 C   0  0  0  0  0  0  0  0  0  0  0  0
    0.0001    2.7713    0.0000 H   0  0  0  0  0  0  0  0  0  0  0  0
   -2.4000    1.3856    0.0000 C   0  0  0  0  0  0  0  0  0  0  0  0
   -3.1999    2.7713    0.0000 H   0  0  0  0  0  0  0  0  0  0  0  0
   -3.2001   -0.0000    0.0000 C   0  0  0  0  0  0  0  0  0  0  0  0
   -4.7999   -0.0000    0.0000 N   0  0  0  0  0  0  0  0  0  0  0  0
   -5.6000    1.3856    0.0000 O   0  0  0  0  0  0  0  0  0  0  0  0
   -5.6000   -1.3856    0.0000 O   0  0  0  0  0  0  0  0  0  0  0  0
   -2.4000   -1.3856    0.0000 C   0  0  0  0  0  0  0  0  0  0  0  0
   -3.2001   -2.7713    0.0000 H   0  0  0  0  0  0  0  0  0  0  0  0
   -0.8000   -1.3856    0.0000 C   0  0  0  0  0  0  0  0  0  0  0  0
    0.0001   -2.7713    0.0000 Cl  0  0  0  0  0  0  0  0  0  0  0  0
  1  2  1  0  0  0  0
  1  3  1  0  0  0  0
  1  4  1  0  0  0  0
  4  5  1  0  0  0  0
  5  6  1  0  0  0  0
  5  7  2  0  0  0  0
  7  8  1  0  0  0  0
  7  9  1  0  0  0  0
  9 10  1  0  0  0  0
 10 11  1  0  0  0  0
 10 12  2  0  0  0  0
  9 13  2  0  0  0  0
 13 14  1  0  0  0  0
 13 15  1  0  0  0  0
 15  4  2  0  0  0  0
 15 16  1  0  0  0  0
M  CHG  2  10   1  11  -1
M  END
> <ChemID>
202076

> <source_casrn>
121-87-9

> <CAS>
121-87-9

> <SMILES>
Nc1ccc(cc1Cl)[N+]([O-])=O

> <NAME>


> <preferred_name>
2-Chloro-4-nitroaniline

> <iupac>
2-chloro-4-nitroaniline

> <MPID>
101571

> <dsstox_substance_id>
DTXSID4021973

> <Canonical_QSARr>
Nc1ccc(cc1Cl)[N+]([O-])=O

> <InChI_Code_QSARr>
InChI=1S/C6H5ClN2O2/c7-5-3-4(9(10)11)1-2-6(5)8/h1-3H,8H2

> <InChI Key_QSARr>
LOCWBQIWHWIRGN-UHFFFAOYSA-N

> <Salt_Solvent>


> <Ready_Biodeg>
0.0

$$$$
202077
  -INDIGO-08031722522D

 18 18  0  0  0  0  0  0  0  0999 V2000
    1.3857    2.4000    0.0000 N   0  0  0  0  0  0  0  0  0  0  0  0
    1.3857    4.0000    0.0000 H   0  0  0  0  0  0  0  0  0  0  0  0
    2.7713    1.6000    0.0000 H   0  0  0  0  0  0  0  0  0  0  0  0
    0.0000    1.6000    0.0000 C   0  0  0  0  0  0  0  0  0  0  0  0
   -1.3857    2.4000    0.0000 C   0  0  0  0  0  0  0  0  0  0  0  0
   -1.3857    4.0000    0.0000 H   0  0  0  0  0  0  0  0  0  0  0  0
   -2.7713    1.6000    0.0000 C   0  0  0  0  0  0  0  0  0  0  0  0
   -4.1570    2.4000    0.0000 H   0  0  0  0  0  0  0  0  0  0  0  0
   -2.7713    0.0000    0.0000 C   0  0  0  0  0  0  0  0  0  0  0  0
   -4.1569   -0.8000    0.0000 N   0  0  0  0  0  0  0  0  0  0  0  0
   -5.5426    0.0000    0.0000 O   0  0  0  0  0  0  0  0  0  0  0  0
   -4.1569   -2.4000    0.0000 O   0  0  0  0  0  0  0  0  0  0  0  0
   -1.3856   -0.8000    0.0000 C   0  0  0  0  0  0  0  0  0  0  0  0
   -1.3856   -2.4000    0.0000 H   0  0  0  0  0  0  0  0  0  0  0  0
    0.0000    0.0000    0.0000 C   0  0  0  0  0  0  0  0  0  0  0  0
    1.3857   -0.8000    0.0000 N   0  0  0  0  0  0  0  0  0  0  0  0
    1.3857   -2.4000    0.0000 O   0  0  0  0  0  0  0  0  0  0  0  0
    2.7713    0.0000    0.0000 O   0  0  0  0  0  0  0  0  0  0  0  0
  1  2  1  0  0  0  0
  1  3  1  0  0  0  0
  1  4  1  0  0  0  0
  4  5  1  0  0  0  0
  5  6  1  0  0  0  0
  5  7  2  0  0  0  0
  7  8  1  0  0  0  0
  7  9  1  0  0  0  0
  9 10  1  0  0  0  0
 10 11  1  0  0  0  0
 10 12  2  0  0  0  0
  9 13  2  0  0  0  0
 13 14  1  0  0  0  0
 13 15  1  0  0  0  0
 15  4  2  0  0  0  0
 15 16  1  0  0  0  0
 16 17  1  0  0  0  0
 16 18  2  0  0  0  0
M  CHG  4  10   1  11  -1  16   1  17  -1
M  END
> <ChemID>
202077

> <source_casrn>
97-02-9

> <CAS>
97-02-9

> <SMILES>
Nc1ccc(cc1[N+]([O-])=O)[N+]([O-])=O

> <NAME>


> <preferred_name>
2,4-Dinitroaniline

> <iupac>
2,4-dinitroaniline

> <MPID>
101572

> <dsstox_substance_id>
DTXSID1021823

> <Canonical_QSARr>
Nc1ccc(cc1[N+]([O-])=O)[N+]([O-])=O

> <InChI_Code_QSARr>
InChI=1S/C6H5N3O4/c7-5-2-1-4(8(10)11)3-6(5)9(12)13/h1-3H,7H2

> <InChI Key_QSARr>
LXQOQPGNCGEELI-UHFFFAOYSA-N

> <Salt_Solvent>


> <Ready_Biodeg>
0.0

$$$$
202091
  -INDIGO-08031722522D

 45 48  0  0  0  0  0  0  0  0999 V2000
   -2.1229    1.7813    0.0000 O   0  0  0  0  0  0  0  0  0  0  0  0
   -1.5756    0.2779    0.0000 C   0  0  0  0  0  0  0  0  0  0  0  0
   -2.6041   -0.9478    0.0000 N   0  0  0  0  0  0  0  0  0  0  0  0
   -2.0568   -2.4514    0.0000 H   0  0  0  0  0  0  0  0  0  0  0  0
   -4.1799   -0.6700    0.0000 C   0  0  0  0  0  0  0  0  0  0  0  0
   -4.7272    0.8335    0.0000 C   0  0  0  0  0  0  0  0  0  0  0  0
   -3.6987    2.0592    0.0000 H   0  0  0  0  0  0  0  0  0  0  0  0
   -6.3026    1.1113    0.0000 C   0  0  0  0  0  0  0  0  0  0  0  0
   -6.8499    2.6149    0.0000 H   0  0  0  0  0  0  0  0  0  0  0  0
   -7.3311   -0.1144    0.0000 C   0  0  0  0  0  0  0  0  0  0  0  0
   -8.9069    0.1635    0.0000 C   0  0  0  0  0  0  0  0  0  0  0  0
   -9.7667    1.5129    0.0000 H   0  0  0  0  0  0  0  0  0  0  0  0
   -8.5605    1.7255    0.0000 H   0  0  0  0  0  0  0  0  0  0  0  0
  -10.2925   -0.6364    0.0000 C   0  0  0  0  0  0  0  0  0  0  0  0
  -11.6781    0.1635    0.0000 C   0  0  0  0  0  0  0  0  0  0  0  0
  -11.6781    1.7636    0.0000 H   0  0  0  0  0  0  0  0  0  0  0  0
  -13.0638   -0.6364    0.0000 C   0  0  0  0  0  0  0  0  0  0  0  0
  -14.4494    0.1635    0.0000 H   0  0  0  0  0  0  0  0  0  0  0  0
  -13.0638   -2.2365    0.0000 C   0  0  0  0  0  0  0  0  0  0  0  0
  -14.4494   -3.0364    0.0000 N   0  0  0  0  0  0  0  0  0  0  0  0
  -14.4494   -4.6365    0.0000 H   0  0  0  0  0  0  0  0  0  0  0  0
  -15.8350   -2.2365    0.0000 C   0  0  0  0  0  0  0  0  0  0  0  0
  -15.8350   -0.6364    0.0000 O   0  0  0  0  0  0  0  0  0  0  0  0
  -17.2206   -3.0364    0.0000 N   0  0  0  0  0  0  0  0  0  0  0  0
  -18.8207   -3.0364    0.0000 C   0  0  0  0  0  0  0  0  0  0  0  0
  -19.0985   -1.4608    0.0000 H   0  0  0  0  0  0  0  0  0  0  0  0
  -20.3243   -3.5837    0.0000 H   0  0  0  0  0  0  0  0  0  0  0  0
  -18.0206   -4.4221    0.0000 C   0  0  0  0  0  0  0  0  0  0  0  0
  -19.2465   -5.4506    0.0000 H   0  0  0  0  0  0  0  0  0  0  0  0
  -16.7952   -5.4506    0.0000 H   0  0  0  0  0  0  0  0  0  0  0  0
  -11.6781   -3.0364    0.0000 C   0  0  0  0  0  0  0  0  0  0  0  0
  -11.6781   -4.6365    0.0000 H   0  0  0  0  0  0  0  0  0  0  0  0
  -10.2925   -2.2365    0.0000 C   0  0  0  0  0  0  0  0  0  0  0  0
   -8.9069   -3.0364    0.0000 H   0  0  0  0  0  0  0  0  0  0  0  0
   -6.7842   -1.6178    0.0000 C   0  0  0  0  0  0  0  0  0  0  0  0
   -7.8123   -2.8435    0.0000 H   0  0  0  0  0  0  0  0  0  0  0  0
   -5.2084   -1.8957    0.0000 C   0  0  0  0  0  0  0  0  0  0  0  0
   -4.6611   -3.3991    0.0000 H   0  0  0  0  0  0  0  0  0  0  0  0
   -0.0002   -0.0000    0.0000 N   0  0  0  0  0  0  0  0  0  0  0  0
    1.2256   -1.0284    0.0000 C   0  0  0  0  0  0  0  0  0  0  0  0
    0.4256   -2.4141    0.0000 H   0  0  0  0  0  0  0  0  0  0  0  0
    2.7292   -1.5757    0.0000 H   0  0  0  0  0  0  0  0  0  0  0  0
    1.5034    0.5473    0.0000 C   0  0  0  0  0  0  0  0  0  0  0  0
    3.1035    0.5473    0.0000 H   0  0  0  0  0  0  0  0  0  0  0  0
    1.2256    2.1229    0.0000 H   0  0  0  0  0  0  0  0  0  0  0  0
  1  2  2  0  0  0  0
  2  3  1  0  0  0  0
  3  4  1  0  0  0  0
  3  5  1  0  0  0  0
  5  6  1  0  0  0  0
  6  7  1  0  0  0  0
  6  8  2  0  0  0  0
  8  9  1  0  0  0  0
  8 10  1  0  0  0  0
 10 11  1  0  0  0  0
 11 12  1  0  0  0  0
 11 13  1  0  0  0  0
 11 14  1  0  0  0  0
 14 15  1  0  0  0  0
 15 16  1  0  0  0  0
 15 17  2  0  0  0  0
 17 18  1  0  0  0  0
 17 19  1  0  0  0  0
 19 20  1  0  0  0  0
 20 21  1  0  0  0  0
 20 22  1  0  0  0  0
 22 23  2  0  0  0  0
 22 24  1  0  0  0  0
 24 25  1  0  0  0  0
 25 26  1  0  0  0  0
 25 27  1  0  0  0  0
 25 28  1  0  0  0  0
 28 24  1  0  0  0  0
 28 29  1  0  0  0  0
 28 30  1  0  0  0  0
 19 31  2  0  0  0  0
 31 32  1  0  0  0  0
 31 33  1  0  0  0  0
 33 14  2  0  0  0  0
 33 34  1  0  0  0  0
 10 35  2  0  0  0  0
 35 36  1  0  0  0  0
 35 37  1  0  0  0  0
 37  5  2  0  0  0  0
 37 38  1  0  0  0  0
  2 39  1  0  0  0  0
 39 40  1  0  0  0  0
 40 41  1  0  0  0  0
 40 42  1  0  0  0  0
 40 43  1  0  0  0  0
 43 39  1  0  0  0  0
 43 44  1  0  0  0  0
 43 45  1  0  0  0  0
M  END
> <ChemID>
202091

> <source_casrn>
7417-99-4

> <CAS>
7417-99-4

> <SMILES>
O=C(Nc1ccc(Cc2ccc(NC(=O)N3CC3)cc2)cc1)N4CC4

> <NAME>


> <preferred_name>
1-Aziridinecarboxamide, N,N'-(methylenedi-4,1-phenylene)bis-

> <iupac>
N-[4-[[4-(aziridine-1-carbonylamino)phenyl]methyl]phenyl]aziridine-1-carboxamide

> <MPID>
101575

> <dsstox_substance_id>
DTXSID1064665

> <Canonical_QSARr>
O=C(Nc1ccc(Cc2ccc(cc2)NC(=O)N2CC2)cc1)N1CC1

> <InChI_Code_QSARr>
InChI=1S/C19H20N4O2/c24-18(22-9-10-22)20-16-5-1-14(2-6-16)13-15-3-7-17(8-4-15)21-19(25)23-11-12-23/h1-8H,9-13H2,(H,20,24)(H,21,25)

> <InChI Key_QSARr>
XECQDYXJWMHGBI-UHFFFAOYSA-N

> <Salt_Solvent>


> <Ready_Biodeg>
0.0

$$$$
202093
  -INDIGO-08031722522D

 28 29  0  0  0  0  0  0  0  0999 V2000
   -4.1569    2.4000    0.0000 O   0  0  0  0  0  0  0  0  0  0  0  0
   -4.1569    0.8000    0.0000 C   0  0  0  0  0  0  0  0  0  0  0  0
   -2.7712   -0.0000    0.0000 O   0  0  0  0  0  0  0  0  0  0  0  0
   -1.3856    0.8000    0.0000 C   0  0  0  0  0  0  0  0  0  0  0  0
   -0.7733    2.2782    0.0000 H   0  0  0  0  0  0  0  0  0  0  0  0
   -1.9980    2.2782    0.0000 H   0  0  0  0  0  0  0  0  0  0  0  0
    0.0001   -0.0000    0.0000 C   0  0  0  0  0  0  0  0  0  0  0  0
    1.3856    0.8000    0.0000 C   0  0  0  0  0  0  0  0  0  0  0  0
    1.3856    2.4000    0.0000 H   0  0  0  0  0  0  0  0  0  0  0  0
    2.7714   -0.0000    0.0000 C   0  0  0  0  0  0  0  0  0  0  0  0
    4.1569    0.8000    0.0000 H   0  0  0  0  0  0  0  0  0  0  0  0
    2.7714   -1.6000    0.0000 C   0  0  0  0  0  0  0  0  0  0  0  0
    4.1569   -2.4000    0.0000 H   0  0  0  0  0  0  0  0  0  0  0  0
    1.3856   -2.4000    0.0000 C   0  0  0  0  0  0  0  0  0  0  0  0
    1.3856   -4.0000    0.0000 H   0  0  0  0  0  0  0  0  0  0  0  0
    0.0001   -1.6000    0.0000 C   0  0  0  0  0  0  0  0  0  0  0  0
   -1.3856   -2.4000    0.0000 H   0  0  0  0  0  0  0  0  0  0  0  0
   -5.5425   -0.0000    0.0000 C   0  0  0  0  0  0  0  0  0  0  0  0
   -5.5427   -1.6000    0.0000 C   0  0  0  0  0  0  0  0  0  0  0  0
   -4.1569   -2.4000    0.0000 H   0  0  0  0  0  0  0  0  0  0  0  0
   -6.9282   -2.4000    0.0000 C   0  0  0  0  0  0  0  0  0  0  0  0
   -6.9282   -4.0000    0.0000 H   0  0  0  0  0  0  0  0  0  0  0  0
   -8.3140   -1.6000    0.0000 C   0  0  0  0  0  0  0  0  0  0  0  0
   -9.6995   -2.4000    0.0000 H   0  0  0  0  0  0  0  0  0  0  0  0
   -8.3137   -0.0000    0.0000 C   0  0  0  0  0  0  0  0  0  0  0  0
   -9.6995    0.8000    0.0000 H   0  0  0  0  0  0  0  0  0  0  0  0
   -6.9282    0.8000    0.0000 C   0  0  0  0  0  0  0  0  0  0  0  0
   -6.9282    2.4000    0.0000 H   0  0  0  0  0  0  0  0  0  0  0  0
  1  2  2  0  0  0  0
  2  3  1  0  0  0  0
  3  4  1  0  0  0  0
  4  5  1  0  0  0  0
  4  6  1  0  0  0  0
  4  7  1  0  0  0  0
  7  8  1  0  0  0  0
  8  9  1  0  0  0  0
  8 10  2  0  0  0  0
 10 11  1  0  0  0  0
 10 12  1  0  0  0  0
 12 13  1  0  0  0  0
 12 14  2  0  0  0  0
 14 15  1  0  0  0  0
 14 16  1  0  0  0  0
 16  7  2  0  0  0  0
 16 17  1  0  0  0  0
  2 18  1  0  0  0  0
 18 19  1  0  0  0  0
 19 20  1  0  0  0  0
 19 21  2  0  0  0  0
 21 22  1  0  0  0  0
 21 23  1  0  0  0  0
 23 24  1  0  0  0  0
 23 25  2  0  0  0  0
 25 26  1  0  0  0  0
 25 27  1  0  0  0  0
 27 18  2  0  0  0  0
 27 28  1  0  0  0  0
M  END
> <ChemID>
202093

> <source_casrn>
120-51-4

> <CAS>
120-51-4

> <SMILES>
O=C(OCc1ccccc1)c2ccccc2

> <NAME>


> <preferred_name>
Benzyl benzoate

> <iupac>
benzyl benzoate

> <MPID>
101576

> <dsstox_substance_id>
DTXSID8029153

> <Canonical_QSARr>
O=C(OCc1ccccc1)c1ccccc1

> <InChI_Code_QSARr>
InChI=1S/C14H12O2/c15-14(13-9-5-2-6-10-13)16-11-12-7-3-1-4-8-12/h1-10H,11H2

> <InChI Key_QSARr>
SESFRYSPDFLNCH-UHFFFAOYSA-N

> <Salt_Solvent>


> <Ready_Biodeg>
1.0

$$$$
202097
  -INDIGO-08031722522D

 30 33  0  0  0  0  0  0  0  0999 V2000
   -0.4461   -2.8161    0.0000 O   0  0  0  0  0  0  0  0  0  0  0  0
   -0.9406   -1.2944    0.0000 C   0  0  0  0  0  0  0  0  0  0  0  0
   -0.0000   -0.0000    0.0000 C   0  0  0  0  0  0  0  0  0  0  0  0
    1.6000   -0.0000    0.0000 C   0  0  0  0  0  0  0  0  0  0  0  0
    2.5406   -1.2944    0.0000 C   0  0  0  0  0  0  0  0  0  0  0  0
    2.0461   -2.8161    0.0000 O   0  0  0  0  0  0  0  0  0  0  0  0
    4.0621   -0.8000    0.0000 C   0  0  0  0  0  0  0  0  0  0  0  0
    5.4477   -1.6000    0.0000 C   0  0  0  0  0  0  0  0  0  0  0  0
    5.4477   -3.2000    0.0000 H   0  0  0  0  0  0  0  0  0  0  0  0
    6.8334   -0.8000    0.0000 C   0  0  0  0  0  0  0  0  0  0  0  0
    8.2191   -1.6000    0.0000 H   0  0  0  0  0  0  0  0  0  0  0  0
    6.8334    0.8000    0.0000 C   0  0  0  0  0  0  0  0  0  0  0  0
    8.2191    1.6000    0.0000 H   0  0  0  0  0  0  0  0  0  0  0  0
    5.4477    1.6000    0.0000 C   0  0  0  0  0  0  0  0  0  0  0  0
    5.4477    3.2000    0.0000 H   0  0  0  0  0  0  0  0  0  0  0  0
    4.0621    0.8000    0.0000 C   0  0  0  0  0  0  0  0  0  0  0  0
    2.5406    1.2944    0.0000 N   0  0  0  0  0  0  0  0  0  0  0  0
    2.0461    2.8161    0.0000 H   0  0  0  0  0  0  0  0  0  0  0  0
   -0.9406    1.2944    0.0000 N   0  0  0  0  0  0  0  0  0  0  0  0
   -0.4461    2.8161    0.0000 H   0  0  0  0  0  0  0  0  0  0  0  0
   -2.4621    0.8000    0.0000 C   0  0  0  0  0  0  0  0  0  0  0  0
   -3.8477    1.6000    0.0000 C   0  0  0  0  0  0  0  0  0  0  0  0
   -3.8477    3.2000    0.0000 H   0  0  0  0  0  0  0  0  0  0  0  0
   -5.2334    0.8000    0.0000 C   0  0  0  0  0  0  0  0  0  0  0  0
   -6.6191    1.6000    0.0000 H   0  0  0  0  0  0  0  0  0  0  0  0
   -5.2334   -0.8000    0.0000 C   0  0  0  0  0  0  0  0  0  0  0  0
   -6.6191   -1.6000    0.0000 H   0  0  0  0  0  0  0  0  0  0  0  0
   -3.8477   -1.6000    0.0000 C   0  0  0  0  0  0  0  0  0  0  0  0
   -3.8477   -3.2000    0.0000 H   0  0  0  0  0  0  0  0  0  0  0  0
   -2.4621   -0.8000    0.0000 C   0  0  0  0  0  0  0  0  0  0  0  0
  1  2  2  0  0  0  0
  2  3  1  0  0  0  0
  3  4  2  0  0  0  0
  4  5  1  0  0  0  0
  5  6  2  0  0  0  0
  5  7  1  0  0  0  0
  7  8  1  0  0  0  0
  8  9  1  0  0  0  0
  8 10  2  0  0  0  0
 10 11  1  0  0  0  0
 10 12  1  0  0  0  0
 12 13  1  0  0  0  0
 12 14  2  0  0  0  0
 14 15  1  0  0  0  0
 14 16  1  0  0  0  0
 16  7  2  0  0  0  0
 16 17  1  0  0  0  0
 17  4  1  0  0  0  0
 17 18  1  0  0  0  0
  3 19  1  0  0  0  0
 19 20  1  0  0  0  0
 19 21  1  0  0  0  0
 21 22  1  0  0  0  0
 22 23  1  0  0  0  0
 22 24  2  0  0  0  0
 24 25  1  0  0  0  0
 24 26  1  0  0  0  0
 26 27  1  0  0  0  0
 26 28  2  0  0  0  0
 28 29  1  0  0  0  0
 28 30  1  0  0  0  0
 30  2  1  0  0  0  0
 30 21  2  0  0  0  0
M  END
> <ChemID>
202097

> <source_casrn>
482-89-3

> <CAS>
482-89-3

> <SMILES>
O=C1\C(Nc2ccccc12)=C\3Nc4ccccc4C3=O

> <NAME>


> <preferred_name>
Indigo

> <iupac>
(2E)-2-(3-oxo-1,3-dihydro-2H-indol-2-ylidene)-1,2-dihydro-3H-indol-3-one

> <MPID>
100764

> <dsstox_substance_id>
DTXSID3026279

> <Canonical_QSARr>
O=C1C(Nc2ccccc12)=C1Nc2ccccc2C1=O

> <InChI_Code_QSARr>
InChI=1S/C16H10N2O2/c19-15-9-5-1-3-7-11(9)17-13(15)14-16(20)10-6-2-4-8-12(10)18-14/h1-8,17-18H/b14-13-

> <InChI Key_QSARr>
COHYTHOBJLSHDF-YPKPFQOOSA-N

> <Salt_Solvent>


> <Ready_Biodeg>
0.0

$$$$
202099
  -INDIGO-08031722522D

 41 44  0  0  0  0  0  0  0  0999 V2000
    6.2531   -3.9621    0.0000 O   0  0  0  0  0  0  0  0  0  0  0  0
    7.0043   -2.5494    0.0000 C   0  0  0  0  0  0  0  0  0  0  0  0
    8.5886   -2.3267    0.0000 C   0  0  0  0  0  0  0  0  0  0  0  0
    9.6999   -3.4777    0.0000 H   0  0  0  0  0  0  0  0  0  0  0  0
    8.8665   -0.7510    0.0000 C   0  0  0  0  0  0  0  0  0  0  0  0
   10.3045   -0.0496    0.0000 H   0  0  0  0  0  0  0  0  0  0  0  0
    7.4537    0.0001    0.0000 C   0  0  0  0  0  0  0  0  0  0  0  0
    7.2310    1.5845    0.0000 O   0  0  0  0  0  0  0  0  0  0  0  0
    6.3028   -1.1113    0.0000 N   0  0  0  0  0  0  0  0  0  0  0  0
    4.7270   -0.8336    0.0000 C   0  0  0  0  0  0  0  0  0  0  0  0
    4.1797    0.6700    0.0000 C   0  0  0  0  0  0  0  0  0  0  0  0
    5.2082    1.8956    0.0000 H   0  0  0  0  0  0  0  0  0  0  0  0
    2.6042    0.9479    0.0000 C   0  0  0  0  0  0  0  0  0  0  0  0
    2.0569    2.4513    0.0000 H   0  0  0  0  0  0  0  0  0  0  0  0
    1.5758   -0.2779    0.0000 C   0  0  0  0  0  0  0  0  0  0  0  0
    0.0000    0.0000    0.0000 C   0  0  0  0  0  0  0  0  0  0  0  0
   -0.8596    1.3494    0.0000 H   0  0  0  0  0  0  0  0  0  0  0  0
    0.3462    1.5621    0.0000 H   0  0  0  0  0  0  0  0  0  0  0  0
   -1.3856   -0.8001    0.0000 C   0  0  0  0  0  0  0  0  0  0  0  0
   -1.3856   -2.4001    0.0000 C   0  0  0  0  0  0  0  0  0  0  0  0
    0.0000   -3.2000    0.0000 H   0  0  0  0  0  0  0  0  0  0  0  0
   -2.7712   -3.2000    0.0000 C   0  0  0  0  0  0  0  0  0  0  0  0
   -2.7712   -4.8000    0.0000 H   0  0  0  0  0  0  0  0  0  0  0  0
   -4.1568   -2.4001    0.0000 C   0  0  0  0  0  0  0  0  0  0  0  0
   -5.5425   -3.2000    0.0000 N   0  0  0  0  0  0  0  0  0  0  0  0
   -5.7098   -4.7913    0.0000 C   0  0  0  0  0  0  0  0  0  0  0  0
   -4.5207   -5.8619    0.0000 O   0  0  0  0  0  0  0  0  0  0  0  0
   -7.2749   -5.1239    0.0000 C   0  0  0  0  0  0  0  0  0  0  0  0
   -7.9258   -6.5856    0.0000 H   0  0  0  0  0  0  0  0  0  0  0  0
   -8.0748   -3.7382    0.0000 C   0  0  0  0  0  0  0  0  0  0  0  0
   -9.6661   -3.5711    0.0000 H   0  0  0  0  0  0  0  0  0  0  0  0
   -7.0043   -2.5493    0.0000 C   0  0  0  0  0  0  0  0  0  0  0  0
   -7.3370   -0.9842    0.0000 O   0  0  0  0  0  0  0  0  0  0  0  0
   -4.1568   -0.8001    0.0000 C   0  0  0  0  0  0  0  0  0  0  0  0
   -5.5425    0.0000    0.0000 H   0  0  0  0  0  0  0  0  0  0  0  0
   -2.7712    0.0000    0.0000 C   0  0  0  0  0  0  0  0  0  0  0  0
   -2.7712    1.6000    0.0000 H   0  0  0  0  0  0  0  0  0  0  0  0
    2.1231   -1.7813    0.0000 C   0  0  0  0  0  0  0  0  0  0  0  0
    1.0946   -3.0071    0.0000 H   0  0  0  0  0  0  0  0  0  0  0  0
    3.6985   -2.0592    0.0000 C   0  0  0  0  0  0  0  0  0  0  0  0
    4.2458   -3.5626    0.0000 H   0  0  0  0  0  0  0  0  0  0  0  0
  1  2  2  0  0  0  0
  2  3  1  0  0  0  0
  3  4  1  0  0  0  0
  3  5  2  0  0  0  0
  5  6  1  0  0  0  0
  5  7  1  0  0  0  0
  7  8  2  0  0  0  0
  7  9  1  0  0  0  0
  9  2  1  0  0  0  0
  9 10  1  0  0  0  0
 10 11  1  0  0  0  0
 11 12  1  0  0  0  0
 11 13  2  0  0  0  0
 13 14  1  0  0  0  0
 13 15  1  0  0  0  0
 15 16  1  0  0  0  0
 16 17  1  0  0  0  0
 16 18  1  0  0  0  0
 16 19  1  0  0  0  0
 19 20  1  0  0  0  0
 20 21  1  0  0  0  0
 20 22  2  0  0  0  0
 22 23  1  0  0  0  0
 22 24  1  0  0  0  0
 24 25  1  0  0  0  0
 25 26  1  0  0  0  0
 26 27  2  0  0  0  0
 26 28  1  0  0  0  0
 28 29  1  0  0  0  0
 28 30  2  0  0  0  0
 30 31  1  0  0  0  0
 30 32  1  0  0  0  0
 32 25  1  0  0  0  0
 32 33  2  0  0  0  0
 24 34  2  0  0  0  0
 34 35  1  0  0  0  0
 34 36  1  0  0  0  0
 36 19  2  0  0  0  0
 36 37  1  0  0  0  0
 15 38  2  0  0  0  0
 38 39  1  0  0  0  0
 38 40  1  0  0  0  0
 40 10  2  0  0  0  0
 40 41  1  0  0  0  0
M  END
> <ChemID>
202099

> <source_casrn>
13676-54-5

> <CAS>
13676-54-5

> <SMILES>
O=C1C=CC(=O)N1c2ccc(Cc3ccc(cc3)N4C(=O)C=CC4=O)cc2

> <NAME>


> <preferred_name>
Bismaleimide

> <iupac>
1,1'-(methanediyldibenzene-4,1-diyl)bis(1H-pyrrole-2,5-dione)

> <MPID>
101578

> <dsstox_substance_id>
DTXSID8044381

> <Canonical_QSARr>
O=C1C=CC(=O)N1c1ccc(Cc2ccc(cc2)N2C(=O)C=CC2=O)cc1

> <InChI_Code_QSARr>
InChI=1S/C21H14N2O4/c24-18-9-10-19(25)22(18)16-5-1-14(2-6-16)13-15-3-7-17(8-4-15)23-20(26)11-12-21(23)27/h1-12H,13H2

> <InChI Key_QSARr>
XQUPVDVFXZDTLT-UHFFFAOYSA-N

> <Salt_Solvent>


> <Ready_Biodeg>
0.0

$$$$
202112
  -INDIGO-08031722522D

 36 39  0  0  0  0  0  0  0  0999 V2000
    4.8000   -0.0001    0.0000 O   0  0  0  0  0  0  0  0  0  0  0  0
    3.9999   -1.3856    0.0000 C   0  0  0  0  0  0  0  0  0  0  0  0
    4.8000   -2.7713    0.0000 N   0  0  0  0  0  0  0  0  0  0  0  0
    6.4001   -2.7713    0.0000 C   0  0  0  0  0  0  0  0  0  0  0  0
    6.6089   -4.3576    0.0000 H   0  0  0  0  0  0  0  0  0  0  0  0
    7.6693   -3.7453    0.0000 H   0  0  0  0  0  0  0  0  0  0  0  0
    7.1999   -1.3856    0.0000 C   0  0  0  0  0  0  0  0  0  0  0  0
    5.9743   -0.3572    0.0000 H   0  0  0  0  0  0  0  0  0  0  0  0
    8.4257   -0.3572    0.0000 C   0  0  0  0  0  0  0  0  0  0  0  0
    7.6256    1.0284    0.0000 H   0  0  0  0  0  0  0  0  0  0  0  0
    9.9292    0.1901    0.0000 H   0  0  0  0  0  0  0  0  0  0  0  0
    8.7034   -1.9329    0.0000 O   0  0  0  0  0  0  0  0  0  0  0  0
    3.9999   -4.1569    0.0000 C   0  0  0  0  0  0  0  0  0  0  0  0
    4.8000   -5.5426    0.0000 O   0  0  0  0  0  0  0  0  0  0  0  0
    2.4000   -4.1569    0.0000 N   0  0  0  0  0  0  0  0  0  0  0  0
    1.6000   -5.5426    0.0000 C   0  0  0  0  0  0  0  0  0  0  0  0
    1.8088   -7.1288    0.0000 H   0  0  0  0  0  0  0  0  0  0  0  0
    2.8694   -6.5166    0.0000 H   0  0  0  0  0  0  0  0  0  0  0  0
    0.0001   -5.5426    0.0000 C   0  0  0  0  0  0  0  0  0  0  0  0
    0.0001   -3.9425    0.0000 H   0  0  0  0  0  0  0  0  0  0  0  0
   -0.5473   -7.0461    0.0000 C   0  0  0  0  0  0  0  0  0  0  0  0
    0.8384   -7.8460    0.0000 H   0  0  0  0  0  0  0  0  0  0  0  0
   -1.5757   -8.2717    0.0000 H   0  0  0  0  0  0  0  0  0  0  0  0
   -1.5757   -5.8204    0.0000 O   0  0  0  0  0  0  0  0  0  0  0  0
    1.6000   -2.7713    0.0000 C   0  0  0  0  0  0  0  0  0  0  0  0
    0.0001   -2.7713    0.0000 O   0  0  0  0  0  0  0  0  0  0  0  0
    2.4000   -1.3856    0.0000 N   0  0  0  0  0  0  0  0  0  0  0  0
    1.6000   -0.0001    0.0000 C   0  0  0  0  0  0  0  0  0  0  0  0
    2.8694    0.9741    0.0000 H   0  0  0  0  0  0  0  0  0  0  0  0
    1.8088    1.5863    0.0000 H   0  0  0  0  0  0  0  0  0  0  0  0
    0.0001   -0.0001    0.0000 C   0  0  0  0  0  0  0  0  0  0  0  0
   -0.2779   -1.5758    0.0000 H   0  0  0  0  0  0  0  0  0  0  0  0
   -1.5034    0.5472    0.0000 C   0  0  0  0  0  0  0  0  0  0  0  0
   -2.3035   -0.8384    0.0000 H   0  0  0  0  0  0  0  0  0  0  0  0
   -2.7292    1.5756    0.0000 H   0  0  0  0  0  0  0  0  0  0  0  0
   -0.2779    1.5756    0.0000 O   0  0  0  0  0  0  0  0  0  0  0  0
  1  2  2  0  0  0  0
  2  3  1  0  0  0  0
  3  4  1  0  0  0  0
  4  5  1  0  0  0  0
  4  6  1  0  0  0  0
  4  7  1  0  0  0  0
  7  8  1  0  0  0  0
  7  9  1  0  0  0  0
  9 10  1  0  0  0  0
  9 11  1  0  0  0  0
  9 12  1  0  0  0  0
 12  7  1  0  0  0  0
  3 13  1  0  0  0  0
 13 14  2  0  0  0  0
 13 15  1  0  0  0  0
 15 16  1  0  0  0  0
 16 17  1  0  0  0  0
 16 18  1  0  0  0  0
 16 19  1  0  0  0  0
 19 20  1  0  0  0  0
 19 21  1  0  0  0  0
 21 22  1  0  0  0  0
 21 23  1  0  0  0  0
 21 24  1  0  0  0  0
 24 19  1  0  0  0  0
 15 25  1  0  0  0  0
 25 26  2  0  0  0  0
 25 27  1  0  0  0  0
 27  2  1  0  0  0  0
 27 28  1  0  0  0  0
 28 29  1  0  0  0  0
 28 30  1  0  0  0  0
 28 31  1  0  0  0  0
 31 32  1  0  0  0  0
 31 33  1  0  0  0  0
 33 34  1  0  0  0  0
 33 35  1  0  0  0  0
 33 36  1  0  0  0  0
 36 31  1  0  0  0  0
M  END
> <ChemID>
202112

> <source_casrn>
2451-62-9

> <CAS>
2451-62-9

> <SMILES>
O=C1N(CC2CO2)C(=O)N(CC3CO3)C(=O)N1CC4CO4

> <NAME>


> <preferred_name>
Triglycidyl isocyanurate

> <iupac>
1,3,5-tris(oxiran-2-ylmethyl)-1,3,5-triazinane-2,4,6-trione

> <MPID>
101580

> <dsstox_substance_id>
DTXSID4026262

> <Canonical_QSARr>
O=C1N(CC2CO2)C(=O)N(CC2CO2)C(=O)N1CC1CO1

> <InChI_Code_QSARr>
InChI=1S/C12H15N3O6/c16-10-13(1-7-4-19-7)11(17)15(3-9-6-21-9)12(18)14(10)2-8-5-20-8/h7-9H,1-6H2

> <InChI Key_QSARr>
OUPZKGBUJRBPGC-UHFFFAOYSA-N

> <Salt_Solvent>


> <Ready_Biodeg>
0.0

$$$$
202113
  -INDIGO-08031722522D

 31 33  0  0  0  0  0  0  0  0999 V2000
   -0.9214    4.0363    0.0000 O   0  0  0  0  0  0  0  0  0  0  0  0
   -0.2705    2.5747    0.0000 C   0  0  0  0  0  0  0  0  0  0  0  0
    1.2945    2.2420    0.0000 N   0  0  0  0  0  0  0  0  0  0  0  0
    2.4834    3.3127    0.0000 H   0  0  0  0  0  0  0  0  0  0  0  0
    1.4617    0.6507    0.0000 C   0  0  0  0  0  0  0  0  0  0  0  0
    2.8473   -0.1492    0.0000 O   0  0  0  0  0  0  0  0  0  0  0  0
   -0.0001    0.0000    0.0000 C   0  0  0  0  0  0  0  0  0  0  0  0
    0.8000   -1.3856    0.0000 C   0  0  0  0  0  0  0  0  0  0  0  0
    2.4000   -1.3856    0.0000 C   0  0  0  0  0  0  0  0  0  0  0  0
    3.6257   -0.3572    0.0000 H   0  0  0  0  0  0  0  0  0  0  0  0
    3.1999   -2.7713    0.0000 C   0  0  0  0  0  0  0  0  0  0  0  0
    4.8000   -2.7713    0.0000 H   0  0  0  0  0  0  0  0  0  0  0  0
    2.4000   -4.1569    0.0000 C   0  0  0  0  0  0  0  0  0  0  0  0
    3.1999   -5.5426    0.0000 H   0  0  0  0  0  0  0  0  0  0  0  0
    0.8000   -4.1569    0.0000 C   0  0  0  0  0  0  0  0  0  0  0  0
   -0.0001   -5.5426    0.0000 H   0  0  0  0  0  0  0  0  0  0  0  0
   -0.0001   -2.7713    0.0000 C   0  0  0  0  0  0  0  0  0  0  0  0
   -1.6000   -2.7713    0.0000 H   0  0  0  0  0  0  0  0  0  0  0  0
   -1.2945   -0.9404    0.0000 C   0  0  0  0  0  0  0  0  0  0  0  0
   -2.8469   -0.5534    0.0000 C   0  0  0  0  0  0  0  0  0  0  0  0
   -3.5483    0.8847    0.0000 H   0  0  0  0  0  0  0  0  0  0  0  0
   -3.9584   -1.7043    0.0000 C   0  0  0  0  0  0  0  0  0  0  0  0
   -5.5108   -1.3172    0.0000 H   0  0  0  0  0  0  0  0  0  0  0  0
   -3.5173   -3.2424    0.0000 C   0  0  0  0  0  0  0  0  0  0  0  0
   -4.6288   -4.3933    0.0000 H   0  0  0  0  0  0  0  0  0  0  0  0
   -1.9649   -3.6294    0.0000 C   0  0  0  0  0  0  0  0  0  0  0  0
   -1.5238   -5.1675    0.0000 H   0  0  0  0  0  0  0  0  0  0  0  0
   -0.8535   -2.4785    0.0000 C   0  0  0  0  0  0  0  0  0  0  0  0
    0.7427   -2.5900    0.0000 H   0  0  0  0  0  0  0  0  0  0  0  0
   -1.0706    1.1891    0.0000 N   0  0  0  0  0  0  0  0  0  0  0  0
   -2.6618    1.0218    0.0000 H   0  0  0  0  0  0  0  0  0  0  0  0
  1  2  2  0  0  0  0
  2  3  1  0  0  0  0
  3  4  1  0  0  0  0
  3  5  1  0  0  0  0
  5  6  2  0  0  0  0
  5  7  1  0  0  0  0
  7  8  1  0  0  0  0
  8  9  1  0  0  0  0
  9 10  1  0  0  0  0
  9 11  2  0  0  0  0
 11 12  1  0  0  0  0
 11 13  1  0  0  0  0
 13 14  1  0  0  0  0
 13 15  2  0  0  0  0
 15 16  1  0  0  0  0
 15 17  1  0  0  0  0
 17  8  2  0  0  0  0
 17 18  1  0  0  0  0
  7 19  1  0  0  0  0
 19 20  1  0  0  0  0
 20 21  1  0  0  0  0
 20 22  2  0  0  0  0
 22 23  1  0  0  0  0
 22 24  1  0  0  0  0
 24 25  1  0  0  0  0
 24 26  2  0  0  0  0
 26 27  1  0  0  0  0
 26 28  1  0  0  0  0
 28 19  2  0  0  0  0
 28 29  1  0  0  0  0
  7 30  1  0  0  0  0
 30  2  1  0  0  0  0
 30 31  1  0  0  0  0
M  END
> <ChemID>
202113

> <source_casrn>
57-41-0

> <CAS>
57-41-0

> <SMILES>
O=C1NC(=O)C(N1)(c2ccccc2)c3ccccc3

> <NAME>


> <preferred_name>
5,5-Diphenylhydantoin

> <iupac>
5,5-diphenylimidazolidine-2,4-dione

> <MPID>
101581

> <dsstox_substance_id>
DTXSID8020541

> <Canonical_QSARr>
O=C1NC(=O)C(N1)(c1ccccc1)c1ccccc1

> <InChI_Code_QSARr>
InChI=1S/C15H12N2O2/c18-13-15(17-14(19)16-13,11-7-3-1-4-8-11)12-9-5-2-6-10-12/h1-10H,(H2,16,17,18,19)

> <InChI Key_QSARr>
CXOFVDLJLONNDW-UHFFFAOYSA-N

> <Salt_Solvent>


> <Ready_Biodeg>
0.0

$$$$
202117
  -INDIGO-08031722522D

 16 17  0  0  0  0  0  0  0  0999 V2000
    2.0161    2.0161    0.0000 O   0  0  0  0  0  0  0  0  0  0  0  0
    1.5217    0.4944    0.0000 C   0  0  0  0  0  0  0  0  0  0  0  0
    2.4621   -0.8000    0.0000 N   0  0  0  0  0  0  0  0  0  0  0  0
    4.0621   -0.8000    0.0000 H   0  0  0  0  0  0  0  0  0  0  0  0
    1.5217   -2.0944    0.0000 C   0  0  0  0  0  0  0  0  0  0  0  0
    2.0161   -3.6161    0.0000 O   0  0  0  0  0  0  0  0  0  0  0  0
   -0.0000   -1.6000    0.0000 C   0  0  0  0  0  0  0  0  0  0  0  0
   -1.3856   -2.4000    0.0000 C   0  0  0  0  0  0  0  0  0  0  0  0
   -1.3856   -4.0000    0.0000 H   0  0  0  0  0  0  0  0  0  0  0  0
   -2.7713   -1.6000    0.0000 C   0  0  0  0  0  0  0  0  0  0  0  0
   -4.1569   -2.4000    0.0000 H   0  0  0  0  0  0  0  0  0  0  0  0
   -2.7713   -0.0000    0.0000 C   0  0  0  0  0  0  0  0  0  0  0  0
   -4.1569    0.8000    0.0000 H   0  0  0  0  0  0  0  0  0  0  0  0
   -1.3856    0.8000    0.0000 C   0  0  0  0  0  0  0  0  0  0  0  0
   -1.3856    2.4000    0.0000 H   0  0  0  0  0  0  0  0  0  0  0  0
   -0.0000   -0.0000    0.0000 C   0  0  0  0  0  0  0  0  0  0  0  0
  1  2  2  0  0  0  0
  2  3  1  0  0  0  0
  3  4  1  0  0  0  0
  3  5  1  0  0  0  0
  5  6  2  0  0  0  0
  5  7  1  0  0  0  0
  7  8  1  0  0  0  0
  8  9  1  0  0  0  0
  8 10  2  0  0  0  0
 10 11  1  0  0  0  0
 10 12  1  0  0  0  0
 12 13  1  0  0  0  0
 12 14  2  0  0  0  0
 14 15  1  0  0  0  0
 14 16  1  0  0  0  0
 16  2  1  0  0  0  0
 16  7  2  0  0  0  0
M  END
> <ChemID>
202117

> <source_casrn>
85-41-6

> <CAS>
85-41-6

> <SMILES>
O=C1NC(=O)c2ccccc12

> <NAME>


> <preferred_name>
Phthalimide

> <iupac>
1H-isoindole-1,3(2H)-dione

> <MPID>
101582

> <dsstox_substance_id>
DTXSID3026514

> <Canonical_QSARr>
O=C1NC(=O)c2ccccc12

> <InChI_Code_QSARr>
InChI=1S/C8H5NO2/c10-7-5-3-1-2-4-6(5)8(11)9-7/h1-4H,(H,9,10,11)

> <InChI Key_QSARr>
XKJCHHZQLQNZHY-UHFFFAOYSA-N

> <Salt_Solvent>


> <Ready_Biodeg>
1.0

$$$$
202119
  -INDIGO-08031722522D

 15 16  0  0  0  0  0  0  0  0999 V2000
    2.7540    0.7380    0.0000 O   0  0  0  0  0  0  0  0  0  0  0  0
    1.5650   -0.3327    0.0000 C   0  0  0  0  0  0  0  0  0  0  0  0
    1.7322   -1.9239    0.0000 N   0  0  0  0  0  0  0  0  0  0  0  0
    3.1179   -2.7239    0.0000 H   0  0  0  0  0  0  0  0  0  0  0  0
    0.2706   -2.5746    0.0000 S   0  0  0  0  0  0  0  0  0  0  0  0
   -0.8000   -1.3856    0.0000 C   0  0  0  0  0  0  0  0  0  0  0  0
   -2.4000   -1.3856    0.0000 C   0  0  0  0  0  0  0  0  0  0  0  0
   -3.2000   -2.7713    0.0000 H   0  0  0  0  0  0  0  0  0  0  0  0
   -3.2000   -0.0000    0.0000 C   0  0  0  0  0  0  0  0  0  0  0  0
   -4.8000   -0.0000    0.0000 H   0  0  0  0  0  0  0  0  0  0  0  0
   -2.4000    1.3856    0.0000 C   0  0  0  0  0  0  0  0  0  0  0  0
   -3.2000    2.7713    0.0000 H   0  0  0  0  0  0  0  0  0  0  0  0
   -0.8000    1.3856    0.0000 C   0  0  0  0  0  0  0  0  0  0  0  0
    0.0000    2.7713    0.0000 H   0  0  0  0  0  0  0  0  0  0  0  0
    0.0000   -0.0000    0.0000 C   0  0  0  0  0  0  0  0  0  0  0  0
  1  2  2  0  0  0  0
  2  3  1  0  0  0  0
  3  4  1  0  0  0  0
  3  5  1  0  0  0  0
  5  6  1  0  0  0  0
  6  7  1  0  0  0  0
  7  8  1  0  0  0  0
  7  9  2  0  0  0  0
  9 10  1  0  0  0  0
  9 11  1  0  0  0  0
 11 12  1  0  0  0  0
 11 13  2  0  0  0  0
 13 14  1  0  0  0  0
 13 15  1  0  0  0  0
 15  2  1  0  0  0  0
 15  6  2  0  0  0  0
M  END
> <ChemID>
202119

> <source_casrn>
2634-33-5

> <CAS>
2634-33-5

> <SMILES>
O=C1NSc2ccccc12

> <NAME>


> <preferred_name>
1,2-Benzisothiazolin-3-one

> <iupac>
1,2-benzothiazol-3(2H)-one

> <MPID>
101584

> <dsstox_substance_id>
DTXSID5032523

> <Canonical_QSARr>
O=C1NSc2ccccc21

> <InChI_Code_QSARr>
InChI=1S/C7H5NOS/c9-7-5-3-1-2-4-6(5)10-8-7/h1-4H,(H,8,9)

> <InChI Key_QSARr>
DMSMPAJRVJJAGA-UHFFFAOYSA-N

> <Salt_Solvent>


> <Ready_Biodeg>
0.0

$$$$
202121
  -INDIGO-08031722522D

 15 16  0  0  0  0  0  0  0  0999 V2000
   -0.8000    4.1569    0.0000 Cl  0  0  0  0  0  0  0  0  0  0  0  0
    0.0000    2.7713    0.0000 C   0  0  0  0  0  0  0  0  0  0  0  0
    1.6000    2.7713    0.0000 C   0  0  0  0  0  0  0  0  0  0  0  0
    2.4000    4.1569    0.0000 Cl  0  0  0  0  0  0  0  0  0  0  0  0
    2.4000    1.3857    0.0000 C   0  0  0  0  0  0  0  0  0  0  0  0
    4.0000    1.3857    0.0000 Cl  0  0  0  0  0  0  0  0  0  0  0  0
    1.6000    0.0000    0.0000 C   0  0  0  0  0  0  0  0  0  0  0  0
    2.0944   -1.5217    0.0000 C   0  0  0  0  0  0  0  0  0  0  0  0
    3.6161   -2.0161    0.0000 O   0  0  0  0  0  0  0  0  0  0  0  0
    0.8000   -2.4621    0.0000 O   0  0  0  0  0  0  0  0  0  0  0  0
   -0.4944   -1.5217    0.0000 C   0  0  0  0  0  0  0  0  0  0  0  0
   -2.0161   -2.0161    0.0000 O   0  0  0  0  0  0  0  0  0  0  0  0
    0.0000    0.0000    0.0000 C   0  0  0  0  0  0  0  0  0  0  0  0
   -0.8000    1.3857    0.0000 C   0  0  0  0  0  0  0  0  0  0  0  0
   -2.4000    1.3857    0.0000 Cl  0  0  0  0  0  0  0  0  0  0  0  0
  1  2  1  0  0  0  0
  2  3  1  0  0  0  0
  3  4  1  0  0  0  0
  3  5  2  0  0  0  0
  5  6  1  0  0  0  0
  5  7  1  0  0  0  0
  7  8  1  0  0  0  0
  8  9  2  0  0  0  0
  8 10  1  0  0  0  0
 10 11  1  0  0  0  0
 11 12  2  0  0  0  0
 11 13  1  0  0  0  0
 13  7  2  0  0  0  0
 13 14  1  0  0  0  0
 14  2  2  0  0  0  0
 14 15  1  0  0  0  0
M  END
> <ChemID>
202121

> <source_casrn>
117-08-8

> <CAS>
117-08-8

> <SMILES>
Clc1c(Cl)c(Cl)c2C(=O)OC(=O)c2c1Cl

> <NAME>


> <preferred_name>
Tetrachlorophthalic anhydride

> <iupac>
4,5,6,7-tetrachloro-2-benzofuran-1,3-dione

> <MPID>
101585

> <dsstox_substance_id>
DTXSID7026102

> <Canonical_QSARr>
O=C1OC(=O)c2c1c(Cl)c(Cl)c(Cl)c2Cl

> <InChI_Code_QSARr>
InChI=1S/C8Cl4O3/c9-3-1-2(8(14)15-7(1)13)4(10)6(12)5(3)11

> <InChI Key_QSARr>
AUHHYELHRWCWEZ-UHFFFAOYSA-N

> <Salt_Solvent>


> <Ready_Biodeg>
0.0

$$$$
202125
  -INDIGO-08031722522D

 16 17  0  0  0  0  0  0  0  0999 V2000
    2.0161    3.6161    0.0000 O   0  0  0  0  0  0  0  0  0  0  0  0
    1.5216    2.0944    0.0000 C   0  0  0  0  0  0  0  0  0  0  0  0
    2.4621    0.8000    0.0000 O   0  0  0  0  0  0  0  0  0  0  0  0
    1.5216   -0.4944    0.0000 C   0  0  0  0  0  0  0  0  0  0  0  0
    0.8709   -1.9561    0.0000 H   0  0  0  0  0  0  0  0  0  0  0  0
    2.9073   -1.2944    0.0000 H   0  0  0  0  0  0  0  0  0  0  0  0
    0.0000    0.0000    0.0000 C   0  0  0  0  0  0  0  0  0  0  0  0
   -1.3857   -0.8000    0.0000 C   0  0  0  0  0  0  0  0  0  0  0  0
   -1.3857   -2.4000    0.0000 H   0  0  0  0  0  0  0  0  0  0  0  0
   -2.7712    0.0000    0.0000 C   0  0  0  0  0  0  0  0  0  0  0  0
   -4.1569   -0.8000    0.0000 H   0  0  0  0  0  0  0  0  0  0  0  0
   -2.7712    1.6000    0.0000 C   0  0  0  0  0  0  0  0  0  0  0  0
   -4.1569    2.4000    0.0000 H   0  0  0  0  0  0  0  0  0  0  0  0
   -1.3857    2.4000    0.0000 C   0  0  0  0  0  0  0  0  0  0  0  0
   -1.3857    4.0000    0.0000 H   0  0  0  0  0  0  0  0  0  0  0  0
    0.0000    1.6000    0.0000 C   0  0  0  0  0  0  0  0  0  0  0  0
  1  2  2  0  0  0  0
  2  3  1  0  0  0  0
  3  4  1  0  0  0  0
  4  5  1  0  0  0  0
  4  6  1  0  0  0  0
  4  7  1  0  0  0  0
  7  8  1  0  0  0  0
  8  9  1  0  0  0  0
  8 10  2  0  0  0  0
 10 11  1  0  0  0  0
 10 12  1  0  0  0  0
 12 13  1  0  0  0  0
 12 14  2  0  0  0  0
 14 15  1  0  0  0  0
 14 16  1  0  0  0  0
 16  2  1  0  0  0  0
 16  7  2  0  0  0  0
M  END
> <ChemID>
202125

> <source_casrn>
87-41-2

> <CAS>
87-41-2

> <SMILES>
O=C1OCc2ccccc12

> <NAME>


> <preferred_name>
Phthalide

> <iupac>
2-benzofuran-1(3H)-one

> <MPID>
101587

> <dsstox_substance_id>
DTXSID0052594

> <Canonical_QSARr>
O=C1OCc2ccccc21

> <InChI_Code_QSARr>
InChI=1S/C8H6O2/c9-8-7-4-2-1-3-6(7)5-10-8/h1-4H,5H2

> <InChI Key_QSARr>
WNZQDUSMALZDQF-UHFFFAOYSA-N

> <Salt_Solvent>


> <Ready_Biodeg>
1.0

$$$$
202136
  -INDIGO-08031722522D

 14 14  0  0  0  0  0  0  0  0999 V2000
    0.0000    2.7713    0.0000 Cl  0  0  0  0  0  0  0  0  0  0  0  0
    0.8000    1.3856    0.0000 C   0  0  0  0  0  0  0  0  0  0  0  0
    2.4000    1.3856    0.0000 C   0  0  0  0  0  0  0  0  0  0  0  0
    3.2000    2.7713    0.0000 H   0  0  0  0  0  0  0  0  0  0  0  0
    3.2000   -0.0000    0.0000 C   0  0  0  0  0  0  0  0  0  0  0  0
    4.8000    0.0000    0.0000 H   0  0  0  0  0  0  0  0  0  0  0  0
    2.4000   -1.3856    0.0000 C   0  0  0  0  0  0  0  0  0  0  0  0
    3.2000   -2.7713    0.0000 H   0  0  0  0  0  0  0  0  0  0  0  0
    0.8000   -1.3856    0.0000 C   0  0  0  0  0  0  0  0  0  0  0  0
    0.0000   -2.7713    0.0000 H   0  0  0  0  0  0  0  0  0  0  0  0
    0.0000   -0.0000    0.0000 C   0  0  0  0  0  0  0  0  0  0  0  0
   -1.6000    0.0000    0.0000 C   0  0  0  0  0  0  0  0  0  0  0  0
   -2.4000   -1.3856    0.0000 H   0  0  0  0  0  0  0  0  0  0  0  0
   -2.4000    1.3856    0.0000 O   0  0  0  0  0  0  0  0  0  0  0  0
  1  2  1  0  0  0  0
  2  3  1  0  0  0  0
  3  4  1  0  0  0  0
  3  5  2  0  0  0  0
  5  6  1  0  0  0  0
  5  7  1  0  0  0  0
  7  8  1  0  0  0  0
  7  9  2  0  0  0  0
  9 10  1  0  0  0  0
  9 11  1  0  0  0  0
 11  2  2  0  0  0  0
 11 12  1  0  0  0  0
 12 13  1  0  0  0  0
 12 14  2  0  0  0  0
M  END
> <ChemID>
202136

> <source_casrn>
89-98-5

> <CAS>
89-98-5

> <SMILES>
Clc1ccccc1C=O

> <NAME>


> <preferred_name>
2-Chlorobenzaldehyde

> <iupac>
2-chlorobenzaldehyde

> <MPID>
101589

> <dsstox_substance_id>
DTXSID5024764

> <Canonical_QSARr>
O=Cc1ccccc1Cl

> <InChI_Code_QSARr>
InChI=1S/C7H5ClO/c8-7-4-2-1-3-6(7)5-9/h1-5H

> <InChI Key_QSARr>
FPYUJUBAXZAQNL-UHFFFAOYSA-N

> <Salt_Solvent>


> <Ready_Biodeg>
0.0

$$$$
202144
  -INDIGO-08031722522D

 25 26  0  0  0  0  0  0  0  0999 V2000
   -6.4000   -0.0000    0.0000 Cl  0  0  0  0  0  0  0  0  0  0  0  0
   -4.8000   -0.0000    0.0000 C   0  0  0  0  0  0  0  0  0  0  0  0
   -4.0000    1.3856    0.0000 C   0  0  0  0  0  0  0  0  0  0  0  0
   -4.8000    2.7713    0.0000 H   0  0  0  0  0  0  0  0  0  0  0  0
   -2.3999    1.3856    0.0000 C   0  0  0  0  0  0  0  0  0  0  0  0
   -1.5999    2.7713    0.0000 H   0  0  0  0  0  0  0  0  0  0  0  0
   -1.5999   -0.0000    0.0000 C   0  0  0  0  0  0  0  0  0  0  0  0
    0.0001   -0.0000    0.0000 S   0  0  0  0  0  0  0  0  0  0  0  0
   -0.0001    1.6000    0.0000 O   0  0  0  0  0  0  0  0  0  0  0  0
    0.0001   -1.6000    0.0000 O   0  0  0  0  0  0  0  0  0  0  0  0
    1.5999    0.0000    0.0000 C   0  0  0  0  0  0  0  0  0  0  0  0
    2.3999    1.3856    0.0000 C   0  0  0  0  0  0  0  0  0  0  0  0
    1.5999    2.7713    0.0000 H   0  0  0  0  0  0  0  0  0  0  0  0
    4.0000    1.3856    0.0000 C   0  0  0  0  0  0  0  0  0  0  0  0
    4.8000    2.7713    0.0000 H   0  0  0  0  0  0  0  0  0  0  0  0
    4.8000    0.0000    0.0000 C   0  0  0  0  0  0  0  0  0  0  0  0
    6.4000    0.0000    0.0000 Cl  0  0  0  0  0  0  0  0  0  0  0  0
    4.0000   -1.3856    0.0000 C   0  0  0  0  0  0  0  0  0  0  0  0
    4.8000   -2.7713    0.0000 H   0  0  0  0  0  0  0  0  0  0  0  0
    2.3999   -1.3856    0.0000 C   0  0  0  0  0  0  0  0  0  0  0  0
    1.5999   -2.7713    0.0000 H   0  0  0  0  0  0  0  0  0  0  0  0
   -2.3999   -1.3856    0.0000 C   0  0  0  0  0  0  0  0  0  0  0  0
   -1.5999   -2.7713    0.0000 H   0  0  0  0  0  0  0  0  0  0  0  0
   -4.0000   -1.3856    0.0000 C   0  0  0  0  0  0  0  0  0  0  0  0
   -4.8000   -2.7713    0.0000 H   0  0  0  0  0  0  0  0  0  0  0  0
  1  2  1  0  0  0  0
  2  3  1  0  0  0  0
  3  4  1  0  0  0  0
  3  5  2  0  0  0  0
  5  6  1  0  0  0  0
  5  7  1  0  0  0  0
  7  8  1  0  0  0  0
  8  9  2  0  0  0  0
  8 10  2  0  0  0  0
  8 11  1  0  0  0  0
 11 12  1  0  0  0  0
 12 13  1  0  0  0  0
 12 14  2  0  0  0  0
 14 15  1  0  0  0  0
 14 16  1  0  0  0  0
 16 17  1  0  0  0  0
 16 18  2  0  0  0  0
 18 19  1  0  0  0  0
 18 20  1  0  0  0  0
 20 11  2  0  0  0  0
 20 21  1  0  0  0  0
  7 22  2  0  0  0  0
 22 23  1  0  0  0  0
 22 24  1  0  0  0  0
 24  2  2  0  0  0  0
 24 25  1  0  0  0  0
M  END
> <ChemID>
202144

> <source_casrn>
80-07-9

> <CAS>
80-07-9

> <SMILES>
Clc1ccc(cc1)[S](=O)(=O)c2ccc(Cl)cc2

> <NAME>


> <preferred_name>
4,4'-Dichlorodiphenyl sulfone

> <iupac>
bis(4-chlorophenyl) sulfone

> <MPID>
101590

> <dsstox_substance_id>
DTXSID9024986

> <Canonical_QSARr>
O=S(=O)(c1ccc(Cl)cc1)c1ccc(Cl)cc1

> <InChI_Code_QSARr>
InChI=1S/C12H8Cl2O2S/c13-9-1-5-11(6-2-9)17(15,16)12-7-3-10(14)4-8-12/h1-8H

> <InChI Key_QSARr>
GPAPPPVRLPGFEQ-UHFFFAOYSA-N

> <Salt_Solvent>


> <Ready_Biodeg>
0.0

$$$$
202151
  -INDIGO-08031722522D

 38 37  0  0  0  0  0  0  0  0999 V2000
    9.6995    0.8000    0.0000 O   0  0  0  0  0  0  0  0  0  0  0  0
   11.0851    0.0000    0.0000 H   0  0  0  0  0  0  0  0  0  0  0  0
    8.3139    0.0000    0.0000 C   0  0  0  0  0  0  0  0  0  0  0  0
    8.3139   -1.6000    0.0000 O   0  0  0  0  0  0  0  0  0  0  0  0
    6.9283    0.8000    0.0000 C   0  0  0  0  0  0  0  0  0  0  0  0
    6.3158    2.2782    0.0000 F   0  0  0  0  0  0  0  0  0  0  0  0
    7.5404    2.2782    0.0000 F   0  0  0  0  0  0  0  0  0  0  0  0
    5.5426    0.0000    0.0000 C   0  0  0  0  0  0  0  0  0  0  0  0
    6.1548   -1.4782    0.0000 F   0  0  0  0  0  0  0  0  0  0  0  0
    4.9302   -1.4782    0.0000 F   0  0  0  0  0  0  0  0  0  0  0  0
    4.1570    0.8000    0.0000 C   0  0  0  0  0  0  0  0  0  0  0  0
    3.5446    2.2782    0.0000 F   0  0  0  0  0  0  0  0  0  0  0  0
    4.7692    2.2782    0.0000 F   0  0  0  0  0  0  0  0  0  0  0  0
    2.7714    0.0000    0.0000 C   0  0  0  0  0  0  0  0  0  0  0  0
    3.3836   -1.4782    0.0000 F   0  0  0  0  0  0  0  0  0  0  0  0
    2.1590   -1.4782    0.0000 F   0  0  0  0  0  0  0  0  0  0  0  0
    1.3858    0.8000    0.0000 C   0  0  0  0  0  0  0  0  0  0  0  0
    0.7733    2.2782    0.0000 F   0  0  0  0  0  0  0  0  0  0  0  0
    1.9979    2.2782    0.0000 F   0  0  0  0  0  0  0  0  0  0  0  0
   -0.0001    0.0000    0.0000 C   0  0  0  0  0  0  0  0  0  0  0  0
    0.6123   -1.4782    0.0000 F   0  0  0  0  0  0  0  0  0  0  0  0
   -0.6123   -1.4782    0.0000 F   0  0  0  0  0  0  0  0  0  0  0  0
   -1.3857    0.8000    0.0000 C   0  0  0  0  0  0  0  0  0  0  0  0
   -1.9979    2.2782    0.0000 F   0  0  0  0  0  0  0  0  0  0  0  0
   -0.7733    2.2782    0.0000 F   0  0  0  0  0  0  0  0  0  0  0  0
   -2.7714    0.0000    0.0000 C   0  0  0  0  0  0  0  0  0  0  0  0
   -2.1589   -1.4782    0.0000 F   0  0  0  0  0  0  0  0  0  0  0  0
   -3.3835   -1.4782    0.0000 F   0  0  0  0  0  0  0  0  0  0  0  0
   -4.1570    0.8000    0.0000 C   0  0  0  0  0  0  0  0  0  0  0  0
   -4.7691    2.2782    0.0000 F   0  0  0  0  0  0  0  0  0  0  0  0
   -3.5445    2.2782    0.0000 F   0  0  0  0  0  0  0  0  0  0  0  0
   -5.5426    0.0000    0.0000 C   0  0  0  0  0  0  0  0  0  0  0  0
   -4.9302   -1.4782    0.0000 F   0  0  0  0  0  0  0  0  0  0  0  0
   -6.1548   -1.4782    0.0000 F   0  0  0  0  0  0  0  0  0  0  0  0
   -6.9282    0.8000    0.0000 C   0  0  0  0  0  0  0  0  0  0  0  0
   -8.3138    1.6000    0.0000 F   0  0  0  0  0  0  0  0  0  0  0  0
   -8.3138    0.0000    0.0000 F   0  0  0  0  0  0  0  0  0  0  0  0
   -6.9282    2.4000    0.0000 F   0  0  0  0  0  0  0  0  0  0  0  0
  1  2  1  0  0  0  0
  1  3  1  0  0  0  0
  3  4  2  0  0  0  0
  3  5  1  0  0  0  0
  5  6  1  0  0  0  0
  5  7  1  0  0  0  0
  5  8  1  0  0  0  0
  8  9  1  0  0  0  0
  8 10  1  0  0  0  0
  8 11  1  0  0  0  0
 11 12  1  0  0  0  0
 11 13  1  0  0  0  0
 11 14  1  0  0  0  0
 14 15  1  0  0  0  0
 14 16  1  0  0  0  0
 14 17  1  0  0  0  0
 17 18  1  0  0  0  0
 17 19  1  0  0  0  0
 17 20  1  0  0  0  0
 20 21  1  0  0  0  0
 20 22  1  0  0  0  0
 20 23  1  0  0  0  0
 23 24  1  0  0  0  0
 23 25  1  0  0  0  0
 23 26  1  0  0  0  0
 26 27  1  0  0  0  0
 26 28  1  0  0  0  0
 26 29  1  0  0  0  0
 29 30  1  0  0  0  0
 29 31  1  0  0  0  0
 29 32  1  0  0  0  0
 32 33  1  0  0  0  0
 32 34  1  0  0  0  0
 32 35  1  0  0  0  0
 35 36  1  0  0  0  0
 35 37  1  0  0  0  0
 35 38  1  0  0  0  0
M  END
> <ChemID>
202151

> <source_casrn>
307-55-1

> <CAS>
307-55-1

> <SMILES>
OC(=O)C(F)(F)C(F)(F)C(F)(F)C(F)(F)C(F)(F)C(F)(F)C(F)(F)C(F)(F)C(F)(F)C(F)(F)C(F)(F)F

> <NAME>


> <preferred_name>
PFDOA

> <iupac>
tricosafluorododecanoic acid

> <MPID>
101593

> <dsstox_substance_id>
DTXSID8031861

> <Canonical_QSARr>
OC(=O)C(F)(F)C(F)(F)C(F)(F)C(F)(F)C(F)(F)C(F)(F)C(F)(F)C(F)(F)C(F)(F)C(F)(F)C(F)(F)F

> <InChI_Code_QSARr>
InChI=1S/C12HF23O2/c13-2(14,1(36)37)3(15,16)4(17,18)5(19,20)6(21,22)7(23,24)8(25,26)9(27,28)10(29,30)11(31,32)12(33,34)35/h(H,36,37)

> <InChI Key_QSARr>
CXGONMQFMIYUJR-UHFFFAOYSA-N

> <Salt_Solvent>


> <Ready_Biodeg>
0.0

$$$$
202152
  -INDIGO-08031722522D

 26 25  0  0  0  0  0  0  0  0999 V2000
    6.9283    0.8000    0.0000 O   0  0  0  0  0  0  0  0  0  0  0  0
    8.3138    0.0000    0.0000 H   0  0  0  0  0  0  0  0  0  0  0  0
    5.5426    0.0000    0.0000 C   0  0  0  0  0  0  0  0  0  0  0  0
    5.5426   -1.6000    0.0000 O   0  0  0  0  0  0  0  0  0  0  0  0
    4.1570    0.8000    0.0000 C   0  0  0  0  0  0  0  0  0  0  0  0
    3.5447    2.2782    0.0000 F   0  0  0  0  0  0  0  0  0  0  0  0
    4.7691    2.2782    0.0000 F   0  0  0  0  0  0  0  0  0  0  0  0
    2.7713    0.0000    0.0000 C   0  0  0  0  0  0  0  0  0  0  0  0
    3.3836   -1.4782    0.0000 F   0  0  0  0  0  0  0  0  0  0  0  0
    2.1590   -1.4782    0.0000 F   0  0  0  0  0  0  0  0  0  0  0  0
    1.3857    0.8000    0.0000 C   0  0  0  0  0  0  0  0  0  0  0  0
    0.7734    2.2782    0.0000 F   0  0  0  0  0  0  0  0  0  0  0  0
    1.9979    2.2782    0.0000 F   0  0  0  0  0  0  0  0  0  0  0  0
    0.0000    0.0000    0.0000 C   0  0  0  0  0  0  0  0  0  0  0  0
    0.6123   -1.4782    0.0000 F   0  0  0  0  0  0  0  0  0  0  0  0
   -0.6123   -1.4782    0.0000 F   0  0  0  0  0  0  0  0  0  0  0  0
   -1.3857    0.8000    0.0000 C   0  0  0  0  0  0  0  0  0  0  0  0
   -1.9979    2.2782    0.0000 F   0  0  0  0  0  0  0  0  0  0  0  0
   -0.7734    2.2782    0.0000 F   0  0  0  0  0  0  0  0  0  0  0  0
   -2.7713    0.0000    0.0000 C   0  0  0  0  0  0  0  0  0  0  0  0
   -2.1590   -1.4782    0.0000 F   0  0  0  0  0  0  0  0  0  0  0  0
   -3.3836   -1.4782    0.0000 F   0  0  0  0  0  0  0  0  0  0  0  0
   -4.1568    0.8000    0.0000 C   0  0  0  0  0  0  0  0  0  0  0  0
   -5.5426    1.6000    0.0000 F   0  0  0  0  0  0  0  0  0  0  0  0
   -5.5426    0.0000    0.0000 F   0  0  0  0  0  0  0  0  0  0  0  0
   -4.1568    2.4000    0.0000 F   0  0  0  0  0  0  0  0  0  0  0  0
  1  2  1  0  0  0  0
  1  3  1  0  0  0  0
  3  4  2  0  0  0  0
  3  5  1  0  0  0  0
  5  6  1  0  0  0  0
  5  7  1  0  0  0  0
  5  8  1  0  0  0  0
  8  9  1  0  0  0  0
  8 10  1  0  0  0  0
  8 11  1  0  0  0  0
 11 12  1  0  0  0  0
 11 13  1  0  0  0  0
 11 14  1  0  0  0  0
 14 15  1  0  0  0  0
 14 16  1  0  0  0  0
 14 17  1  0  0  0  0
 17 18  1  0  0  0  0
 17 19  1  0  0  0  0
 17 20  1  0  0  0  0
 20 21  1  0  0  0  0
 20 22  1  0  0  0  0
 20 23  1  0  0  0  0
 23 24  1  0  0  0  0
 23 25  1  0  0  0  0
 23 26  1  0  0  0  0
M  END
> <ChemID>
202152

> <source_casrn>
335-67-1

> <CAS>
335-67-1

> <SMILES>
OC(=O)C(F)(F)C(F)(F)C(F)(F)C(F)(F)C(F)(F)C(F)(F)C(F)(F)F

> <NAME>


> <preferred_name>
PFOA

> <iupac>
pentadecafluorooctanoic acid

> <MPID>
101594

> <dsstox_substance_id>
DTXSID8031865

> <Canonical_QSARr>
OC(=O)C(F)(F)C(F)(F)C(F)(F)C(F)(F)C(F)(F)C(F)(F)C(F)(F)F

> <InChI_Code_QSARr>
InChI=1S/C8HF15O2/c9-2(10,1(24)25)3(11,12)4(13,14)5(15,16)6(17,18)7(19,20)8(21,22)23/h(H,24,25)

> <InChI Key_QSARr>
SNGREZUHAYWORS-UHFFFAOYSA-N

> <Salt_Solvent>


> <Ready_Biodeg>
0.0

$$$$
202160
  -INDIGO-08031722522D

  7  6  0  0  0  0  0  0  0  0999 V2000
    0.8000    1.3856    0.0000 O   0  0  0  0  0  0  0  0  0  0  0  0
    2.4000    1.3856    0.0000 H   0  0  0  0  0  0  0  0  0  0  0  0
    0.0000    0.0000    0.0000 C   0  0  0  0  0  0  0  0  0  0  0  0
    0.8000   -1.3856    0.0000 O   0  0  0  0  0  0  0  0  0  0  0  0
   -1.6000    0.0000    0.0000 C   0  0  0  0  0  0  0  0  0  0  0  0
   -2.4000   -1.3856    0.0000 H   0  0  0  0  0  0  0  0  0  0  0  0
   -2.4000    1.3856    0.0000 O   0  0  0  0  0  0  0  0  0  0  0  0
  1  2  1  0  0  0  0
  1  3  1  0  0  0  0
  3  4  2  0  0  0  0
  3  5  1  0  0  0  0
  5  6  1  0  0  0  0
  5  7  2  0  0  0  0
M  END
> <ChemID>
202160

> <source_casrn>
298-12-4

> <CAS>
298-12-4

> <SMILES>
OC(=O)C=O

> <NAME>


> <preferred_name>
Glyoxylic acid

> <iupac>
oxoacetic acid

> <MPID>
101596

> <dsstox_substance_id>
DTXSID5021594

> <Canonical_QSARr>
OC(=O)C=O

> <InChI_Code_QSARr>
InChI=1S/C2H2O3/c3-1-2(4)5/h1H,(H,4,5)

> <InChI Key_QSARr>
HHLFWLYXYJOTON-UHFFFAOYSA-N

> <Salt_Solvent>


> <Ready_Biodeg>
1.0

$$$$
202163
  -INDIGO-08031722522D

 32 31  0  0  0  0  0  0  0  0999 V2000
    6.9282   -0.8000    0.0000 O   0  0  0  0  0  0  0  0  0  0  0  0
    8.3138    0.0000    0.0000 H   0  0  0  0  0  0  0  0  0  0  0  0
    5.5426    0.0000    0.0000 C   0  0  0  0  0  0  0  0  0  0  0  0
    5.5426    1.6000    0.0000 O   0  0  0  0  0  0  0  0  0  0  0  0
    4.1570   -0.8000    0.0000 C   0  0  0  0  0  0  0  0  0  0  0  0
    3.5446   -2.2782    0.0000 H   0  0  0  0  0  0  0  0  0  0  0  0
    4.7692   -2.2782    0.0000 H   0  0  0  0  0  0  0  0  0  0  0  0
    2.7712    0.0000    0.0000 C   0  0  0  0  0  0  0  0  0  0  0  0
    3.3836    1.4782    0.0000 H   0  0  0  0  0  0  0  0  0  0  0  0
    2.1590    1.4782    0.0000 H   0  0  0  0  0  0  0  0  0  0  0  0
    1.3856   -0.8000    0.0000 C   0  0  0  0  0  0  0  0  0  0  0  0
    0.7735   -2.2782    0.0000 H   0  0  0  0  0  0  0  0  0  0  0  0
    1.9980   -2.2782    0.0000 H   0  0  0  0  0  0  0  0  0  0  0  0
   -0.0000    0.0000    0.0000 C   0  0  0  0  0  0  0  0  0  0  0  0
    0.6124    1.4782    0.0000 H   0  0  0  0  0  0  0  0  0  0  0  0
   -0.6124    1.4782    0.0000 H   0  0  0  0  0  0  0  0  0  0  0  0
   -1.3856   -0.8000    0.0000 C   0  0  0  0  0  0  0  0  0  0  0  0
   -1.9980   -2.2782    0.0000 H   0  0  0  0  0  0  0  0  0  0  0  0
   -0.7732   -2.2782    0.0000 H   0  0  0  0  0  0  0  0  0  0  0  0
   -2.7712    0.0000    0.0000 C   0  0  0  0  0  0  0  0  0  0  0  0
   -2.1591    1.4782    0.0000 H   0  0  0  0  0  0  0  0  0  0  0  0
   -3.3836    1.4782    0.0000 H   0  0  0  0  0  0  0  0  0  0  0  0
   -4.1568   -0.8000    0.0000 C   0  0  0  0  0  0  0  0  0  0  0  0
   -4.7692   -2.2782    0.0000 H   0  0  0  0  0  0  0  0  0  0  0  0
   -3.5447   -2.2782    0.0000 H   0  0  0  0  0  0  0  0  0  0  0  0
   -5.5427    0.0000    0.0000 C   0  0  0  0  0  0  0  0  0  0  0  0
   -4.9303    1.4782    0.0000 H   0  0  0  0  0  0  0  0  0  0  0  0
   -6.1548    1.4782    0.0000 H   0  0  0  0  0  0  0  0  0  0  0  0
   -6.9283   -0.8000    0.0000 C   0  0  0  0  0  0  0  0  0  0  0  0
   -8.3139    0.0000    0.0000 O   0  0  0  0  0  0  0  0  0  0  0  0
   -9.6995   -0.8000    0.0000 H   0  0  0  0  0  0  0  0  0  0  0  0
   -6.9283   -2.4000    0.0000 O   0  0  0  0  0  0  0  0  0  0  0  0
  1  2  1  0  0  0  0
  1  3  1  0  0  0  0
  3  4  2  0  0  0  0
  3  5  1  0  0  0  0
  5  6  1  0  0  0  0
  5  7  1  0  0  0  0
  5  8  1  0  0  0  0
  8  9  1  0  0  0  0
  8 10  1  0  0  0  0
  8 11  1  0  0  0  0
 11 12  1  0  0  0  0
 11 13  1  0  0  0  0
 11 14  1  0  0  0  0
 14 15  1  0  0  0  0
 14 16  1  0  0  0  0
 14 17  1  0  0  0  0
 17 18  1  0  0  0  0
 17 19  1  0  0  0  0
 17 20  1  0  0  0  0
 20 21  1  0  0  0  0
 20 22  1  0  0  0  0
 20 23  1  0  0  0  0
 23 24  1  0  0  0  0
 23 25  1  0  0  0  0
 23 26  1  0  0  0  0
 26 27  1  0  0  0  0
 26 28  1  0  0  0  0
 26 29  1  0  0  0  0
 29 30  1  0  0  0  0
 30 31  1  0  0  0  0
 29 32  2  0  0  0  0
M  END
> <ChemID>
202163

> <source_casrn>
111-20-6

> <CAS>
111-20-6

> <SMILES>
OC(=O)CCCCCCCCC(O)=O

> <NAME>


> <preferred_name>
Decanedioic acid

> <iupac>
decanedioic acid

> <MPID>
101597

> <dsstox_substance_id>
DTXSID7026867

> <Canonical_QSARr>
OC(=O)CCCCCCCCC(O)=O

> <InChI_Code_QSARr>
InChI=1S/C10H18O4/c11-9(12)7-5-3-1-2-4-6-8-10(13)14/h1-8H2,(H,11,12)(H,13,14)

> <InChI Key_QSARr>
CXMXRPHRNRROMY-UHFFFAOYSA-N

> <Salt_Solvent>


> <Ready_Biodeg>
1.0

$$$$
202165
  -INDIGO-08031722522D

 21 20  0  0  0  0  0  0  0  0999 V2000
    4.1570    0.8000    0.0000 O   0  0  0  0  0  0  0  0  0  0  0  0
    5.5426   -0.0000    0.0000 H   0  0  0  0  0  0  0  0  0  0  0  0
    2.7713   -0.0000    0.0000 C   0  0  0  0  0  0  0  0  0  0  0  0
    2.7713   -1.6000    0.0000 O   0  0  0  0  0  0  0  0  0  0  0  0
    1.3857    0.8000    0.0000 C   0  0  0  0  0  0  0  0  0  0  0  0
    0.7734    2.2782    0.0000 H   0  0  0  0  0  0  0  0  0  0  0  0
    1.9979    2.2782    0.0000 H   0  0  0  0  0  0  0  0  0  0  0  0
    0.0000   -0.0000    0.0000 C   0  0  0  0  0  0  0  0  0  0  0  0
    0.6123   -1.4782    0.0000 H   0  0  0  0  0  0  0  0  0  0  0  0
   -0.6123   -1.4782    0.0000 H   0  0  0  0  0  0  0  0  0  0  0  0
   -1.3857    0.8000    0.0000 S   0  0  0  0  0  0  0  0  0  0  0  0
   -2.7713   -0.0000    0.0000 C   0  0  0  0  0  0  0  0  0  0  0  0
   -2.1590   -1.4782    0.0000 H   0  0  0  0  0  0  0  0  0  0  0  0
   -3.3836   -1.4782    0.0000 H   0  0  0  0  0  0  0  0  0  0  0  0
   -4.1570    0.8000    0.0000 C   0  0  0  0  0  0  0  0  0  0  0  0
   -4.7691    2.2782    0.0000 H   0  0  0  0  0  0  0  0  0  0  0  0
   -3.5447    2.2782    0.0000 H   0  0  0  0  0  0  0  0  0  0  0  0
   -5.5426   -0.0000    0.0000 C   0  0  0  0  0  0  0  0  0  0  0  0
   -6.9283    0.8000    0.0000 O   0  0  0  0  0  0  0  0  0  0  0  0
   -8.3138   -0.0000    0.0000 H   0  0  0  0  0  0  0  0  0  0  0  0
   -5.5426   -1.6000    0.0000 O   0  0  0  0  0  0  0  0  0  0  0  0
  1  2  1  0  0  0  0
  1  3  1  0  0  0  0
  3  4  2  0  0  0  0
  3  5  1  0  0  0  0
  5  6  1  0  0  0  0
  5  7  1  0  0  0  0
  5  8  1  0  0  0  0
  8  9  1  0  0  0  0
  8 10  1  0  0  0  0
  8 11  1  0  0  0  0
 11 12  1  0  0  0  0
 12 13  1  0  0  0  0
 12 14  1  0  0  0  0
 12 15  1  0  0  0  0
 15 16  1  0  0  0  0
 15 17  1  0  0  0  0
 15 18  1  0  0  0  0
 18 19  1  0  0  0  0
 19 20  1  0  0  0  0
 18 21  2  0  0  0  0
M  END
> <ChemID>
202165

> <source_casrn>
111-17-1

> <CAS>
111-17-1

> <SMILES>
OC(=O)CCSCCC(O)=O

> <NAME>


> <preferred_name>
Bis(2-carboxyethyl) sulfide

> <iupac>
3,3'-sulfanediyldipropanoic acid

> <MPID>
101598

> <dsstox_substance_id>
DTXSID8044200

> <Canonical_QSARr>
OC(=O)CCSCCC(O)=O

> <InChI_Code_QSARr>
InChI=1S/C6H10O4S/c7-5(8)1-3-11-4-2-6(9)10/h1-4H2,(H,7,8)(H,9,10)

> <InChI Key_QSARr>
ODJQKYXPKWQWNK-UHFFFAOYSA-N

> <Salt_Solvent>


> <Ready_Biodeg>
1.0

$$$$
202172
  -INDIGO-08031722522D

 18 18  0  0  0  0  0  0  0  0999 V2000
    2.4001    1.3856    0.0000 O   0  0  0  0  0  0  0  0  0  0  0  0
    3.2000    2.7713    0.0000 H   0  0  0  0  0  0  0  0  0  0  0  0
    0.8001    1.3856    0.0000 C   0  0  0  0  0  0  0  0  0  0  0  0
    0.0000    2.7713    0.0000 O   0  0  0  0  0  0  0  0  0  0  0  0
    0.0000    0.0000    0.0000 C   0  0  0  0  0  0  0  0  0  0  0  0
    0.8001   -1.3856    0.0000 C   0  0  0  0  0  0  0  0  0  0  0  0
    2.4001   -1.3856    0.0000 H   0  0  0  0  0  0  0  0  0  0  0  0
    0.0000   -2.7713    0.0000 C   0  0  0  0  0  0  0  0  0  0  0  0
    0.8001   -4.1569    0.0000 O   0  0  0  0  0  0  0  0  0  0  0  0
    2.4001   -4.1569    0.0000 H   0  0  0  0  0  0  0  0  0  0  0  0
   -1.6000   -2.7713    0.0000 C   0  0  0  0  0  0  0  0  0  0  0  0
   -2.4001   -4.1569    0.0000 O   0  0  0  0  0  0  0  0  0  0  0  0
   -4.0001   -4.1569    0.0000 H   0  0  0  0  0  0  0  0  0  0  0  0
   -2.3999   -1.3856    0.0000 C   0  0  0  0  0  0  0  0  0  0  0  0
   -3.9999   -1.3856    0.0000 O   0  0  0  0  0  0  0  0  0  0  0  0
   -4.8000    0.0000    0.0000 H   0  0  0  0  0  0  0  0  0  0  0  0
   -1.6000    0.0000    0.0000 C   0  0  0  0  0  0  0  0  0  0  0  0
   -2.3999    1.3856    0.0000 H   0  0  0  0  0  0  0  0  0  0  0  0
  1  2  1  0  0  0  0
  1  3  1  0  0  0  0
  3  4  2  0  0  0  0
  3  5  1  0  0  0  0
  5  6  1  0  0  0  0
  6  7  1  0  0  0  0
  6  8  2  0  0  0  0
  8  9  1  0  0  0  0
  9 10  1  0  0  0  0
  8 11  1  0  0  0  0
 11 12  1  0  0  0  0
 12 13  1  0  0  0  0
 11 14  2  0  0  0  0
 14 15  1  0  0  0  0
 15 16  1  0  0  0  0
 14 17  1  0  0  0  0
 17  5  2  0  0  0  0
 17 18  1  0  0  0  0
M  END
> <ChemID>
202172

> <source_casrn>
149-91-7

> <CAS>
149-91-7

> <SMILES>
OC(=O)c1cc(O)c(O)c(O)c1

> <NAME>


> <preferred_name>
Gallic acid

> <iupac>
3,4,5-trihydroxybenzoic acid

> <MPID>
101599

> <dsstox_substance_id>
DTXSID0020650

> <Canonical_QSARr>
OC(=O)c1cc(O)c(O)c(O)c1

> <InChI_Code_QSARr>
InChI=1S/C7H6O5/c8-4-1-3(7(11)12)2-5(9)6(4)10/h1-2,8-10H,(H,11,12)

> <InChI Key_QSARr>
LNTHITQWFMADLM-UHFFFAOYSA-N

> <Salt_Solvent>


> <Ready_Biodeg>
1.0

$$$$
202185
  -INDIGO-08031722522D

 22 21  0  0  0  0  0  0  0  0999 V2000
    4.0000   -1.3857    0.0000 O   0  0  0  0  0  0  0  0  0  0  0  0
    5.6000   -1.3857    0.0000 H   0  0  0  0  0  0  0  0  0  0  0  0
    3.2000    0.0000    0.0000 C   0  0  0  0  0  0  0  0  0  0  0  0
    4.4693    0.9741    0.0000 H   0  0  0  0  0  0  0  0  0  0  0  0
    3.4089    1.5863    0.0000 H   0  0  0  0  0  0  0  0  0  0  0  0
    1.6001    0.0000    0.0000 C   0  0  0  0  0  0  0  0  0  0  0  0
    1.6001    1.6000    0.0000 H   0  0  0  0  0  0  0  0  0  0  0  0
    1.6001   -1.6000    0.0000 O   0  0  0  0  0  0  0  0  0  0  0  0
    2.9857   -2.4000    0.0000 H   0  0  0  0  0  0  0  0  0  0  0  0
    0.0001    0.0000    0.0000 C   0  0  0  0  0  0  0  0  0  0  0  0
    0.0001   -1.6000    0.0000 H   0  0  0  0  0  0  0  0  0  0  0  0
    0.2778    1.5757    0.0000 O   0  0  0  0  0  0  0  0  0  0  0  0
   -0.9479    2.6042    0.0000 H   0  0  0  0  0  0  0  0  0  0  0  0
   -1.6001    0.0000    0.0000 C   0  0  0  0  0  0  0  0  0  0  0  0
   -1.6001    1.6000    0.0000 H   0  0  0  0  0  0  0  0  0  0  0  0
   -1.6001   -1.6000    0.0000 O   0  0  0  0  0  0  0  0  0  0  0  0
   -2.9856   -2.4000    0.0000 H   0  0  0  0  0  0  0  0  0  0  0  0
   -3.2000    0.0000    0.0000 C   0  0  0  0  0  0  0  0  0  0  0  0
   -4.4693    0.9741    0.0000 H   0  0  0  0  0  0  0  0  0  0  0  0
   -3.4089    1.5863    0.0000 H   0  0  0  0  0  0  0  0  0  0  0  0
   -4.0000   -1.3857    0.0000 O   0  0  0  0  0  0  0  0  0  0  0  0
   -5.6000   -1.3857    0.0000 H   0  0  0  0  0  0  0  0  0  0  0  0
  1  2  1  0  0  0  0
  1  3  1  0  0  0  0
  3  4  1  0  0  0  0
  3  5  1  0  0  0  0
  3  6  1  0  0  0  0
  6  7  1  0  0  0  0
  6  8  1  0  0  0  0
  8  9  1  0  0  0  0
  6 10  1  0  0  0  0
 10 11  1  0  0  0  0
 10 12  1  0  0  0  0
 12 13  1  0  0  0  0
 10 14  1  0  0  0  0
 14 15  1  0  0  0  0
 14 16  1  0  0  0  0
 16 17  1  0  0  0  0
 14 18  1  0  0  0  0
 18 19  1  0  0  0  0
 18 20  1  0  0  0  0
 18 21  1  0  0  0  0
 21 22  1  0  0  0  0
M  END
> <ChemID>
202185

> <source_casrn>
87-99-0

> <CAS>
87-99-0

> <SMILES>
OC[C@@H](O)[C@H](O)[C@@H](O)CO

> <NAME>


> <preferred_name>
Xylitol

> <iupac>
D-xylitol

> <MPID>
101601

> <dsstox_substance_id>
DTXSID7042514

> <Canonical_QSARr>
OC(C(O)CO)C(O)CO

> <InChI_Code_QSARr>
InChI=1S/C5H12O5/c6-1-3(8)5(10)4(9)2-7/h3-10H,1-2H2

> <InChI Key_QSARr>
HEBKCHPVOIAQTA-UHFFFAOYSA-N

> <Salt_Solvent>


> <Ready_Biodeg>
1.0

$$$$
202193
  -INDIGO-08031722522D

 39 38  0  0  0  0  0  0  0  0999 V2000
    0.2528   -2.8892    0.0000 O   0  0  0  0  0  0  0  0  0  0  0  0
    1.2812   -4.1148    0.0000 H   0  0  0  0  0  0  0  0  0  0  0  0
    0.7999   -1.3856    0.0000 C   0  0  0  0  0  0  0  0  0  0  0  0
    2.2782   -1.9980    0.0000 H   0  0  0  0  0  0  0  0  0  0  0  0
    2.2782   -0.7734    0.0000 H   0  0  0  0  0  0  0  0  0  0  0  0
    0.0001    0.0001    0.0000 C   0  0  0  0  0  0  0  0  0  0  0  0
    1.3856    0.8000    0.0000 C   0  0  0  0  0  0  0  0  0  0  0  0
    1.9979    2.2782    0.0000 H   0  0  0  0  0  0  0  0  0  0  0  0
    0.7732    2.2782    0.0000 H   0  0  0  0  0  0  0  0  0  0  0  0
    2.8891    0.2527    0.0000 O   0  0  0  0  0  0  0  0  0  0  0  0
    4.1148    1.2812    0.0000 H   0  0  0  0  0  0  0  0  0  0  0  0
   -0.8000    1.3856    0.0000 C   0  0  0  0  0  0  0  0  0  0  0  0
   -2.2781    1.9980    0.0000 H   0  0  0  0  0  0  0  0  0  0  0  0
   -2.2781    0.7734    0.0000 H   0  0  0  0  0  0  0  0  0  0  0  0
   -0.2527    2.8892    0.0000 O   0  0  0  0  0  0  0  0  0  0  0  0
   -1.2812    4.1148    0.0000 H   0  0  0  0  0  0  0  0  0  0  0  0
   -1.3857   -0.8000    0.0000 C   0  0  0  0  0  0  0  0  0  0  0  0
   -1.9980   -2.2782    0.0000 H   0  0  0  0  0  0  0  0  0  0  0  0
   -0.7733   -2.2782    0.0000 H   0  0  0  0  0  0  0  0  0  0  0  0
   -2.8891   -0.2527    0.0000 O   0  0  0  0  0  0  0  0  0  0  0  0
   -4.1149   -1.2812    0.0000 C   0  0  0  0  0  0  0  0  0  0  0  0
   -4.1847   -2.8797    0.0000 H   0  0  0  0  0  0  0  0  0  0  0  0
   -3.0338   -2.4608    0.0000 H   0  0  0  0  0  0  0  0  0  0  0  0
   -5.6905   -1.0034    0.0000 C   0  0  0  0  0  0  0  0  0  0  0  0
   -7.2661   -0.7255    0.0000 C   0  0  0  0  0  0  0  0  0  0  0  0
   -7.1964    0.8729    0.0000 H   0  0  0  0  0  0  0  0  0  0  0  0
   -8.3472    0.4541    0.0000 H   0  0  0  0  0  0  0  0  0  0  0  0
   -8.4919   -1.7540    0.0000 O   0  0  0  0  0  0  0  0  0  0  0  0
   -9.9954   -1.2067    0.0000 H   0  0  0  0  0  0  0  0  0  0  0  0
   -5.9683   -2.5790    0.0000 C   0  0  0  0  0  0  0  0  0  0  0  0
   -7.5669   -2.5093    0.0000 H   0  0  0  0  0  0  0  0  0  0  0  0
   -7.1479   -3.6600    0.0000 H   0  0  0  0  0  0  0  0  0  0  0  0
   -4.9400   -3.8048    0.0000 O   0  0  0  0  0  0  0  0  0  0  0  0
   -5.4871   -5.3083    0.0000 H   0  0  0  0  0  0  0  0  0  0  0  0
   -5.4128    0.5723    0.0000 C   0  0  0  0  0  0  0  0  0  0  0  0
   -3.8141    0.5025    0.0000 H   0  0  0  0  0  0  0  0  0  0  0  0
   -4.2331    1.6532    0.0000 H   0  0  0  0  0  0  0  0  0  0  0  0
   -6.4411    1.7980    0.0000 O   0  0  0  0  0  0  0  0  0  0  0  0
   -5.8940    3.3014    0.0000 H   0  0  0  0  0  0  0  0  0  0  0  0
  1  2  1  0  0  0  0
  1  3  1  0  0  0  0
  3  4  1  0  0  0  0
  3  5  1  0  0  0  0
  3  6  1  0  0  0  0
  6  7  1  0  0  0  0
  7  8  1  0  0  0  0
  7  9  1  0  0  0  0
  7 10  1  0  0  0  0
 10 11  1  0  0  0  0
  6 12  1  0  0  0  0
 12 13  1  0  0  0  0
 12 14  1  0  0  0  0
 12 15  1  0  0  0  0
 15 16  1  0  0  0  0
  6 17  1  0  0  0  0
 17 18  1  0  0  0  0
 17 19  1  0  0  0  0
 17 20  1  0  0  0  0
 20 21  1  0  0  0  0
 21 22  1  0  0  0  0
 21 23  1  0  0  0  0
 21 24  1  0  0  0  0
 24 25  1  0  0  0  0
 25 26  1  0  0  0  0
 25 27  1  0  0  0  0
 25 28  1  0  0  0  0
 28 29  1  0  0  0  0
 24 30  1  0  0  0  0
 30 31  1  0  0  0  0
 30 32  1  0  0  0  0
 30 33  1  0  0  0  0
 33 34  1  0  0  0  0
 24 35  1  0  0  0  0
 35 36  1  0  0  0  0
 35 37  1  0  0  0  0
 35 38  1  0  0  0  0
 38 39  1  0  0  0  0
M  END
> <ChemID>
202193

> <source_casrn>
126-58-9

> <CAS>
126-58-9

> <SMILES>
OCC(CO)(CO)COCC(CO)(CO)CO

> <NAME>


> <preferred_name>
Dipentaerythritol

> <iupac>
2,2'-(oxydimethanediyl)bis[2-(hydroxymethyl)propane-1,3-diol]

> <MPID>
101603

> <dsstox_substance_id>
DTXSID3027039

> <Canonical_QSARr>
OCC(COCC(CO)(CO)CO)(CO)CO

> <InChI_Code_QSARr>
InChI=1S/C10H22O7/c11-1-9(2-12,3-13)7-17-8-10(4-14,5-15)6-16/h11-16H,1-8H2

> <InChI Key_QSARr>
TXBCBTDQIULDIA-UHFFFAOYSA-N

> <Salt_Solvent>


> <Ready_Biodeg>
0.0

$$$$
202195
  -INDIGO-08031722522D

 24 23  0  0  0  0  0  0  0  0999 V2000
    5.5425    0.0000    0.0000 O   0  0  0  0  0  0  0  0  0  0  0  0
    6.9282    0.8000    0.0000 H   0  0  0  0  0  0  0  0  0  0  0  0
    4.1570    0.8000    0.0000 C   0  0  0  0  0  0  0  0  0  0  0  0
    3.5446    2.2782    0.0000 H   0  0  0  0  0  0  0  0  0  0  0  0
    4.7692    2.2782    0.0000 H   0  0  0  0  0  0  0  0  0  0  0  0
    2.7713    0.0000    0.0000 C   0  0  0  0  0  0  0  0  0  0  0  0
    3.3836   -1.4782    0.0000 F   0  0  0  0  0  0  0  0  0  0  0  0
    2.1589   -1.4782    0.0000 F   0  0  0  0  0  0  0  0  0  0  0  0
    1.3856    0.8000    0.0000 C   0  0  0  0  0  0  0  0  0  0  0  0
    0.7734    2.2782    0.0000 F   0  0  0  0  0  0  0  0  0  0  0  0
    1.9979    2.2782    0.0000 F   0  0  0  0  0  0  0  0  0  0  0  0
    0.0001    0.0000    0.0000 C   0  0  0  0  0  0  0  0  0  0  0  0
    0.6122   -1.4782    0.0000 F   0  0  0  0  0  0  0  0  0  0  0  0
   -0.6123   -1.4782    0.0000 F   0  0  0  0  0  0  0  0  0  0  0  0
   -1.3856    0.8000    0.0000 C   0  0  0  0  0  0  0  0  0  0  0  0
   -1.9980    2.2782    0.0000 F   0  0  0  0  0  0  0  0  0  0  0  0
   -0.7733    2.2782    0.0000 F   0  0  0  0  0  0  0  0  0  0  0  0
   -2.7713    0.0000    0.0000 C   0  0  0  0  0  0  0  0  0  0  0  0
   -2.1590   -1.4782    0.0000 F   0  0  0  0  0  0  0  0  0  0  0  0
   -3.3835   -1.4782    0.0000 F   0  0  0  0  0  0  0  0  0  0  0  0
   -4.1569    0.8000    0.0000 C   0  0  0  0  0  0  0  0  0  0  0  0
   -5.5426    1.6000    0.0000 H   0  0  0  0  0  0  0  0  0  0  0  0
   -5.5426    0.0000    0.0000 F   0  0  0  0  0  0  0  0  0  0  0  0
   -4.1569    2.4000    0.0000 F   0  0  0  0  0  0  0  0  0  0  0  0
  1  2  1  0  0  0  0
  1  3  1  0  0  0  0
  3  4  1  0  0  0  0
  3  5  1  0  0  0  0
  3  6  1  0  0  0  0
  6  7  1  0  0  0  0
  6  8  1  0  0  0  0
  6  9  1  0  0  0  0
  9 10  1  0  0  0  0
  9 11  1  0  0  0  0
  9 12  1  0  0  0  0
 12 13  1  0  0  0  0
 12 14  1  0  0  0  0
 12 15  1  0  0  0  0
 15 16  1  0  0  0  0
 15 17  1  0  0  0  0
 15 18  1  0  0  0  0
 18 19  1  0  0  0  0
 18 20  1  0  0  0  0
 18 21  1  0  0  0  0
 21 22  1  0  0  0  0
 21 23  1  0  0  0  0
 21 24  1  0  0  0  0
M  END
> <ChemID>
202195

> <source_casrn>
335-99-9

> <CAS>
335-99-9

> <SMILES>
OCC(F)(F)C(F)(F)C(F)(F)C(F)(F)C(F)(F)C(F)F

> <NAME>


> <preferred_name>
1-Heptanol, 2,2,3,3,4,4,5,5,6,6,7,7-dodecafluoro-

> <iupac>
2,2,3,3,4,4,5,5,6,6,7,7-Dodecafluoroheptan-1-ol

> <MPID>
101605

> <dsstox_substance_id>
DTXSID9059832

> <Canonical_QSARr>
OCC(F)(F)C(F)(F)C(F)(F)C(F)(F)C(F)(F)C(F)F

> <InChI_Code_QSARr>
InChI=1S/C7H4F12O/c8-2(9)4(12,13)6(16,17)7(18,19)5(14,15)3(10,11)1-20/h2,20H,1H2

> <InChI Key_QSARr>
BYKNGMLDSIEFFG-UHFFFAOYSA-N

> <Salt_Solvent>


> <Ready_Biodeg>
0.0

$$$$
202199
  -INDIGO-08031722522D

 17 17  0  0  0  0  0  0  0  0999 V2000
    2.7561   -0.2896    0.0000 O   0  0  0  0  0  0  0  0  0  0  0  0
    4.0505   -1.2301    0.0000 H   0  0  0  0  0  0  0  0  0  0  0  0
    1.2944   -0.9404    0.0000 C   0  0  0  0  0  0  0  0  0  0  0  0
    1.7488   -2.4746    0.0000 H   0  0  0  0  0  0  0  0  0  0  0  0
    0.5309   -2.3465    0.0000 H   0  0  0  0  0  0  0  0  0  0  0  0
    0.0000   -0.0000    0.0000 C   0  0  0  0  0  0  0  0  0  0  0  0
    1.0706    1.1890    0.0000 H   0  0  0  0  0  0  0  0  0  0  0  0
   -1.0705    1.1890    0.0000 C   0  0  0  0  0  0  0  0  0  0  0  0
    0.2238    2.1295    0.0000 H   0  0  0  0  0  0  0  0  0  0  0  0
   -1.8706    2.5747    0.0000 H   0  0  0  0  0  0  0  0  0  0  0  0
   -2.5323    0.5382    0.0000 C   0  0  0  0  0  0  0  0  0  0  0  0
   -3.0267    2.0599    0.0000 H   0  0  0  0  0  0  0  0  0  0  0  0
   -4.0973    0.2056    0.0000 H   0  0  0  0  0  0  0  0  0  0  0  0
   -2.3651   -1.0529    0.0000 C   0  0  0  0  0  0  0  0  0  0  0  0
   -3.9650   -1.0529    0.0000 H   0  0  0  0  0  0  0  0  0  0  0  0
   -2.5323   -2.6442    0.0000 H   0  0  0  0  0  0  0  0  0  0  0  0
   -0.8000   -1.3857    0.0000 O   0  0  0  0  0  0  0  0  0  0  0  0
  1  2  1  0  0  0  0
  1  3  1  0  0  0  0
  3  4  1  0  0  0  0
  3  5  1  0  0  0  0
  3  6  1  0  0  0  0
  6  7  1  0  0  0  0
  6  8  1  0  0  0  0
  8  9  1  0  0  0  0
  8 10  1  0  0  0  0
  8 11  1  0  0  0  0
 11 12  1  0  0  0  0
 11 13  1  0  0  0  0
 11 14  1  0  0  0  0
 14 15  1  0  0  0  0
 14 16  1  0  0  0  0
 14 17  1  0  0  0  0
 17  6  1  0  0  0  0
M  END
> <ChemID>
202199

> <source_casrn>
97-99-4

> <CAS>
97-99-4

> <SMILES>
OCC1CCCO1

> <NAME>


> <preferred_name>
Tetrahydrofurfuryl alcohol

> <iupac>
tetrahydrofuran-2-ylmethanol

> <MPID>
101607

> <dsstox_substance_id>
DTXSID1029128

> <Canonical_QSARr>
OCC1CCCO1

> <InChI_Code_QSARr>
InChI=1S/C5H10O2/c6-4-5-2-1-3-7-5/h5-6H,1-4H2

> <InChI Key_QSARr>
BSYVTEYKTMYBMK-UHFFFAOYSA-N

> <Salt_Solvent>


> <Ready_Biodeg>
1.0

$$$$
202200
  -INDIGO-08031722522D

 11 11  0  0  0  0  0  0  0  0999 V2000
    2.7292    0.4812    0.0000 O   0  0  0  0  0  0  0  0  0  0  0  0
    4.2327   -0.0660    0.0000 H   0  0  0  0  0  0  0  0  0  0  0  0
    1.5035   -0.5473    0.0000 C   0  0  0  0  0  0  0  0  0  0  0  0
    2.3632   -1.8966    0.0000 H   0  0  0  0  0  0  0  0  0  0  0  0
    1.1572   -2.1093    0.0000 H   0  0  0  0  0  0  0  0  0  0  0  0
    0.0000   -0.0000    0.0000 C   0  0  0  0  0  0  0  0  0  0  0  0
    0.2778    1.5757    0.0000 H   0  0  0  0  0  0  0  0  0  0  0  0
   -1.6000   -0.0000    0.0000 C   0  0  0  0  0  0  0  0  0  0  0  0
   -1.8778    1.5757    0.0000 H   0  0  0  0  0  0  0  0  0  0  0  0
   -3.1035   -0.5473    0.0000 H   0  0  0  0  0  0  0  0  0  0  0  0
   -0.8001   -1.3856    0.0000 O   0  0  0  0  0  0  0  0  0  0  0  0
  1  2  1  0  0  0  0
  1  3  1  0  0  0  0
  3  4  1  0  0  0  0
  3  5  1  0  0  0  0
  3  6  1  0  0  0  0
  6  7  1  0  0  0  0
  6  8  1  0  0  0  0
  8  9  1  0  0  0  0
  8 10  1  0  0  0  0
  8 11  1  0  0  0  0
 11  6  1  0  0  0  0
M  END
> <ChemID>
202200

> <source_casrn>
556-52-5

> <CAS>
556-52-5

> <SMILES>
OCC1CO1

> <NAME>


> <preferred_name>
Glycidol

> <iupac>
oxiran-2-ylmethanol

> <MPID>
101608

> <dsstox_substance_id>
DTXSID4020666

> <Canonical_QSARr>
OCC1CO1

> <InChI_Code_QSARr>
InChI=1S/C3H6O2/c4-1-3-2-5-3/h3-4H,1-2H2

> <InChI Key_QSARr>
CTKINSOISVBQLD-UHFFFAOYSA-N

> <Salt_Solvent>


> <Ready_Biodeg>
1.0

$$$$
202212
  -INDIGO-08031722522D

 15 14  0  0  0  0  0  0  0  0999 V2000
    2.7713    0.0000    0.0000 O   0  0  0  0  0  0  0  0  0  0  0  0
    4.1569    0.8000    0.0000 H   0  0  0  0  0  0  0  0  0  0  0  0
    1.3857    0.8000    0.0000 C   0  0  0  0  0  0  0  0  0  0  0  0
    0.7734    2.2782    0.0000 H   0  0  0  0  0  0  0  0  0  0  0  0
    1.9980    2.2782    0.0000 H   0  0  0  0  0  0  0  0  0  0  0  0
    0.0001    0.0000    0.0000 C   0  0  0  0  0  0  0  0  0  0  0  0
    0.6124   -1.4782    0.0000 H   0  0  0  0  0  0  0  0  0  0  0  0
   -0.6122   -1.4782    0.0000 H   0  0  0  0  0  0  0  0  0  0  0  0
   -1.3857    0.8000    0.0000 N   0  0  0  0  0  0  0  0  0  0  0  0
   -1.3857    2.4000    0.0000 H   0  0  0  0  0  0  0  0  0  0  0  0
   -2.7713    0.0000    0.0000 C   0  0  0  0  0  0  0  0  0  0  0  0
   -2.1590   -1.4782    0.0000 H   0  0  0  0  0  0  0  0  0  0  0  0
   -3.3836   -1.4782    0.0000 H   0  0  0  0  0  0  0  0  0  0  0  0
   -4.1569    0.8000    0.0000 O   0  0  0  0  0  0  0  0  0  0  0  0
   -5.5426    0.0000    0.0000 H   0  0  0  0  0  0  0  0  0  0  0  0
  1  2  1  0  0  0  0
  1  3  1  0  0  0  0
  3  4  1  0  0  0  0
  3  5  1  0  0  0  0
  3  6  1  0  0  0  0
  6  7  1  0  0  0  0
  6  8  1  0  0  0  0
  6  9  1  0  0  0  0
  9 10  1  0  0  0  0
  9 11  1  0  0  0  0
 11 12  1  0  0  0  0
 11 13  1  0  0  0  0
 11 14  1  0  0  0  0
 14 15  1  0  0  0  0
M  END
> <ChemID>
202212

> <source_casrn>
34375-28-5

> <CAS>
34375-28-5

> <SMILES>
OCCNCO

> <NAME>


> <preferred_name>
2-(Hydroxymethylamino)ethanol

> <iupac>
2-[hydroxy(methyl)amino]ethanol

> <MPID>
101160|101161

> <dsstox_substance_id>
DTXSID4029357

> <Canonical_QSARr>
OCNCCO

> <InChI_Code_QSARr>
InChI=1S/C3H9NO2/c5-2-1-4-3-6/h4-6H,1-3H2

> <InChI Key_QSARr>
NWPCFCBFUXXJIE-UHFFFAOYSA-N

> <Salt_Solvent>


> <Ready_Biodeg>
1.0

$$$$
202215
  -INDIGO-08031722522D

 43 45  0  0  0  0  0  0  0  0999 V2000
    2.7712    1.6001    0.0000 O   0  0  0  0  0  0  0  0  0  0  0  0
    2.7712    3.2000    0.0000 H   0  0  0  0  0  0  0  0  0  0  0  0
    1.3856    0.7999    0.0000 S   0  0  0  0  0  0  0  0  0  0  0  0
    0.5855    2.1856    0.0000 O   0  0  0  0  0  0  0  0  0  0  0  0
    2.1857   -0.5856    0.0000 O   0  0  0  0  0  0  0  0  0  0  0  0
    0.0000   -0.0000    0.0000 C   0  0  0  0  0  0  0  0  0  0  0  0
   -1.3855    0.7999    0.0000 C   0  0  0  0  0  0  0  0  0  0  0  0
   -1.3855    2.4000    0.0000 H   0  0  0  0  0  0  0  0  0  0  0  0
   -2.7714   -0.0000    0.0000 C   0  0  0  0  0  0  0  0  0  0  0  0
   -4.1569    0.7999    0.0000 Cl  0  0  0  0  0  0  0  0  0  0  0  0
   -2.7714   -1.6000    0.0000 C   0  0  0  0  0  0  0  0  0  0  0  0
   -4.1569   -2.3999    0.0000 H   0  0  0  0  0  0  0  0  0  0  0  0
   -1.3855   -2.3999    0.0000 C   0  0  0  0  0  0  0  0  0  0  0  0
   -1.3855   -4.0000    0.0000 H   0  0  0  0  0  0  0  0  0  0  0  0
    0.0000   -1.6000    0.0000 C   0  0  0  0  0  0  0  0  0  0  0  0
    1.3856   -2.3999    0.0000 O   0  0  0  0  0  0  0  0  0  0  0  0
    1.9329   -3.9035    0.0000 C   0  0  0  0  0  0  0  0  0  0  0  0
    0.9043   -5.1291    0.0000 C   0  0  0  0  0  0  0  0  0  0  0  0
   -0.6714   -4.8514    0.0000 H   0  0  0  0  0  0  0  0  0  0  0  0
    1.4517   -6.6326    0.0000 C   0  0  0  0  0  0  0  0  0  0  0  0
    0.4233   -7.8583    0.0000 H   0  0  0  0  0  0  0  0  0  0  0  0
    3.0274   -6.9105    0.0000 C   0  0  0  0  0  0  0  0  0  0  0  0
    3.5745   -8.4140    0.0000 Cl  0  0  0  0  0  0  0  0  0  0  0  0
    4.0557   -5.6849    0.0000 C   0  0  0  0  0  0  0  0  0  0  0  0
    5.6315   -5.9627    0.0000 H   0  0  0  0  0  0  0  0  0  0  0  0
    3.5087   -4.1813    0.0000 C   0  0  0  0  0  0  0  0  0  0  0  0
    4.5370   -2.9557    0.0000 N   0  0  0  0  0  0  0  0  0  0  0  0
    3.9897   -1.4522    0.0000 H   0  0  0  0  0  0  0  0  0  0  0  0
    6.1127   -3.2336    0.0000 C   0  0  0  0  0  0  0  0  0  0  0  0
    6.6598   -4.7371    0.0000 O   0  0  0  0  0  0  0  0  0  0  0  0
    7.1411   -2.0078    0.0000 N   0  0  0  0  0  0  0  0  0  0  0  0
    6.5940   -0.5044    0.0000 H   0  0  0  0  0  0  0  0  0  0  0  0
    8.7168   -2.2856    0.0000 C   0  0  0  0  0  0  0  0  0  0  0  0
    9.2642   -3.7892    0.0000 C   0  0  0  0  0  0  0  0  0  0  0  0
    8.2355   -5.0148    0.0000 H   0  0  0  0  0  0  0  0  0  0  0  0
   10.8399   -4.0670    0.0000 C   0  0  0  0  0  0  0  0  0  0  0  0
   11.3870   -5.5706    0.0000 H   0  0  0  0  0  0  0  0  0  0  0  0
   11.8682   -2.8414    0.0000 C   0  0  0  0  0  0  0  0  0  0  0  0
   13.4439   -3.1193    0.0000 Cl  0  0  0  0  0  0  0  0  0  0  0  0
   11.3212   -1.3379    0.0000 C   0  0  0  0  0  0  0  0  0  0  0  0
   12.3495   -0.1122    0.0000 Cl  0  0  0  0  0  0  0  0  0  0  0  0
    9.7454   -1.0600    0.0000 C   0  0  0  0  0  0  0  0  0  0  0  0
    9.1981    0.4435    0.0000 H   0  0  0  0  0  0  0  0  0  0  0  0
  1  2  1  0  0  0  0
  1  3  1  0  0  0  0
  3  4  2  0  0  0  0
  3  5  2  0  0  0  0
  3  6  1  0  0  0  0
  6  7  1  0  0  0  0
  7  8  1  0  0  0  0
  7  9  2  0  0  0  0
  9 10  1  0  0  0  0
  9 11  1  0  0  0  0
 11 12  1  0  0  0  0
 11 13  2  0  0  0  0
 13 14  1  0  0  0  0
 13 15  1  0  0  0  0
 15  6  2  0  0  0  0
 15 16  1  0  0  0  0
 16 17  1  0  0  0  0
 17 18  1  0  0  0  0
 18 19  1  0  0  0  0
 18 20  2  0  0  0  0
 20 21  1  0  0  0  0
 20 22  1  0  0  0  0
 22 23  1  0  0  0  0
 22 24  2  0  0  0  0
 24 25  1  0  0  0  0
 24 26  1  0  0  0  0
 26 17  2  0  0  0  0
 26 27  1  0  0  0  0
 27 28  1  0  0  0  0
 27 29  1  0  0  0  0
 29 30  2  0  0  0  0
 29 31  1  0  0  0  0
 31 32  1  0  0  0  0
 31 33  1  0  0  0  0
 33 34  1  0  0  0  0
 34 35  1  0  0  0  0
 34 36  2  0  0  0  0
 36 37  1  0  0  0  0
 36 38  1  0  0  0  0
 38 39  1  0  0  0  0
 38 40  2  0  0  0  0
 40 41  1  0  0  0  0
 40 42  1  0  0  0  0
 42 33  2  0  0  0  0
 42 43  1  0  0  0  0
M  END
> <ChemID>
202215

> <source_casrn>
24019-05-4

> <CAS>
24019-05-4

> <SMILES>
O[S](=O)(=O)c1cc(Cl)ccc1Oc2ccc(Cl)cc2NC(=O)Nc3ccc(Cl)c(Cl)c3

> <NAME>


> <preferred_name>
Sulcofuron

> <iupac>
5-chloro-2-[4-chloro-2-[(3,4-dichlorophenyl)carbamoylamino]phenoxy]benzenesulfonic acid

> <MPID>
101611

> <dsstox_substance_id>
DTXSID9058656

> <Canonical_QSARr>
OS(=O)(=O)c1cc(Cl)ccc1Oc1ccc(Cl)cc1NC(=O)Nc1cc(Cl)c(Cl)cc1

> <InChI_Code_QSARr>
InChI=1S/C19H12Cl4N2O5S/c20-10-1-5-16(30-17-6-2-11(21)8-18(17)31(27,28)29)15(7-10)25-19(26)24-12-3-4-13(22)14(23)9-12/h1-9H,(H2,24,25,26)(H,27,28,29)

> <InChI Key_QSARr>
MKUMTCOTMQPYTQ-UHFFFAOYSA-N

> <Salt_Solvent>


> <Ready_Biodeg>
0.0

$$$$
202217
  -INDIGO-08031722522D

 13 13  0  0  0  0  0  0  0  0999 V2000
    0.8000    1.3856    0.0000 O   0  0  0  0  0  0  0  0  0  0  0  0
    2.4000    1.3856    0.0000 H   0  0  0  0  0  0  0  0  0  0  0  0
   -0.0000   -0.0000    0.0000 C   0  0  0  0  0  0  0  0  0  0  0  0
    0.8000   -1.3857    0.0000 C   0  0  0  0  0  0  0  0  0  0  0  0
    2.4000   -1.3857    0.0000 Br  0  0  0  0  0  0  0  0  0  0  0  0
   -0.0000   -2.7713    0.0000 C   0  0  0  0  0  0  0  0  0  0  0  0
    0.8000   -4.1569    0.0000 Br  0  0  0  0  0  0  0  0  0  0  0  0
   -1.6000   -2.7713    0.0000 C   0  0  0  0  0  0  0  0  0  0  0  0
   -2.4000   -4.1569    0.0000 Br  0  0  0  0  0  0  0  0  0  0  0  0
   -2.4000   -1.3856    0.0000 C   0  0  0  0  0  0  0  0  0  0  0  0
   -4.0000   -1.3856    0.0000 Br  0  0  0  0  0  0  0  0  0  0  0  0
   -1.6000   -0.0000    0.0000 C   0  0  0  0  0  0  0  0  0  0  0  0
   -2.4000    1.3856    0.0000 Br  0  0  0  0  0  0  0  0  0  0  0  0
  1  2  1  0  0  0  0
  1  3  1  0  0  0  0
  3  4  1  0  0  0  0
  4  5  1  0  0  0  0
  4  6  2  0  0  0  0
  6  7  1  0  0  0  0
  6  8  1  0  0  0  0
  8  9  1  0  0  0  0
  8 10  2  0  0  0  0
 10 11  1  0  0  0  0
 10 12  1  0  0  0  0
 12  3  2  0  0  0  0
 12 13  1  0  0  0  0
M  END
> <ChemID>
202217

> <source_casrn>
608-71-9

> <CAS>
608-71-9

> <SMILES>
Oc1c(Br)c(Br)c(Br)c(Br)c1Br

> <NAME>


> <preferred_name>
Pentabromophenol

> <iupac>
pentabromophenol

> <MPID>
101612

> <dsstox_substance_id>
DTXSID9022079

> <Canonical_QSARr>
Oc1c(Br)c(Br)c(Br)c(Br)c1Br

> <InChI_Code_QSARr>
InChI=1S/C6HBr5O/c7-1-2(8)4(10)6(12)5(11)3(1)9/h12H

> <InChI Key_QSARr>
SVHOVVJFOWGYJO-UHFFFAOYSA-N

> <Salt_Solvent>


> <Ready_Biodeg>
0.0

$$$$
202224
  -INDIGO-08031722522D

 45 47  0  0  0  0  0  0  0  0999 V2000
    2.1820   -1.9848    0.0000 O   0  0  0  0  0  0  0  0  0  0  0  0
    3.2104   -3.2103    0.0000 H   0  0  0  0  0  0  0  0  0  0  0  0
    2.7291   -0.4812    0.0000 C   0  0  0  0  0  0  0  0  0  0  0  0
    4.2326    0.0660    0.0000 C   0  0  0  0  0  0  0  0  0  0  0  0
    5.4584   -0.9625    0.0000 C   0  0  0  0  0  0  0  0  0  0  0  0
    3.9550   -1.5097    0.0000 H   0  0  0  0  0  0  0  0  0  0  0  0
    5.7363   -2.5381    0.0000 C   0  0  0  0  0  0  0  0  0  0  0  0
    4.1362   -2.5381    0.0000 H   0  0  0  0  0  0  0  0  0  0  0  0
    5.4584   -4.1139    0.0000 H   0  0  0  0  0  0  0  0  0  0  0  0
    7.2398   -3.0853    0.0000 C   0  0  0  0  0  0  0  0  0  0  0  0
    6.4396   -4.4710    0.0000 H   0  0  0  0  0  0  0  0  0  0  0  0
    8.4654   -4.1139    0.0000 H   0  0  0  0  0  0  0  0  0  0  0  0
    8.4654   -2.0569    0.0000 C   0  0  0  0  0  0  0  0  0  0  0  0
    9.2654   -3.4426    0.0000 H   0  0  0  0  0  0  0  0  0  0  0  0
    9.9689   -1.5097    0.0000 H   0  0  0  0  0  0  0  0  0  0  0  0
    8.1875   -0.4812    0.0000 C   0  0  0  0  0  0  0  0  0  0  0  0
    9.7875   -0.4812    0.0000 H   0  0  0  0  0  0  0  0  0  0  0  0
    8.4654    1.0944    0.0000 H   0  0  0  0  0  0  0  0  0  0  0  0
    6.6841    0.0660    0.0000 C   0  0  0  0  0  0  0  0  0  0  0  0
    7.4840    1.4517    0.0000 H   0  0  0  0  0  0  0  0  0  0  0  0
    5.4584    1.0944    0.0000 H   0  0  0  0  0  0  0  0  0  0  0  0
    4.5104    1.6418    0.0000 C   0  0  0  0  0  0  0  0  0  0  0  0
    6.0141    2.1890    0.0000 H   0  0  0  0  0  0  0  0  0  0  0  0
    3.2848    2.6702    0.0000 C   0  0  0  0  0  0  0  0  0  0  0  0
    3.5627    4.2458    0.0000 H   0  0  0  0  0  0  0  0  0  0  0  0
    1.7813    2.1229    0.0000 C   0  0  0  0  0  0  0  0  0  0  0  0
    0.5557    3.1514    0.0000 H   0  0  0  0  0  0  0  0  0  0  0  0
    1.5035    0.5472    0.0000 C   0  0  0  0  0  0  0  0  0  0  0  0
    0.0000    0.0000    0.0000 C   0  0  0  0  0  0  0  0  0  0  0  0
    1.2256   -1.0284    0.0000 H   0  0  0  0  0  0  0  0  0  0  0  0
   -0.8000    1.3856    0.0000 C   0  0  0  0  0  0  0  0  0  0  0  0
    0.7035    1.9329    0.0000 H   0  0  0  0  0  0  0  0  0  0  0  0
   -1.0778    2.9614    0.0000 H   0  0  0  0  0  0  0  0  0  0  0  0
   -2.4001    1.3856    0.0000 C   0  0  0  0  0  0  0  0  0  0  0  0
   -2.1222    2.9614    0.0000 H   0  0  0  0  0  0  0  0  0  0  0  0
   -3.9036    1.9329    0.0000 H   0  0  0  0  0  0  0  0  0  0  0  0
   -3.2000    0.0000    0.0000 C   0  0  0  0  0  0  0  0  0  0  0  0
   -4.4257    1.0284    0.0000 H   0  0  0  0  0  0  0  0  0  0  0  0
   -4.4257   -1.0284    0.0000 H   0  0  0  0  0  0  0  0  0  0  0  0
   -2.4001   -1.3857    0.0000 C   0  0  0  0  0  0  0  0  0  0  0  0
   -3.9036   -1.9329    0.0000 H   0  0  0  0  0  0  0  0  0  0  0  0
   -2.1222   -2.9613    0.0000 H   0  0  0  0  0  0  0  0  0  0  0  0
   -0.8000   -1.3857    0.0000 C   0  0  0  0  0  0  0  0  0  0  0  0
   -1.0778   -2.9613    0.0000 H   0  0  0  0  0  0  0  0  0  0  0  0
    0.7035   -1.9329    0.0000 H   0  0  0  0  0  0  0  0  0  0  0  0
  1  2  1  0  0  0  0
  1  3  1  0  0  0  0
  3  4  1  0  0  0  0
  4  5  1  0  0  0  0
  5  6  1  0  0  0  0
  5  7  1  0  0  0  0
  7  8  1  0  0  0  0
  7  9  1  0  0  0  0
  7 10  1  0  0  0  0
 10 11  1  0  0  0  0
 10 12  1  0  0  0  0
 10 13  1  0  0  0  0
 13 14  1  0  0  0  0
 13 15  1  0  0  0  0
 13 16  1  0  0  0  0
 16 17  1  0  0  0  0
 16 18  1  0  0  0  0
 16 19  1  0  0  0  0
 19  5  1  0  0  0  0
 19 20  1  0  0  0  0
 19 21  1  0  0  0  0
  4 22  2  0  0  0  0
 22 23  1  0  0  0  0
 22 24  1  0  0  0  0
 24 25  1  0  0  0  0
 24 26  2  0  0  0  0
 26 27  1  0  0  0  0
 26 28  1  0  0  0  0
 28  3  2  0  0  0  0
 28 29  1  0  0  0  0
 29 30  1  0  0  0  0
 29 31  1  0  0  0  0
 31 32  1  0  0  0  0
 31 33  1  0  0  0  0
 31 34  1  0  0  0  0
 34 35  1  0  0  0  0
 34 36  1  0  0  0  0
 34 37  1  0  0  0  0
 37 38  1  0  0  0  0
 37 39  1  0  0  0  0
 37 40  1  0  0  0  0
 40 41  1  0  0  0  0
 40 42  1  0  0  0  0
 40 43  1  0  0  0  0
 43 29  1  0  0  0  0
 43 44  1  0  0  0  0
 43 45  1  0  0  0  0
M  END
> <ChemID>
202224

> <source_casrn>
4821-19-6

> <CAS>
4821-19-6

> <SMILES>
Oc1c(cccc1C2CCCCC2)C3CCCCC3

> <NAME>


> <preferred_name>
2,6-Dicyclohexylphenol

> <iupac>
2,6-Dicyclohexylphenol

> <MPID>
101614

> <dsstox_substance_id>
DTXSID60197465

> <Canonical_QSARr>
Oc1c(cccc1C1CCCCC1)C1CCCCC1

> <InChI_Code_QSARr>
InChI=1S/C18H26O/c19-18-16(14-8-3-1-4-9-14)12-7-13-17(18)15-10-5-2-6-11-15/h7,12-15,19H,1-6,8-11H2

> <InChI Key_QSARr>
AUEZNTKYSSUTGZ-UHFFFAOYSA-N

> <Salt_Solvent>


> <Ready_Biodeg>
0.0

$$$$
202235
  -INDIGO-08031722522D

 26 27  0  0  0  0  0  0  0  0999 V2000
    4.1569    2.4000    0.0000 O   0  0  0  0  0  0  0  0  0  0  0  0
    4.1569    4.0000    0.0000 H   0  0  0  0  0  0  0  0  0  0  0  0
    2.7713    1.6000    0.0000 C   0  0  0  0  0  0  0  0  0  0  0  0
    1.3857    2.4000    0.0000 C   0  0  0  0  0  0  0  0  0  0  0  0
    1.3857    4.0000    0.0000 H   0  0  0  0  0  0  0  0  0  0  0  0
    0.0001    1.6000    0.0000 C   0  0  0  0  0  0  0  0  0  0  0  0
   -1.3857    2.4000    0.0000 H   0  0  0  0  0  0  0  0  0  0  0  0
    0.0001   -0.0001    0.0000 C   0  0  0  0  0  0  0  0  0  0  0  0
   -1.3857   -0.8000    0.0000 C   0  0  0  0  0  0  0  0  0  0  0  0
   -1.1077   -2.3757    0.0000 O   0  0  0  0  0  0  0  0  0  0  0  0
   -2.9613   -0.5222    0.0000 C   0  0  0  0  0  0  0  0  0  0  0  0
   -3.5086    0.9813    0.0000 C   0  0  0  0  0  0  0  0  0  0  0  0
   -2.4802    2.2071    0.0000 H   0  0  0  0  0  0  0  0  0  0  0  0
   -5.0842    1.2591    0.0000 C   0  0  0  0  0  0  0  0  0  0  0  0
   -5.6315    2.7627    0.0000 H   0  0  0  0  0  0  0  0  0  0  0  0
   -6.1126    0.0335    0.0000 C   0  0  0  0  0  0  0  0  0  0  0  0
   -7.6884    0.3113    0.0000 H   0  0  0  0  0  0  0  0  0  0  0  0
   -5.5655   -1.4700    0.0000 C   0  0  0  0  0  0  0  0  0  0  0  0
   -6.5940   -2.6957    0.0000 H   0  0  0  0  0  0  0  0  0  0  0  0
   -3.9898   -1.7479    0.0000 C   0  0  0  0  0  0  0  0  0  0  0  0
   -3.4426   -3.2513    0.0000 H   0  0  0  0  0  0  0  0  0  0  0  0
    1.3857   -0.8000    0.0000 C   0  0  0  0  0  0  0  0  0  0  0  0
    1.3857   -2.4000    0.0000 O   0  0  0  0  0  0  0  0  0  0  0  0
    2.7713   -3.2000    0.0000 H   0  0  0  0  0  0  0  0  0  0  0  0
    2.7713   -0.0001    0.0000 C   0  0  0  0  0  0  0  0  0  0  0  0
    4.1569   -0.8000    0.0000 H   0  0  0  0  0  0  0  0  0  0  0  0
  1  2  1  0  0  0  0
  1  3  1  0  0  0  0
  3  4  1  0  0  0  0
  4  5  1  0  0  0  0
  4  6  2  0  0  0  0
  6  7  1  0  0  0  0
  6  8  1  0  0  0  0
  8  9  1  0  0  0  0
  9 10  2  0  0  0  0
  9 11  1  0  0  0  0
 11 12  1  0  0  0  0
 12 13  1  0  0  0  0
 12 14  2  0  0  0  0
 14 15  1  0  0  0  0
 14 16  1  0  0  0  0
 16 17  1  0  0  0  0
 16 18  2  0  0  0  0
 18 19  1  0  0  0  0
 18 20  1  0  0  0  0
 20 11  2  0  0  0  0
 20 21  1  0  0  0  0
  8 22  2  0  0  0  0
 22 23  1  0  0  0  0
 23 24  1  0  0  0  0
 22 25  1  0  0  0  0
 25  3  2  0  0  0  0
 25 26  1  0  0  0  0
M  END
> <ChemID>
202235

> <source_casrn>
131-56-6

> <CAS>
131-56-6

> <SMILES>
Oc1ccc(c(O)c1)C(=O)c2ccccc2

> <NAME>


> <preferred_name>
2,4-Dihydroxybenzophenone

> <iupac>
(2,4-dihydroxyphenyl)(phenyl)methanone

> <MPID>
101615

> <dsstox_substance_id>
DTXSID8022406

> <Canonical_QSARr>
Oc1cc(O)c(cc1)C(=O)c1ccccc1

> <InChI_Code_QSARr>
InChI=1S/C13H10O3/c14-10-6-7-11(12(15)8-10)13(16)9-4-2-1-3-5-9/h1-8,14-15H

> <InChI Key_QSARr>
ZXDDPOHVAMWLBH-UHFFFAOYSA-N

> <Salt_Solvent>


> <Ready_Biodeg>
0.0

$$$$
202237
  -INDIGO-08031722522D

 26 27  0  0  0  0  0  0  0  0999 V2000
    7.2000    4.1569    0.0000 O   0  0  0  0  0  0  0  0  0  0  0  0
    8.8000    4.1569    0.0000 H   0  0  0  0  0  0  0  0  0  0  0  0
    6.4000    2.7713    0.0000 C   0  0  0  0  0  0  0  0  0  0  0  0
    7.2000    1.3856    0.0000 C   0  0  0  0  0  0  0  0  0  0  0  0
    8.8000    1.3856    0.0000 H   0  0  0  0  0  0  0  0  0  0  0  0
    6.4000    0.0000    0.0000 C   0  0  0  0  0  0  0  0  0  0  0  0
    7.2000   -1.3856    0.0000 H   0  0  0  0  0  0  0  0  0  0  0  0
    4.8000    0.0000    0.0000 C   0  0  0  0  0  0  0  0  0  0  0  0
    4.0000   -1.3856    0.0000 H   0  0  0  0  0  0  0  0  0  0  0  0
    4.0000    1.3856    0.0000 C   0  0  0  0  0  0  0  0  0  0  0  0
    2.4000    1.3856    0.0000 O   0  0  0  0  0  0  0  0  0  0  0  0
    1.6000    0.0000    0.0000 C   0  0  0  0  0  0  0  0  0  0  0  0
    2.4000   -1.3856    0.0000 O   0  0  0  0  0  0  0  0  0  0  0  0
    0.0000    0.0000    0.0000 C   0  0  0  0  0  0  0  0  0  0  0  0
   -0.8000   -1.3856    0.0000 C   0  0  0  0  0  0  0  0  0  0  0  0
    0.0000   -2.7713    0.0000 H   0  0  0  0  0  0  0  0  0  0  0  0
   -2.4000   -1.3856    0.0000 C   0  0  0  0  0  0  0  0  0  0  0  0
   -3.2000   -2.7713    0.0000 H   0  0  0  0  0  0  0  0  0  0  0  0
   -3.2000    0.0000    0.0000 C   0  0  0  0  0  0  0  0  0  0  0  0
   -4.8000    0.0000    0.0000 H   0  0  0  0  0  0  0  0  0  0  0  0
   -2.4000    1.3856    0.0000 C   0  0  0  0  0  0  0  0  0  0  0  0
   -3.2000    2.7713    0.0000 H   0  0  0  0  0  0  0  0  0  0  0  0
   -0.8000    1.3856    0.0000 C   0  0  0  0  0  0  0  0  0  0  0  0
    0.0000    2.7713    0.0000 H   0  0  0  0  0  0  0  0  0  0  0  0
    4.8000    2.7713    0.0000 C   0  0  0  0  0  0  0  0  0  0  0  0
    4.0000    4.1569    0.0000 H   0  0  0  0  0  0  0  0  0  0  0  0
  1  2  1  0  0  0  0
  1  3  1  0  0  0  0
  3  4  1  0  0  0  0
  4  5  1  0  0  0  0
  4  6  2  0  0  0  0
  6  7  1  0  0  0  0
  6  8  1  0  0  0  0
  8  9  1  0  0  0  0
  8 10  2  0  0  0  0
 10 11  1  0  0  0  0
 11 12  1  0  0  0  0
 12 13  2  0  0  0  0
 12 14  1  0  0  0  0
 14 15  1  0  0  0  0
 15 16  1  0  0  0  0
 15 17  2  0  0  0  0
 17 18  1  0  0  0  0
 17 19  1  0  0  0  0
 19 20  1  0  0  0  0
 19 21  2  0  0  0  0
 21 22  1  0  0  0  0
 21 23  1  0  0  0  0
 23 14  2  0  0  0  0
 23 24  1  0  0  0  0
 10 25  1  0  0  0  0
 25  3  2  0  0  0  0
 25 26  1  0  0  0  0
M  END
> <ChemID>
202237

> <source_casrn>
136-36-7

> <CAS>
136-36-7

> <SMILES>
Oc1cccc(OC(=O)c2ccccc2)c1

> <NAME>


> <preferred_name>
Resorcinol monobenzoate

> <iupac>
3-hydroxyphenyl benzoate

> <MPID>
101616

> <dsstox_substance_id>
DTXSID1038878

> <Canonical_QSARr>
Oc1cc(ccc1)OC(=O)c1ccccc1

> <InChI_Code_QSARr>
InChI=1S/C13H10O3/c14-11-7-4-8-12(9-11)16-13(15)10-5-2-1-3-6-10/h1-9,14H

> <InChI Key_QSARr>
GDESWOTWNNGOMW-UHFFFAOYSA-N

> <Salt_Solvent>


> <Ready_Biodeg>
1.0

$$$$
202243
  -INDIGO-08031722522D

 27 28  0  0  0  0  0  0  0  0999 V2000
    6.3027   -1.1113    0.0000 O   0  0  0  0  0  0  0  0  0  0  0  0
    7.3312    0.1143    0.0000 H   0  0  0  0  0  0  0  0  0  0  0  0
    4.7272   -0.8335    0.0000 C   0  0  0  0  0  0  0  0  0  0  0  0
    4.1799    0.6700    0.0000 C   0  0  0  0  0  0  0  0  0  0  0  0
    5.2083    1.8957    0.0000 H   0  0  0  0  0  0  0  0  0  0  0  0
    2.6042    0.9479    0.0000 C   0  0  0  0  0  0  0  0  0  0  0  0
    2.0570    2.4513    0.0000 H   0  0  0  0  0  0  0  0  0  0  0  0
    1.5757   -0.2778    0.0000 C   0  0  0  0  0  0  0  0  0  0  0  0
   -0.0001    0.0000    0.0000 C   0  0  0  0  0  0  0  0  0  0  0  0
   -0.8598    1.3494    0.0000 H   0  0  0  0  0  0  0  0  0  0  0  0
    0.3463    1.5621    0.0000 H   0  0  0  0  0  0  0  0  0  0  0  0
   -1.3857   -0.8000    0.0000 C   0  0  0  0  0  0  0  0  0  0  0  0
   -2.7712    0.0000    0.0000 C   0  0  0  0  0  0  0  0  0  0  0  0
   -2.7712    1.6000    0.0000 H   0  0  0  0  0  0  0  0  0  0  0  0
   -4.1568   -0.8000    0.0000 C   0  0  0  0  0  0  0  0  0  0  0  0
   -5.5426    0.0000    0.0000 H   0  0  0  0  0  0  0  0  0  0  0  0
   -4.1568   -2.4000    0.0000 C   0  0  0  0  0  0  0  0  0  0  0  0
   -5.5426   -3.2000    0.0000 O   0  0  0  0  0  0  0  0  0  0  0  0
   -6.9282   -2.4000    0.0000 H   0  0  0  0  0  0  0  0  0  0  0  0
   -2.7712   -3.2000    0.0000 C   0  0  0  0  0  0  0  0  0  0  0  0
   -2.7712   -4.8000    0.0000 H   0  0  0  0  0  0  0  0  0  0  0  0
   -1.3857   -2.4000    0.0000 C   0  0  0  0  0  0  0  0  0  0  0  0
   -0.0001   -3.2000    0.0000 H   0  0  0  0  0  0  0  0  0  0  0  0
    2.1229   -1.7813    0.0000 C   0  0  0  0  0  0  0  0  0  0  0  0
    1.0944   -3.0071    0.0000 H   0  0  0  0  0  0  0  0  0  0  0  0
    3.6986   -2.0591    0.0000 C   0  0  0  0  0  0  0  0  0  0  0  0
    4.2459   -3.5627    0.0000 H   0  0  0  0  0  0  0  0  0  0  0  0
  1  2  1  0  0  0  0
  1  3  1  0  0  0  0
  3  4  1  0  0  0  0
  4  5  1  0  0  0  0
  4  6  2  0  0  0  0
  6  7  1  0  0  0  0
  6  8  1  0  0  0  0
  8  9  1  0  0  0  0
  9 10  1  0  0  0  0
  9 11  1  0  0  0  0
  9 12  1  0  0  0  0
 12 13  1  0  0  0  0
 13 14  1  0  0  0  0
 13 15  2  0  0  0  0
 15 16  1  0  0  0  0
 15 17  1  0  0  0  0
 17 18  1  0  0  0  0
 18 19  1  0  0  0  0
 17 20  2  0  0  0  0
 20 21  1  0  0  0  0
 20 22  1  0  0  0  0
 22 12  2  0  0  0  0
 22 23  1  0  0  0  0
  8 24  2  0  0  0  0
 24 25  1  0  0  0  0
 24 26  1  0  0  0  0
 26  3  2  0  0  0  0
 26 27  1  0  0  0  0
M  END
> <ChemID>
202243

> <source_casrn>
620-92-8

> <CAS>
620-92-8

> <SMILES>
Oc1ccc(Cc2ccc(O)cc2)cc1

> <NAME>


> <preferred_name>
Bis(4-hydroxyphenyl)methane

> <iupac>
4,4'-methanediyldiphenol

> <MPID>
101618

> <dsstox_substance_id>
DTXSID9022445

> <Canonical_QSARr>
Oc1ccc(Cc2ccc(O)cc2)cc1

> <InChI_Code_QSARr>
InChI=1S/C13H12O2/c14-12-5-1-10(2-6-12)9-11-3-7-13(15)8-4-11/h1-8,14-15H,9H2

> <InChI Key_QSARr>
PXKLMJQFEQBVLD-UHFFFAOYSA-N

> <Salt_Solvent>


> <Ready_Biodeg>
0.0

$$$$
202249
  -INDIGO-08031722522D

 24 25  0  0  0  0  0  0  0  0999 V2000
    4.8000   -0.0000    0.0000 O   0  0  0  0  0  0  0  0  0  0  0  0
    5.6000   -1.3856    0.0000 H   0  0  0  0  0  0  0  0  0  0  0  0
    3.2000   -0.0000    0.0000 C   0  0  0  0  0  0  0  0  0  0  0  0
    2.4000    1.3856    0.0000 C   0  0  0  0  0  0  0  0  0  0  0  0
    3.2000    2.7713    0.0000 H   0  0  0  0  0  0  0  0  0  0  0  0
    0.7999    1.3856    0.0000 C   0  0  0  0  0  0  0  0  0  0  0  0
   -0.0001    2.7713    0.0000 H   0  0  0  0  0  0  0  0  0  0  0  0
   -0.0001   -0.0000    0.0000 C   0  0  0  0  0  0  0  0  0  0  0  0
   -1.5999    0.0000    0.0000 C   0  0  0  0  0  0  0  0  0  0  0  0
   -2.3999    1.3856    0.0000 C   0  0  0  0  0  0  0  0  0  0  0  0
   -1.5999    2.7713    0.0000 H   0  0  0  0  0  0  0  0  0  0  0  0
   -4.0000    1.3856    0.0000 C   0  0  0  0  0  0  0  0  0  0  0  0
   -4.8000    2.7713    0.0000 H   0  0  0  0  0  0  0  0  0  0  0  0
   -4.8000    0.0000    0.0000 C   0  0  0  0  0  0  0  0  0  0  0  0
   -6.4000    0.0000    0.0000 O   0  0  0  0  0  0  0  0  0  0  0  0
   -7.2000    1.3856    0.0000 H   0  0  0  0  0  0  0  0  0  0  0  0
   -4.0000   -1.3856    0.0000 C   0  0  0  0  0  0  0  0  0  0  0  0
   -4.8000   -2.7713    0.0000 H   0  0  0  0  0  0  0  0  0  0  0  0
   -2.3999   -1.3856    0.0000 C   0  0  0  0  0  0  0  0  0  0  0  0
   -1.5999   -2.7713    0.0000 H   0  0  0  0  0  0  0  0  0  0  0  0
    0.7999   -1.3856    0.0000 C   0  0  0  0  0  0  0  0  0  0  0  0
   -0.0001   -2.7713    0.0000 H   0  0  0  0  0  0  0  0  0  0  0  0
    2.4000   -1.3856    0.0000 C   0  0  0  0  0  0  0  0  0  0  0  0
    3.2000   -2.7713    0.0000 H   0  0  0  0  0  0  0  0  0  0  0  0
  1  2  1  0  0  0  0
  1  3  1  0  0  0  0
  3  4  1  0  0  0  0
  4  5  1  0  0  0  0
  4  6  2  0  0  0  0
  6  7  1  0  0  0  0
  6  8  1  0  0  0  0
  8  9  1  0  0  0  0
  9 10  1  0  0  0  0
 10 11  1  0  0  0  0
 10 12  2  0  0  0  0
 12 13  1  0  0  0  0
 12 14  1  0  0  0  0
 14 15  1  0  0  0  0
 15 16  1  0  0  0  0
 14 17  2  0  0  0  0
 17 18  1  0  0  0  0
 17 19  1  0  0  0  0
 19  9  2  0  0  0  0
 19 20  1  0  0  0  0
  8 21  2  0  0  0  0
 21 22  1  0  0  0  0
 21 23  1  0  0  0  0
 23  3  2  0  0  0  0
 23 24  1  0  0  0  0
M  END
> <ChemID>
202249

> <source_casrn>
92-88-6

> <CAS>
92-88-6

> <SMILES>
Oc1ccc(cc1)c2ccc(O)cc2

> <NAME>


> <preferred_name>
4,4'-Biphenyldiol

> <iupac>
biphenyl-4,4'-diol

> <MPID>
101619

> <dsstox_substance_id>
DTXSID1029120

> <Canonical_QSARr>
Oc1ccc(cc1)-c1ccc(O)cc1

> <InChI_Code_QSARr>
InChI=1S/C12H10O2/c13-11-5-1-9(2-6-11)10-3-7-12(14)8-4-10/h1-8,13-14H

> <InChI Key_QSARr>
VCCBEIPGXKNHFW-UHFFFAOYSA-N

> <Salt_Solvent>


> <Ready_Biodeg>
0.0

$$$$
202252
  -INDIGO-08031722522D

 40 42  0  0  0  0  0  0  0  0999 V2000
   -2.9472   -5.6605    0.0000 O   0  0  0  0  0  0  0  0  0  0  0  0
   -2.1472   -7.0461    0.0000 H   0  0  0  0  0  0  0  0  0  0  0  0
   -2.1472   -4.2749    0.0000 C   0  0  0  0  0  0  0  0  0  0  0  0
   -2.9472   -2.8891    0.0000 C   0  0  0  0  0  0  0  0  0  0  0  0
   -4.5472   -2.8891    0.0000 H   0  0  0  0  0  0  0  0  0  0  0  0
   -2.1472   -1.5035    0.0000 C   0  0  0  0  0  0  0  0  0  0  0  0
   -2.9472   -0.1179    0.0000 H   0  0  0  0  0  0  0  0  0  0  0  0
   -0.5472   -1.5035    0.0000 C   0  0  0  0  0  0  0  0  0  0  0  0
    0.0001    0.0000    0.0000 C   0  0  0  0  0  0  0  0  0  0  0  0
    0.0001    1.5999    0.0000 C   0  0  0  0  0  0  0  0  0  0  0  0
   -1.5034    1.0528    0.0000 H   0  0  0  0  0  0  0  0  0  0  0  0
   -0.5472    3.1034    0.0000 H   0  0  0  0  0  0  0  0  0  0  0  0
    1.3857    2.4000    0.0000 C   0  0  0  0  0  0  0  0  0  0  0  0
    0.3572    3.6257    0.0000 H   0  0  0  0  0  0  0  0  0  0  0  0
    2.4141    3.6257    0.0000 H   0  0  0  0  0  0  0  0  0  0  0  0
    2.7714    1.5999    0.0000 C   0  0  0  0  0  0  0  0  0  0  0  0
    3.3186    3.1034    0.0000 H   0  0  0  0  0  0  0  0  0  0  0  0
    4.3470    1.3221    0.0000 H   0  0  0  0  0  0  0  0  0  0  0  0
    2.7714    0.0000    0.0000 C   0  0  0  0  0  0  0  0  0  0  0  0
    4.3470    0.2778    0.0000 H   0  0  0  0  0  0  0  0  0  0  0  0
    3.3186   -1.5035    0.0000 H   0  0  0  0  0  0  0  0  0  0  0  0
    1.3857   -0.8000    0.0000 C   0  0  0  0  0  0  0  0  0  0  0  0
    2.4141   -2.0257    0.0000 H   0  0  0  0  0  0  0  0  0  0  0  0
    0.3572   -2.0257    0.0000 H   0  0  0  0  0  0  0  0  0  0  0  0
   -1.5757    0.2778    0.0000 C   0  0  0  0  0  0  0  0  0  0  0  0
   -2.6041   -0.9479    0.0000 C   0  0  0  0  0  0  0  0  0  0  0  0
   -2.0568   -2.4514    0.0000 H   0  0  0  0  0  0  0  0  0  0  0  0
   -4.1799   -0.6701    0.0000 C   0  0  0  0  0  0  0  0  0  0  0  0
   -5.2083   -1.8956    0.0000 H   0  0  0  0  0  0  0  0  0  0  0  0
   -4.7271    0.8334    0.0000 C   0  0  0  0  0  0  0  0  0  0  0  0
   -6.3028    1.1114    0.0000 O   0  0  0  0  0  0  0  0  0  0  0  0
   -6.8500    2.6149    0.0000 H   0  0  0  0  0  0  0  0  0  0  0  0
   -3.6986    2.0591    0.0000 C   0  0  0  0  0  0  0  0  0  0  0  0
   -4.2458    3.5627    0.0000 H   0  0  0  0  0  0  0  0  0  0  0  0
   -2.1230    1.7813    0.0000 C   0  0  0  0  0  0  0  0  0  0  0  0
   -1.3228    3.1670    0.0000 H   0  0  0  0  0  0  0  0  0  0  0  0
    0.2528   -2.8891    0.0000 C   0  0  0  0  0  0  0  0  0  0  0  0
    1.8528   -2.8891    0.0000 H   0  0  0  0  0  0  0  0  0  0  0  0
   -0.5472   -4.2749    0.0000 C   0  0  0  0  0  0  0  0  0  0  0  0
    0.2528   -5.6605    0.0000 H   0  0  0  0  0  0  0  0  0  0  0  0
  1  2  1  0  0  0  0
  1  3  1  0  0  0  0
  3  4  1  0  0  0  0
  4  5  1  0  0  0  0
  4  6  2  0  0  0  0
  6  7  1  0  0  0  0
  6  8  1  0  0  0  0
  8  9  1  0  0  0  0
  9 10  1  0  0  0  0
 10 11  1  0  0  0  0
 10 12  1  0  0  0  0
 10 13  1  0  0  0  0
 13 14  1  0  0  0  0
 13 15  1  0  0  0  0
 13 16  1  0  0  0  0
 16 17  1  0  0  0  0
 16 18  1  0  0  0  0
 16 19  1  0  0  0  0
 19 20  1  0  0  0  0
 19 21  1  0  0  0  0
 19 22  1  0  0  0  0
 22  9  1  0  0  0  0
 22 23  1  0  0  0  0
 22 24  1  0  0  0  0
  9 25  1  0  0  0  0
 25 26  1  0  0  0  0
 26 27  1  0  0  0  0
 26 28  2  0  0  0  0
 28 29  1  0  0  0  0
 28 30  1  0  0  0  0
 30 31  1  0  0  0  0
 31 32  1  0  0  0  0
 30 33  2  0  0  0  0
 33 34  1  0  0  0  0
 33 35  1  0  0  0  0
 35 25  2  0  0  0  0
 35 36  1  0  0  0  0
  8 37  2  0  0  0  0
 37 38  1  0  0  0  0
 37 39  1  0  0  0  0
 39  3  2  0  0  0  0
 39 40  1  0  0  0  0
M  END
> <ChemID>
202252

> <source_casrn>
843-55-0

> <CAS>
843-55-0

> <SMILES>
Oc1ccc(cc1)C2(CCCCC2)c3ccc(O)cc3

> <NAME>


> <preferred_name>
Bisphenol Z

> <iupac>
4,4'-cyclohexane-1,1-diyldiphenol

> <MPID>
101621

> <dsstox_substance_id>
DTXSID4047963

> <Canonical_QSARr>
Oc1ccc(cc1)C1(CCCCC1)c1ccc(O)cc1

> <InChI_Code_QSARr>
InChI=1S/C18H20O2/c19-16-8-4-14(5-9-16)18(12-2-1-3-13-18)15-6-10-17(20)11-7-15/h4-11,19-20H,1-3,12-13H2

> <InChI Key_QSARr>
SDDLEVPIDBLVHC-UHFFFAOYSA-N

> <Salt_Solvent>


> <Ready_Biodeg>
0.0

$$$$
202253
  -INDIGO-08031722522D

 27 28  0  0  0  0  0  0  0  0999 V2000
    6.4000   -0.0000    0.0000 O   0  0  0  0  0  0  0  0  0  0  0  0
    7.2000   -1.3856    0.0000 H   0  0  0  0  0  0  0  0  0  0  0  0
    4.8001   -0.0000    0.0000 C   0  0  0  0  0  0  0  0  0  0  0  0
    4.0001    1.3856    0.0000 C   0  0  0  0  0  0  0  0  0  0  0  0
    4.8001    2.7713    0.0000 H   0  0  0  0  0  0  0  0  0  0  0  0
    2.4000    1.3856    0.0000 C   0  0  0  0  0  0  0  0  0  0  0  0
    1.6000    2.7713    0.0000 H   0  0  0  0  0  0  0  0  0  0  0  0
    1.6000   -0.0000    0.0000 C   0  0  0  0  0  0  0  0  0  0  0  0
    0.0001   -0.0000    0.0000 S   0  0  0  0  0  0  0  0  0  0  0  0
    0.0001    1.6000    0.0000 O   0  0  0  0  0  0  0  0  0  0  0  0
   -0.0001   -1.6000    0.0000 O   0  0  0  0  0  0  0  0  0  0  0  0
   -1.6000    0.0000    0.0000 C   0  0  0  0  0  0  0  0  0  0  0  0
   -2.4000    1.3856    0.0000 C   0  0  0  0  0  0  0  0  0  0  0  0
   -1.6000    2.7713    0.0000 H   0  0  0  0  0  0  0  0  0  0  0  0
   -4.0001    1.3856    0.0000 C   0  0  0  0  0  0  0  0  0  0  0  0
   -4.7999    2.7713    0.0000 H   0  0  0  0  0  0  0  0  0  0  0  0
   -4.7999    0.0000    0.0000 C   0  0  0  0  0  0  0  0  0  0  0  0
   -6.4000    0.0000    0.0000 O   0  0  0  0  0  0  0  0  0  0  0  0
   -7.2000    1.3856    0.0000 H   0  0  0  0  0  0  0  0  0  0  0  0
   -4.0001   -1.3856    0.0000 C   0  0  0  0  0  0  0  0  0  0  0  0
   -4.7999   -2.7713    0.0000 H   0  0  0  0  0  0  0  0  0  0  0  0
   -2.4000   -1.3856    0.0000 C   0  0  0  0  0  0  0  0  0  0  0  0
   -1.6000   -2.7713    0.0000 H   0  0  0  0  0  0  0  0  0  0  0  0
    2.4000   -1.3856    0.0000 C   0  0  0  0  0  0  0  0  0  0  0  0
    1.6000   -2.7713    0.0000 H   0  0  0  0  0  0  0  0  0  0  0  0
    4.0001   -1.3856    0.0000 C   0  0  0  0  0  0  0  0  0  0  0  0
    4.8001   -2.7713    0.0000 H   0  0  0  0  0  0  0  0  0  0  0  0
  1  2  1  0  0  0  0
  1  3  1  0  0  0  0
  3  4  1  0  0  0  0
  4  5  1  0  0  0  0
  4  6  2  0  0  0  0
  6  7  1  0  0  0  0
  6  8  1  0  0  0  0
  8  9  1  0  0  0  0
  9 10  2  0  0  0  0
  9 11  2  0  0  0  0
  9 12  1  0  0  0  0
 12 13  1  0  0  0  0
 13 14  1  0  0  0  0
 13 15  2  0  0  0  0
 15 16  1  0  0  0  0
 15 17  1  0  0  0  0
 17 18  1  0  0  0  0
 18 19  1  0  0  0  0
 17 20  2  0  0  0  0
 20 21  1  0  0  0  0
 20 22  1  0  0  0  0
 22 12  2  0  0  0  0
 22 23  1  0  0  0  0
  8 24  2  0  0  0  0
 24 25  1  0  0  0  0
 24 26  1  0  0  0  0
 26  3  2  0  0  0  0
 26 27  1  0  0  0  0
M  END
> <ChemID>
202253

> <source_casrn>
80-09-1

> <CAS>
80-09-1

> <SMILES>
Oc1ccc(cc1)[S](=O)(=O)c2ccc(O)cc2

> <NAME>


> <preferred_name>
4,4'-Sulfonyldiphenol

> <iupac>
4,4'-sulfonyldiphenol

> <MPID>
101622

> <dsstox_substance_id>
DTXSID3022409

> <Canonical_QSARr>
Oc1ccc(cc1)S(=O)(=O)c1ccc(O)cc1

> <InChI_Code_QSARr>
InChI=1S/C12H10O4S/c13-9-1-5-11(6-2-9)17(15,16)12-7-3-10(14)4-8-12/h1-8,13-14H

> <InChI Key_QSARr>
VPWNQTHUCYMVMZ-UHFFFAOYSA-N

> <Salt_Solvent>


> <Ready_Biodeg>
0.0

$$$$
202257
  -INDIGO-08031722522D

 18 19  0  0  0  0  0  0  0  0999 V2000
    3.2001    2.7713    0.0000 O   0  0  0  0  0  0  0  0  0  0  0  0
    4.8000    2.7713    0.0000 H   0  0  0  0  0  0  0  0  0  0  0  0
    2.4000    1.3856    0.0000 C   0  0  0  0  0  0  0  0  0  0  0  0
    3.2001    0.0000    0.0000 C   0  0  0  0  0  0  0  0  0  0  0  0
    4.8000    0.0000    0.0000 H   0  0  0  0  0  0  0  0  0  0  0  0
    2.4000   -1.3856    0.0000 C   0  0  0  0  0  0  0  0  0  0  0  0
    3.2001   -2.7713    0.0000 H   0  0  0  0  0  0  0  0  0  0  0  0
    0.8000   -1.3856    0.0000 C   0  0  0  0  0  0  0  0  0  0  0  0
    0.0000   -2.7713    0.0000 H   0  0  0  0  0  0  0  0  0  0  0  0
    0.0000    0.0000    0.0000 C   0  0  0  0  0  0  0  0  0  0  0  0
   -1.6000    0.0000    0.0000 C   0  0  0  0  0  0  0  0  0  0  0  0
   -2.4001   -1.3856    0.0000 H   0  0  0  0  0  0  0  0  0  0  0  0
   -2.4001    1.3856    0.0000 C   0  0  0  0  0  0  0  0  0  0  0  0
   -4.0000    1.3856    0.0000 H   0  0  0  0  0  0  0  0  0  0  0  0
   -1.6000    2.7713    0.0000 C   0  0  0  0  0  0  0  0  0  0  0  0
   -2.4001    4.1569    0.0000 H   0  0  0  0  0  0  0  0  0  0  0  0
    0.0000    2.7713    0.0000 N   0  0  0  0  0  0  0  0  0  0  0  0
    0.8000    1.3856    0.0000 C   0  0  0  0  0  0  0  0  0  0  0  0
  1  2  1  0  0  0  0
  1  3  1  0  0  0  0
  3  4  2  0  0  0  0
  4  5  1  0  0  0  0
  4  6  1  0  0  0  0
  6  7  1  0  0  0  0
  6  8  2  0  0  0  0
  8  9  1  0  0  0  0
  8 10  1  0  0  0  0
 10 11  1  0  0  0  0
 11 12  1  0  0  0  0
 11 13  2  0  0  0  0
 13 14  1  0  0  0  0
 13 15  1  0  0  0  0
 15 16  1  0  0  0  0
 15 17  2  0  0  0  0
 17 18  1  0  0  0  0
 18  3  1  0  0  0  0
 18 10  2  0  0  0  0
M  END
> <ChemID>
202257

> <source_casrn>
148-24-3

> <CAS>
148-24-3

> <SMILES>
Oc1cccc2cccnc12

> <NAME>


> <preferred_name>
8-Hydroxyquinoline

> <iupac>
quinolin-8-ol

> <MPID>
101623

> <dsstox_substance_id>
DTXSID5020730

> <Canonical_QSARr>
Oc1cccc2ccc[n]c21

> <InChI_Code_QSARr>
InChI=1S/C9H7NO/c11-8-5-1-3-7-4-2-6-10-9(7)8/h1-6,11H

> <InChI Key_QSARr>
MCJGNVYPOGVAJF-UHFFFAOYSA-N

> <Salt_Solvent>


> <Ready_Biodeg>
0.0

$$$$
202261
  -INDIGO-08031722522D

 27 28  0  0  0  0  0  0  0  0999 V2000
    2.0570    2.4513    0.0000 O   0  0  0  0  0  0  0  0  0  0  0  0
    3.0855    3.6770    0.0000 H   0  0  0  0  0  0  0  0  0  0  0  0
    2.6041    0.9478    0.0000 C   0  0  0  0  0  0  0  0  0  0  0  0
    4.1799    0.6700    0.0000 C   0  0  0  0  0  0  0  0  0  0  0  0
    5.2083    1.8957    0.0000 H   0  0  0  0  0  0  0  0  0  0  0  0
    4.7270   -0.8335    0.0000 C   0  0  0  0  0  0  0  0  0  0  0  0
    6.3028   -1.1113    0.0000 H   0  0  0  0  0  0  0  0  0  0  0  0
    3.6986   -2.0592    0.0000 C   0  0  0  0  0  0  0  0  0  0  0  0
    4.2459   -3.5626    0.0000 H   0  0  0  0  0  0  0  0  0  0  0  0
    2.1230   -1.7813    0.0000 C   0  0  0  0  0  0  0  0  0  0  0  0
    1.0945   -3.0071    0.0000 H   0  0  0  0  0  0  0  0  0  0  0  0
    1.5757   -0.2779    0.0000 C   0  0  0  0  0  0  0  0  0  0  0  0
    0.0001   -0.0000    0.0000 C   0  0  0  0  0  0  0  0  0  0  0  0
    0.3462    1.5621    0.0000 H   0  0  0  0  0  0  0  0  0  0  0  0
   -0.8597    1.3495    0.0000 H   0  0  0  0  0  0  0  0  0  0  0  0
   -1.3857   -0.8000    0.0000 C   0  0  0  0  0  0  0  0  0  0  0  0
   -1.3857   -2.4000    0.0000 C   0  0  0  0  0  0  0  0  0  0  0  0
    0.0001   -3.2001    0.0000 H   0  0  0  0  0  0  0  0  0  0  0  0
   -2.7713   -3.2001    0.0000 C   0  0  0  0  0  0  0  0  0  0  0  0
   -2.7713   -4.8000    0.0000 H   0  0  0  0  0  0  0  0  0  0  0  0
   -4.1569   -2.4000    0.0000 C   0  0  0  0  0  0  0  0  0  0  0  0
   -5.5426   -3.2001    0.0000 H   0  0  0  0  0  0  0  0  0  0  0  0
   -4.1569   -0.8000    0.0000 C   0  0  0  0  0  0  0  0  0  0  0  0
   -5.5426   -0.0000    0.0000 H   0  0  0  0  0  0  0  0  0  0  0  0
   -2.7713   -0.0000    0.0000 C   0  0  0  0  0  0  0  0  0  0  0  0
   -2.7713    1.6000    0.0000 O   0  0  0  0  0  0  0  0  0  0  0  0
   -4.1569    2.4001    0.0000 H   0  0  0  0  0  0  0  0  0  0  0  0
  1  2  1  0  0  0  0
  1  3  1  0  0  0  0
  3  4  1  0  0  0  0
  4  5  1  0  0  0  0
  4  6  2  0  0  0  0
  6  7  1  0  0  0  0
  6  8  1  0  0  0  0
  8  9  1  0  0  0  0
  8 10  2  0  0  0  0
 10 11  1  0  0  0  0
 10 12  1  0  0  0  0
 12  3  2  0  0  0  0
 12 13  1  0  0  0  0
 13 14  1  0  0  0  0
 13 15  1  0  0  0  0
 13 16  1  0  0  0  0
 16 17  1  0  0  0  0
 17 18  1  0  0  0  0
 17 19  2  0  0  0  0
 19 20  1  0  0  0  0
 19 21  1  0  0  0  0
 21 22  1  0  0  0  0
 21 23  2  0  0  0  0
 23 24  1  0  0  0  0
 23 25  1  0  0  0  0
 25 16  2  0  0  0  0
 25 26  1  0  0  0  0
 26 27  1  0  0  0  0
M  END
> <ChemID>
202261

> <source_casrn>
1333-16-0

> <CAS>
2467-02-9

> <SMILES>
Oc1ccccc1Cc2ccccc2O

> <NAME>


> <preferred_name>


> <iupac>


> <MPID>
101624

> <dsstox_substance_id>
DTXSID4022446

> <Canonical_QSARr>
Oc1ccccc1Cc1ccccc1O

> <InChI_Code_QSARr>
InChI=1S/C13H12O2/c14-12-7-3-1-5-10(12)9-11-6-2-4-8-13(11)15/h1-8,14-15H,9H2

> <InChI Key_QSARr>
MQCPOLNSJCWPGT-UHFFFAOYSA-N

> <Salt_Solvent>


> <Ready_Biodeg>
0.0

$$$$
202265
  -INDIGO-08031722522D

 40 41  0  0  0  0  0  0  0  0999 V2000
    4.1569    4.0000    0.0000 S   0  0  0  0  0  0  0  0  0  0  0  0
    4.1569    2.4000    0.0000 C   0  0  0  0  0  0  0  0  0  0  0  0
    5.5426    1.6000    0.0000 S   0  0  0  0  0  0  0  0  0  0  0  0
    6.9282    2.4000    0.0000 S   0  0  0  0  0  0  0  0  0  0  0  0
    8.3138    1.6000    0.0000 S   0  0  0  0  0  0  0  0  0  0  0  0
    9.6995    2.4000    0.0000 S   0  0  0  0  0  0  0  0  0  0  0  0
   11.0851    1.6000    0.0000 C   0  0  0  0  0  0  0  0  0  0  0  0
   11.0851   -0.0000    0.0000 S   0  0  0  0  0  0  0  0  0  0  0  0
   12.4708    2.4000    0.0000 N   0  0  0  0  0  0  0  0  0  0  0  0
   12.4708    4.0000    0.0000 C   0  0  0  0  0  0  0  0  0  0  0  0
   10.8951    3.7221    0.0000 H   0  0  0  0  0  0  0  0  0  0  0  0
   11.9235    5.5035    0.0000 H   0  0  0  0  0  0  0  0  0  0  0  0
   13.8564    4.7999    0.0000 C   0  0  0  0  0  0  0  0  0  0  0  0
   12.8281    6.0257    0.0000 H   0  0  0  0  0  0  0  0  0  0  0  0
   14.8848    6.0257    0.0000 H   0  0  0  0  0  0  0  0  0  0  0  0
   15.2421    4.0000    0.0000 C   0  0  0  0  0  0  0  0  0  0  0  0
   15.7894    5.5035    0.0000 H   0  0  0  0  0  0  0  0  0  0  0  0
   16.8177    3.7221    0.0000 H   0  0  0  0  0  0  0  0  0  0  0  0
   15.2421    2.4000    0.0000 C   0  0  0  0  0  0  0  0  0  0  0  0
   16.8177    2.6779    0.0000 H   0  0  0  0  0  0  0  0  0  0  0  0
   15.7894    0.8964    0.0000 H   0  0  0  0  0  0  0  0  0  0  0  0
   13.8564    1.6000    0.0000 C   0  0  0  0  0  0  0  0  0  0  0  0
   14.8848    0.3743    0.0000 H   0  0  0  0  0  0  0  0  0  0  0  0
   12.8281    0.3743    0.0000 H   0  0  0  0  0  0  0  0  0  0  0  0
    2.7713    1.6000    0.0000 N   0  0  0  0  0  0  0  0  0  0  0  0
    2.7713   -0.0000    0.0000 C   0  0  0  0  0  0  0  0  0  0  0  0
    4.3469    0.2779    0.0000 H   0  0  0  0  0  0  0  0  0  0  0  0
    3.3186   -1.5035    0.0000 H   0  0  0  0  0  0  0  0  0  0  0  0
    1.3856   -0.7999    0.0000 C   0  0  0  0  0  0  0  0  0  0  0  0
    2.4140   -2.0257    0.0000 H   0  0  0  0  0  0  0  0  0  0  0  0
    0.3573   -2.0257    0.0000 H   0  0  0  0  0  0  0  0  0  0  0  0
   -0.0000   -0.0000    0.0000 C   0  0  0  0  0  0  0  0  0  0  0  0
   -0.5473   -1.5035    0.0000 H   0  0  0  0  0  0  0  0  0  0  0  0
   -1.5757    0.2779    0.0000 H   0  0  0  0  0  0  0  0  0  0  0  0
   -0.0000    1.6000    0.0000 C   0  0  0  0  0  0  0  0  0  0  0  0
   -1.5757    1.3221    0.0000 H   0  0  0  0  0  0  0  0  0  0  0  0
   -0.5473    3.1036    0.0000 H   0  0  0  0  0  0  0  0  0  0  0  0
    1.3856    2.4000    0.0000 C   0  0  0  0  0  0  0  0  0  0  0  0
    0.3573    3.6257    0.0000 H   0  0  0  0  0  0  0  0  0  0  0  0
    2.4140    3.6257    0.0000 H   0  0  0  0  0  0  0  0  0  0  0  0
  1  2  2  0  0  0  0
  2  3  1  0  0  0  0
  3  4  1  0  0  0  0
  4  5  1  0  0  0  0
  5  6  1  0  0  0  0
  6  7  1  0  0  0  0
  7  8  2  0  0  0  0
  7  9  1  0  0  0  0
  9 10  1  0  0  0  0
 10 11  1  0  0  0  0
 10 12  1  0  0  0  0
 10 13  1  0  0  0  0
 13 14  1  0  0  0  0
 13 15  1  0  0  0  0
 13 16  1  0  0  0  0
 16 17  1  0  0  0  0
 16 18  1  0  0  0  0
 16 19  1  0  0  0  0
 19 20  1  0  0  0  0
 19 21  1  0  0  0  0
 19 22  1  0  0  0  0
 22  9  1  0  0  0  0
 22 23  1  0  0  0  0
 22 24  1  0  0  0  0
  2 25  1  0  0  0  0
 25 26  1  0  0  0  0
 26 27  1  0  0  0  0
 26 28  1  0  0  0  0
 26 29  1  0  0  0  0
 29 30  1  0  0  0  0
 29 31  1  0  0  0  0
 29 32  1  0  0  0  0
 32 33  1  0  0  0  0
 32 34  1  0  0  0  0
 32 35  1  0  0  0  0
 35 36  1  0  0  0  0
 35 37  1  0  0  0  0
 35 38  1  0  0  0  0
 38 25  1  0  0  0  0
 38 39  1  0  0  0  0
 38 40  1  0  0  0  0
M  END
> <ChemID>
202265

> <source_casrn>
120-54-7

> <CAS>
120-54-7

> <SMILES>
S=C(SSSSC(=S)N1CCCCC1)N2CCCCC2

> <NAME>


> <preferred_name>
Tetrasulfane-1,4-diylbis(piperidin-1-ylmethanethione)

> <iupac>
tetrasulfane-1,4-diylbis(piperidin-1-ylmethanethione)

> <MPID>
101625

> <dsstox_substance_id>
DTXSID0044789

> <Canonical_QSARr>
S=C(SSSSC(=S)N1CCCCC1)N1CCCCC1

> <InChI_Code_QSARr>
InChI=1S/C12H20N2S6/c15-11(13-7-3-1-4-8-13)17-19-20-18-12(16)14-9-5-2-6-10-14/h1-10H2

> <InChI Key_QSARr>
VNDRMZTXEFFQDR-UHFFFAOYSA-N

> <Salt_Solvent>


> <Ready_Biodeg>
0.0

$$$$
202275
  -INDIGO-08031722522D

 15 15  0  0  0  0  0  0  0  0999 V2000
    1.3856    2.4000    0.0000 O   0  0  0  0  0  0  0  0  0  0  0  0
    1.3856    4.0000    0.0000 H   0  0  0  0  0  0  0  0  0  0  0  0
    0.0000    1.6000    0.0000 C   0  0  0  0  0  0  0  0  0  0  0  0
   -1.3856    2.4000    0.0000 C   0  0  0  0  0  0  0  0  0  0  0  0
   -1.3856    4.0000    0.0000 H   0  0  0  0  0  0  0  0  0  0  0  0
   -2.7713    1.6000    0.0000 C   0  0  0  0  0  0  0  0  0  0  0  0
   -4.1569    2.4000    0.0000 H   0  0  0  0  0  0  0  0  0  0  0  0
   -2.7713    0.0000    0.0000 C   0  0  0  0  0  0  0  0  0  0  0  0
   -4.1569   -0.8000    0.0000 Cl  0  0  0  0  0  0  0  0  0  0  0  0
   -1.3856   -0.8000    0.0000 C   0  0  0  0  0  0  0  0  0  0  0  0
   -1.3856   -2.4000    0.0000 H   0  0  0  0  0  0  0  0  0  0  0  0
    0.0000    0.0000    0.0000 C   0  0  0  0  0  0  0  0  0  0  0  0
    1.3856   -0.8000    0.0000 N   0  0  0  0  0  0  0  0  0  0  0  0
    1.3856   -2.4000    0.0000 O   0  0  0  0  0  0  0  0  0  0  0  0
    2.7713    0.0000    0.0000 O   0  0  0  0  0  0  0  0  0  0  0  0
  1  2  1  0  0  0  0
  1  3  1  0  0  0  0
  3  4  1  0  0  0  0
  4  5  1  0  0  0  0
  4  6  2  0  0  0  0
  6  7  1  0  0  0  0
  6  8  1  0  0  0  0
  8  9  1  0  0  0  0
  8 10  2  0  0  0  0
 10 11  1  0  0  0  0
 10 12  1  0  0  0  0
 12  3  2  0  0  0  0
 12 13  1  0  0  0  0
 13 14  1  0  0  0  0
 13 15  2  0  0  0  0
M  CHG  2  13   1  14  -1
M  END
> <ChemID>
202275

> <source_casrn>
89-64-5

> <CAS>
89-64-5

> <SMILES>
Oc1ccc(Cl)cc1[N+]([O-])=O

> <NAME>


> <preferred_name>
4-Chloro-2-nitrophenol

> <iupac>
4-CHLORO-2-NITROPHENOL

> <MPID>
101629

> <dsstox_substance_id>
DTXSID4058996

> <Canonical_QSARr>
[O-][N+](=O)c1cc(Cl)ccc1O

> <InChI_Code_QSARr>
InChI=1S/C6H4ClNO3/c7-4-1-2-6(9)5(3-4)8(10)11/h1-3,9H

> <InChI Key_QSARr>
NWSIFTLPLKCTSX-UHFFFAOYSA-N

> <Salt_Solvent>


> <Ready_Biodeg>
0.0

$$$$
202276
  -INDIGO-08031722522D

 19 19  0  0  0  0  0  0  0  0999 V2000
    1.3857    2.4000    0.0000 O   0  0  0  0  0  0  0  0  0  0  0  0
    1.3857    4.0000    0.0000 H   0  0  0  0  0  0  0  0  0  0  0  0
    0.0000    1.6000    0.0000 C   0  0  0  0  0  0  0  0  0  0  0  0
   -1.3857    2.4000    0.0000 C   0  0  0  0  0  0  0  0  0  0  0  0
   -1.3857    4.0000    0.0000 N   0  0  0  0  0  0  0  0  0  0  0  0
   -2.7713    4.8000    0.0000 O   0  0  0  0  0  0  0  0  0  0  0  0
    0.0000    4.8000    0.0000 O   0  0  0  0  0  0  0  0  0  0  0  0
   -2.7713    1.6000    0.0000 C   0  0  0  0  0  0  0  0  0  0  0  0
   -4.1570    2.4000    0.0000 H   0  0  0  0  0  0  0  0  0  0  0  0
   -2.7713    0.0000    0.0000 C   0  0  0  0  0  0  0  0  0  0  0  0
   -4.1569   -0.8000    0.0000 N   0  0  0  0  0  0  0  0  0  0  0  0
   -5.5426    0.0000    0.0000 O   0  0  0  0  0  0  0  0  0  0  0  0
   -4.1569   -2.4000    0.0000 O   0  0  0  0  0  0  0  0  0  0  0  0
   -1.3856   -0.8000    0.0000 C   0  0  0  0  0  0  0  0  0  0  0  0
   -1.3856   -2.4000    0.0000 H   0  0  0  0  0  0  0  0  0  0  0  0
    0.0000    0.0000    0.0000 C   0  0  0  0  0  0  0  0  0  0  0  0
    1.3857   -0.8000    0.0000 N   0  0  0  0  0  0  0  0  0  0  0  0
    1.3857   -2.4000    0.0000 O   0  0  0  0  0  0  0  0  0  0  0  0
    2.7713    0.0000    0.0000 O   0  0  0  0  0  0  0  0  0  0  0  0
  1  2  1  0  0  0  0
  1  3  1  0  0  0  0
  3  4  1  0  0  0  0
  4  5  1  0  0  0  0
  5  6  1  0  0  0  0
  5  7  2  0  0  0  0
  4  8  2  0  0  0  0
  8  9  1  0  0  0  0
  8 10  1  0  0  0  0
 10 11  1  0  0  0  0
 11 12  1  0  0  0  0
 11 13  2  0  0  0  0
 10 14  2  0  0  0  0
 14 15  1  0  0  0  0
 14 16  1  0  0  0  0
 16  3  2  0  0  0  0
 16 17  1  0  0  0  0
 17 18  1  0  0  0  0
 17 19  2  0  0  0  0
M  CHG  6   5   1   6  -1  11   1  12  -1  17   1  18  -1
M  END
> <ChemID>
202276

> <source_casrn>
88-89-1

> <CAS>
88-89-1

> <SMILES>
Oc1c(cc(cc1[N+]([O-])=O)[N+]([O-])=O)[N+]([O-])=O

> <NAME>


> <preferred_name>
Picric acid

> <iupac>
2,4,6-trinitrophenol

> <MPID>
101630

> <dsstox_substance_id>
DTXSID4025909

> <Canonical_QSARr>
[O-][N+](=O)c1cc(c(O)c(c1)[N+]([O-])=O)[N+]([O-])=O

> <InChI_Code_QSARr>
InChI=1S/C6H3N3O7/c10-6-4(8(13)14)1-3(7(11)12)2-5(6)9(15)16/h1-2,10H

> <InChI Key_QSARr>
OXNIZHLAWKMVMX-UHFFFAOYSA-N

> <Salt_Solvent>


> <Ready_Biodeg>
0.0

$$$$
202284
  -INDIGO-08031722522D

 14 14  0  0  0  0  0  0  0  0999 V2000
    2.4000   -1.3856    0.0000 O   0  0  0  0  0  0  0  0  0  0  0  0
    1.6000   -0.0000    0.0000 N   0  0  0  0  0  0  0  0  0  0  0  0
    2.4000    1.3856    0.0000 O   0  0  0  0  0  0  0  0  0  0  0  0
    0.0000   -0.0000    0.0000 C   0  0  0  0  0  0  0  0  0  0  0  0
   -0.8000    1.3856    0.0000 C   0  0  0  0  0  0  0  0  0  0  0  0
    0.0000    2.7713    0.0000 H   0  0  0  0  0  0  0  0  0  0  0  0
   -2.4000    1.3856    0.0000 C   0  0  0  0  0  0  0  0  0  0  0  0
   -3.2000    2.7713    0.0000 H   0  0  0  0  0  0  0  0  0  0  0  0
   -3.2000   -0.0000    0.0000 C   0  0  0  0  0  0  0  0  0  0  0  0
   -4.8000   -0.0000    0.0000 Cl  0  0  0  0  0  0  0  0  0  0  0  0
   -2.4000   -1.3856    0.0000 C   0  0  0  0  0  0  0  0  0  0  0  0
   -3.2000   -2.7713    0.0000 H   0  0  0  0  0  0  0  0  0  0  0  0
   -0.8000   -1.3856    0.0000 C   0  0  0  0  0  0  0  0  0  0  0  0
    0.0000   -2.7713    0.0000 Cl  0  0  0  0  0  0  0  0  0  0  0  0
  1  2  1  0  0  0  0
  2  3  2  0  0  0  0
  2  4  1  0  0  0  0
  4  5  1  0  0  0  0
  5  6  1  0  0  0  0
  5  7  2  0  0  0  0
  7  8  1  0  0  0  0
  7  9  1  0  0  0  0
  9 10  1  0  0  0  0
  9 11  2  0  0  0  0
 11 12  1  0  0  0  0
 11 13  1  0  0  0  0
 13  4  2  0  0  0  0
 13 14  1  0  0  0  0
M  CHG  2   1  -1   2   1
M  END
> <ChemID>
202284

> <source_casrn>
611-06-3

> <CAS>
611-06-3

> <SMILES>
[O-][N+](=O)c1ccc(Cl)cc1Cl

> <NAME>


> <preferred_name>
2,4-Dichloronitrobenzene

> <iupac>
2,4-dichloro-1-nitrobenzene

> <MPID>
101632

> <dsstox_substance_id>
DTXSID3024998

> <Canonical_QSARr>
[O-][N+](=O)c1ccc(Cl)cc1Cl

> <InChI_Code_QSARr>
InChI=1S/C6H3Cl2NO2/c7-4-1-2-6(9(10)11)5(8)3-4/h1-3H

> <InChI Key_QSARr>
QUIMTLZDMCNYGY-UHFFFAOYSA-N

> <Salt_Solvent>


> <Ready_Biodeg>
0.0

$$$$
202292
  -INDIGO-08031722522D

 22 23  0  0  0  0  0  0  0  0999 V2000
    1.6000    2.7713    0.0000 O   0  0  0  0  0  0  0  0  0  0  0  0
    2.4001    1.3856    0.0000 N   0  0  0  0  0  0  0  0  0  0  0  0
    4.0000    1.3856    0.0000 O   0  0  0  0  0  0  0  0  0  0  0  0
    1.6000    0.0000    0.0000 C   0  0  0  0  0  0  0  0  0  0  0  0
    2.4001   -1.3856    0.0000 C   0  0  0  0  0  0  0  0  0  0  0  0
    4.0000   -1.3856    0.0000 H   0  0  0  0  0  0  0  0  0  0  0  0
    1.6000   -2.7713    0.0000 C   0  0  0  0  0  0  0  0  0  0  0  0
    2.4001   -4.1569    0.0000 H   0  0  0  0  0  0  0  0  0  0  0  0
   -0.0000   -2.7713    0.0000 C   0  0  0  0  0  0  0  0  0  0  0  0
   -0.8000   -4.1569    0.0000 H   0  0  0  0  0  0  0  0  0  0  0  0
   -0.8000   -1.3856    0.0000 C   0  0  0  0  0  0  0  0  0  0  0  0
   -0.0000    0.0000    0.0000 C   0  0  0  0  0  0  0  0  0  0  0  0
   -0.8000    1.3856    0.0000 C   0  0  0  0  0  0  0  0  0  0  0  0
   -0.0000    2.7713    0.0000 H   0  0  0  0  0  0  0  0  0  0  0  0
   -2.4000    1.3856    0.0000 C   0  0  0  0  0  0  0  0  0  0  0  0
   -3.2001    2.7713    0.0000 H   0  0  0  0  0  0  0  0  0  0  0  0
   -3.2001    0.0000    0.0000 C   0  0  0  0  0  0  0  0  0  0  0  0
   -4.8000    0.0000    0.0000 H   0  0  0  0  0  0  0  0  0  0  0  0
   -2.4000   -1.3856    0.0000 C   0  0  0  0  0  0  0  0  0  0  0  0
   -3.2001   -2.7713    0.0000 N   0  0  0  0  0  0  0  0  0  0  0  0
   -4.8000   -2.7713    0.0000 O   0  0  0  0  0  0  0  0  0  0  0  0
   -2.4000   -4.1569    0.0000 O   0  0  0  0  0  0  0  0  0  0  0  0
  1  2  1  0  0  0  0
  2  3  2  0  0  0  0
  2  4  1  0  0  0  0
  4  5  1  0  0  0  0
  5  6  1  0  0  0  0
  5  7  2  0  0  0  0
  7  8  1  0  0  0  0
  7  9  1  0  0  0  0
  9 10  1  0  0  0  0
  9 11  2  0  0  0  0
 11 12  1  0  0  0  0
 12  4  2  0  0  0  0
 12 13  1  0  0  0  0
 13 14  1  0  0  0  0
 13 15  2  0  0  0  0
 15 16  1  0  0  0  0
 15 17  1  0  0  0  0
 17 18  1  0  0  0  0
 17 19  2  0  0  0  0
 19 11  1  0  0  0  0
 19 20  1  0  0  0  0
 20 21  1  0  0  0  0
 20 22  2  0  0  0  0
M  CHG  4   1  -1   2   1  20   1  21  -1
M  END
> <ChemID>
202292

> <source_casrn>
605-71-0

> <CAS>
605-71-0

> <SMILES>
[O-][N+](=O)c1cccc2c1cccc2[N+]([O-])=O

> <NAME>


> <preferred_name>
1,5-Dinitronaphthalene

> <iupac>
1,5-dinitronaphthalene

> <MPID>
101634

> <dsstox_substance_id>
DTXSID4025165

> <Canonical_QSARr>
[O-][N+](=O)c1cccc2c(cccc21)[N+]([O-])=O

> <InChI_Code_QSARr>
InChI=1S/C10H6N2O4/c13-11(14)9-5-1-3-7-8(9)4-2-6-10(7)12(15)16/h1-6H

> <InChI Key_QSARr>
ZUTCJXFCHHDFJS-UHFFFAOYSA-N

> <Salt_Solvent>


> <Ready_Biodeg>
0.0

$$$$
202300
  -INDIGO-08031722522D

 26 28  0  0  0  0  0  0  0  0999 V2000
   -0.9404   -1.2944    0.0000 N   0  0  0  0  0  0  0  0  0  0  0  0
   -0.4460   -2.8161    0.0000 H   0  0  0  0  0  0  0  0  0  0  0  0
   -2.4621   -0.8000    0.0000 C   0  0  0  0  0  0  0  0  0  0  0  0
   -3.8478   -1.6000    0.0000 C   0  0  0  0  0  0  0  0  0  0  0  0
   -3.8478   -3.2000    0.0000 H   0  0  0  0  0  0  0  0  0  0  0  0
   -5.2334   -0.8000    0.0000 C   0  0  0  0  0  0  0  0  0  0  0  0
   -6.6191   -1.6000    0.0000 H   0  0  0  0  0  0  0  0  0  0  0  0
   -5.2334    0.8000    0.0000 C   0  0  0  0  0  0  0  0  0  0  0  0
   -6.6191    1.6000    0.0000 H   0  0  0  0  0  0  0  0  0  0  0  0
   -3.8478    1.6000    0.0000 C   0  0  0  0  0  0  0  0  0  0  0  0
   -3.8478    3.2000    0.0000 H   0  0  0  0  0  0  0  0  0  0  0  0
   -2.4621    0.8000    0.0000 C   0  0  0  0  0  0  0  0  0  0  0  0
   -0.9404    1.2944    0.0000 C   0  0  0  0  0  0  0  0  0  0  0  0
   -0.4460    2.8161    0.0000 H   0  0  0  0  0  0  0  0  0  0  0  0
    0.0000    0.0000    0.0000 C   0  0  0  0  0  0  0  0  0  0  0  0
    1.6000    0.0000    0.0000 C   0  0  0  0  0  0  0  0  0  0  0  0
    2.4000   -1.3856    0.0000 C   0  0  0  0  0  0  0  0  0  0  0  0
    1.6000   -2.7713    0.0000 H   0  0  0  0  0  0  0  0  0  0  0  0
    4.0000   -1.3856    0.0000 C   0  0  0  0  0  0  0  0  0  0  0  0
    4.8000   -2.7713    0.0000 H   0  0  0  0  0  0  0  0  0  0  0  0
    4.8000    0.0000    0.0000 C   0  0  0  0  0  0  0  0  0  0  0  0
    6.4000    0.0000    0.0000 H   0  0  0  0  0  0  0  0  0  0  0  0
    4.0000    1.3856    0.0000 C   0  0  0  0  0  0  0  0  0  0  0  0
    4.8000    2.7713    0.0000 H   0  0  0  0  0  0  0  0  0  0  0  0
    2.4000    1.3856    0.0000 C   0  0  0  0  0  0  0  0  0  0  0  0
    1.6000    2.7713    0.0000 H   0  0  0  0  0  0  0  0  0  0  0  0
  1  2  1  0  0  0  0
  1  3  1  0  0  0  0
  3  4  1  0  0  0  0
  4  5  1  0  0  0  0
  4  6  2  0  0  0  0
  6  7  1  0  0  0  0
  6  8  1  0  0  0  0
  8  9  1  0  0  0  0
  8 10  2  0  0  0  0
 10 11  1  0  0  0  0
 10 12  1  0  0  0  0
 12  3  2  0  0  0  0
 12 13  1  0  0  0  0
 13 14  1  0  0  0  0
 13 15  2  0  0  0  0
 15  1  1  0  0  0  0
 15 16  1  0  0  0  0
 16 17  1  0  0  0  0
 17 18  1  0  0  0  0
 17 19  2  0  0  0  0
 19 20  1  0  0  0  0
 19 21  1  0  0  0  0
 21 22  1  0  0  0  0
 21 23  2  0  0  0  0
 23 24  1  0  0  0  0
 23 25  1  0  0  0  0
 25 16  2  0  0  0  0
 25 26  1  0  0  0  0
M  END
> <ChemID>
202300

> <source_casrn>
948-65-2

> <CAS>
948-65-2

> <SMILES>
[nH]1c2ccccc2cc1c3ccccc3

> <NAME>


> <preferred_name>
1H-Indole, 2-phenyl-

> <iupac>
2-Phenyl-1H-indole

> <MPID>
101636

> <dsstox_substance_id>
DTXSID8061343

> <Canonical_QSARr>
c1c([nH]c2ccccc21)-c1ccccc1

> <InChI_Code_QSARr>
InChI=1S/C14H11N/c1-2-6-11(7-3-1)14-10-12-8-4-5-9-13(12)15-14/h1-10,15H

> <InChI Key_QSARr>
KLLLJCACIRKBDT-UHFFFAOYSA-N

> <Salt_Solvent>


> <Ready_Biodeg>
0.0

$$$$
